MODEL 1
REMARK VINA RESULT:    -5.515      0.000      0.000
REMARK INTER + INTRA:          -6.457
REMARK INTER:                  -6.321
REMARK INTRA:                  -0.137
REMARK UNBOUND:                -0.137
REMARK SMILES O=C([O-])C=Cc1ccc(O)cc1
REMARK SMILES IDX 6 1 7 2 12 3 8 4 11 5 9 6 5 7 4 8 2 9 1 10 3 11 10 12
REMARK H PARENT 10 13
REMARK Flexibility Score: inf
ROOT
ATOM      1  C   UNL     1     -33.005  14.251  53.641  1.00  0.00    -0.025 A 
ATOM      2  C   UNL     1     -34.228  14.921  53.460  1.00  0.00     0.012 A 
ATOM      3  C   UNL     1     -31.949  14.515  52.745  1.00  0.00     0.012 A 
ATOM      4  C   UNL     1     -34.387  15.850  52.428  1.00  0.00     0.047 A 
ATOM      5  C   UNL     1     -32.111  15.444  51.712  1.00  0.00     0.047 A 
ATOM      6  C   UNL     1     -33.327  16.115  51.552  1.00  0.00     0.115 A 
ENDROOT
BRANCH   1   7
ATOM      7  C   UNL     1     -32.890  13.268  54.745  1.00  0.00     0.010 C 
ATOM      8  C   UNL     1     -33.396  12.028  54.695  1.00  0.00     0.025 C 
BRANCH   8   9
ATOM      9  C   UNL     1     -33.247  11.081  55.812  1.00  0.00     0.064 C 
ATOM     10  O   UNL     1     -32.094  10.767  56.208  1.00  0.00    -0.545 OA
ATOM     11  O   UNL     1     -34.358  10.526  56.436  1.00  0.00    -0.545 OA
ENDBRANCH   8   9
ENDBRANCH   1   7
BRANCH   6  12
ATOM     12  O   UNL     1     -33.473  17.039  50.520  1.00  0.00    -0.508 OA
ATOM     13  H   UNL     1     -33.173  16.829  49.575  1.00  0.00     0.293 HD
ENDBRANCH   6  12
TORSDOF 3
ENDMDL
MODEL 2
REMARK VINA RESULT:    -5.485      0.635      1.772
REMARK INTER + INTRA:          -6.423
REMARK INTER:                  -6.289
REMARK INTRA:                  -0.135
REMARK UNBOUND:                -0.137
REMARK SMILES O=C([O-])C=Cc1ccc(O)cc1
REMARK SMILES IDX 6 1 7 2 12 3 8 4 11 5 9 6 5 7 4 8 2 9 1 10 3 11 10 12
REMARK H PARENT 10 13
REMARK Flexibility Score: inf
ROOT
ATOM      1  C   UNL     1     -33.088  14.664  53.323  1.00  0.00    -0.025 A 
ATOM      2  C   UNL     1     -32.066  14.932  52.395  1.00  0.00     0.012 A 
ATOM      3  C   UNL     1     -34.341  15.288  53.152  1.00  0.00     0.012 A 
ATOM      4  C   UNL     1     -32.296  15.781  51.308  1.00  0.00     0.047 A 
ATOM      5  C   UNL     1     -34.566  16.138  52.065  1.00  0.00     0.047 A 
ATOM      6  C   UNL     1     -33.548  16.384  51.140  1.00  0.00     0.115 A 
ENDROOT
BRANCH   1   7
ATOM      7  C   UNL     1     -32.792  13.764  54.464  1.00  0.00     0.010 C 
ATOM      8  C   UNL     1     -33.337  12.548  54.616  1.00  0.00     0.025 C 
BRANCH   8   9
ATOM      9  C   UNL     1     -33.005  11.685  55.760  1.00  0.00     0.064 C 
ATOM     10  O   UNL     1     -33.812  10.786  56.113  1.00  0.00    -0.545 OA
ATOM     11  O   UNL     1     -31.814  11.846  56.459  1.00  0.00    -0.545 OA
ENDBRANCH   8   9
ENDBRANCH   1   7
BRANCH   6  12
ATOM     12  O   UNL     1     -33.789  17.232  50.060  1.00  0.00    -0.508 OA
ATOM     13  H   UNL     1     -34.607  17.121  49.473  1.00  0.00     0.293 HD
ENDBRANCH   6  12
TORSDOF 3
ENDMDL
MODEL 3
REMARK VINA RESULT:    -5.377      1.685      2.670
REMARK INTER + INTRA:          -6.299
REMARK INTER:                  -6.154
REMARK INTRA:                  -0.145
REMARK UNBOUND:                -0.137
REMARK SMILES O=C([O-])C=Cc1ccc(O)cc1
REMARK SMILES IDX 6 1 7 2 12 3 8 4 11 5 9 6 5 7 4 8 2 9 1 10 3 11 10 12
REMARK H PARENT 10 13
REMARK Flexibility Score: inf
ROOT
ATOM      1  C   UNL     1     -34.282  15.270  52.383  1.00  0.00    -0.025 A 
ATOM      2  C   UNL     1     -33.293  15.887  51.597  1.00  0.00     0.012 A 
ATOM      3  C   UNL     1     -35.628  15.359  51.974  1.00  0.00     0.012 A 
ATOM      4  C   UNL     1     -33.635  16.555  50.417  1.00  0.00     0.047 A 
ATOM      5  C   UNL     1     -35.966  16.030  50.793  1.00  0.00     0.047 A 
ATOM      6  C   UNL     1     -34.973  16.626  50.012  1.00  0.00     0.115 A 
ENDROOT
BRANCH   1   7
ATOM      7  C   UNL     1     -33.870  14.581  53.630  1.00  0.00     0.010 C 
ATOM      8  C   UNL     1     -32.744  13.865  53.750  1.00  0.00     0.025 C 
BRANCH   8   9
ATOM      9  C   UNL     1     -32.370  13.208  55.012  1.00  0.00     0.064 C 
ATOM     10  O   UNL     1     -31.319  13.562  55.608  1.00  0.00    -0.545 OA
ATOM     11  O   UNL     1     -33.157  12.200  55.557  1.00  0.00    -0.545 OA
ENDBRANCH   8   9
ENDBRANCH   1   7
BRANCH   6  12
ATOM     12  O   UNL     1     -35.326  17.289  48.838  1.00  0.00    -0.508 OA
ATOM     13  H   UNL     1     -36.245  17.697  48.717  1.00  0.00     0.293 HD
ENDBRANCH   6  12
TORSDOF 3
ENDMDL
MODEL 4
REMARK VINA RESULT:    -5.327      3.945      4.882
REMARK INTER + INTRA:          -6.242
REMARK INTER:                  -6.090
REMARK INTRA:                  -0.152
REMARK UNBOUND:                -0.137
REMARK SMILES O=C([O-])C=Cc1ccc(O)cc1
REMARK SMILES IDX 6 1 7 2 12 3 8 4 11 5 9 6 5 7 4 8 2 9 1 10 3 11 10 12
REMARK H PARENT 10 13
REMARK Flexibility Score: inf
ROOT
ATOM      1  C   UNL     1     -33.457  15.747  51.592  1.00  0.00    -0.025 A 
ATOM      2  C   UNL     1     -33.563  16.436  50.371  1.00  0.00     0.012 A 
ATOM      3  C   UNL     1     -34.636  15.306  52.227  1.00  0.00     0.012 A 
ATOM      4  C   UNL     1     -34.812  16.656  49.783  1.00  0.00     0.047 A 
ATOM      5  C   UNL     1     -35.884  15.529  51.637  1.00  0.00     0.047 A 
ATOM      6  C   UNL     1     -35.976  16.201  50.415  1.00  0.00     0.115 A 
ENDROOT
BRANCH   1   7
ATOM      7  C   UNL     1     -32.110  15.547  52.179  1.00  0.00     0.010 C 
ATOM      8  C   UNL     1     -30.990  16.090  51.681  1.00  0.00     0.025 C 
BRANCH   8   9
ATOM      9  C   UNL     1     -29.676  15.872  52.304  1.00  0.00     0.064 C 
ATOM     10  O   UNL     1     -29.194  14.710  52.345  1.00  0.00    -0.545 OA
ATOM     11  O   UNL     1     -28.957  16.928  52.852  1.00  0.00    -0.545 OA
ENDBRANCH   8   9
ENDBRANCH   1   7
BRANCH   6  12
ATOM     12  O   UNL     1     -37.227  16.415  49.839  1.00  0.00    -0.508 OA
ATOM     13  H   UNL     1     -37.783  17.230  50.069  1.00  0.00     0.293 HD
ENDBRANCH   6  12
TORSDOF 3
ENDMDL
MODEL 5
REMARK VINA RESULT:    -5.194      1.293      1.556
REMARK INTER + INTRA:          -6.090
REMARK INTER:                  -5.951
REMARK INTRA:                  -0.139
REMARK UNBOUND:                -0.137
REMARK SMILES O=C([O-])C=Cc1ccc(O)cc1
REMARK SMILES IDX 6 1 7 2 12 3 8 4 11 5 9 6 5 7 4 8 2 9 1 10 3 11 10 12
REMARK H PARENT 10 13
REMARK Flexibility Score: inf
ROOT
ATOM      1  C   UNL     1     -32.418  14.008  53.589  1.00  0.00    -0.025 A 
ATOM      2  C   UNL     1     -33.161  14.935  52.837  1.00  0.00     0.012 A 
ATOM      3  C   UNL     1     -31.015  13.993  53.455  1.00  0.00     0.012 A 
ATOM      4  C   UNL     1     -32.519  15.844  51.991  1.00  0.00     0.047 A 
ATOM      5  C   UNL     1     -30.376  14.903  52.606  1.00  0.00     0.047 A 
ATOM      6  C   UNL     1     -31.123  15.831  51.875  1.00  0.00     0.115 A 
ENDROOT
BRANCH   1   7
ATOM      7  C   UNL     1     -33.147  13.058  54.465  1.00  0.00     0.010 C 
ATOM      8  C   UNL     1     -32.790  11.778  54.636  1.00  0.00     0.025 C 
BRANCH   8   9
ATOM      9  C   UNL     1     -33.537  10.875  55.526  1.00  0.00     0.064 C 
ATOM     10  O   UNL     1     -32.933   9.932  56.102  1.00  0.00    -0.545 OA
ATOM     11  O   UNL     1     -34.901  11.043  55.739  1.00  0.00    -0.545 OA
ENDBRANCH   8   9
ENDBRANCH   1   7
BRANCH   6  12
ATOM     12  O   UNL     1     -30.472  16.732  51.035  1.00  0.00    -0.508 OA
ATOM     13  H   UNL     1     -29.585  17.149  51.293  1.00  0.00     0.293 HD
ENDBRANCH   6  12
TORSDOF 3
ENDMDL
MODEL 6
REMARK VINA RESULT:    -5.177      6.914      7.861
REMARK INTER + INTRA:          -6.070
REMARK INTER:                  -5.933
REMARK INTRA:                  -0.137
REMARK UNBOUND:                -0.137
REMARK SMILES O=C([O-])C=Cc1ccc(O)cc1
REMARK SMILES IDX 6 1 7 2 12 3 8 4 11 5 9 6 5 7 4 8 2 9 1 10 3 11 10 12
REMARK H PARENT 10 13
REMARK Flexibility Score: inf
ROOT
ATOM      1  C   UNL     1     -26.149  14.677  54.141  1.00  0.00    -0.025 A 
ATOM      2  C   UNL     1     -26.281  15.844  54.914  1.00  0.00     0.012 A 
ATOM      3  C   UNL     1     -26.725  14.646  52.855  1.00  0.00     0.012 A 
ATOM      4  C   UNL     1     -26.949  16.962  54.408  1.00  0.00     0.047 A 
ATOM      5  C   UNL     1     -27.395  15.767  52.352  1.00  0.00     0.047 A 
ATOM      6  C   UNL     1     -27.506  16.926  53.123  1.00  0.00     0.115 A 
ENDROOT
BRANCH   1   7
ATOM      7  C   UNL     1     -25.438  13.514  54.726  1.00  0.00     0.010 C 
ATOM      8  C   UNL     1     -24.279  13.034  54.256  1.00  0.00     0.025 C 
BRANCH   8   9
ATOM      9  C   UNL     1     -23.604  11.883  54.877  1.00  0.00     0.064 C 
ATOM     10  O   UNL     1     -24.248  11.136  55.660  1.00  0.00    -0.545 OA
ATOM     11  O   UNL     1     -22.267  11.608  54.616  1.00  0.00    -0.545 OA
ENDBRANCH   8   9
ENDBRANCH   1   7
BRANCH   6  12
ATOM     12  O   UNL     1     -28.175  18.035  52.608  1.00  0.00    -0.508 OA
ATOM     13  H   UNL     1     -28.257  18.896  53.135  1.00  0.00     0.293 HD
ENDBRANCH   6  12
TORSDOF 3
ENDMDL
MODEL 7
REMARK VINA RESULT:    -5.142      2.396      5.629
REMARK INTER + INTRA:          -6.030
REMARK INTER:                  -5.896
REMARK INTRA:                  -0.134
REMARK UNBOUND:                -0.137
REMARK SMILES O=C([O-])C=Cc1ccc(O)cc1
REMARK SMILES IDX 6 1 7 2 12 3 8 4 11 5 9 6 5 7 4 8 2 9 1 10 3 11 10 12
REMARK H PARENT 10 13
REMARK Flexibility Score: inf
ROOT
ATOM      1  C   UNL     1     -32.877  15.398  52.402  1.00  0.00    -0.025 A 
ATOM      2  C   UNL     1     -33.272  14.568  53.465  1.00  0.00     0.012 A 
ATOM      3  C   UNL     1     -31.510  15.467  52.065  1.00  0.00     0.012 A 
ATOM      4  C   UNL     1     -32.330  13.803  54.160  1.00  0.00     0.047 A 
ATOM      5  C   UNL     1     -30.570  14.702  52.764  1.00  0.00     0.047 A 
ATOM      6  C   UNL     1     -30.976  13.868  53.809  1.00  0.00     0.115 A 
ENDROOT
BRANCH   1   7
ATOM      7  C   UNL     1     -33.913  16.196  51.701  1.00  0.00     0.010 C 
ATOM      8  C   UNL     1     -34.706  15.707  50.738  1.00  0.00     0.025 C 
BRANCH   8   9
ATOM      9  C   UNL     1     -35.729  16.534  50.078  1.00  0.00     0.064 C 
ATOM     10  O   UNL     1     -35.418  17.215  49.066  1.00  0.00    -0.545 OA
ATOM     11  O   UNL     1     -37.034  16.579  50.556  1.00  0.00    -0.545 OA
ENDBRANCH   8   9
ENDBRANCH   1   7
BRANCH   6  12
ATOM     12  O   UNL     1     -30.028  13.111  54.494  1.00  0.00    -0.508 OA
ATOM     13  H   UNL     1     -29.391  13.535  55.158  1.00  0.00     0.293 HD
ENDBRANCH   6  12
TORSDOF 3
ENDMDL
MODEL 8
REMARK VINA RESULT:    -5.106      9.023     11.503
REMARK INTER + INTRA:          -5.989
REMARK INTER:                  -5.838
REMARK INTRA:                  -0.151
REMARK UNBOUND:                -0.137
REMARK SMILES O=C([O-])C=Cc1ccc(O)cc1
REMARK SMILES IDX 6 1 7 2 12 3 8 4 11 5 9 6 5 7 4 8 2 9 1 10 3 11 10 12
REMARK H PARENT 10 13
REMARK Flexibility Score: inf
ROOT
ATOM      1  C   UNL     1     -28.253   6.659  58.486  1.00  0.00    -0.025 A 
ATOM      2  C   UNL     1     -27.864   6.282  59.783  1.00  0.00     0.012 A 
ATOM      3  C   UNL     1     -28.956   5.731  57.691  1.00  0.00     0.012 A 
ATOM      4  C   UNL     1     -28.191   5.020  60.286  1.00  0.00     0.047 A 
ATOM      5  C   UNL     1     -29.280   4.468  58.198  1.00  0.00     0.047 A 
ATOM      6  C   UNL     1     -28.902   4.110  59.495  1.00  0.00     0.115 A 
ENDROOT
BRANCH   1   7
ATOM      7  C   UNL     1     -27.874   8.006  57.994  1.00  0.00     0.010 C 
ATOM      8  C   UNL     1     -26.765   8.655  58.376  1.00  0.00     0.025 C 
BRANCH   8   9
ATOM      9  C   UNL     1     -26.425   9.987  57.852  1.00  0.00     0.064 C 
ATOM     10  O   UNL     1     -27.152  10.510  56.967  1.00  0.00    -0.545 OA
ATOM     11  O   UNL     1     -25.310  10.677  58.315  1.00  0.00    -0.545 OA
ENDBRANCH   8   9
ENDBRANCH   1   7
BRANCH   6  12
ATOM     12  O   UNL     1     -29.234   2.849  59.986  1.00  0.00    -0.508 OA
ATOM     13  H   UNL     1     -28.573   2.081  59.961  1.00  0.00     0.293 HD
ENDBRANCH   6  12
TORSDOF 3
ENDMDL
MODEL 9
REMARK VINA RESULT:    -5.072      7.832      9.869
REMARK INTER + INTRA:          -5.950
REMARK INTER:                  -5.813
REMARK INTRA:                  -0.137
REMARK UNBOUND:                -0.137
REMARK SMILES O=C([O-])C=Cc1ccc(O)cc1
REMARK SMILES IDX 6 1 7 2 12 3 8 4 11 5 9 6 5 7 4 8 2 9 1 10 3 11 10 12
REMARK H PARENT 10 13
REMARK Flexibility Score: inf
ROOT
ATOM      1  C   UNL     1     -25.550  12.700  55.882  1.00  0.00    -0.025 A 
ATOM      2  C   UNL     1     -25.976  12.256  57.146  1.00  0.00     0.012 A 
ATOM      3  C   UNL     1     -24.497  12.015  55.241  1.00  0.00     0.012 A 
ATOM      4  C   UNL     1     -25.385  11.140  57.746  1.00  0.00     0.047 A 
ATOM      5  C   UNL     1     -23.908  10.899  55.845  1.00  0.00     0.047 A 
ATOM      6  C   UNL     1     -24.350  10.457  57.094  1.00  0.00     0.115 A 
ENDROOT
BRANCH   1   7
ATOM      7  C   UNL     1     -26.202  13.895  55.292  1.00  0.00     0.010 C 
ATOM      8  C   UNL     1     -25.721  15.141  55.409  1.00  0.00     0.025 C 
BRANCH   8   9
ATOM      9  C   UNL     1     -26.397  16.295  54.797  1.00  0.00     0.064 C 
ATOM     10  O   UNL     1     -26.906  16.179  53.652  1.00  0.00    -0.545 OA
ATOM     11  O   UNL     1     -26.479  17.514  55.461  1.00  0.00    -0.545 OA
ENDBRANCH   8   9
ENDBRANCH   1   7
BRANCH   6  12
ATOM     12  O   UNL     1     -23.754   9.343  57.682  1.00  0.00    -0.508 OA
ATOM     13  H   UNL     1     -23.690   8.458  57.193  1.00  0.00     0.293 HD
ENDBRANCH   6  12
TORSDOF 3
ENDMDL
