MODEL 1
REMARK VINA RESULT:    -4.886      0.000      0.000
REMARK INTER + INTRA:          -8.593
REMARK INTER:                  -7.742
REMARK INTRA:                  -0.851
REMARK UNBOUND:                -0.851
REMARK SMILES CCCCCCCCCCCC(=O)[O-]
REMARK SMILES IDX 7 1 8 2 9 3 10 4 11 5 12 6 13 7 14 8 6 9 5 10 4 11 3 12 2 13
REMARK SMILES IDX 1 14
REMARK H PARENT
REMARK Flexibility Score: inf
ROOT
ATOM      1  C   UNL     1       8.621  19.521  30.492  1.00  0.00     0.000 C 
ENDROOT
BRANCH   1   2
ATOM      2  C   UNL     1       9.390  18.290  29.988  1.00  0.00     0.000 C 
BRANCH   2   3
ATOM      3  C   UNL     1       9.994  17.458  31.133  1.00  0.00     0.000 C 
BRANCH   3   4
ATOM      4  C   UNL     1      10.030  18.201  32.488  1.00  0.00     0.006 C 
BRANCH   4   5
ATOM      5  C   UNL     1       9.651  17.305  33.677  1.00  0.00     0.053 C 
BRANCH   5   6
ATOM      6  C   UNL     1       8.476  17.852  34.427  1.00  0.00     0.041 C 
ATOM      7  O   UNL     1       7.878  17.140  35.276  1.00  0.00    -0.550 OA
ATOM      8  O   UNL     1       8.026  19.141  34.170  1.00  0.00    -0.550 OA
ENDBRANCH   5   6
ENDBRANCH   4   5
ENDBRANCH   3   4
ENDBRANCH   2   3
ENDBRANCH   1   2
BRANCH   1   9
ATOM      9  C   UNL     1       8.040  20.378  29.352  1.00  0.00     0.000 C 
BRANCH   9  10
ATOM     10  C   UNL     1       7.875  21.876  29.670  1.00  0.00    -0.000 C 
BRANCH  10  11
ATOM     11  C   UNL     1       8.091  22.202  31.158  1.00  0.00    -0.000 C 
BRANCH  11  12
ATOM     12  C   UNL     1       9.377  23.007  31.405  1.00  0.00    -0.000 C 
BRANCH  12  13
ATOM     13  C   UNL     1      10.233  22.423  32.539  1.00  0.00    -0.003 C 
ATOM     14  C   UNL     1       9.409  22.243  33.811  1.00  0.00     0.004 C 
ENDBRANCH  12  13
ENDBRANCH  11  12
ENDBRANCH  10  11
ENDBRANCH   9  10
ENDBRANCH   1   9
TORSDOF 10
ENDMDL
MODEL 2
REMARK VINA RESULT:    -4.721      2.818      5.182
REMARK INTER + INTRA:          -8.331
REMARK INTER:                  -7.245
REMARK INTRA:                  -1.087
REMARK UNBOUND:                -0.851
REMARK SMILES CCCCCCCCCCCC(=O)[O-]
REMARK SMILES IDX 7 1 8 2 9 3 10 4 11 5 12 6 13 7 14 8 6 9 5 10 4 11 3 12 2 13
REMARK SMILES IDX 1 14
REMARK H PARENT
REMARK Flexibility Score: inf
ROOT
ATOM      1  C   UNL     1       8.216  20.600  29.357  1.00  0.00     0.000 C 
ENDROOT
BRANCH   1   2
ATOM      2  C   UNL     1       8.109  22.019  29.936  1.00  0.00     0.000 C 
BRANCH   2   3
ATOM      3  C   UNL     1       7.936  22.024  31.465  1.00  0.00     0.000 C 
BRANCH   3   4
ATOM      4  C   UNL     1       9.227  22.386  32.234  1.00  0.00     0.006 C 
BRANCH   4   5
ATOM      5  C   UNL     1      10.093  23.424  31.505  1.00  0.00     0.053 C 
BRANCH   5   6
ATOM      6  C   UNL     1      10.137  24.725  32.246  1.00  0.00     0.041 C 
ATOM      7  O   UNL     1      10.849  25.673  31.823  1.00  0.00    -0.550 OA
ATOM      8  O   UNL     1       9.409  24.881  33.419  1.00  0.00    -0.550 OA
ENDBRANCH   5   6
ENDBRANCH   4   5
ENDBRANCH   3   4
ENDBRANCH   2   3
ENDBRANCH   1   2
BRANCH   1   9
ATOM      9  C   UNL     1       8.272  19.508  30.442  1.00  0.00     0.000 C 
BRANCH   9  10
ATOM     10  C   UNL     1       9.485  18.563  30.365  1.00  0.00    -0.000 C 
BRANCH  10  11
ATOM     11  C   UNL     1       9.810  17.892  31.711  1.00  0.00    -0.000 C 
BRANCH  11  12
ATOM     12  C   UNL     1      10.447  18.864  32.717  1.00  0.00    -0.000 C 
BRANCH  12  13
ATOM     13  C   UNL     1       9.615  19.017  34.000  1.00  0.00    -0.003 C 
ATOM     14  C   UNL     1       8.230  18.399  33.832  1.00  0.00     0.004 C 
ENDBRANCH  12  13
ENDBRANCH  11  12
ENDBRANCH  10  11
ENDBRANCH   9  10
ENDBRANCH   1   9
TORSDOF 10
ENDMDL
MODEL 3
REMARK VINA RESULT:    -4.666      1.411      1.996
REMARK INTER + INTRA:          -8.244
REMARK INTER:                  -6.960
REMARK INTRA:                  -1.283
REMARK UNBOUND:                -0.851
REMARK SMILES CCCCCCCCCCCC(=O)[O-]
REMARK SMILES IDX 7 1 8 2 9 3 10 4 11 5 12 6 13 7 14 8 6 9 5 10 4 11 3 12 2 13
REMARK SMILES IDX 1 14
REMARK H PARENT
REMARK Flexibility Score: inf
ROOT
ATOM      1  C   UNL     1       9.008  18.362  30.866  1.00  0.00     0.000 C 
ENDROOT
BRANCH   1   2
ATOM      2  C   UNL     1      10.154  18.512  31.878  1.00  0.00     0.000 C 
BRANCH   2   3
ATOM      3  C   UNL     1       9.844  17.844  33.229  1.00  0.00     0.000 C 
BRANCH   3   4
ATOM      4  C   UNL     1       8.417  18.132  33.750  1.00  0.00     0.006 C 
BRANCH   4   5
ATOM      5  C   UNL     1       8.328  19.419  34.585  1.00  0.00     0.053 C 
BRANCH   5   6
ATOM      6  C   UNL     1       8.785  19.196  35.993  1.00  0.00     0.041 C 
ATOM      7  O   UNL     1       9.995  19.354  36.301  1.00  0.00    -0.550 OA
ATOM      8  O   UNL     1       7.877  18.788  36.962  1.00  0.00    -0.550 OA
ENDBRANCH   5   6
ENDBRANCH   4   5
ENDBRANCH   3   4
ENDBRANCH   2   3
ENDBRANCH   1   2
BRANCH   1   9
ATOM      9  C   UNL     1       8.616  19.692  30.196  1.00  0.00     0.000 C 
BRANCH   9  10
ATOM     10  C   UNL     1       8.178  20.812  31.158  1.00  0.00    -0.000 C 
BRANCH  10  11
ATOM     11  C   UNL     1       8.464  22.221  30.611  1.00  0.00    -0.000 C 
BRANCH  11  12
ATOM     12  C   UNL     1       9.551  22.955  31.414  1.00  0.00    -0.000 C 
BRANCH  12  13
ATOM     13  C   UNL     1       9.983  22.182  32.669  1.00  0.00    -0.003 C 
ATOM     14  C   UNL     1      11.476  21.863  32.629  1.00  0.00     0.004 C 
ENDBRANCH  12  13
ENDBRANCH  11  12
ENDBRANCH  10  11
ENDBRANCH   9  10
ENDBRANCH   1   9
TORSDOF 10
ENDMDL
MODEL 4
REMARK VINA RESULT:    -4.652      1.730      2.550
REMARK INTER + INTRA:          -8.222
REMARK INTER:                  -7.101
REMARK INTRA:                  -1.122
REMARK UNBOUND:                -0.851
REMARK SMILES CCCCCCCCCCCC(=O)[O-]
REMARK SMILES IDX 7 1 8 2 9 3 10 4 11 5 12 6 13 7 14 8 6 9 5 10 4 11 3 12 2 13
REMARK SMILES IDX 1 14
REMARK H PARENT
REMARK Flexibility Score: inf
ROOT
ATOM      1  C   UNL     1       9.594  18.288  30.128  1.00  0.00     0.000 C 
ENDROOT
BRANCH   1   2
ATOM      2  C   UNL     1       9.952  17.371  31.308  1.00  0.00     0.000 C 
BRANCH   2   3
ATOM      3  C   UNL     1       9.611  17.996  32.671  1.00  0.00     0.000 C 
BRANCH   3   4
ATOM      4  C   UNL     1      10.845  18.521  33.439  1.00  0.00     0.006 C 
BRANCH   4   5
ATOM      5  C   UNL     1      11.218  19.964  33.069  1.00  0.00     0.053 C 
BRANCH   5   6
ATOM      6  C   UNL     1      10.884  20.921  34.172  1.00  0.00     0.041 C 
ATOM      7  O   UNL     1       9.717  20.965  34.642  1.00  0.00    -0.550 OA
ATOM      8  O   UNL     1      11.858  21.782  34.663  1.00  0.00    -0.550 OA
ENDBRANCH   5   6
ENDBRANCH   4   5
ENDBRANCH   3   4
ENDBRANCH   2   3
ENDBRANCH   1   2
BRANCH   1   9
ATOM      9  C   UNL     1       8.569  19.376  30.500  1.00  0.00     0.000 C 
BRANCH   9  10
ATOM     10  C   UNL     1       8.160  20.317  29.352  1.00  0.00    -0.000 C 
BRANCH  10  11
ATOM     11  C   UNL     1       8.043  21.787  29.792  1.00  0.00    -0.000 C 
BRANCH  11  12
ATOM     12  C   UNL     1       8.472  22.002  31.252  1.00  0.00    -0.000 C 
BRANCH  12  13
ATOM     13  C   UNL     1       9.599  23.036  31.392  1.00  0.00    -0.003 C 
ATOM     14  C   UNL     1       9.362  23.947  32.594  1.00  0.00     0.004 C 
ENDBRANCH  12  13
ENDBRANCH  11  12
ENDBRANCH  10  11
ENDBRANCH   9  10
ENDBRANCH   1   9
TORSDOF 10
ENDMDL
MODEL 5
REMARK VINA RESULT:    -4.606      1.599      2.398
REMARK INTER + INTRA:          -8.149
REMARK INTER:                  -7.016
REMARK INTRA:                  -1.133
REMARK UNBOUND:                -0.851
REMARK SMILES CCCCCCCCCCCC(=O)[O-]
REMARK SMILES IDX 7 1 8 2 9 3 10 4 11 5 12 6 13 7 14 8 6 9 5 10 4 11 3 12 2 13
REMARK SMILES IDX 1 14
REMARK H PARENT
REMARK Flexibility Score: inf
ROOT
ATOM      1  C   UNL     1      10.002  18.858  31.717  1.00  0.00     0.000 C 
ENDROOT
BRANCH   1   2
ATOM      2  C   UNL     1       9.623  17.967  32.910  1.00  0.00     0.000 C 
BRANCH   2   3
ATOM      3  C   UNL     1       8.203  18.247  33.431  1.00  0.00     0.000 C 
BRANCH   3   4
ATOM      4  C   UNL     1       8.157  19.267  34.591  1.00  0.00     0.006 C 
BRANCH   4   5
ATOM      5  C   UNL     1       7.901  18.614  35.959  1.00  0.00     0.053 C 
BRANCH   5   6
ATOM      6  C   UNL     1       9.183  18.287  36.662  1.00  0.00     0.041 C 
ATOM      7  O   UNL     1       9.719  17.158  36.512  1.00  0.00    -0.550 OA
ATOM      8  O   UNL     1       9.772  19.223  37.503  1.00  0.00    -0.550 OA
ENDBRANCH   5   6
ENDBRANCH   4   5
ENDBRANCH   3   4
ENDBRANCH   2   3
ENDBRANCH   1   2
BRANCH   1   9
ATOM      9  C   UNL     1       9.123  18.611  30.477  1.00  0.00     0.000 C 
BRANCH   9  10
ATOM     10  C   UNL     1       8.470  19.867  29.870  1.00  0.00    -0.000 C 
BRANCH  10  11
ATOM     11  C   UNL     1       8.021  20.884  30.933  1.00  0.00    -0.000 C 
BRANCH  11  12
ATOM     12  C   UNL     1       8.630  22.278  30.710  1.00  0.00    -0.000 C 
BRANCH  12  13
ATOM     13  C   UNL     1       9.664  22.650  31.784  1.00  0.00    -0.003 C 
ATOM     14  C   UNL     1       9.034  22.648  33.175  1.00  0.00     0.004 C 
ENDBRANCH  12  13
ENDBRANCH  11  12
ENDBRANCH  10  11
ENDBRANCH   9  10
ENDBRANCH   1   9
TORSDOF 10
ENDMDL
MODEL 6
REMARK VINA RESULT:    -4.599      1.558      3.957
REMARK INTER + INTRA:          -8.138
REMARK INTER:                  -7.220
REMARK INTRA:                  -0.919
REMARK UNBOUND:                -0.851
REMARK SMILES CCCCCCCCCCCC(=O)[O-]
REMARK SMILES IDX 7 1 8 2 9 3 10 4 11 5 12 6 13 7 14 8 6 9 5 10 4 11 3 12 2 13
REMARK SMILES IDX 1 14
REMARK H PARENT
REMARK Flexibility Score: inf
ROOT
ATOM      1  C   UNL     1       8.058  22.300  31.138  1.00  0.00     0.000 C 
ENDROOT
BRANCH   1   2
ATOM      2  C   UNL     1       9.379  23.040  31.401  1.00  0.00     0.000 C 
BRANCH   2   3
ATOM      3  C   UNL     1      10.143  22.476  32.612  1.00  0.00     0.000 C 
BRANCH   3   4
ATOM      4  C   UNL     1       9.256  21.663  33.581  1.00  0.00     0.006 C 
BRANCH   4   5
ATOM      5  C   UNL     1       9.413  22.094  35.048  1.00  0.00     0.053 C 
BRANCH   5   6
ATOM      6  C   UNL     1       9.582  20.913  35.955  1.00  0.00     0.041 C 
ATOM      7  O   UNL     1      10.508  20.084  35.751  1.00  0.00    -0.550 OA
ATOM      8  O   UNL     1       8.702  20.716  37.011  1.00  0.00    -0.550 OA
ENDBRANCH   5   6
ENDBRANCH   4   5
ENDBRANCH   3   4
ENDBRANCH   2   3
ENDBRANCH   1   2
BRANCH   1   9
ATOM      9  C   UNL     1       7.875  21.898  29.663  1.00  0.00     0.000 C 
BRANCH   9  10
ATOM     10  C   UNL     1       7.993  20.391  29.371  1.00  0.00    -0.000 C 
BRANCH  10  11
ATOM     11  C   UNL     1       8.676  19.609  30.507  1.00  0.00    -0.000 C 
BRANCH  11  12
ATOM     12  C   UNL     1       9.453  18.384  29.996  1.00  0.00    -0.000 C 
BRANCH  12  13
ATOM     13  C   UNL     1       9.943  17.478  31.135  1.00  0.00    -0.003 C 
ATOM     14  C   UNL     1       9.863  18.195  32.480  1.00  0.00     0.004 C 
ENDBRANCH  12  13
ENDBRANCH  11  12
ENDBRANCH  10  11
ENDBRANCH   9  10
ENDBRANCH   1   9
TORSDOF 10
ENDMDL
MODEL 7
REMARK VINA RESULT:    -4.554      2.029      4.002
REMARK INTER + INTRA:          -8.066
REMARK INTER:                  -6.868
REMARK INTRA:                  -1.198
REMARK UNBOUND:                -0.851
REMARK SMILES CCCCCCCCCCCC(=O)[O-]
REMARK SMILES IDX 7 1 8 2 9 3 10 4 11 5 12 6 13 7 14 8 6 9 5 10 4 11 3 12 2 13
REMARK SMILES IDX 1 14
REMARK H PARENT
REMARK Flexibility Score: inf
ROOT
ATOM      1  C   UNL     1       9.443  23.198  31.473  1.00  0.00     0.000 C 
ENDROOT
BRANCH   1   2
ATOM      2  C   UNL     1      10.128  23.081  32.843  1.00  0.00     0.000 C 
BRANCH   2   3
ATOM      3  C   UNL     1      11.521  22.433  32.757  1.00  0.00     0.000 C 
BRANCH   3   4
ATOM      4  C   UNL     1      11.486  20.887  32.750  1.00  0.00     0.006 C 
BRANCH   4   5
ATOM      5  C   UNL     1      10.764  20.295  33.970  1.00  0.00     0.053 C 
BRANCH   5   6
ATOM      6  C   UNL     1      11.561  19.195  34.602  1.00  0.00     0.041 C 
ATOM      7  O   UNL     1      11.249  17.991  34.404  1.00  0.00    -0.550 OA
ATOM      8  O   UNL     1      12.634  19.501  35.429  1.00  0.00    -0.550 OA
ENDBRANCH   5   6
ENDBRANCH   4   5
ENDBRANCH   3   4
ENDBRANCH   2   3
ENDBRANCH   1   2
BRANCH   1   9
ATOM      9  C   UNL     1       8.257  22.229  31.306  1.00  0.00     0.000 C 
BRANCH   9  10
ATOM     10  C   UNL     1       8.116  21.592  29.912  1.00  0.00    -0.000 C 
BRANCH  10  11
ATOM     11  C   UNL     1       8.356  20.072  29.918  1.00  0.00    -0.000 C 
BRANCH  11  12
ATOM     12  C   UNL     1       8.394  19.487  31.339  1.00  0.00    -0.000 C 
BRANCH  12  13
ATOM     13  C   UNL     1       9.177  18.167  31.414  1.00  0.00    -0.003 C 
ATOM     14  C   UNL     1       9.854  17.854  30.083  1.00  0.00     0.004 C 
ENDBRANCH  12  13
ENDBRANCH  11  12
ENDBRANCH  10  11
ENDBRANCH   9  10
ENDBRANCH   1   9
TORSDOF 10
ENDMDL
MODEL 8
REMARK VINA RESULT:    -4.546      1.235      2.548
REMARK INTER + INTRA:          -8.055
REMARK INTER:                  -7.319
REMARK INTRA:                  -0.736
REMARK UNBOUND:                -0.851
REMARK SMILES CCCCCCCCCCCC(=O)[O-]
REMARK SMILES IDX 7 1 8 2 9 3 10 4 11 5 12 6 13 7 14 8 6 9 5 10 4 11 3 12 2 13
REMARK SMILES IDX 1 14
REMARK H PARENT
REMARK Flexibility Score: inf
ROOT
ATOM      1  C   UNL     1       8.116  21.890  29.710  1.00  0.00     0.000 C 
ENDROOT
BRANCH   1   2
ATOM      2  C   UNL     1       8.054  20.368  29.510  1.00  0.00     0.000 C 
BRANCH   2   3
ATOM      3  C   UNL     1       8.631  19.589  30.704  1.00  0.00     0.000 C 
BRANCH   3   4
ATOM      4  C   UNL     1       9.647  18.496  30.298  1.00  0.00     0.006 C 
BRANCH   4   5
ATOM      5  C   UNL     1       9.830  17.414  31.374  1.00  0.00     0.053 C 
BRANCH   5   6
ATOM      6  C   UNL     1       9.929  18.010  32.745  1.00  0.00     0.041 C 
ATOM      7  O   UNL     1      10.955  18.656  33.084  1.00  0.00    -0.550 OA
ATOM      8  O   UNL     1       8.896  17.830  33.657  1.00  0.00    -0.550 OA
ENDBRANCH   5   6
ENDBRANCH   4   5
ENDBRANCH   3   4
ENDBRANCH   2   3
ENDBRANCH   1   2
BRANCH   1   9
ATOM      9  C   UNL     1       8.121  22.304  31.194  1.00  0.00     0.000 C 
BRANCH   9  10
ATOM     10  C   UNL     1       9.290  23.209  31.624  1.00  0.00    -0.000 C 
BRANCH  10  11
ATOM     11  C   UNL     1      10.452  22.428  32.263  1.00  0.00    -0.000 C 
BRANCH  11  12
ATOM     12  C   UNL     1      10.952  23.077  33.564  1.00  0.00    -0.000 C 
BRANCH  12  13
ATOM     13  C   UNL     1       9.847  23.840  34.309  1.00  0.00    -0.003 C 
ATOM     14  C   UNL     1       9.156  22.943  35.332  1.00  0.00     0.004 C 
ENDBRANCH  12  13
ENDBRANCH  11  12
ENDBRANCH  10  11
ENDBRANCH   9  10
ENDBRANCH   1   9
TORSDOF 10
ENDMDL
MODEL 9
REMARK VINA RESULT:    -4.477      1.305      3.476
REMARK INTER + INTRA:          -7.944
REMARK INTER:                  -6.748
REMARK INTRA:                  -1.196
REMARK UNBOUND:                -0.851
REMARK SMILES CCCCCCCCCCCC(=O)[O-]
REMARK SMILES IDX 7 1 8 2 9 3 10 4 11 5 12 6 13 7 14 8 6 9 5 10 4 11 3 12 2 13
REMARK SMILES IDX 1 14
REMARK H PARENT
REMARK Flexibility Score: inf
ROOT
ATOM      1  C   UNL     1      10.692  21.952  32.688  1.00  0.00     0.000 C 
ENDROOT
BRANCH   1   2
ATOM      2  C   UNL     1      10.513  20.859  33.754  1.00  0.00     0.000 C 
BRANCH   2   3
ATOM      3  C   UNL     1       9.131  20.909  34.427  1.00  0.00     0.000 C 
BRANCH   3   4
ATOM      4  C   UNL     1       8.496  19.516  34.644  1.00  0.00     0.006 C 
BRANCH   4   5
ATOM      5  C   UNL     1       9.515  18.369  34.553  1.00  0.00     0.053 C 
BRANCH   5   6
ATOM      6  C   UNL     1       9.153  17.237  35.464  1.00  0.00     0.041 C 
ATOM      7  O   UNL     1       8.041  16.658  35.347  1.00  0.00    -0.550 OA
ATOM      8  O   UNL     1      10.035  16.837  36.461  1.00  0.00    -0.550 OA
ENDBRANCH   5   6
ENDBRANCH   4   5
ENDBRANCH   3   4
ENDBRANCH   2   3
ENDBRANCH   1   2
BRANCH   1   9
ATOM      9  C   UNL     1       9.365  22.614  32.274  1.00  0.00     0.000 C 
BRANCH   9  10
ATOM     10  C   UNL     1       8.825  22.202  30.892  1.00  0.00    -0.000 C 
BRANCH  10  11
ATOM     11  C   UNL     1       7.989  20.911  30.933  1.00  0.00    -0.000 C 
BRANCH  11  12
ATOM     12  C   UNL     1       8.631  19.767  30.132  1.00  0.00    -0.000 C 
BRANCH  12  13
ATOM     13  C   UNL     1       9.621  18.942  30.968  1.00  0.00    -0.003 C 
ATOM     14  C   UNL     1       9.805  17.546  30.378  1.00  0.00     0.004 C 
ENDBRANCH  12  13
ENDBRANCH  11  12
ENDBRANCH  10  11
ENDBRANCH   9  10
ENDBRANCH   1   9
TORSDOF 10
ENDMDL
