MODEL 1
REMARK VINA RESULT:    -5.238      0.000      0.000
REMARK INTER + INTRA:          -6.518
REMARK INTER:                  -6.310
REMARK INTRA:                  -0.207
REMARK UNBOUND:                -0.207
REMARK SMILES O=c1c(O)c(-c2ccc(O)c(O)c2)oc2cc(O)cc(O)c12
REMARK SMILES IDX 5 1 3 2 2 3 1 4 22 5 20 6 19 7 17 8 16 9 15 10 14 11 6 12
REMARK SMILES IDX 7 13 8 14 9 15 13 16 11 17 10 18 12 20 4 22 21 24 18 26
REMARK H PARENT 10 19 12 21 4 23 21 25 18 27
REMARK Flexibility Score: inf
ROOT
ATOM      1  C   UNL     1      15.695  54.668  30.563  1.00  0.00     0.180 A 
ATOM      2  C   UNL     1      15.603  54.623  29.161  1.00  0.00     0.208 A 
ATOM      3  C   UNL     1      15.323  53.398  28.536  1.00  0.00     0.238 A 
ATOM      4  O   UNL     1      15.189  53.375  27.284  1.00  0.00    -0.285 OA
ATOM      5  C   UNL     1      15.155  52.230  29.318  1.00  0.00     0.111 A 
ATOM      6  C   UNL     1      14.908  50.929  28.787  1.00  0.00     0.134 A 
ATOM      7  C   UNL     1      14.626  49.870  29.659  1.00  0.00     0.093 A 
ATOM      8  C   UNL     1      14.648  50.052  31.044  1.00  0.00     0.123 A 
ATOM      9  C   UNL     1      14.947  51.305  31.573  1.00  0.00     0.094 A 
ATOM     10  C   UNL     1      15.196  52.389  30.728  1.00  0.00     0.146 A 
ATOM     11  O   UNL     1      15.466  53.569  31.273  1.00  0.00    -0.452 OA
ENDROOT
BRANCH   1  12
ATOM     12  C   UNL     1      16.011  55.917  31.293  1.00  0.00     0.025 A 
ATOM     13  C   UNL     1      15.062  56.465  32.170  1.00  0.00     0.016 A 
ATOM     14  C   UNL     1      15.348  57.631  32.884  1.00  0.00     0.051 A 
ATOM     15  C   UNL     1      16.589  58.259  32.746  1.00  0.00     0.157 A 
ATOM     16  C   UNL     1      17.267  56.539  31.171  1.00  0.00     0.062 A 
ATOM     17  C   UNL     1      17.556  57.709  31.889  1.00  0.00     0.158 A 
BRANCH  15  18
ATOM     18  O   UNL     1      16.845  59.423  33.470  1.00  0.00    -0.504 OA
ATOM     19  H   UNL     1      17.101  59.402  34.450  1.00  0.00     0.293 HD
ENDBRANCH  15  18
BRANCH  17  20
ATOM     20  O   UNL     1      18.802  58.321  31.757  1.00  0.00    -0.504 OA
ATOM     21  H   UNL     1      19.411  58.462  32.555  1.00  0.00     0.293 HD
ENDBRANCH  17  20
ENDBRANCH   1  12
BRANCH   2  22
ATOM     22  O   UNL     1      15.752  55.793  28.410  1.00  0.00    -0.502 OA
ATOM     23  H   UNL     1      16.470  55.897  27.703  1.00  0.00     0.293 HD
ENDBRANCH   2  22
BRANCH   6  24
ATOM     24  O   UNL     1      14.953  50.620  27.425  1.00  0.00    -0.507 OA
ATOM     25  H   UNL     1      14.922  49.685  27.046  1.00  0.00     0.293 HD
ENDBRANCH   6  24
BRANCH   8  26
ATOM     26  O   UNL     1      14.384  48.988  31.906  1.00  0.00    -0.508 OA
ATOM     27  H   UNL     1      15.009  48.193  31.973  1.00  0.00     0.293 HD
ENDBRANCH   8  26
TORSDOF 6
ENDMDL
MODEL 2
REMARK VINA RESULT:    -5.053      1.625      3.009
REMARK INTER + INTRA:          -6.294
REMARK INTER:                  -5.976
REMARK INTRA:                  -0.319
REMARK UNBOUND:                -0.207
REMARK SMILES O=c1c(O)c(-c2ccc(O)c(O)c2)oc2cc(O)cc(O)c12
REMARK SMILES IDX 5 1 3 2 2 3 1 4 22 5 20 6 19 7 17 8 16 9 15 10 14 11 6 12
REMARK SMILES IDX 7 13 8 14 9 15 13 16 11 17 10 18 12 20 4 22 21 24 18 26
REMARK H PARENT 10 19 12 21 4 23 21 25 18 27
REMARK Flexibility Score: inf
ROOT
ATOM      1  C   UNL     1      15.228  54.908  31.068  1.00  0.00     0.180 A 
ATOM      2  C   UNL     1      15.430  53.658  31.677  1.00  0.00     0.208 A 
ATOM      3  C   UNL     1      14.885  52.512  31.076  1.00  0.00     0.238 A 
ATOM      4  O   UNL     1      15.114  51.389  31.596  1.00  0.00    -0.285 OA
ATOM      5  C   UNL     1      14.132  52.633  29.883  1.00  0.00     0.111 A 
ATOM      6  C   UNL     1      13.500  51.544  29.210  1.00  0.00     0.134 A 
ATOM      7  C   UNL     1      12.892  51.760  27.967  1.00  0.00     0.093 A 
ATOM      8  C   UNL     1      12.836  53.039  27.406  1.00  0.00     0.123 A 
ATOM      9  C   UNL     1      13.397  54.118  28.084  1.00  0.00     0.094 A 
ATOM     10  C   UNL     1      14.043  53.927  29.307  1.00  0.00     0.146 A 
ATOM     11  O   UNL     1      14.574  54.981  29.915  1.00  0.00    -0.452 OA
ENDROOT
BRANCH   1  12
ATOM     12  C   UNL     1      15.750  56.164  31.655  1.00  0.00     0.025 A 
ATOM     13  C   UNL     1      14.947  56.899  32.540  1.00  0.00     0.016 A 
ATOM     14  C   UNL     1      15.427  58.076  33.121  1.00  0.00     0.051 A 
ATOM     15  C   UNL     1      16.721  58.526  32.840  1.00  0.00     0.157 A 
ATOM     16  C   UNL     1      17.058  56.608  31.390  1.00  0.00     0.062 A 
ATOM     17  C   UNL     1      17.543  57.788  31.974  1.00  0.00     0.158 A 
BRANCH  15  18
ATOM     18  O   UNL     1      17.172  59.705  33.433  1.00  0.00    -0.504 OA
ATOM     19  H   UNL     1      16.566  60.293  33.993  1.00  0.00     0.293 HD
ENDBRANCH  15  18
BRANCH  17  20
ATOM     20  O   UNL     1      18.839  58.223  31.701  1.00  0.00    -0.504 OA
ATOM     21  H   UNL     1      19.596  57.569  31.538  1.00  0.00     0.293 HD
ENDBRANCH  17  20
ENDBRANCH   1  12
BRANCH   2  22
ATOM     22  O   UNL     1      16.194  53.559  32.843  1.00  0.00    -0.502 OA
ATOM     23  H   UNL     1      17.148  53.897  32.898  1.00  0.00     0.293 HD
ENDBRANCH   2  22
BRANCH   6  24
ATOM     24  O   UNL     1      13.420  50.248  29.727  1.00  0.00    -0.507 OA
ATOM     25  H   UNL     1      13.181  49.428  29.189  1.00  0.00     0.293 HD
ENDBRANCH   6  24
BRANCH   8  26
ATOM     26  O   UNL     1      12.213  53.248  26.176  1.00  0.00    -0.508 OA
ATOM     27  H   UNL     1      12.083  52.493  25.513  1.00  0.00     0.293 HD
ENDBRANCH   8  26
TORSDOF 6
ENDMDL
MODEL 3
REMARK VINA RESULT:    -4.973      3.403      7.422
REMARK INTER + INTRA:          -6.198
REMARK INTER:                  -5.870
REMARK INTRA:                  -0.329
REMARK UNBOUND:                -0.207
REMARK SMILES O=c1c(O)c(-c2ccc(O)c(O)c2)oc2cc(O)cc(O)c12
REMARK SMILES IDX 5 1 3 2 2 3 1 4 22 5 20 6 19 7 17 8 16 9 15 10 14 11 6 12
REMARK SMILES IDX 7 13 8 14 9 15 13 16 11 17 10 18 12 20 4 22 21 24 18 26
REMARK H PARENT 10 19 12 21 4 23 21 25 18 27
REMARK Flexibility Score: inf
ROOT
ATOM      1  C   UNL     1      14.586  50.587  31.080  1.00  0.00     0.180 A 
ATOM      2  C   UNL     1      13.371  50.800  30.407  1.00  0.00     0.208 A 
ATOM      3  C   UNL     1      12.637  51.966  30.679  1.00  0.00     0.238 A 
ATOM      4  O   UNL     1      11.577  52.176  30.034  1.00  0.00    -0.285 OA
ATOM      5  C   UNL     1      13.119  52.895  31.632  1.00  0.00     0.111 A 
ATOM      6  C   UNL     1      12.438  54.089  32.015  1.00  0.00     0.134 A 
ATOM      7  C   UNL     1      13.071  55.001  32.869  1.00  0.00     0.093 A 
ATOM      8  C   UNL     1      14.332  54.730  33.405  1.00  0.00     0.123 A 
ATOM      9  C   UNL     1      14.979  53.539  33.085  1.00  0.00     0.094 A 
ATOM     10  C   UNL     1      14.389  52.627  32.206  1.00  0.00     0.146 A 
ATOM     11  O   UNL     1      15.045  51.509  31.918  1.00  0.00    -0.452 OA
ENDROOT
BRANCH   1  12
ATOM     12  C   UNL     1      15.404  49.371  30.865  1.00  0.00     0.025 A 
ATOM     13  C   UNL     1      16.491  49.417  29.979  1.00  0.00     0.016 A 
ATOM     14  C   UNL     1      17.288  48.287  29.777  1.00  0.00     0.051 A 
ATOM     15  C   UNL     1      17.021  47.101  30.468  1.00  0.00     0.157 A 
ATOM     16  C   UNL     1      15.150  48.183  31.575  1.00  0.00     0.062 A 
ATOM     17  C   UNL     1      15.950  47.048  31.374  1.00  0.00     0.158 A 
BRANCH  15  18
ATOM     18  O   UNL     1      17.832  45.989  30.244  1.00  0.00    -0.504 OA
ATOM     19  H   UNL     1      18.838  46.065  30.154  1.00  0.00     0.293 HD
ENDBRANCH  15  18
BRANCH  17  20
ATOM     20  O   UNL     1      15.688  45.873  32.078  1.00  0.00    -0.504 OA
ATOM     21  H   UNL     1      16.013  45.740  33.028  1.00  0.00     0.293 HD
ENDBRANCH  17  20
ENDBRANCH   1  12
BRANCH   2  22
ATOM     22  O   UNL     1      12.924  49.879  29.455  1.00  0.00    -0.502 OA
ATOM     23  H   UNL     1      12.581  50.162  28.545  1.00  0.00     0.293 HD
ENDBRANCH   2  22
BRANCH   6  24
ATOM     24  O   UNL     1      11.140  54.412  31.609  1.00  0.00    -0.507 OA
ATOM     25  H   UNL     1      10.299  54.037  32.021  1.00  0.00     0.293 HD
ENDBRANCH   6  24
BRANCH   8  26
ATOM     26  O   UNL     1      14.947  55.635  34.269  1.00  0.00    -0.508 OA
ATOM     27  H   UNL     1      15.468  55.324  35.079  1.00  0.00     0.293 HD
ENDBRANCH   8  26
TORSDOF 6
ENDMDL
MODEL 4
REMARK VINA RESULT:    -4.911      4.834      7.983
REMARK INTER + INTRA:          -6.123
REMARK INTER:                  -5.925
REMARK INTRA:                  -0.198
REMARK UNBOUND:                -0.207
REMARK SMILES O=c1c(O)c(-c2ccc(O)c(O)c2)oc2cc(O)cc(O)c12
REMARK SMILES IDX 5 1 3 2 2 3 1 4 22 5 20 6 19 7 17 8 16 9 15 10 14 11 6 12
REMARK SMILES IDX 7 13 8 14 9 15 13 16 11 17 10 18 12 20 4 22 21 24 18 26
REMARK H PARENT 10 19 12 21 4 23 21 25 18 27
REMARK Flexibility Score: inf
ROOT
ATOM      1  C   UNL     1      15.265  48.595  30.558  1.00  0.00     0.180 A 
ATOM      2  C   UNL     1      15.207  49.999  30.573  1.00  0.00     0.208 A 
ATOM      3  C   UNL     1      15.766  50.715  29.501  1.00  0.00     0.238 A 
ATOM      4  O   UNL     1      15.664  51.969  29.494  1.00  0.00    -0.285 OA
ATOM      5  C   UNL     1      16.390  50.018  28.438  1.00  0.00     0.111 A 
ATOM      6  C   UNL     1      17.024  50.643  27.323  1.00  0.00     0.134 A 
ATOM      7  C   UNL     1      17.493  49.854  26.265  1.00  0.00     0.093 A 
ATOM      8  C   UNL     1      17.408  48.460  26.313  1.00  0.00     0.123 A 
ATOM      9  C   UNL     1      16.845  47.839  27.425  1.00  0.00     0.094 A 
ATOM     10  C   UNL     1      16.336  48.601  28.480  1.00  0.00     0.146 A 
ATOM     11  O   UNL     1      15.797  47.969  29.515  1.00  0.00    -0.452 OA
ENDROOT
BRANCH   1  12
ATOM     12  C   UNL     1      14.720  47.773  31.663  1.00  0.00     0.025 A 
ATOM     13  C   UNL     1      15.600  47.093  32.518  1.00  0.00     0.016 A 
ATOM     14  C   UNL     1      15.108  46.328  33.579  1.00  0.00     0.051 A 
ATOM     15  C   UNL     1      13.732  46.244  33.811  1.00  0.00     0.157 A 
ATOM     16  C   UNL     1      13.336  47.704  31.911  1.00  0.00     0.062 A 
ATOM     17  C   UNL     1      12.841  46.938  32.976  1.00  0.00     0.158 A 
BRANCH  15  18
ATOM     18  O   UNL     1      13.270  45.471  34.876  1.00  0.00    -0.504 OA
ATOM     19  H   UNL     1      12.836  45.885  35.693  1.00  0.00     0.293 HD
ENDBRANCH  15  18
BRANCH  17  20
ATOM     20  O   UNL     1      11.468  46.870  33.211  1.00  0.00    -0.504 OA
ATOM     21  H   UNL     1      10.795  46.990  32.462  1.00  0.00     0.293 HD
ENDBRANCH  17  20
ENDBRANCH   1  12
BRANCH   2  22
ATOM     22  O   UNL     1      14.568  50.666  31.622  1.00  0.00    -0.502 OA
ATOM     23  H   UNL     1      14.898  50.617  32.578  1.00  0.00     0.293 HD
ENDBRANCH   2  22
BRANCH   6  24
ATOM     24  O   UNL     1      17.241  52.019  27.218  1.00  0.00    -0.507 OA
ATOM     25  H   UNL     1      16.928  52.704  27.891  1.00  0.00     0.293 HD
ENDBRANCH   6  24
BRANCH   8  26
ATOM     26  O   UNL     1      17.893  47.682  25.263  1.00  0.00    -0.508 OA
ATOM     27  H   UNL     1      17.271  47.279  24.571  1.00  0.00     0.293 HD
ENDBRANCH   8  26
TORSDOF 6
ENDMDL
MODEL 5
REMARK VINA RESULT:    -4.837      2.465      7.003
REMARK INTER + INTRA:          -6.033
REMARK INTER:                  -5.743
REMARK INTRA:                  -0.291
REMARK UNBOUND:                -0.207
REMARK SMILES O=c1c(O)c(-c2ccc(O)c(O)c2)oc2cc(O)cc(O)c12
REMARK SMILES IDX 5 1 3 2 2 3 1 4 22 5 20 6 19 7 17 8 16 9 15 10 14 11 6 12
REMARK SMILES IDX 7 13 8 14 9 15 13 16 11 17 10 18 12 20 4 22 21 24 18 26
REMARK H PARENT 10 19 12 21 4 23 21 25 18 27
REMARK Flexibility Score: inf
ROOT
ATOM      1  C   UNL     1      15.188  51.590  31.125  1.00  0.00     0.180 A 
ATOM      2  C   UNL     1      15.286  52.601  30.154  1.00  0.00     0.208 A 
ATOM      3  C   UNL     1      15.223  53.944  30.560  1.00  0.00     0.238 A 
ATOM      4  O   UNL     1      15.365  54.845  29.693  1.00  0.00    -0.285 OA
ATOM      5  C   UNL     1      15.045  54.258  31.929  1.00  0.00     0.111 A 
ATOM      6  C   UNL     1      14.926  55.582  32.447  1.00  0.00     0.134 A 
ATOM      7  C   UNL     1      14.886  55.780  33.833  1.00  0.00     0.093 A 
ATOM      8  C   UNL     1      14.893  54.697  34.716  1.00  0.00     0.123 A 
ATOM      9  C   UNL     1      14.948  53.398  34.217  1.00  0.00     0.094 A 
ATOM     10  C   UNL     1      15.027  53.170  32.841  1.00  0.00     0.146 A 
ATOM     11  O   UNL     1      15.089  51.917  32.408  1.00  0.00    -0.452 OA
ENDROOT
BRANCH   1  12
ATOM     12  C   UNL     1      15.222  50.152  30.772  1.00  0.00     0.025 A 
ATOM     13  C   UNL     1      14.018  49.445  30.636  1.00  0.00     0.016 A 
ATOM     14  C   UNL     1      14.026  48.093  30.283  1.00  0.00     0.051 A 
ATOM     15  C   UNL     1      15.235  47.431  30.045  1.00  0.00     0.157 A 
ATOM     16  C   UNL     1      16.436  49.490  30.511  1.00  0.00     0.062 A 
ATOM     17  C   UNL     1      16.447  48.133  30.155  1.00  0.00     0.158 A 
BRANCH  15  18
ATOM     18  O   UNL     1      15.212  46.082  29.697  1.00  0.00    -0.504 OA
ATOM     19  H   UNL     1      15.109  45.774  28.737  1.00  0.00     0.293 HD
ENDBRANCH  15  18
BRANCH  17  20
ATOM     20  O   UNL     1      17.655  47.484  29.905  1.00  0.00    -0.504 OA
ATOM     21  H   UNL     1      17.722  46.472  29.898  1.00  0.00     0.293 HD
ENDBRANCH  17  20
ENDBRANCH   1  12
BRANCH   2  22
ATOM     22  O   UNL     1      15.483  52.269  28.810  1.00  0.00    -0.502 OA
ATOM     23  H   UNL     1      15.196  51.378  28.423  1.00  0.00     0.293 HD
ENDBRANCH   2  22
BRANCH   6  24
ATOM     24  O   UNL     1      14.819  56.725  31.650  1.00  0.00    -0.507 OA
ATOM     25  H   UNL     1      14.852  56.728  30.642  1.00  0.00     0.293 HD
ENDBRANCH   6  24
BRANCH   8  26
ATOM     26  O   UNL     1      14.835  54.902  36.093  1.00  0.00    -0.508 OA
ATOM     27  H   UNL     1      14.484  55.768  36.485  1.00  0.00     0.293 HD
ENDBRANCH   8  26
TORSDOF 6
ENDMDL
MODEL 6
REMARK VINA RESULT:    -4.794      1.606      7.120
REMARK INTER + INTRA:          -5.982
REMARK INTER:                  -5.659
REMARK INTRA:                  -0.323
REMARK UNBOUND:                -0.207
REMARK SMILES O=c1c(O)c(-c2ccc(O)c(O)c2)oc2cc(O)cc(O)c12
REMARK SMILES IDX 5 1 3 2 2 3 1 4 22 5 20 6 19 7 17 8 16 9 15 10 14 11 6 12
REMARK SMILES IDX 7 13 8 14 9 15 13 16 11 17 10 18 12 20 4 22 21 24 18 26
REMARK H PARENT 10 19 12 21 4 23 21 25 18 27
REMARK Flexibility Score: inf
ROOT
ATOM      1  C   UNL     1      14.666  53.999  31.205  1.00  0.00     0.180 A 
ATOM      2  C   UNL     1      13.540  54.688  31.685  1.00  0.00     0.208 A 
ATOM      3  C   UNL     1      13.690  56.009  32.136  1.00  0.00     0.238 A 
ATOM      4  O   UNL     1      12.668  56.639  32.514  1.00  0.00    -0.285 OA
ATOM      5  C   UNL     1      14.968  56.619  32.117  1.00  0.00     0.111 A 
ATOM      6  C   UNL     1      15.244  57.937  32.587  1.00  0.00     0.134 A 
ATOM      7  C   UNL     1      16.518  58.485  32.398  1.00  0.00     0.093 A 
ATOM      8  C   UNL     1      17.545  57.738  31.815  1.00  0.00     0.123 A 
ATOM      9  C   UNL     1      17.301  56.428  31.408  1.00  0.00     0.094 A 
ATOM     10  C   UNL     1      16.030  55.867  31.550  1.00  0.00     0.146 A 
ATOM     11  O   UNL     1      15.838  54.620  31.137  1.00  0.00    -0.452 OA
ENDROOT
BRANCH   1  12
ATOM     12  C   UNL     1      14.592  52.596  30.736  1.00  0.00     0.025 A 
ATOM     13  C   UNL     1      14.759  51.550  31.656  1.00  0.00     0.016 A 
ATOM     14  C   UNL     1      14.672  50.219  31.238  1.00  0.00     0.051 A 
ATOM     15  C   UNL     1      14.401  49.914  29.901  1.00  0.00     0.157 A 
ATOM     16  C   UNL     1      14.299  52.287  29.395  1.00  0.00     0.062 A 
ATOM     17  C   UNL     1      14.209  50.952  28.974  1.00  0.00     0.158 A 
BRANCH  15  18
ATOM     18  O   UNL     1      14.322  48.577  29.513  1.00  0.00    -0.504 OA
ATOM     19  H   UNL     1      14.169  48.304  28.549  1.00  0.00     0.293 HD
ENDBRANCH  15  18
BRANCH  17  20
ATOM     20  O   UNL     1      13.924  50.655  27.642  1.00  0.00    -0.504 OA
ATOM     21  H   UNL     1      14.267  49.808  27.202  1.00  0.00     0.293 HD
ENDBRANCH  17  20
ENDBRANCH   1  12
BRANCH   2  22
ATOM     22  O   UNL     1      12.284  54.074  31.675  1.00  0.00    -0.502 OA
ATOM     23  H   UNL     1      11.420  54.604  31.668  1.00  0.00     0.293 HD
ENDBRANCH   2  22
BRANCH   6  24
ATOM     24  O   UNL     1      14.316  58.734  33.264  1.00  0.00    -0.507 OA
ATOM     25  H   UNL     1      13.314  58.633  33.198  1.00  0.00     0.293 HD
ENDBRANCH   6  24
BRANCH   8  26
ATOM     26  O   UNL     1      18.816  58.285  31.647  1.00  0.00    -0.508 OA
ATOM     27  H   UNL     1      19.542  58.161  32.342  1.00  0.00     0.293 HD
ENDBRANCH   8  26
TORSDOF 6
ENDMDL
MODEL 7
REMARK VINA RESULT:    -4.724      3.254      5.531
REMARK INTER + INTRA:          -5.898
REMARK INTER:                  -5.567
REMARK INTRA:                  -0.331
REMARK UNBOUND:                -0.207
REMARK SMILES O=c1c(O)c(-c2ccc(O)c(O)c2)oc2cc(O)cc(O)c12
REMARK SMILES IDX 5 1 3 2 2 3 1 4 22 5 20 6 19 7 17 8 16 9 15 10 14 11 6 12
REMARK SMILES IDX 7 13 8 14 9 15 13 16 11 17 10 18 12 20 4 22 21 24 18 26
REMARK H PARENT 10 19 12 21 4 23 21 25 18 27
REMARK Flexibility Score: inf
ROOT
ATOM      1  C   UNL     1      14.541  49.568  31.054  1.00  0.00     0.180 A 
ATOM      2  C   UNL     1      15.056  48.981  29.886  1.00  0.00     0.208 A 
ATOM      3  C   UNL     1      15.242  47.589  29.849  1.00  0.00     0.238 A 
ATOM      4  O   UNL     1      15.653  47.063  28.782  1.00  0.00    -0.285 OA
ATOM      5  C   UNL     1      14.926  46.806  30.985  1.00  0.00     0.111 A 
ATOM      6  C   UNL     1      15.113  45.394  31.071  1.00  0.00     0.134 A 
ATOM      7  C   UNL     1      14.643  44.703  32.195  1.00  0.00     0.093 A 
ATOM      8  C   UNL     1      14.053  45.383  33.264  1.00  0.00     0.123 A 
ATOM      9  C   UNL     1      13.921  46.769  33.214  1.00  0.00     0.094 A 
ATOM     10  C   UNL     1      14.346  47.481  32.090  1.00  0.00     0.146 A 
ATOM     11  O   UNL     1      14.191  48.799  32.079  1.00  0.00    -0.452 OA
ENDROOT
BRANCH   1  12
ATOM     12  C   UNL     1      14.340  51.030  31.178  1.00  0.00     0.025 A 
ATOM     13  C   UNL     1      13.093  51.587  30.851  1.00  0.00     0.016 A 
ATOM     14  C   UNL     1      12.876  52.961  30.981  1.00  0.00     0.051 A 
ATOM     15  C   UNL     1      13.892  53.797  31.453  1.00  0.00     0.157 A 
ATOM     16  C   UNL     1      15.354  51.870  31.673  1.00  0.00     0.062 A 
ATOM     17  C   UNL     1      15.137  53.249  31.806  1.00  0.00     0.158 A 
BRANCH  15  18
ATOM     18  O   UNL     1      13.647  55.164  31.570  1.00  0.00    -0.504 OA
ATOM     19  H   UNL     1      14.396  55.840  31.660  1.00  0.00     0.293 HD
ENDBRANCH  15  18
BRANCH  17  20
ATOM     20  O   UNL     1      16.150  54.075  32.291  1.00  0.00    -0.504 OA
ATOM     21  H   UNL     1      16.209  55.053  32.031  1.00  0.00     0.293 HD
ENDBRANCH  17  20
ENDBRANCH   1  12
BRANCH   2  22
ATOM     22  O   UNL     1      15.341  49.771  28.769  1.00  0.00    -0.502 OA
ATOM     23  H   UNL     1      16.177  50.339  28.704  1.00  0.00     0.293 HD
ENDBRANCH   2  22
BRANCH   6  24
ATOM     24  O   UNL     1      15.772  44.633  30.102  1.00  0.00    -0.507 OA
ATOM     25  H   UNL     1      15.894  43.631  30.142  1.00  0.00     0.293 HD
ENDBRANCH   6  24
BRANCH   8  26
ATOM     26  O   UNL     1      13.603  44.690  34.386  1.00  0.00    -0.508 OA
ATOM     27  H   UNL     1      14.049  43.834  34.694  1.00  0.00     0.293 HD
ENDBRANCH   8  26
TORSDOF 6
ENDMDL
MODEL 8
REMARK VINA RESULT:    -4.719      3.161      3.892
REMARK INTER + INTRA:          -5.892
REMARK INTER:                  -5.776
REMARK INTRA:                  -0.116
REMARK UNBOUND:                -0.207
REMARK SMILES O=c1c(O)c(-c2ccc(O)c(O)c2)oc2cc(O)cc(O)c12
REMARK SMILES IDX 5 1 3 2 2 3 1 4 22 5 20 6 19 7 17 8 16 9 15 10 14 11 6 12
REMARK SMILES IDX 7 13 8 14 9 15 13 16 11 17 10 18 12 20 4 22 21 24 18 26
REMARK H PARENT 10 19 12 21 4 23 21 25 18 27
REMARK Flexibility Score: inf
ROOT
ATOM      1  C   UNL     1      15.053  52.597  31.510  1.00  0.00     0.180 A 
ATOM      2  C   UNL     1      14.974  53.336  30.318  1.00  0.00     0.208 A 
ATOM      3  C   UNL     1      15.428  52.754  29.123  1.00  0.00     0.238 A 
ATOM      4  O   UNL     1      15.305  53.400  28.051  1.00  0.00    -0.285 OA
ATOM      5  C   UNL     1      15.972  51.447  29.140  1.00  0.00     0.111 A 
ATOM      6  C   UNL     1      16.500  50.775  27.997  1.00  0.00     0.134 A 
ATOM      7  C   UNL     1      16.890  49.434  28.104  1.00  0.00     0.093 A 
ATOM      8  C   UNL     1      16.834  48.763  29.328  1.00  0.00     0.123 A 
ATOM      9  C   UNL     1      16.377  49.429  30.462  1.00  0.00     0.094 A 
ATOM     10  C   UNL     1      15.945  50.755  30.379  1.00  0.00     0.146 A 
ATOM     11  O   UNL     1      15.506  51.349  31.482  1.00  0.00    -0.452 OA
ENDROOT
BRANCH   1  12
ATOM     12  C   UNL     1      14.617  53.152  32.812  1.00  0.00     0.025 A 
ATOM     13  C   UNL     1      15.560  53.340  33.835  1.00  0.00     0.016 A 
ATOM     14  C   UNL     1      15.173  53.881  35.063  1.00  0.00     0.051 A 
ATOM     15  C   UNL     1      13.845  54.258  35.284  1.00  0.00     0.157 A 
ATOM     16  C   UNL     1      13.285  53.551  33.029  1.00  0.00     0.062 A 
ATOM     17  C   UNL     1      12.896  54.096  34.262  1.00  0.00     0.158 A 
BRANCH  15  18
ATOM     18  O   UNL     1      13.489  54.793  36.521  1.00  0.00    -0.504 OA
ATOM     19  H   UNL     1      14.031  55.521  36.970  1.00  0.00     0.293 HD
ENDBRANCH  15  18
BRANCH  17  20
ATOM     20  O   UNL     1      11.573  54.482  34.470  1.00  0.00    -0.504 OA
ATOM     21  H   UNL     1      11.001  54.051  35.187  1.00  0.00     0.293 HD
ENDBRANCH  17  20
ENDBRANCH   1  12
BRANCH   2  22
ATOM     22  O   UNL     1      14.414  54.617  30.321  1.00  0.00    -0.502 OA
ATOM     23  H   UNL     1      13.449  54.789  30.064  1.00  0.00     0.293 HD
ENDBRANCH   2  22
BRANCH   6  24
ATOM     24  O   UNL     1      16.684  51.381  26.751  1.00  0.00    -0.507 OA
ATOM     25  H   UNL     1      16.481  50.945  25.864  1.00  0.00     0.293 HD
ENDBRANCH   6  24
BRANCH   8  26
ATOM     26  O   UNL     1      17.241  47.434  29.429  1.00  0.00    -0.508 OA
ATOM     27  H   UNL     1      16.583  46.669  29.333  1.00  0.00     0.293 HD
ENDBRANCH   8  26
TORSDOF 6
ENDMDL
MODEL 9
REMARK VINA RESULT:    -4.683      2.223      7.176
REMARK INTER + INTRA:          -5.849
REMARK INTER:                  -5.679
REMARK INTRA:                  -0.170
REMARK UNBOUND:                -0.207
REMARK SMILES O=c1c(O)c(-c2ccc(O)c(O)c2)oc2cc(O)cc(O)c12
REMARK SMILES IDX 5 1 3 2 2 3 1 4 22 5 20 6 19 7 17 8 16 9 15 10 14 11 6 12
REMARK SMILES IDX 7 13 8 14 9 15 13 16 11 17 10 18 12 20 4 22 21 24 18 26
REMARK H PARENT 10 19 12 21 4 23 21 25 18 27
REMARK Flexibility Score: inf
ROOT
ATOM      1  C   UNL     1      15.358  50.657  30.609  1.00  0.00     0.180 A 
ATOM      2  C   UNL     1      15.363  51.109  29.279  1.00  0.00     0.208 A 
ATOM      3  C   UNL     1      15.326  52.490  29.028  1.00  0.00     0.238 A 
ATOM      4  O   UNL     1      15.385  52.890  27.836  1.00  0.00    -0.285 OA
ATOM      5  C   UNL     1      15.267  53.401  30.110  1.00  0.00     0.111 A 
ATOM      6  C   UNL     1      15.185  54.819  29.971  1.00  0.00     0.134 A 
ATOM      7  C   UNL     1      15.266  55.630  31.110  1.00  0.00     0.093 A 
ATOM      8  C   UNL     1      15.359  55.070  32.387  1.00  0.00     0.123 A 
ATOM      9  C   UNL     1      15.379  53.686  32.536  1.00  0.00     0.094 A 
ATOM     10  C   UNL     1      15.337  52.852  31.417  1.00  0.00     0.146 A 
ATOM     11  O   UNL     1      15.370  51.538  31.603  1.00  0.00    -0.452 OA
ENDROOT
BRANCH   1  12
ATOM     12  C   UNL     1      15.371  49.217  30.953  1.00  0.00     0.025 A 
ATOM     13  C   UNL     1      14.237  48.637  31.542  1.00  0.00     0.016 A 
ATOM     14  C   UNL     1      14.220  47.275  31.855  1.00  0.00     0.051 A 
ATOM     15  C   UNL     1      15.328  46.470  31.571  1.00  0.00     0.157 A 
ATOM     16  C   UNL     1      16.476  48.401  30.649  1.00  0.00     0.062 A 
ATOM     17  C   UNL     1      16.460  47.034  30.961  1.00  0.00     0.158 A 
BRANCH  15  18
ATOM     18  O   UNL     1      15.283  45.115  31.897  1.00  0.00    -0.504 OA
ATOM     19  H   UNL     1      15.828  44.726  32.657  1.00  0.00     0.293 HD
ENDBRANCH  15  18
BRANCH  17  20
ATOM     20  O   UNL     1      17.562  46.234  30.661  1.00  0.00    -0.504 OA
ATOM     21  H   UNL     1      17.532  45.226  30.769  1.00  0.00     0.293 HD
ENDBRANCH  17  20
ENDBRANCH   1  12
BRANCH   2  22
ATOM     22  O   UNL     1      15.443  50.193  28.226  1.00  0.00    -0.502 OA
ATOM     23  H   UNL     1      15.310  50.463  27.259  1.00  0.00     0.293 HD
ENDBRANCH   2  22
BRANCH   6  24
ATOM     24  O   UNL     1      15.000  55.474  28.751  1.00  0.00    -0.507 OA
ATOM     25  H   UNL     1      14.102  55.686  28.342  1.00  0.00     0.293 HD
ENDBRANCH   6  24
BRANCH   8  26
ATOM     26  O   UNL     1      15.421  55.885  33.517  1.00  0.00    -0.508 OA
ATOM     27  H   UNL     1      14.635  55.973  34.150  1.00  0.00     0.293 HD
ENDBRANCH   8  26
TORSDOF 6
ENDMDL
