MODEL 1
REMARK VINA RESULT:    -8.089      0.000      0.000
REMARK INTER + INTRA:          -9.662
REMARK INTER:                  -9.507
REMARK INTRA:                  -0.154
REMARK UNBOUND:                -0.154
REMARK SMILES O=c1c(O)c(-c2ccc(O)cc2)oc2cc(O)cc(O)c12
REMARK SMILES IDX 5 1 3 2 2 3 1 4 21 5 19 6 18 7 16 8 15 9 14 10 13 11 6 12
REMARK SMILES IDX 7 13 8 14 9 15 12 16 11 17 10 18 4 20 20 22 17 24
REMARK H PARENT 10 19 4 21 20 23 17 25
REMARK Flexibility Score: inf
ROOT
ATOM      1  C   UNL     1     -34.442  44.300  40.009  1.00  0.00     0.180 A 
ATOM      2  C   UNL     1     -35.125  44.910  41.076  1.00  0.00     0.208 A 
ATOM      3  C   UNL     1     -35.465  44.136  42.197  1.00  0.00     0.238 A 
ATOM      4  O   UNL     1     -36.123  44.673  43.126  1.00  0.00    -0.285 OA
ATOM      5  C   UNL     1     -35.103  42.767  42.245  1.00  0.00     0.111 A 
ATOM      6  C   UNL     1     -35.361  41.899  43.348  1.00  0.00     0.134 A 
ATOM      7  C   UNL     1     -35.076  40.532  43.233  1.00  0.00     0.093 A 
ATOM      8  C   UNL     1     -34.484  40.015  42.083  1.00  0.00     0.123 A 
ATOM      9  C   UNL     1     -34.172  40.866  41.020  1.00  0.00     0.094 A 
ATOM     10  C   UNL     1     -34.478  42.227  41.091  1.00  0.00     0.146 A 
ATOM     11  O   UNL     1     -34.175  43.000  40.056  1.00  0.00    -0.452 OA
ENDROOT
BRANCH   1  12
ATOM     12  C   UNL     1     -34.028  45.056  38.805  1.00  0.00     0.021 A 
ATOM     13  C   UNL     1     -35.005  45.518  37.908  1.00  0.00     0.016 A 
ATOM     14  C   UNL     1     -34.634  46.214  36.752  1.00  0.00     0.047 A 
ATOM     15  C   UNL     1     -33.284  46.442  36.472  1.00  0.00     0.115 A 
ATOM     16  C   UNL     1     -32.670  45.271  38.506  1.00  0.00     0.016 A 
ATOM     17  C   UNL     1     -32.302  45.966  37.351  1.00  0.00     0.047 A 
BRANCH  15  18
ATOM     18  O   UNL     1     -32.929  47.138  35.318  1.00  0.00    -0.508 OA
ATOM     19  H   UNL     1     -32.171  46.823  34.723  1.00  0.00     0.293 HD
ENDBRANCH  15  18
ENDBRANCH   1  12
BRANCH   2  20
ATOM     20  O   UNL     1     -35.491  46.256  40.999  1.00  0.00    -0.502 OA
ATOM     21  H   UNL     1     -34.845  47.008  41.206  1.00  0.00     0.293 HD
ENDBRANCH   2  20
BRANCH   6  22
ATOM     22  O   UNL     1     -35.867  42.329  44.579  1.00  0.00    -0.507 OA
ATOM     23  H   UNL     1     -36.286  41.725  45.270  1.00  0.00     0.293 HD
ENDBRANCH   6  22
BRANCH   8  24
ATOM     24  O   UNL     1     -34.199  38.654  42.008  1.00  0.00    -0.508 OA
ATOM     25  H   UNL     1     -33.512  38.289  41.358  1.00  0.00     0.293 HD
ENDBRANCH   8  24
TORSDOF 5
ENDMDL
MODEL 2
REMARK VINA RESULT:    -8.048      5.632      7.926
REMARK INTER + INTRA:          -9.613
REMARK INTER:                  -9.314
REMARK INTRA:                  -0.300
REMARK UNBOUND:                -0.154
REMARK SMILES O=c1c(O)c(-c2ccc(O)cc2)oc2cc(O)cc(O)c12
REMARK SMILES IDX 5 1 3 2 2 3 1 4 21 5 19 6 18 7 16 8 15 9 14 10 13 11 6 12
REMARK SMILES IDX 7 13 8 14 9 15 12 16 11 17 10 18 4 20 20 22 17 24
REMARK H PARENT 10 19 4 21 20 23 17 25
REMARK Flexibility Score: inf
ROOT
ATOM      1  C   UNL     1     -36.952  39.869  45.075  1.00  0.00     0.180 A 
ATOM      2  C   UNL     1     -38.088  39.974  44.253  1.00  0.00     0.208 A 
ATOM      3  C   UNL     1     -39.330  39.551  44.752  1.00  0.00     0.238 A 
ATOM      4  O   UNL     1     -40.334  39.597  43.994  1.00  0.00    -0.285 OA
ATOM      5  C   UNL     1     -39.425  39.044  46.071  1.00  0.00     0.111 A 
ATOM      6  C   UNL     1     -40.639  38.624  46.693  1.00  0.00     0.134 A 
ATOM      7  C   UNL     1     -40.595  38.017  47.954  1.00  0.00     0.093 A 
ATOM      8  C   UNL     1     -39.392  37.874  48.643  1.00  0.00     0.123 A 
ATOM      9  C   UNL     1     -38.206  38.336  48.069  1.00  0.00     0.094 A 
ATOM     10  C   UNL     1     -38.212  38.912  46.797  1.00  0.00     0.146 A 
ATOM     11  O   UNL     1     -37.062  39.329  46.284  1.00  0.00    -0.452 OA
ENDROOT
BRANCH   1  12
ATOM     12  C   UNL     1     -35.613  40.317  44.630  1.00  0.00     0.021 A 
ATOM     13  C   UNL     1     -34.722  39.385  44.071  1.00  0.00     0.016 A 
ATOM     14  C   UNL     1     -33.444  39.783  43.664  1.00  0.00     0.047 A 
ATOM     15  C   UNL     1     -33.035  41.110  43.825  1.00  0.00     0.115 A 
ATOM     16  C   UNL     1     -35.188  41.647  44.808  1.00  0.00     0.016 A 
ATOM     17  C   UNL     1     -33.910  42.041  44.401  1.00  0.00     0.047 A 
BRANCH  15  18
ATOM     18  O   UNL     1     -31.760  41.492  43.415  1.00  0.00    -0.508 OA
ATOM     19  H   UNL     1     -31.225  42.185  43.926  1.00  0.00     0.293 HD
ENDBRANCH  15  18
ENDBRANCH   1  12
BRANCH   2  20
ATOM     20  O   UNL     1     -37.968  40.457  42.948  1.00  0.00    -0.502 OA
ATOM     21  H   UNL     1     -38.398  41.324  42.647  1.00  0.00     0.293 HD
ENDBRANCH   2  20
BRANCH   6  22
ATOM     22  O   UNL     1     -41.906  38.803  46.131  1.00  0.00    -0.507 OA
ATOM     23  H   UNL     1     -42.146  39.533  45.476  1.00  0.00     0.293 HD
ENDBRANCH   6  22
BRANCH   8  24
ATOM     24  O   UNL     1     -39.387  37.281  49.903  1.00  0.00    -0.508 OA
ATOM     25  H   UNL     1     -40.219  36.854  50.293  1.00  0.00     0.293 HD
ENDBRANCH   8  24
TORSDOF 5
ENDMDL
MODEL 3
REMARK VINA RESULT:    -7.852      1.924      6.947
REMARK INTER + INTRA:          -9.384
REMARK INTER:                  -9.084
REMARK INTRA:                  -0.300
REMARK UNBOUND:                -0.154
REMARK SMILES O=c1c(O)c(-c2ccc(O)cc2)oc2cc(O)cc(O)c12
REMARK SMILES IDX 5 1 3 2 2 3 1 4 21 5 19 6 18 7 16 8 15 9 14 10 13 11 6 12
REMARK SMILES IDX 7 13 8 14 9 15 12 16 11 17 10 18 4 20 20 22 17 24
REMARK H PARENT 10 19 4 21 20 23 17 25
REMARK Flexibility Score: inf
ROOT
ATOM      1  C   UNL     1     -35.504  41.243  42.226  1.00  0.00     0.180 A 
ATOM      2  C   UNL     1     -35.785  42.361  43.031  1.00  0.00     0.208 A 
ATOM      3  C   UNL     1     -35.636  43.646  42.486  1.00  0.00     0.238 A 
ATOM      4  O   UNL     1     -35.837  44.644  43.227  1.00  0.00    -0.285 OA
ATOM      5  C   UNL     1     -35.224  43.799  41.139  1.00  0.00     0.111 A 
ATOM      6  C   UNL     1     -35.079  45.052  40.473  1.00  0.00     0.134 A 
ATOM      7  C   UNL     1     -34.540  45.089  39.181  1.00  0.00     0.093 A 
ATOM      8  C   UNL     1     -34.203  43.917  38.508  1.00  0.00     0.123 A 
ATOM      9  C   UNL     1     -34.396  42.681  39.128  1.00  0.00     0.094 A 
ATOM     10  C   UNL     1     -34.897  42.613  40.430  1.00  0.00     0.146 A 
ATOM     11  O   UNL     1     -35.057  41.420  40.987  1.00  0.00    -0.452 OA
ENDROOT
BRANCH   1  12
ATOM     12  C   UNL     1     -35.661  39.856  42.720  1.00  0.00     0.021 A 
ATOM     13  C   UNL     1     -34.549  39.181  43.252  1.00  0.00     0.016 A 
ATOM     14  C   UNL     1     -34.671  37.863  43.703  1.00  0.00     0.047 A 
ATOM     15  C   UNL     1     -35.898  37.199  43.616  1.00  0.00     0.115 A 
ATOM     16  C   UNL     1     -36.888  39.176  42.617  1.00  0.00     0.016 A 
ATOM     17  C   UNL     1     -37.006  37.859  43.069  1.00  0.00     0.047 A 
BRANCH  15  18
ATOM     18  O   UNL     1     -36.005  35.887  44.071  1.00  0.00    -0.508 OA
ATOM     19  H   UNL     1     -35.974  35.665  45.060  1.00  0.00     0.293 HD
ENDBRANCH  15  18
ENDBRANCH   1  12
BRANCH   2  20
ATOM     20  O   UNL     1     -36.169  42.189  44.363  1.00  0.00    -0.502 OA
ATOM     21  H   UNL     1     -37.130  42.018  44.635  1.00  0.00     0.293 HD
ENDBRANCH   2  20
BRANCH   6  22
ATOM     22  O   UNL     1     -35.472  46.277  41.020  1.00  0.00    -0.507 OA
ATOM     23  H   UNL     1     -36.081  46.941  40.566  1.00  0.00     0.293 HD
ENDBRANCH   6  22
BRANCH   8  24
ATOM     24  O   UNL     1     -33.684  43.989  37.217  1.00  0.00    -0.508 OA
ATOM     25  H   UNL     1     -32.688  43.922  37.040  1.00  0.00     0.293 HD
ENDBRANCH   8  24
TORSDOF 5
ENDMDL
MODEL 4
REMARK VINA RESULT:    -7.831      2.196      2.538
REMARK INTER + INTRA:          -9.359
REMARK INTER:                  -9.420
REMARK INTRA:                   0.060
REMARK UNBOUND:                -0.154
REMARK SMILES O=c1c(O)c(-c2ccc(O)cc2)oc2cc(O)cc(O)c12
REMARK SMILES IDX 5 1 3 2 2 3 1 4 21 5 19 6 18 7 16 8 15 9 14 10 13 11 6 12
REMARK SMILES IDX 7 13 8 14 9 15 12 16 11 17 10 18 4 20 20 22 17 24
REMARK H PARENT 10 19 4 21 20 23 17 25
REMARK Flexibility Score: inf
ROOT
ATOM      1  C   UNL     1     -33.242  43.217  39.993  1.00  0.00     0.180 A 
ATOM      2  C   UNL     1     -34.392  42.940  40.753  1.00  0.00     0.208 A 
ATOM      3  C   UNL     1     -34.308  42.007  41.799  1.00  0.00     0.238 A 
ATOM      4  O   UNL     1     -35.352  41.723  42.441  1.00  0.00    -0.285 OA
ATOM      5  C   UNL     1     -33.072  41.375  42.083  1.00  0.00     0.111 A 
ATOM      6  C   UNL     1     -32.863  40.444  43.144  1.00  0.00     0.134 A 
ATOM      7  C   UNL     1     -31.633  39.783  43.249  1.00  0.00     0.093 A 
ATOM      8  C   UNL     1     -30.586  40.065  42.375  1.00  0.00     0.123 A 
ATOM      9  C   UNL     1     -30.760  41.019  41.369  1.00  0.00     0.094 A 
ATOM     10  C   UNL     1     -31.987  41.668  41.216  1.00  0.00     0.146 A 
ATOM     11  O   UNL     1     -32.115  42.560  40.241  1.00  0.00    -0.452 OA
ENDROOT
BRANCH   1  12
ATOM     12  C   UNL     1     -33.245  44.206  38.891  1.00  0.00     0.021 A 
ATOM     13  C   UNL     1     -34.219  44.115  37.882  1.00  0.00     0.016 A 
ATOM     14  C   UNL     1     -34.226  45.026  36.820  1.00  0.00     0.047 A 
ATOM     15  C   UNL     1     -33.253  46.027  36.745  1.00  0.00     0.115 A 
ATOM     16  C   UNL     1     -32.257  45.203  38.798  1.00  0.00     0.016 A 
ATOM     17  C   UNL     1     -32.266  46.112  37.736  1.00  0.00     0.047 A 
BRANCH  15  18
ATOM     18  O   UNL     1     -33.273  46.927  35.682  1.00  0.00    -0.508 OA
ATOM     19  H   UNL     1     -34.132  47.144  35.188  1.00  0.00     0.293 HD
ENDBRANCH  15  18
ENDBRANCH   1  12
BRANCH   2  20
ATOM     20  O   UNL     1     -35.606  43.559  40.443  1.00  0.00    -0.502 OA
ATOM     21  H   UNL     1     -36.288  43.138  39.823  1.00  0.00     0.293 HD
ENDBRANCH   2  20
BRANCH   6  22
ATOM     22  O   UNL     1     -33.813  40.156  44.128  1.00  0.00    -0.507 OA
ATOM     23  H   UNL     1     -34.771  39.899  43.944  1.00  0.00     0.293 HD
ENDBRANCH   6  22
BRANCH   8  24
ATOM     24  O   UNL     1     -29.370  39.401  42.519  1.00  0.00    -0.508 OA
ATOM     25  H   UNL     1     -28.945  38.898  41.748  1.00  0.00     0.293 HD
ENDBRANCH   8  24
TORSDOF 5
ENDMDL
MODEL 5
REMARK VINA RESULT:    -7.804      5.637      7.116
REMARK INTER + INTRA:          -9.327
REMARK INTER:                  -9.050
REMARK INTRA:                  -0.277
REMARK UNBOUND:                -0.154
REMARK SMILES O=c1c(O)c(-c2ccc(O)cc2)oc2cc(O)cc(O)c12
REMARK SMILES IDX 5 1 3 2 2 3 1 4 21 5 19 6 18 7 16 8 15 9 14 10 13 11 6 12
REMARK SMILES IDX 7 13 8 14 9 15 12 16 11 17 10 18 4 20 20 22 17 24
REMARK H PARENT 10 19 4 21 20 23 17 25
REMARK Flexibility Score: inf
ROOT
ATOM      1  C   UNL     1     -35.248  39.691  44.289  1.00  0.00     0.180 A 
ATOM      2  C   UNL     1     -36.324  39.852  43.399  1.00  0.00     0.208 A 
ATOM      3  C   UNL     1     -37.630  39.638  43.866  1.00  0.00     0.238 A 
ATOM      4  O   UNL     1     -38.586  39.730  43.052  1.00  0.00    -0.285 OA
ATOM      5  C   UNL     1     -37.846  39.283  45.220  1.00  0.00     0.111 A 
ATOM      6  C   UNL     1     -39.130  39.082  45.811  1.00  0.00     0.134 A 
ATOM      7  C   UNL     1     -39.218  38.606  47.125  1.00  0.00     0.093 A 
ATOM      8  C   UNL     1     -38.075  38.386  47.890  1.00  0.00     0.123 A 
ATOM      9  C   UNL     1     -36.815  38.638  47.342  1.00  0.00     0.094 A 
ATOM     10  C   UNL     1     -36.693  39.078  46.022  1.00  0.00     0.146 A 
ATOM     11  O   UNL     1     -35.478  39.295  45.536  1.00  0.00    -0.452 OA
ENDROOT
BRANCH   1  12
ATOM     12  C   UNL     1     -33.844  39.923  43.878  1.00  0.00     0.021 A 
ATOM     13  C   UNL     1     -33.263  41.186  44.081  1.00  0.00     0.016 A 
ATOM     14  C   UNL     1     -31.945  41.432  43.680  1.00  0.00     0.047 A 
ATOM     15  C   UNL     1     -31.199  40.427  43.058  1.00  0.00     0.115 A 
ATOM     16  C   UNL     1     -33.094  38.921  43.233  1.00  0.00     0.016 A 
ATOM     17  C   UNL     1     -31.778  39.171  42.834  1.00  0.00     0.047 A 
BRANCH  15  18
ATOM     18  O   UNL     1     -29.888  40.686  42.666  1.00  0.00    -0.508 OA
ATOM     19  H   UNL     1     -29.098  40.329  43.190  1.00  0.00     0.293 HD
ENDBRANCH  15  18
ENDBRANCH   1  12
BRANCH   2  20
ATOM     20  O   UNL     1     -36.087  40.181  42.062  1.00  0.00    -0.502 OA
ATOM     21  H   UNL     1     -35.155  40.339  41.697  1.00  0.00     0.293 HD
ENDBRANCH   2  20
BRANCH   6  22
ATOM     22  O   UNL     1     -40.339  39.358  45.164  1.00  0.00    -0.507 OA
ATOM     23  H   UNL     1     -41.233  38.977  45.432  1.00  0.00     0.293 HD
ENDBRANCH   6  22
BRANCH   8  24
ATOM     24  O   UNL     1     -38.200  37.928  49.199  1.00  0.00    -0.508 OA
ATOM     25  H   UNL     1     -38.442  38.552  49.960  1.00  0.00     0.293 HD
ENDBRANCH   8  24
TORSDOF 5
ENDMDL
MODEL 6
REMARK VINA RESULT:    -7.784      1.616      2.917
REMARK INTER + INTRA:          -9.304
REMARK INTER:                  -9.234
REMARK INTRA:                  -0.070
REMARK UNBOUND:                -0.154
REMARK SMILES O=c1c(O)c(-c2ccc(O)cc2)oc2cc(O)cc(O)c12
REMARK SMILES IDX 5 1 3 2 2 3 1 4 21 5 19 6 18 7 16 8 15 9 14 10 13 11 6 12
REMARK SMILES IDX 7 13 8 14 9 15 12 16 11 17 10 18 4 20 20 22 17 24
REMARK H PARENT 10 19 4 21 20 23 17 25
REMARK Flexibility Score: inf
ROOT
ATOM      1  C   UNL     1     -33.489  43.236  40.252  1.00  0.00     0.180 A 
ATOM      2  C   UNL     1     -32.425  42.394  40.619  1.00  0.00     0.208 A 
ATOM      3  C   UNL     1     -32.591  41.525  41.710  1.00  0.00     0.238 A 
ATOM      4  O   UNL     1     -31.617  40.812  42.068  1.00  0.00    -0.285 OA
ATOM      5  C   UNL     1     -33.822  41.497  42.409  1.00  0.00     0.111 A 
ATOM      6  C   UNL     1     -34.114  40.629  43.503  1.00  0.00     0.134 A 
ATOM      7  C   UNL     1     -35.318  40.779  44.203  1.00  0.00     0.093 A 
ATOM      8  C   UNL     1     -36.267  41.720  43.809  1.00  0.00     0.123 A 
ATOM      9  C   UNL     1     -36.017  42.535  42.702  1.00  0.00     0.094 A 
ATOM     10  C   UNL     1     -34.810  42.434  42.007  1.00  0.00     0.146 A 
ATOM     11  O   UNL     1     -34.608  43.233  40.967  1.00  0.00    -0.452 OA
ENDROOT
BRANCH   1  12
ATOM     12  C   UNL     1     -33.400  44.161  39.099  1.00  0.00     0.021 A 
ATOM     13  C   UNL     1     -34.276  43.999  38.013  1.00  0.00     0.016 A 
ATOM     14  C   UNL     1     -34.194  44.848  36.904  1.00  0.00     0.047 A 
ATOM     15  C   UNL     1     -33.228  45.857  36.860  1.00  0.00     0.115 A 
ATOM     16  C   UNL     1     -32.416  45.166  39.039  1.00  0.00     0.016 A 
ATOM     17  C   UNL     1     -32.337  46.012  37.930  1.00  0.00     0.047 A 
BRANCH  15  18
ATOM     18  O   UNL     1     -33.159  46.695  35.749  1.00  0.00    -0.508 OA
ATOM     19  H   UNL     1     -33.528  46.412  34.849  1.00  0.00     0.293 HD
ENDBRANCH  15  18
ENDBRANCH   1  12
BRANCH   2  20
ATOM     20  O   UNL     1     -31.211  42.453  39.930  1.00  0.00    -0.502 OA
ATOM     21  H   UNL     1     -30.909  43.281  39.431  1.00  0.00     0.293 HD
ENDBRANCH   2  20
BRANCH   6  22
ATOM     22  O   UNL     1     -33.273  39.593  43.923  1.00  0.00    -0.507 OA
ATOM     23  H   UNL     1     -32.785  38.964  43.304  1.00  0.00     0.293 HD
ENDBRANCH   6  22
BRANCH   8  24
ATOM     24  O   UNL     1     -37.461  41.832  44.517  1.00  0.00    -0.508 OA
ATOM     25  H   UNL     1     -38.357  41.861  44.046  1.00  0.00     0.293 HD
ENDBRANCH   8  24
TORSDOF 5
ENDMDL
MODEL 7
REMARK VINA RESULT:    -7.674      4.801      9.597
REMARK INTER + INTRA:          -9.175
REMARK INTER:                  -8.881
REMARK INTRA:                  -0.294
REMARK UNBOUND:                -0.154
REMARK SMILES O=c1c(O)c(-c2ccc(O)cc2)oc2cc(O)cc(O)c12
REMARK SMILES IDX 5 1 3 2 2 3 1 4 21 5 19 6 18 7 16 8 15 9 14 10 13 11 6 12
REMARK SMILES IDX 7 13 8 14 9 15 12 16 11 17 10 18 4 20 20 22 17 24
REMARK H PARENT 10 19 4 21 20 23 17 25
REMARK Flexibility Score: inf
ROOT
ATOM      1  C   UNL     1     -38.081  39.264  45.418  1.00  0.00     0.180 A 
ATOM      2  C   UNL     1     -37.238  40.290  45.878  1.00  0.00     0.208 A 
ATOM      3  C   UNL     1     -36.565  41.090  44.940  1.00  0.00     0.238 A 
ATOM      4  O   UNL     1     -35.770  41.971  45.357  1.00  0.00    -0.285 OA
ATOM      5  C   UNL     1     -36.758  40.865  43.555  1.00  0.00     0.111 A 
ATOM      6  C   UNL     1     -36.159  41.641  42.517  1.00  0.00     0.134 A 
ATOM      7  C   UNL     1     -36.316  41.247  41.183  1.00  0.00     0.093 A 
ATOM      8  C   UNL     1     -37.101  40.147  40.844  1.00  0.00     0.123 A 
ATOM      9  C   UNL     1     -37.741  39.417  41.848  1.00  0.00     0.094 A 
ATOM     10  C   UNL     1     -37.574  39.763  43.190  1.00  0.00     0.146 A 
ATOM     11  O   UNL     1     -38.190  39.036  44.114  1.00  0.00    -0.452 OA
ENDROOT
BRANCH   1  12
ATOM     12  C   UNL     1     -38.843  38.394  46.344  1.00  0.00     0.021 A 
ATOM     13  C   UNL     1     -38.339  37.126  46.674  1.00  0.00     0.016 A 
ATOM     14  C   UNL     1     -39.054  36.280  47.530  1.00  0.00     0.047 A 
ATOM     15  C   UNL     1     -40.285  36.685  48.052  1.00  0.00     0.115 A 
ATOM     16  C   UNL     1     -40.093  38.788  46.858  1.00  0.00     0.016 A 
ATOM     17  C   UNL     1     -40.805  37.941  47.712  1.00  0.00     0.047 A 
BRANCH  15  18
ATOM     18  O   UNL     1     -40.985  35.833  48.904  1.00  0.00    -0.508 OA
ATOM     19  H   UNL     1     -41.901  36.078  49.261  1.00  0.00     0.293 HD
ENDBRANCH  15  18
ENDBRANCH   1  12
BRANCH   2  20
ATOM     20  O   UNL     1     -37.045  40.480  47.249  1.00  0.00    -0.502 OA
ATOM     21  H   UNL     1     -36.130  40.642  47.653  1.00  0.00     0.293 HD
ENDBRANCH   2  20
BRANCH   6  22
ATOM     22  O   UNL     1     -35.429  42.812  42.741  1.00  0.00    -0.507 OA
ATOM     23  H   UNL     1     -34.877  42.997  43.565  1.00  0.00     0.293 HD
ENDBRANCH   6  22
BRANCH   8  24
ATOM     24  O   UNL     1     -37.249  39.793  39.505  1.00  0.00    -0.508 OA
ATOM     25  H   UNL     1     -36.543  40.020  38.815  1.00  0.00     0.293 HD
ENDBRANCH   8  24
TORSDOF 5
ENDMDL
MODEL 8
REMARK VINA RESULT:    -7.671      3.804      6.376
REMARK INTER + INTRA:          -9.171
REMARK INTER:                  -8.882
REMARK INTRA:                  -0.289
REMARK UNBOUND:                -0.154
REMARK SMILES O=c1c(O)c(-c2ccc(O)cc2)oc2cc(O)cc(O)c12
REMARK SMILES IDX 5 1 3 2 2 3 1 4 21 5 19 6 18 7 16 8 15 9 14 10 13 11 6 12
REMARK SMILES IDX 7 13 8 14 9 15 12 16 11 17 10 18 4 20 20 22 17 24
REMARK H PARENT 10 19 4 21 20 23 17 25
REMARK Flexibility Score: inf
ROOT
ATOM      1  C   UNL     1     -36.381  40.422  43.933  1.00  0.00     0.180 A 
ATOM      2  C   UNL     1     -35.484  40.111  44.970  1.00  0.00     0.208 A 
ATOM      3  C   UNL     1     -35.977  39.503  46.136  1.00  0.00     0.238 A 
ATOM      4  O   UNL     1     -35.180  39.275  47.083  1.00  0.00    -0.285 OA
ATOM      5  C   UNL     1     -37.356  39.199  46.244  1.00  0.00     0.111 A 
ATOM      6  C   UNL     1     -37.958  38.547  47.362  1.00  0.00     0.134 A 
ATOM      7  C   UNL     1     -39.351  38.415  47.417  1.00  0.00     0.093 A 
ATOM      8  C   UNL     1     -40.158  38.850  46.368  1.00  0.00     0.123 A 
ATOM      9  C   UNL     1     -39.575  39.436  45.242  1.00  0.00     0.094 A 
ATOM     10  C   UNL     1     -38.191  39.615  45.174  1.00  0.00     0.146 A 
ATOM     11  O   UNL     1     -37.678  40.184  44.091  1.00  0.00    -0.452 OA
ENDROOT
BRANCH   1  12
ATOM     12  C   UNL     1     -35.934  41.041  42.664  1.00  0.00     0.021 A 
ATOM     13  C   UNL     1     -35.876  42.441  42.560  1.00  0.00     0.016 A 
ATOM     14  C   UNL     1     -35.478  43.046  41.362  1.00  0.00     0.047 A 
ATOM     15  C   UNL     1     -35.149  42.262  40.253  1.00  0.00     0.115 A 
ATOM     16  C   UNL     1     -35.620  40.258  41.538  1.00  0.00     0.016 A 
ATOM     17  C   UNL     1     -35.223  40.866  40.343  1.00  0.00     0.047 A 
BRANCH  15  18
ATOM     18  O   UNL     1     -34.753  42.878  39.068  1.00  0.00    -0.508 OA
ATOM     19  H   UNL     1     -34.759  43.887  38.969  1.00  0.00     0.293 HD
ENDBRANCH  15  18
ENDBRANCH   1  12
BRANCH   2  20
ATOM     20  O   UNL     1     -34.131  40.439  44.852  1.00  0.00    -0.502 OA
ATOM     21  H   UNL     1     -33.396  39.872  45.258  1.00  0.00     0.293 HD
ENDBRANCH   2  20
BRANCH   6  22
ATOM     22  O   UNL     1     -37.235  37.992  48.423  1.00  0.00    -0.507 OA
ATOM     23  H   UNL     1     -37.250  38.338  49.371  1.00  0.00     0.293 HD
ENDBRANCH   6  22
BRANCH   8  24
ATOM     24  O   UNL     1     -41.539  38.689  46.449  1.00  0.00    -0.508 OA
ATOM     25  H   UNL     1     -41.955  37.926  46.971  1.00  0.00     0.293 HD
ENDBRANCH   8  24
TORSDOF 5
ENDMDL
MODEL 9
REMARK VINA RESULT:    -7.668      4.277      7.297
REMARK INTER + INTRA:          -9.168
REMARK INTER:                  -8.884
REMARK INTRA:                  -0.284
REMARK UNBOUND:                -0.154
REMARK SMILES O=c1c(O)c(-c2ccc(O)cc2)oc2cc(O)cc(O)c12
REMARK SMILES IDX 5 1 3 2 2 3 1 4 21 5 19 6 18 7 16 8 15 9 14 10 13 11 6 12
REMARK SMILES IDX 7 13 8 14 9 15 12 16 11 17 10 18 4 20 20 22 17 24
REMARK H PARENT 10 19 4 21 20 23 17 25
REMARK Flexibility Score: inf
ROOT
ATOM      1  C   UNL     1     -36.823  39.208  43.744  1.00  0.00     0.180 A 
ATOM      2  C   UNL     1     -36.114  38.008  43.930  1.00  0.00     0.208 A 
ATOM      3  C   UNL     1     -36.519  37.129  44.947  1.00  0.00     0.238 A 
ATOM      4  O   UNL     1     -35.849  36.082  45.144  1.00  0.00    -0.285 OA
ATOM      5  C   UNL     1     -37.637  37.452  45.754  1.00  0.00     0.111 A 
ATOM      6  C   UNL     1     -38.160  36.617  46.787  1.00  0.00     0.134 A 
ATOM      7  C   UNL     1     -39.188  37.096  47.608  1.00  0.00     0.093 A 
ATOM      8  C   UNL     1     -39.756  38.350  47.394  1.00  0.00     0.123 A 
ATOM      9  C   UNL     1     -39.292  39.151  46.349  1.00  0.00     0.094 A 
ATOM     10  C   UNL     1     -38.244  38.717  45.536  1.00  0.00     0.146 A 
ATOM     11  O   UNL     1     -37.826  39.513  44.560  1.00  0.00    -0.452 OA
ENDROOT
BRANCH   1  12
ATOM     12  C   UNL     1     -36.472  40.174  42.678  1.00  0.00     0.021 A 
ATOM     13  C   UNL     1     -37.096  40.076  41.423  1.00  0.00     0.016 A 
ATOM     14  C   UNL     1     -36.762  40.964  40.395  1.00  0.00     0.047 A 
ATOM     15  C   UNL     1     -35.793  41.949  40.602  1.00  0.00     0.115 A 
ATOM     16  C   UNL     1     -35.482  41.155  42.874  1.00  0.00     0.016 A 
ATOM     17  C   UNL     1     -35.151  42.041  41.844  1.00  0.00     0.047 A 
BRANCH  15  18
ATOM     18  O   UNL     1     -35.472  42.827  39.570  1.00  0.00    -0.508 OA
ATOM     19  H   UNL     1     -35.201  43.786  39.755  1.00  0.00     0.293 HD
ENDBRANCH  15  18
ENDBRANCH   1  12
BRANCH   2  20
ATOM     20  O   UNL     1     -35.001  37.719  43.136  1.00  0.00    -0.502 OA
ATOM     21  H   UNL     1     -34.793  38.227  42.284  1.00  0.00     0.293 HD
ENDBRANCH   2  20
BRANCH   6  22
ATOM     22  O   UNL     1     -37.726  35.309  47.028  1.00  0.00    -0.507 OA
ATOM     23  H   UNL     1     -36.759  35.028  47.091  1.00  0.00     0.293 HD
ENDBRANCH   6  22
BRANCH   8  24
ATOM     24  O   UNL     1     -40.788  38.788  48.220  1.00  0.00    -0.508 OA
ATOM     25  H   UNL     1     -41.358  39.590  47.979  1.00  0.00     0.293 HD
ENDBRANCH   8  24
TORSDOF 5
ENDMDL
