MODEL 1
REMARK VINA RESULT:    -6.120      0.000      0.000
REMARK INTER + INTRA:         -10.367
REMARK INTER:                  -8.982
REMARK INTRA:                  -1.385
REMARK UNBOUND:                -1.385
REMARK SMILES O=c1c(O[C@H]2O[C@@H](CO)[C@H](O)[C@@H](O)[C@H]2O)c(-c2ccc(O)c(O)c2)oc2cc(O)cc(O)c12
REMARK SMILES IDX 4 1 3 2 16 3 25 4 2 5 26 6 1 7 33 8 27 9 31 10 28 11 30 12
REMARK SMILES IDX 17 13 18 14 19 15 20 16 24 17 22 18 21 19 23 21 32 23 29 25
REMARK SMILES IDX 5 27 14 28 6 29 12 30 7 31 10 32 15 33 13 35 8 37 9 38 11 40
REMARK H PARENT 21 20 23 22 32 24 29 26 15 34 13 36 9 39 11 41
REMARK Flexibility Score: inf
ROOT
ATOM      1  O   UNL     1      13.096   1.724   1.177  1.00  0.00    -0.454 OA
ENDROOT
BRANCH   1   2
ATOM      2  C   UNL     1      12.372   2.563   0.307  1.00  0.00     0.214 A 
ATOM      3  C   UNL     1      12.921   2.854  -0.959  1.00  0.00     0.180 A 
ATOM      4  O   UNL     1      12.293   3.682  -1.787  1.00  0.00    -0.452 OA
ATOM      5  C   UNL     1      11.131   3.145   0.647  1.00  0.00     0.239 A 
ATOM      6  C   UNL     1      11.133   4.258  -1.501  1.00  0.00     0.146 A 
ATOM      7  O   UNL     1      10.593   2.884   1.754  1.00  0.00    -0.285 OA
ATOM      8  C   UNL     1      10.492   4.012  -0.266  1.00  0.00     0.111 A 
ATOM      9  C   UNL     1      10.549   5.112  -2.442  1.00  0.00     0.094 A 
ATOM     10  C   UNL     1       9.251   4.639   0.002  1.00  0.00     0.134 A 
ATOM     11  C   UNL     1       9.324   5.729  -2.171  1.00  0.00     0.123 A 
ATOM     12  C   UNL     1       8.680   5.491  -0.955  1.00  0.00     0.093 A 
BRANCH   3  13
ATOM     13  C   UNL     1      14.218   2.293  -1.391  1.00  0.00     0.025 A 
ATOM     14  C   UNL     1      15.381   3.068  -1.272  1.00  0.00     0.016 A 
ATOM     15  C   UNL     1      16.616   2.553  -1.675  1.00  0.00     0.051 A 
ATOM     16  C   UNL     1      16.704   1.266  -2.214  1.00  0.00     0.157 A 
ATOM     17  C   UNL     1      14.303   1.011  -1.956  1.00  0.00     0.062 A 
ATOM     18  C   UNL     1      15.541   0.491  -2.360  1.00  0.00     0.158 A 
BRANCH  16  19
ATOM     19  O   UNL     1      17.950   0.777  -2.603  1.00  0.00    -0.504 OA
ATOM     20  H   UNL     1      18.094  -0.196  -2.848  1.00  0.00     0.293 HD
ENDBRANCH  16  19
BRANCH  18  21
ATOM     21  O   UNL     1      15.617  -0.789  -2.908  1.00  0.00    -0.504 OA
ATOM     22  H   UNL     1      14.786  -1.333  -3.104  1.00  0.00     0.293 HD
ENDBRANCH  18  21
ENDBRANCH   3  13
BRANCH  10  23
ATOM     23  O   UNL     1       8.582   4.424   1.207  1.00  0.00    -0.507 OA
ATOM     24  H   UNL     1       8.614   5.099   1.963  1.00  0.00     0.293 HD
ENDBRANCH  10  23
BRANCH  11  25
ATOM     25  O   UNL     1       8.738   6.580  -3.105  1.00  0.00    -0.508 OA
ATOM     26  H   UNL     1       8.210   6.222  -3.892  1.00  0.00     0.293 HD
ENDBRANCH  11  25
ENDBRANCH   1   2
BRANCH   1  27
ATOM     27  C   UNL     1      13.311   1.944   2.574  1.00  0.00     0.339 C 
ATOM     28  C   UNL     1      14.790   2.261   2.853  1.00  0.00     0.214 C 
ATOM     29  O   UNL     1      12.825   0.867   3.367  1.00  0.00    -0.332 OA
ATOM     30  C   UNL     1      15.670   1.018   2.665  1.00  0.00     0.180 C 
ATOM     31  C   UNL     1      13.560  -0.345   3.235  1.00  0.00     0.179 C 
ATOM     32  C   UNL     1      15.090  -0.176   3.448  1.00  0.00     0.177 C 
BRANCH  28  33
ATOM     33  O   UNL     1      15.215   3.295   2.003  1.00  0.00    -0.384 OA
ATOM     34  H   UNL     1      15.536   4.032   2.586  1.00  0.00     0.211 HD
ENDBRANCH  28  33
BRANCH  30  35
ATOM     35  O   UNL     1      15.776   0.709   1.299  1.00  0.00    -0.387 OA
ATOM     36  H   UNL     1      16.365   1.397   0.891  1.00  0.00     0.211 HD
ENDBRANCH  30  35
BRANCH  31  37
ATOM     37  C   UNL     1      13.205  -1.125   1.956  1.00  0.00     0.191 C 
BRANCH  37  38
ATOM     38  O   UNL     1      11.842  -0.971   1.668  1.00  0.00    -0.394 OA
ATOM     39  H   UNL     1      11.795  -0.454   0.822  1.00  0.00     0.210 HD
ENDBRANCH  37  38
ENDBRANCH  31  37
BRANCH  32  40
ATOM     40  O   UNL     1      15.393  -0.053   4.818  1.00  0.00    -0.387 OA
ATOM     41  H   UNL     1      16.260  -0.505   4.985  1.00  0.00     0.211 HD
ENDBRANCH  32  40
ENDBRANCH   1  27
TORSDOF 12
ENDMDL
MODEL 2
REMARK VINA RESULT:    -5.844      1.539      4.913
REMARK INTER + INTRA:          -9.962
REMARK INTER:                  -9.196
REMARK INTRA:                  -0.766
REMARK UNBOUND:                -1.385
REMARK SMILES O=c1c(O[C@H]2O[C@@H](CO)[C@H](O)[C@@H](O)[C@H]2O)c(-c2ccc(O)c(O)c2)oc2cc(O)cc(O)c12
REMARK SMILES IDX 4 1 3 2 16 3 25 4 2 5 26 6 1 7 33 8 27 9 31 10 28 11 30 12
REMARK SMILES IDX 17 13 18 14 19 15 20 16 24 17 22 18 21 19 23 21 32 23 29 25
REMARK SMILES IDX 5 27 14 28 6 29 12 30 7 31 10 32 15 33 13 35 8 37 9 38 11 40
REMARK H PARENT 21 20 23 22 32 24 29 26 15 34 13 36 9 39 11 41
REMARK Flexibility Score: inf
ROOT
ATOM      1  O   UNL     1      13.893   1.652  -0.581  1.00  0.00    -0.454 OA
ENDROOT
BRANCH   1   2
ATOM      2  C   UNL     1      12.941   2.594  -0.145  1.00  0.00     0.214 A 
ATOM      3  C   UNL     1      12.645   2.664   1.231  1.00  0.00     0.180 A 
ATOM      4  O   UNL     1      11.715   3.503   1.675  1.00  0.00    -0.452 OA
ATOM      5  C   UNL     1      12.252   3.461  -1.021  1.00  0.00     0.239 A 
ATOM      6  C   UNL     1      11.039   4.325   0.885  1.00  0.00     0.146 A 
ATOM      7  O   UNL     1      12.511   3.453  -2.253  1.00  0.00    -0.285 OA
ATOM      8  C   UNL     1      11.279   4.346  -0.507  1.00  0.00     0.111 A 
ATOM      9  C   UNL     1      10.083   5.176   1.449  1.00  0.00     0.094 A 
ATOM     10  C   UNL     1      10.542   5.241  -1.320  1.00  0.00     0.134 A 
ATOM     11  C   UNL     1       9.357   6.057   0.642  1.00  0.00     0.123 A 
ATOM     12  C   UNL     1       9.588   6.088  -0.736  1.00  0.00     0.093 A 
BRANCH   3  13
ATOM     13  C   UNL     1      13.314   1.787   2.215  1.00  0.00     0.025 A 
ATOM     14  C   UNL     1      12.786   0.516   2.481  1.00  0.00     0.016 A 
ATOM     15  C   UNL     1      13.406  -0.327   3.408  1.00  0.00     0.051 A 
ATOM     16  C   UNL     1      14.551   0.095   4.091  1.00  0.00     0.157 A 
ATOM     17  C   UNL     1      14.448   2.219   2.920  1.00  0.00     0.062 A 
ATOM     18  C   UNL     1      15.074   1.377   3.850  1.00  0.00     0.158 A 
BRANCH  16  19
ATOM     19  O   UNL     1      15.151  -0.768   5.006  1.00  0.00    -0.504 OA
ATOM     20  H   UNL     1      16.131  -1.021   4.946  1.00  0.00     0.293 HD
ENDBRANCH  16  19
BRANCH  18  21
ATOM     21  O   UNL     1      16.208   1.810   4.535  1.00  0.00    -0.504 OA
ATOM     22  H   UNL     1      16.287   1.720   5.541  1.00  0.00     0.293 HD
ENDBRANCH  18  21
ENDBRANCH   3  13
BRANCH  10  23
ATOM     23  O   UNL     1      10.747   5.297  -2.699  1.00  0.00    -0.507 OA
ATOM     24  H   UNL     1      11.508   4.797  -3.146  1.00  0.00     0.293 HD
ENDBRANCH  10  23
BRANCH  11  25
ATOM     25  O   UNL     1       8.404   6.907   1.198  1.00  0.00    -0.508 OA
ATOM     26  H   UNL     1       8.441   7.179   2.173  1.00  0.00     0.293 HD
ENDBRANCH  11  25
ENDBRANCH   1   2
BRANCH   1  27
ATOM     27  C   UNL     1      14.499   1.604  -1.876  1.00  0.00     0.339 C 
ATOM     28  C   UNL     1      15.035   0.194  -2.174  1.00  0.00     0.214 C 
ATOM     29  O   UNL     1      15.491   2.610  -2.041  1.00  0.00    -0.332 OA
ATOM     30  C   UNL     1      16.268  -0.125  -1.317  1.00  0.00     0.180 C 
ATOM     31  C   UNL     1      16.665   2.419  -1.259  1.00  0.00     0.179 C 
ATOM     32  C   UNL     1      17.303   1.012  -1.421  1.00  0.00     0.177 C 
BRANCH  28  33
ATOM     33  O   UNL     1      14.021  -0.751  -1.942  1.00  0.00    -0.384 OA
ATOM     34  H   UNL     1      14.402  -1.437  -1.334  1.00  0.00     0.211 HD
ENDBRANCH  28  33
BRANCH  30  35
ATOM     35  O   UNL     1      15.883  -0.325   0.019  1.00  0.00    -0.387 OA
ATOM     36  H   UNL     1      15.314  -1.138   0.038  1.00  0.00     0.211 HD
ENDBRANCH  30  35
BRANCH  31  37
ATOM     37  C   UNL     1      16.480   2.840   0.210  1.00  0.00     0.191 C 
BRANCH  37  38
ATOM     38  O   UNL     1      15.956   4.139   0.272  1.00  0.00    -0.394 OA
ATOM     39  H   UNL     1      15.063   4.096  -0.160  1.00  0.00     0.210 HD
ENDBRANCH  37  38
ENDBRANCH  31  37
BRANCH  32  40
ATOM     40  O   UNL     1      18.007   0.920  -2.638  1.00  0.00    -0.387 OA
ATOM     41  H   UNL     1      17.800   0.041  -3.049  1.00  0.00     0.211 HD
ENDBRANCH  32  40
ENDBRANCH   1  27
TORSDOF 12
ENDMDL
MODEL 3
REMARK VINA RESULT:    -5.666      2.646      6.840
REMARK INTER + INTRA:          -9.701
REMARK INTER:                  -8.340
REMARK INTRA:                  -1.360
REMARK UNBOUND:                -1.385
REMARK SMILES O=c1c(O[C@H]2O[C@@H](CO)[C@H](O)[C@@H](O)[C@H]2O)c(-c2ccc(O)c(O)c2)oc2cc(O)cc(O)c12
REMARK SMILES IDX 4 1 3 2 16 3 25 4 2 5 26 6 1 7 33 8 27 9 31 10 28 11 30 12
REMARK SMILES IDX 17 13 18 14 19 15 20 16 24 17 22 18 21 19 23 21 32 23 29 25
REMARK SMILES IDX 5 27 14 28 6 29 12 30 7 31 10 32 15 33 13 35 8 37 9 38 11 40
REMARK H PARENT 21 20 23 22 32 24 29 26 15 34 13 36 9 39 11 41
REMARK Flexibility Score: inf
ROOT
ATOM      1  O   UNL     1      11.999   1.033  -0.289  1.00  0.00    -0.454 OA
ENDROOT
BRANCH   1   2
ATOM      2  C   UNL     1      13.371   1.310  -0.450  1.00  0.00     0.214 A 
ATOM      3  C   UNL     1      13.925   2.398   0.254  1.00  0.00     0.180 A 
ATOM      4  O   UNL     1      15.203   2.723   0.089  1.00  0.00    -0.452 OA
ATOM      5  C   UNL     1      14.218   0.564  -1.299  1.00  0.00     0.239 A 
ATOM      6  C   UNL     1      16.028   2.055  -0.706  1.00  0.00     0.146 A 
ATOM      7  O   UNL     1      13.770  -0.435  -1.920  1.00  0.00    -0.285 OA
ATOM      8  C   UNL     1      15.573   0.936  -1.438  1.00  0.00     0.111 A 
ATOM      9  C   UNL     1      17.358   2.473  -0.809  1.00  0.00     0.094 A 
ATOM     10  C   UNL     1      16.483   0.243  -2.273  1.00  0.00     0.134 A 
ATOM     11  C   UNL     1      18.252   1.786  -1.635  1.00  0.00     0.123 A 
ATOM     12  C   UNL     1      17.814   0.676  -2.361  1.00  0.00     0.093 A 
BRANCH   3  13
ATOM     13  C   UNL     1      13.108   3.236   1.157  1.00  0.00     0.025 A 
ATOM     14  C   UNL     1      13.244   3.094   2.545  1.00  0.00     0.016 A 
ATOM     15  C   UNL     1      12.480   3.879   3.414  1.00  0.00     0.051 A 
ATOM     16  C   UNL     1      11.561   4.803   2.908  1.00  0.00     0.157 A 
ATOM     17  C   UNL     1      12.167   4.146   0.650  1.00  0.00     0.062 A 
ATOM     18  C   UNL     1      11.400   4.936   1.518  1.00  0.00     0.158 A 
BRANCH  16  19
ATOM     19  O   UNL     1      10.816   5.576   3.797  1.00  0.00    -0.504 OA
ATOM     20  H   UNL     1      10.862   5.437   4.800  1.00  0.00     0.293 HD
ENDBRANCH  16  19
BRANCH  18  21
ATOM     21  O   UNL     1      10.477   5.846   1.005  1.00  0.00    -0.504 OA
ATOM     22  H   UNL     1      10.004   6.515   1.600  1.00  0.00     0.293 HD
ENDBRANCH  18  21
ENDBRANCH   3  13
BRANCH  10  23
ATOM     23  O   UNL     1      16.079  -0.869  -3.012  1.00  0.00    -0.507 OA
ATOM     24  H   UNL     1      15.514  -1.605  -2.603  1.00  0.00     0.293 HD
ENDBRANCH  10  23
BRANCH  11  25
ATOM     25  O   UNL     1      19.579   2.197  -1.741  1.00  0.00    -0.508 OA
ATOM     26  H   UNL     1      19.873   3.120  -1.446  1.00  0.00     0.293 HD
ENDBRANCH  11  25
ENDBRANCH   1   2
BRANCH   1  27
ATOM     27  C   UNL     1      11.373  -0.243  -0.449  1.00  0.00     0.339 C 
ATOM     28  C   UNL     1      10.278  -0.181  -1.526  1.00  0.00     0.214 C 
ATOM     29  O   UNL     1      10.895  -0.763   0.786  1.00  0.00    -0.332 OA
ATOM     30  C   UNL     1       9.066   0.625  -1.039  1.00  0.00     0.180 C 
ATOM     31  C   UNL     1       9.786  -0.060   1.337  1.00  0.00     0.179 C 
ATOM     32  C   UNL     1       8.606   0.123   0.343  1.00  0.00     0.177 C 
BRANCH  28  33
ATOM     33  O   UNL     1      10.805   0.388  -2.697  1.00  0.00    -0.384 OA
ATOM     34  H   UNL     1      10.113   0.287  -3.402  1.00  0.00     0.211 HD
ENDBRANCH  28  33
BRANCH  30  35
ATOM     35  O   UNL     1       9.388   1.991  -0.989  1.00  0.00    -0.387 OA
ATOM     36  H   UNL     1       9.123   2.384  -1.862  1.00  0.00     0.211 HD
ENDBRANCH  30  35
BRANCH  31  37
ATOM     37  C   UNL     1      10.197   1.245   2.043  1.00  0.00     0.191 C 
BRANCH  37  38
ATOM     38  O   UNL     1       9.117   2.138   2.061  1.00  0.00    -0.394 OA
ATOM     39  H   UNL     1       8.380   1.689   1.573  1.00  0.00     0.210 HD
ENDBRANCH  37  38
ENDBRANCH  31  37
BRANCH  32  40
ATOM     40  O   UNL     1       7.876  -1.074   0.209  1.00  0.00    -0.387 OA
ATOM     41  H   UNL     1       7.278  -0.985  -0.578  1.00  0.00     0.211 HD
ENDBRANCH  32  40
ENDBRANCH   1  27
TORSDOF 12
ENDMDL
MODEL 4
REMARK VINA RESULT:    -5.508      2.267      7.282
REMARK INTER + INTRA:          -9.469
REMARK INTER:                  -8.233
REMARK INTRA:                  -1.237
REMARK UNBOUND:                -1.385
REMARK SMILES O=c1c(O[C@H]2O[C@@H](CO)[C@H](O)[C@@H](O)[C@H]2O)c(-c2ccc(O)c(O)c2)oc2cc(O)cc(O)c12
REMARK SMILES IDX 4 1 3 2 16 3 25 4 2 5 26 6 1 7 33 8 27 9 31 10 28 11 30 12
REMARK SMILES IDX 17 13 18 14 19 15 20 16 24 17 22 18 21 19 23 21 32 23 29 25
REMARK SMILES IDX 5 27 14 28 6 29 12 30 7 31 10 32 15 33 13 35 8 37 9 38 11 40
REMARK H PARENT 21 20 23 22 32 24 29 26 15 34 13 36 9 39 11 41
REMARK Flexibility Score: inf
ROOT
ATOM      1  O   UNL     1      10.796   3.158  -0.243  1.00  0.00    -0.454 OA
ENDROOT
BRANCH   1   2
ATOM      2  C   UNL     1      12.042   2.512  -0.360  1.00  0.00     0.214 A 
ATOM      3  C   UNL     1      12.225   1.278   0.296  1.00  0.00     0.180 A 
ATOM      4  O   UNL     1      13.402   0.664   0.253  1.00  0.00    -0.452 OA
ATOM      5  C   UNL     1      13.128   3.049  -1.086  1.00  0.00     0.239 A 
ATOM      6  C   UNL     1      14.448   1.140  -0.408  1.00  0.00     0.146 A 
ATOM      7  O   UNL     1      12.995   4.133  -1.714  1.00  0.00    -0.285 OA
ATOM      8  C   UNL     1      14.359   2.359  -1.116  1.00  0.00     0.111 A 
ATOM      9  C   UNL     1      15.645   0.416  -0.397  1.00  0.00     0.094 A 
ATOM     10  C   UNL     1      15.495   2.834  -1.816  1.00  0.00     0.134 A 
ATOM     11  C   UNL     1      16.763   0.890  -1.089  1.00  0.00     0.123 A 
ATOM     12  C   UNL     1      16.685   2.093  -1.795  1.00  0.00     0.093 A 
BRANCH   3  13
ATOM     13  C   UNL     1      11.144   0.650   1.084  1.00  0.00     0.025 A 
ATOM     14  C   UNL     1      11.241   0.610   2.483  1.00  0.00     0.016 A 
ATOM     15  C   UNL     1      10.227   0.020   3.244  1.00  0.00     0.051 A 
ATOM     16  C   UNL     1       9.114  -0.548   2.619  1.00  0.00     0.157 A 
ATOM     17  C   UNL     1      10.038   0.056   0.457  1.00  0.00     0.062 A 
ATOM     18  C   UNL     1       9.019  -0.535   1.217  1.00  0.00     0.158 A 
BRANCH  16  19
ATOM     19  O   UNL     1       8.116  -1.125   3.404  1.00  0.00    -0.504 OA
ATOM     20  H   UNL     1       8.107  -1.038   4.413  1.00  0.00     0.293 HD
ENDBRANCH  16  19
BRANCH  18  21
ATOM     21  O   UNL     1       7.918  -1.111   0.585  1.00  0.00    -0.504 OA
ATOM     22  H   UNL     1       8.007  -1.594  -0.300  1.00  0.00     0.293 HD
ENDBRANCH  18  21
ENDBRANCH   3  13
BRANCH  10  23
ATOM     23  O   UNL     1      15.452   4.032  -2.530  1.00  0.00    -0.507 OA
ATOM     24  H   UNL     1      15.553   4.930  -2.071  1.00  0.00     0.293 HD
ENDBRANCH  10  23
BRANCH  11  25
ATOM     25  O   UNL     1      17.958   0.172  -1.083  1.00  0.00    -0.508 OA
ATOM     26  H   UNL     1      18.856   0.639  -1.069  1.00  0.00     0.293 HD
ENDBRANCH  11  25
ENDBRANCH   1   2
BRANCH   1  27
ATOM     27  C   UNL     1      10.502   4.275   0.600  1.00  0.00     0.339 C 
ATOM     28  C   UNL     1       9.089   4.153   1.194  1.00  0.00     0.214 C 
ATOM     29  O   UNL     1      10.707   5.517  -0.064  1.00  0.00    -0.332 OA
ATOM     30  C   UNL     1       8.014   4.370   0.120  1.00  0.00     0.180 C 
ATOM     31  C   UNL     1       9.776   5.795  -1.104  1.00  0.00     0.179 C 
ATOM     32  C   UNL     1       8.291   5.667  -0.664  1.00  0.00     0.177 C 
BRANCH  28  33
ATOM     33  O   UNL     1       8.939   2.887   1.787  1.00  0.00    -0.384 OA
ATOM     34  H   UNL     1       8.194   2.434   1.312  1.00  0.00     0.211 HD
ENDBRANCH  28  33
BRANCH  30  35
ATOM     35  O   UNL     1       7.974   3.265  -0.748  1.00  0.00    -0.387 OA
ATOM     36  H   UNL     1       7.047   2.911  -0.723  1.00  0.00     0.211 HD
ENDBRANCH  30  35
BRANCH  31  37
ATOM     37  C   UNL     1      10.093   5.043  -2.409  1.00  0.00     0.191 C 
BRANCH  37  38
ATOM     38  O   UNL     1      11.179   5.648  -3.056  1.00  0.00    -0.394 OA
ATOM     39  H   UNL     1      11.960   5.527  -2.455  1.00  0.00     0.210 HD
ENDBRANCH  37  38
ENDBRANCH  31  37
BRANCH  32  40
ATOM     40  O   UNL     1       7.896   6.787   0.093  1.00  0.00    -0.387 OA
ATOM     41  H   UNL     1       8.420   7.570  -0.216  1.00  0.00     0.211 HD
ENDBRANCH  32  40
ENDBRANCH   1  27
TORSDOF 12
ENDMDL
MODEL 5
REMARK VINA RESULT:    -5.144      2.200      6.184
REMARK INTER + INTRA:          -8.935
REMARK INTER:                  -8.588
REMARK INTRA:                  -0.347
REMARK UNBOUND:                -1.385
REMARK SMILES O=c1c(O[C@H]2O[C@@H](CO)[C@H](O)[C@@H](O)[C@H]2O)c(-c2ccc(O)c(O)c2)oc2cc(O)cc(O)c12
REMARK SMILES IDX 4 1 3 2 16 3 25 4 2 5 26 6 1 7 33 8 27 9 31 10 28 11 30 12
REMARK SMILES IDX 17 13 18 14 19 15 20 16 24 17 22 18 21 19 23 21 32 23 29 25
REMARK SMILES IDX 5 27 14 28 6 29 12 30 7 31 10 32 15 33 13 35 8 37 9 38 11 40
REMARK H PARENT 21 20 23 22 32 24 29 26 15 34 13 36 9 39 11 41
REMARK Flexibility Score: inf
ROOT
ATOM      1  O   UNL     1      13.198   2.733   0.546  1.00  0.00    -0.454 OA
ENDROOT
BRANCH   1   2
ATOM      2  C   UNL     1      12.167   2.093   1.261  1.00  0.00     0.214 A 
ATOM      3  C   UNL     1      10.843   2.538   1.075  1.00  0.00     0.180 A 
ATOM      4  O   UNL     1       9.849   1.996   1.771  1.00  0.00    -0.452 OA
ATOM      5  C   UNL     1      12.395   1.040   2.174  1.00  0.00     0.239 A 
ATOM      6  C   UNL     1      10.023   1.014   2.644  1.00  0.00     0.146 A 
ATOM      7  O   UNL     1      13.560   0.592   2.345  1.00  0.00    -0.285 OA
ATOM      8  C   UNL     1      11.310   0.484   2.885  1.00  0.00     0.111 A 
ATOM      9  C   UNL     1       8.912   0.506   3.325  1.00  0.00     0.094 A 
ATOM     10  C   UNL     1      11.457  -0.569   3.821  1.00  0.00     0.134 A 
ATOM     11  C   UNL     1       9.063  -0.533   4.247  1.00  0.00     0.123 A 
ATOM     12  C   UNL     1      10.331  -1.067   4.492  1.00  0.00     0.093 A 
BRANCH   3  13
ATOM     13  C   UNL     1      10.517   3.640   0.146  1.00  0.00     0.025 A 
ATOM     14  C   UNL     1      10.456   3.388  -1.232  1.00  0.00     0.016 A 
ATOM     15  C   UNL     1      10.149   4.418  -2.126  1.00  0.00     0.051 A 
ATOM     16  C   UNL     1       9.913   5.714  -1.657  1.00  0.00     0.157 A 
ATOM     17  C   UNL     1      10.306   4.947   0.613  1.00  0.00     0.062 A 
ATOM     18  C   UNL     1       9.996   5.982  -0.280  1.00  0.00     0.158 A 
BRANCH  16  19
ATOM     19  O   UNL     1       9.603   6.720  -2.571  1.00  0.00    -0.504 OA
ATOM     20  H   UNL     1       9.011   6.553  -3.376  1.00  0.00     0.293 HD
ENDBRANCH  16  19
BRANCH  18  21
ATOM     21  O   UNL     1       9.775   7.274   0.195  1.00  0.00    -0.504 OA
ATOM     22  H   UNL     1       8.916   7.525   0.670  1.00  0.00     0.293 HD
ENDBRANCH  18  21
ENDBRANCH   3  13
BRANCH  10  23
ATOM     23  O   UNL     1      12.709  -1.124   4.090  1.00  0.00    -0.507 OA
ATOM     24  H   UNL     1      13.166  -1.001   4.987  1.00  0.00     0.293 HD
ENDBRANCH  10  23
BRANCH  11  25
ATOM     25  O   UNL     1       7.959  -1.044   4.928  1.00  0.00    -0.508 OA
ATOM     26  H   UNL     1       7.151  -0.470   5.133  1.00  0.00     0.293 HD
ENDBRANCH  11  25
ENDBRANCH   1   2
BRANCH   1  27
ATOM     27  C   UNL     1      14.602   2.521   0.721  1.00  0.00     0.339 C 
ATOM     28  C   UNL     1      15.406   3.701   0.151  1.00  0.00     0.214 C 
ATOM     29  O   UNL     1      15.025   1.268   0.194  1.00  0.00    -0.332 OA
ATOM     30  C   UNL     1      15.353   3.720  -1.383  1.00  0.00     0.180 C 
ATOM     31  C   UNL     1      14.980   1.177  -1.226  1.00  0.00     0.179 C 
ATOM     32  C   UNL     1      15.719   2.335  -1.951  1.00  0.00     0.177 C 
BRANCH  28  33
ATOM     33  O   UNL     1      14.904   4.904   0.673  1.00  0.00    -0.384 OA
ATOM     34  H   UNL     1      14.686   4.734   1.627  1.00  0.00     0.211 HD
ENDBRANCH  28  33
BRANCH  30  35
ATOM     35  O   UNL     1      14.074   4.111  -1.812  1.00  0.00    -0.387 OA
ATOM     36  H   UNL     1      14.180   4.975  -2.290  1.00  0.00     0.211 HD
ENDBRANCH  30  35
BRANCH  31  37
ATOM     37  C   UNL     1      13.560   0.926  -1.765  1.00  0.00     0.191 C 
BRANCH  37  38
ATOM     38  O   UNL     1      13.359   1.662  -2.941  1.00  0.00    -0.394 OA
ATOM     39  H   UNL     1      13.191   2.598  -2.656  1.00  0.00     0.210 HD
ENDBRANCH  37  38
ENDBRANCH  31  37
BRANCH  32  40
ATOM     40  O   UNL     1      17.113   2.144  -1.908  1.00  0.00    -0.387 OA
ATOM     41  H   UNL     1      17.403   1.781  -2.785  1.00  0.00     0.211 HD
ENDBRANCH  32  40
ENDBRANCH   1  27
TORSDOF 12
ENDMDL
MODEL 6
REMARK VINA RESULT:    -5.024      2.340      6.424
REMARK INTER + INTRA:          -8.759
REMARK INTER:                  -8.010
REMARK INTRA:                  -0.749
REMARK UNBOUND:                -1.385
REMARK SMILES O=c1c(O[C@H]2O[C@@H](CO)[C@H](O)[C@@H](O)[C@H]2O)c(-c2ccc(O)c(O)c2)oc2cc(O)cc(O)c12
REMARK SMILES IDX 4 1 3 2 16 3 25 4 2 5 26 6 1 7 33 8 27 9 31 10 28 11 30 12
REMARK SMILES IDX 17 13 18 14 19 15 20 16 24 17 22 18 21 19 23 21 32 23 29 25
REMARK SMILES IDX 5 27 14 28 6 29 12 30 7 31 10 32 15 33 13 35 8 37 9 38 11 40
REMARK H PARENT 21 20 23 22 32 24 29 26 15 34 13 36 9 39 11 41
REMARK Flexibility Score: inf
ROOT
ATOM      1  O   UNL     1      12.233   0.761   0.480  1.00  0.00    -0.454 OA
ENDROOT
BRANCH   1   2
ATOM      2  C   UNL     1      13.269   1.071   1.383  1.00  0.00     0.214 A 
ATOM      3  C   UNL     1      14.166   2.106   1.048  1.00  0.00     0.180 A 
ATOM      4  O   UNL     1      15.187   2.393   1.848  1.00  0.00    -0.452 OA
ATOM      5  C   UNL     1      13.469   0.382   2.599  1.00  0.00     0.239 A 
ATOM      6  C   UNL     1      15.415   1.764   2.992  1.00  0.00     0.146 A 
ATOM      7  O   UNL     1      12.671  -0.526   2.950  1.00  0.00    -0.285 OA
ATOM      8  C   UNL     1      14.560   0.726   3.426  1.00  0.00     0.111 A 
ATOM      9  C   UNL     1      16.516   2.143   3.768  1.00  0.00     0.094 A 
ATOM     10  C   UNL     1      14.832   0.080   4.657  1.00  0.00     0.134 A 
ATOM     11  C   UNL     1      16.779   1.501   4.982  1.00  0.00     0.123 A 
ATOM     12  C   UNL     1      15.939   0.475   5.422  1.00  0.00     0.093 A 
BRANCH   3  13
ATOM     13  C   UNL     1      14.034   2.871  -0.210  1.00  0.00     0.025 A 
ATOM     14  C   UNL     1      15.168   3.102  -1.002  1.00  0.00     0.016 A 
ATOM     15  C   UNL     1      15.062   3.823  -2.194  1.00  0.00     0.051 A 
ATOM     16  C   UNL     1      13.827   4.335  -2.603  1.00  0.00     0.157 A 
ATOM     17  C   UNL     1      12.800   3.407  -0.608  1.00  0.00     0.062 A 
ATOM     18  C   UNL     1      12.689   4.130  -1.804  1.00  0.00     0.158 A 
BRANCH  16  19
ATOM     19  O   UNL     1      13.749   5.046  -3.800  1.00  0.00    -0.504 OA
ATOM     20  H   UNL     1      14.575   5.300  -4.330  1.00  0.00     0.293 HD
ENDBRANCH  16  19
BRANCH  18  21
ATOM     21  O   UNL     1      11.455   4.647  -2.198  1.00  0.00    -0.504 OA
ATOM     22  H   UNL     1      11.006   5.396  -1.686  1.00  0.00     0.293 HD
ENDBRANCH  18  21
ENDBRANCH   3  13
BRANCH  10  23
ATOM     23  O   UNL     1      14.013  -0.949   5.126  1.00  0.00    -0.507 OA
ATOM     24  H   UNL     1      13.338  -1.408   4.525  1.00  0.00     0.293 HD
ENDBRANCH  10  23
BRANCH  11  25
ATOM     25  O   UNL     1      17.873   1.875   5.759  1.00  0.00    -0.508 OA
ATOM     26  H   UNL     1      18.044   2.843   6.002  1.00  0.00     0.293 HD
ENDBRANCH  11  25
ENDBRANCH   1   2
BRANCH   1  27
ATOM     27  C   UNL     1      11.494  -0.464   0.435  1.00  0.00     0.339 C 
ATOM     28  C   UNL     1      11.506  -1.053  -0.985  1.00  0.00     0.214 C 
ATOM     29  O   UNL     1      10.177  -0.314   0.952  1.00  0.00    -0.332 OA
ATOM     30  C   UNL     1      10.647  -0.216  -1.942  1.00  0.00     0.180 C 
ATOM     31  C   UNL     1       9.310   0.478   0.147  1.00  0.00     0.179 C 
ATOM     32  C   UNL     1       9.250   0.027  -1.339  1.00  0.00     0.177 C 
BRANCH  28  33
ATOM     33  O   UNL     1      12.829  -1.125  -1.451  1.00  0.00    -0.384 OA
ATOM     34  H   UNL     1      13.082  -0.208  -1.738  1.00  0.00     0.211 HD
ENDBRANCH  28  33
BRANCH  30  35
ATOM     35  O   UNL     1      11.287   1.004  -2.217  1.00  0.00    -0.387 OA
ATOM     36  H   UNL     1      12.130   0.788  -2.696  1.00  0.00     0.211 HD
ENDBRANCH  30  35
BRANCH  31  37
ATOM     37  C   UNL     1       9.550   1.989   0.317  1.00  0.00     0.191 C 
BRANCH  37  38
ATOM     38  O   UNL     1       9.314   2.649  -0.897  1.00  0.00    -0.394 OA
ATOM     39  H   UNL     1       8.576   2.156  -1.340  1.00  0.00     0.210 HD
ENDBRANCH  37  38
ENDBRANCH  31  37
BRANCH  32  40
ATOM     40  O   UNL     1       8.452  -1.125  -1.479  1.00  0.00    -0.387 OA
ATOM     41  H   UNL     1       8.968  -1.798  -1.993  1.00  0.00     0.211 HD
ENDBRANCH  32  40
ENDBRANCH   1  27
TORSDOF 12
ENDMDL
MODEL 7
REMARK VINA RESULT:    -4.794      1.182      2.309
REMARK INTER + INTRA:          -8.422
REMARK INTER:                  -7.206
REMARK INTRA:                  -1.216
REMARK UNBOUND:                -1.385
REMARK SMILES O=c1c(O[C@H]2O[C@@H](CO)[C@H](O)[C@@H](O)[C@H]2O)c(-c2ccc(O)c(O)c2)oc2cc(O)cc(O)c12
REMARK SMILES IDX 4 1 3 2 16 3 25 4 2 5 26 6 1 7 33 8 27 9 31 10 28 11 30 12
REMARK SMILES IDX 17 13 18 14 19 15 20 16 24 17 22 18 21 19 23 21 32 23 29 25
REMARK SMILES IDX 5 27 14 28 6 29 12 30 7 31 10 32 15 33 13 35 8 37 9 38 11 40
REMARK H PARENT 21 20 23 22 32 24 29 26 15 34 13 36 9 39 11 41
REMARK Flexibility Score: inf
ROOT
ATOM      1  O   UNL     1      12.866   2.396   1.139  1.00  0.00    -0.454 OA
ENDROOT
BRANCH   1   2
ATOM      2  C   UNL     1      12.099   3.178   0.252  1.00  0.00     0.214 A 
ATOM      3  C   UNL     1      12.442   3.177  -1.115  1.00  0.00     0.180 A 
ATOM      4  O   UNL     1      11.776   3.941  -1.974  1.00  0.00    -0.452 OA
ATOM      5  C   UNL     1      11.013   3.980   0.668  1.00  0.00     0.239 A 
ATOM      6  C   UNL     1      10.759   4.716  -1.623  1.00  0.00     0.146 A 
ATOM      7  O   UNL     1      10.654   3.983   1.874  1.00  0.00    -0.285 OA
ATOM      8  C   UNL     1      10.325   4.769  -0.279  1.00  0.00     0.111 A 
ATOM      9  C   UNL     1      10.118   5.481  -2.602  1.00  0.00     0.094 A 
ATOM     10  C   UNL     1       9.231   5.603   0.058  1.00  0.00     0.134 A 
ATOM     11  C   UNL     1       9.040   6.303  -2.263  1.00  0.00     0.123 A 
ATOM     12  C   UNL     1       8.600   6.361  -0.939  1.00  0.00     0.093 A 
BRANCH   3  13
ATOM     13  C   UNL     1      13.569   2.373  -1.632  1.00  0.00     0.025 A 
ATOM     14  C   UNL     1      13.312   1.148  -2.265  1.00  0.00     0.016 A 
ATOM     15  C   UNL     1      14.366   0.374  -2.761  1.00  0.00     0.051 A 
ATOM     16  C   UNL     1      15.688   0.807  -2.619  1.00  0.00     0.157 A 
ATOM     17  C   UNL     1      14.898   2.793  -1.467  1.00  0.00     0.062 A 
ATOM     18  C   UNL     1      15.957   2.021  -1.965  1.00  0.00     0.158 A 
BRANCH  16  19
ATOM     19  O   UNL     1      16.718   0.018  -3.128  1.00  0.00    -0.504 OA
ATOM     20  H   UNL     1      16.910  -0.042  -4.121  1.00  0.00     0.293 HD
ENDBRANCH  16  19
BRANCH  18  21
ATOM     21  O   UNL     1      17.273   2.454  -1.808  1.00  0.00    -0.504 OA
ATOM     22  H   UNL     1      17.648   2.695  -0.899  1.00  0.00     0.293 HD
ENDBRANCH  18  21
ENDBRANCH   3  13
BRANCH  10  23
ATOM     23  O   UNL     1       8.767   5.685   1.372  1.00  0.00    -0.507 OA
ATOM     24  H   UNL     1       9.091   6.406   2.008  1.00  0.00     0.293 HD
ENDBRANCH  10  23
BRANCH  11  25
ATOM     25  O   UNL     1       8.397   7.066  -3.235  1.00  0.00    -0.508 OA
ATOM     26  H   UNL     1       7.810   7.854  -2.989  1.00  0.00     0.293 HD
ENDBRANCH  11  25
ENDBRANCH   1   2
BRANCH   1  27
ATOM     27  C   UNL     1      12.884   0.967   1.202  1.00  0.00     0.339 C 
ATOM     28  C   UNL     1      12.417   0.478   2.583  1.00  0.00     0.214 C 
ATOM     29  O   UNL     1      14.149   0.430   0.833  1.00  0.00    -0.332 OA
ATOM     30  C   UNL     1      13.464   0.782   3.663  1.00  0.00     0.180 C 
ATOM     31  C   UNL     1      15.197   0.689   1.761  1.00  0.00     0.179 C 
ATOM     32  C   UNL     1      14.854   0.285   3.221  1.00  0.00     0.177 C 
BRANCH  28  33
ATOM     33  O   UNL     1      11.192   1.085   2.904  1.00  0.00    -0.384 OA
ATOM     34  H   UNL     1      11.387   1.783   3.584  1.00  0.00     0.211 HD
ENDBRANCH  28  33
BRANCH  30  35
ATOM     35  O   UNL     1      13.492   2.162   3.928  1.00  0.00    -0.387 OA
ATOM     36  H   UNL     1      13.665   2.619   3.064  1.00  0.00     0.211 HD
ENDBRANCH  30  35
BRANCH  31  37
ATOM     37  C   UNL     1      15.765   2.115   1.639  1.00  0.00     0.191 C 
BRANCH  37  38
ATOM     38  O   UNL     1      16.156   2.582   2.902  1.00  0.00    -0.394 OA
ATOM     39  H   UNL     1      16.679   1.847   3.317  1.00  0.00     0.210 HD
ENDBRANCH  37  38
ENDBRANCH  31  37
BRANCH  32  40
ATOM     40  O   UNL     1      14.948  -1.110   3.389  1.00  0.00    -0.387 OA
ATOM     41  H   UNL     1      15.133  -1.516   2.502  1.00  0.00     0.211 HD
ENDBRANCH  32  40
ENDBRANCH   1  27
TORSDOF 12
ENDMDL
MODEL 8
REMARK VINA RESULT:    -4.638      2.438      7.173
REMARK INTER + INTRA:          -8.193
REMARK INTER:                  -7.103
REMARK INTRA:                  -1.090
REMARK UNBOUND:                -1.385
REMARK SMILES O=c1c(O[C@H]2O[C@@H](CO)[C@H](O)[C@@H](O)[C@H]2O)c(-c2ccc(O)c(O)c2)oc2cc(O)cc(O)c12
REMARK SMILES IDX 4 1 3 2 16 3 25 4 2 5 26 6 1 7 33 8 27 9 31 10 28 11 30 12
REMARK SMILES IDX 17 13 18 14 19 15 20 16 24 17 22 18 21 19 23 21 32 23 29 25
REMARK SMILES IDX 5 27 14 28 6 29 12 30 7 31 10 32 15 33 13 35 8 37 9 38 11 40
REMARK H PARENT 21 20 23 22 32 24 29 26 15 34 13 36 9 39 11 41
REMARK Flexibility Score: inf
ROOT
ATOM      1  O   UNL     1      13.993   1.744   0.066  1.00  0.00    -0.454 OA
ENDROOT
BRANCH   1   2
ATOM      2  C   UNL     1      14.009   1.137   1.337  1.00  0.00     0.214 A 
ATOM      3  C   UNL     1      12.986   0.222   1.658  1.00  0.00     0.180 A 
ATOM      4  O   UNL     1      12.936  -0.332   2.865  1.00  0.00    -0.452 OA
ATOM      5  C   UNL     1      14.986   1.416   2.318  1.00  0.00     0.239 A 
ATOM      6  C   UNL     1      13.827  -0.089   3.815  1.00  0.00     0.146 A 
ATOM      7  O   UNL     1      15.934   2.203   2.059  1.00  0.00    -0.285 OA
ATOM      8  C   UNL     1      14.903   0.798   3.584  1.00  0.00     0.111 A 
ATOM      9  C   UNL     1      13.691  -0.725   5.053  1.00  0.00     0.094 A 
ATOM     10  C   UNL     1      15.839   1.029   4.621  1.00  0.00     0.134 A 
ATOM     11  C   UNL     1      14.619  -0.493   6.073  1.00  0.00     0.123 A 
ATOM     12  C   UNL     1      15.687   0.380   5.855  1.00  0.00     0.093 A 
BRANCH   3  13
ATOM     13  C   UNL     1      11.919  -0.120   0.694  1.00  0.00     0.025 A 
ATOM     14  C   UNL     1      12.248  -0.792  -0.492  1.00  0.00     0.016 A 
ATOM     15  C   UNL     1      11.251  -1.124  -1.415  1.00  0.00     0.051 A 
ATOM     16  C   UNL     1       9.919  -0.777  -1.172  1.00  0.00     0.157 A 
ATOM     17  C   UNL     1      10.585   0.251   0.924  1.00  0.00     0.062 A 
ATOM     18  C   UNL     1       9.583  -0.082   0.002  1.00  0.00     0.158 A 
BRANCH  16  19
ATOM     19  O   UNL     1       8.946  -1.125  -2.107  1.00  0.00    -0.504 OA
ATOM     20  H   UNL     1       8.932  -0.734  -3.042  1.00  0.00     0.293 HD
ENDBRANCH  16  19
BRANCH  18  21
ATOM     21  O   UNL     1       8.259   0.280   0.247  1.00  0.00    -0.504 OA
ATOM     22  H   UNL     1       7.995   0.804   1.072  1.00  0.00     0.293 HD
ENDBRANCH  18  21
ENDBRANCH   3  13
BRANCH  10  23
ATOM     23  O   UNL     1      16.918   1.896   4.436  1.00  0.00    -0.507 OA
ATOM     24  H   UNL     1      16.954   2.804   4.884  1.00  0.00     0.293 HD
ENDBRANCH  10  23
BRANCH  11  25
ATOM     25  O   UNL     1      14.488  -1.125   7.308  1.00  0.00    -0.508 OA
ATOM     26  H   UNL     1      14.604  -2.126   7.406  1.00  0.00     0.293 HD
ENDBRANCH  11  25
ENDBRANCH   1   2
BRANCH   1  27
ATOM     27  C   UNL     1      13.836   3.141  -0.198  1.00  0.00     0.339 C 
ATOM     28  C   UNL     1      12.844   3.369  -1.351  1.00  0.00     0.214 C 
ATOM     29  O   UNL     1      15.083   3.789  -0.417  1.00  0.00    -0.332 OA
ATOM     30  C   UNL     1      13.445   2.934  -2.694  1.00  0.00     0.180 C 
ATOM     31  C   UNL     1      15.737   3.425  -1.628  1.00  0.00     0.179 C 
ATOM     32  C   UNL     1      14.839   3.560  -2.889  1.00  0.00     0.177 C 
BRANCH  28  33
ATOM     33  O   UNL     1      11.658   2.661  -1.093  1.00  0.00    -0.384 OA
ATOM     34  H   UNL     1      10.955   3.338  -0.908  1.00  0.00     0.211 HD
ENDBRANCH  28  33
BRANCH  30  35
ATOM     35  O   UNL     1      13.519   1.532  -2.754  1.00  0.00    -0.387 OA
ATOM     36  H   UNL     1      13.329   1.271  -3.694  1.00  0.00     0.211 HD
ENDBRANCH  30  35
BRANCH  31  37
ATOM     37  C   UNL     1      16.457   2.067  -1.534  1.00  0.00     0.191 C 
BRANCH  37  38
ATOM     38  O   UNL     1      17.845   2.262  -1.549  1.00  0.00    -0.394 OA
ATOM     39  H   UNL     1      18.209   1.601  -2.194  1.00  0.00     0.210 HD
ENDBRANCH  37  38
ENDBRANCH  31  37
BRANCH  32  40
ATOM     40  O   UNL     1      14.717   4.910  -3.273  1.00  0.00    -0.387 OA
ATOM     41  H   UNL     1      15.473   5.415  -2.874  1.00  0.00     0.211 HD
ENDBRANCH  32  40
ENDBRANCH   1  27
TORSDOF 12
ENDMDL
