MODEL 1
REMARK VINA RESULT:    -6.770      0.000      0.000
REMARK INTER + INTRA:          -8.471
REMARK INTER:                  -8.155
REMARK INTRA:                  -0.315
REMARK UNBOUND:                -0.315
REMARK SMILES O=c1c(O)c(-c2ccc(O)c(O)c2)oc2cc(O)cc(O)c12
REMARK SMILES IDX 5 1 3 2 2 3 1 4 22 5 20 6 19 7 17 8 16 9 15 10 14 11 6 12
REMARK SMILES IDX 7 13 8 14 9 15 13 16 11 17 10 18 12 20 4 22 21 24 18 26
REMARK H PARENT 10 19 12 21 4 23 21 25 18 27
REMARK Flexibility Score: inf
ROOT
ATOM      1  C   UNL     1      16.036   9.045  13.490  1.00  0.00     0.180 A 
ATOM      2  C   UNL     1      16.232   9.783  14.673  1.00  0.00     0.208 A 
ATOM      3  C   UNL     1      16.150  11.184  14.620  1.00  0.00     0.238 A 
ATOM      4  O   UNL     1      16.335  11.855  15.671  1.00  0.00    -0.285 OA
ATOM      5  C   UNL     1      15.855  11.819  13.397  1.00  0.00     0.111 A 
ATOM      6  C   UNL     1      15.751  13.224  13.259  1.00  0.00     0.134 A 
ATOM      7  C   UNL     1      15.445  13.781  12.008  1.00  0.00     0.093 A 
ATOM      8  C   UNL     1      15.241  12.962  10.896  1.00  0.00     0.123 A 
ATOM      9  C   UNL     1      15.342  11.572  11.025  1.00  0.00     0.094 A 
ATOM     10  C   UNL     1      15.648  11.000  12.263  1.00  0.00     0.146 A 
ATOM     11  O   UNL     1      15.743   9.678  12.357  1.00  0.00    -0.452 OA
ENDROOT
BRANCH   1  12
ATOM     12  C   UNL     1      16.124   7.568  13.461  1.00  0.00     0.025 A 
ATOM     13  C   UNL     1      14.992   6.802  13.782  1.00  0.00     0.016 A 
ATOM     14  C   UNL     1      15.046   5.406  13.741  1.00  0.00     0.051 A 
ATOM     15  C   UNL     1      16.228   4.756  13.362  1.00  0.00     0.157 A 
ATOM     16  C   UNL     1      17.302   6.911  13.061  1.00  0.00     0.062 A 
ATOM     17  C   UNL     1      17.357   5.511  13.018  1.00  0.00     0.158 A 
BRANCH  15  18
ATOM     18  O   UNL     1      16.288   3.365  13.322  1.00  0.00    -0.504 OA
ATOM     19  H   UNL     1      15.822   2.835  12.594  1.00  0.00     0.293 HD
ENDBRANCH  15  18
BRANCH  17  20
ATOM     20  O   UNL     1      18.528   4.863  12.628  1.00  0.00    -0.504 OA
ATOM     21  H   UNL     1      18.507   4.032  12.049  1.00  0.00     0.293 HD
ENDBRANCH  17  20
ENDBRANCH   1  12
BRANCH   2  22
ATOM     22  O   UNL     1      16.474   9.127  15.883  1.00  0.00    -0.502 OA
ATOM     23  H   UNL     1      17.208   9.414  16.518  1.00  0.00     0.293 HD
ENDBRANCH   2  22
BRANCH   6  24
ATOM     24  O   UNL     1      15.949  14.069  14.352  1.00  0.00    -0.507 OA
ATOM     25  H   UNL     1      15.787  15.068  14.290  1.00  0.00     0.293 HD
ENDBRANCH   6  24
BRANCH   8  26
ATOM     26  O   UNL     1      14.937  13.539   9.664  1.00  0.00    -0.508 OA
ATOM     27  H   UNL     1      14.794  12.975   8.835  1.00  0.00     0.293 HD
ENDBRANCH   8  26
TORSDOF 6
ENDMDL
MODEL 2
REMARK VINA RESULT:    -6.629      1.569      6.638
REMARK INTER + INTRA:          -8.301
REMARK INTER:                  -7.990
REMARK INTRA:                  -0.311
REMARK UNBOUND:                -0.315
REMARK SMILES O=c1c(O)c(-c2ccc(O)c(O)c2)oc2cc(O)cc(O)c12
REMARK SMILES IDX 5 1 3 2 2 3 1 4 22 5 20 6 19 7 17 8 16 9 15 10 14 11 6 12
REMARK SMILES IDX 7 13 8 14 9 15 13 16 11 17 10 18 12 20 4 22 21 24 18 26
REMARK H PARENT 10 19 12 21 4 23 21 25 18 27
REMARK Flexibility Score: inf
ROOT
ATOM      1  C   UNL     1      15.876  10.689  13.229  1.00  0.00     0.180 A 
ATOM      2  C   UNL     1      16.936  10.908  14.130  1.00  0.00     0.208 A 
ATOM      3  C   UNL     1      17.576   9.800  14.707  1.00  0.00     0.238 A 
ATOM      4  O   UNL     1      18.519   9.986  15.524  1.00  0.00    -0.285 OA
ATOM      5  C   UNL     1      17.163   8.498  14.362  1.00  0.00     0.111 A 
ATOM      6  C   UNL     1      17.757   7.329  14.895  1.00  0.00     0.134 A 
ATOM      7  C   UNL     1      17.294   6.067  14.494  1.00  0.00     0.093 A 
ATOM      8  C   UNL     1      16.252   5.951  13.572  1.00  0.00     0.123 A 
ATOM      9  C   UNL     1      15.660   7.102  13.041  1.00  0.00     0.094 A 
ATOM     10  C   UNL     1      16.106   8.368  13.430  1.00  0.00     0.146 A 
ATOM     11  O   UNL     1      15.523   9.444  12.915  1.00  0.00    -0.452 OA
ENDROOT
BRANCH   1  12
ATOM     12  C   UNL     1      15.139  11.804  12.594  1.00  0.00     0.025 A 
ATOM     13  C   UNL     1      14.103  12.438  13.299  1.00  0.00     0.016 A 
ATOM     14  C   UNL     1      13.408  13.506  12.727  1.00  0.00     0.051 A 
ATOM     15  C   UNL     1      13.750  13.968  11.449  1.00  0.00     0.157 A 
ATOM     16  C   UNL     1      15.492  12.284  11.320  1.00  0.00     0.062 A 
ATOM     17  C   UNL     1      14.796  13.358  10.746  1.00  0.00     0.158 A 
BRANCH  15  18
ATOM     18  O   UNL     1      13.058  15.032  10.874  1.00  0.00    -0.504 OA
ATOM     19  H   UNL     1      12.411  15.597  11.412  1.00  0.00     0.293 HD
ENDBRANCH  15  18
BRANCH  17  20
ATOM     20  O   UNL     1      15.144  13.828   9.480  1.00  0.00    -0.504 OA
ATOM     21  H   UNL     1      15.985  14.370   9.328  1.00  0.00     0.293 HD
ENDBRANCH  17  20
ENDBRANCH   1  12
BRANCH   2  22
ATOM     22  O   UNL     1      17.359  12.209  14.418  1.00  0.00    -0.502 OA
ATOM     23  H   UNL     1      16.767  12.878  14.894  1.00  0.00     0.293 HD
ENDBRANCH   2  22
BRANCH   6  24
ATOM     24  O   UNL     1      18.800   7.412  15.818  1.00  0.00    -0.507 OA
ATOM     25  H   UNL     1      18.660   7.787  16.749  1.00  0.00     0.293 HD
ENDBRANCH   6  24
BRANCH   8  26
ATOM     26  O   UNL     1      15.811   4.686  13.189  1.00  0.00    -0.508 OA
ATOM     27  H   UNL     1      15.476   4.013  13.868  1.00  0.00     0.293 HD
ENDBRANCH   8  26
TORSDOF 6
ENDMDL
MODEL 3
REMARK VINA RESULT:    -6.480      2.070      7.584
REMARK INTER + INTRA:          -8.122
REMARK INTER:                  -7.790
REMARK INTRA:                  -0.332
REMARK UNBOUND:                -0.315
REMARK SMILES O=c1c(O)c(-c2ccc(O)c(O)c2)oc2cc(O)cc(O)c12
REMARK SMILES IDX 5 1 3 2 2 3 1 4 22 5 20 6 19 7 17 8 16 9 15 10 14 11 6 12
REMARK SMILES IDX 7 13 8 14 9 15 13 16 11 17 10 18 12 20 4 22 21 24 18 26
REMARK H PARENT 10 19 12 21 4 23 21 25 18 27
REMARK Flexibility Score: inf
ROOT
ATOM      1  C   UNL     1      15.155  12.155  13.415  1.00  0.00     0.180 A 
ATOM      2  C   UNL     1      15.147  11.523  12.157  1.00  0.00     0.208 A 
ATOM      3  C   UNL     1      15.559  10.184  12.068  1.00  0.00     0.238 A 
ATOM      4  O   UNL     1      15.565   9.611  10.944  1.00  0.00    -0.285 OA
ATOM      5  C   UNL     1      15.951   9.496  13.234  1.00  0.00     0.111 A 
ATOM      6  C   UNL     1      16.376   8.146  13.231  1.00  0.00     0.134 A 
ATOM      7  C   UNL     1      16.743   7.528  14.437  1.00  0.00     0.093 A 
ATOM      8  C   UNL     1      16.692   8.232  15.641  1.00  0.00     0.123 A 
ATOM      9  C   UNL     1      16.273   9.568  15.651  1.00  0.00     0.094 A 
ATOM     10  C   UNL     1      15.906  10.200  14.460  1.00  0.00     0.146 A 
ATOM     11  O   UNL     1      15.517  11.470  14.497  1.00  0.00    -0.452 OA
ENDROOT
BRANCH   1  12
ATOM     12  C   UNL     1      14.753  13.569  13.587  1.00  0.00     0.025 A 
ATOM     13  C   UNL     1      13.418  13.874  13.896  1.00  0.00     0.016 A 
ATOM     14  C   UNL     1      13.020  15.201  14.083  1.00  0.00     0.051 A 
ATOM     15  C   UNL     1      13.954  16.240  13.982  1.00  0.00     0.157 A 
ATOM     16  C   UNL     1      15.692  14.614  13.506  1.00  0.00     0.062 A 
ATOM     17  C   UNL     1      15.294  15.945  13.697  1.00  0.00     0.158 A 
BRANCH  15  18
ATOM     18  O   UNL     1      13.562  17.563  14.166  1.00  0.00    -0.504 OA
ATOM     19  H   UNL     1      12.631  17.880  13.918  1.00  0.00     0.293 HD
ENDBRANCH  15  18
BRANCH  17  20
ATOM     20  O   UNL     1      16.225  16.979  13.610  1.00  0.00    -0.504 OA
ATOM     21  H   UNL     1      15.983  17.879  13.213  1.00  0.00     0.293 HD
ENDBRANCH  17  20
ENDBRANCH   1  12
BRANCH   2  22
ATOM     22  O   UNL     1      14.706  12.212  11.024  1.00  0.00    -0.502 OA
ATOM     23  H   UNL     1      14.916  11.899  10.083  1.00  0.00     0.293 HD
ENDBRANCH   2  22
BRANCH   6  24
ATOM     24  O   UNL     1      16.437   7.415  12.044  1.00  0.00    -0.507 OA
ATOM     25  H   UNL     1      16.491   6.403  12.044  1.00  0.00     0.293 HD
ENDBRANCH   6  24
BRANCH   8  26
ATOM     26  O   UNL     1      17.060   7.597  16.825  1.00  0.00    -0.508 OA
ATOM     27  H   UNL     1      17.103   6.587  16.894  1.00  0.00     0.293 HD
ENDBRANCH   8  26
TORSDOF 6
ENDMDL
MODEL 4
REMARK VINA RESULT:    -6.456      1.699      7.160
REMARK INTER + INTRA:          -8.092
REMARK INTER:                  -7.796
REMARK INTRA:                  -0.296
REMARK UNBOUND:                -0.315
REMARK SMILES O=c1c(O)c(-c2ccc(O)c(O)c2)oc2cc(O)cc(O)c12
REMARK SMILES IDX 5 1 3 2 2 3 1 4 22 5 20 6 19 7 17 8 16 9 15 10 14 11 6 12
REMARK SMILES IDX 7 13 8 14 9 15 13 16 11 17 10 18 12 20 4 22 21 24 18 26
REMARK H PARENT 10 19 12 21 4 23 21 25 18 27
REMARK Flexibility Score: inf
ROOT
ATOM      1  C   UNL     1      15.882   8.012  13.235  1.00  0.00     0.180 A 
ATOM      2  C   UNL     1      17.063   7.252  13.129  1.00  0.00     0.208 A 
ATOM      3  C   UNL     1      16.994   5.862  13.309  1.00  0.00     0.238 A 
ATOM      4  O   UNL     1      18.048   5.173  13.227  1.00  0.00    -0.285 OA
ATOM      5  C   UNL     1      15.749   5.253  13.568  1.00  0.00     0.111 A 
ATOM      6  C   UNL     1      15.593   3.859  13.757  1.00  0.00     0.134 A 
ATOM      7  C   UNL     1      14.317   3.328  14.004  1.00  0.00     0.093 A 
ATOM      8  C   UNL     1      13.199   4.162  14.062  1.00  0.00     0.123 A 
ATOM      9  C   UNL     1      13.346   5.541  13.877  1.00  0.00     0.094 A 
ATOM     10  C   UNL     1      14.609   6.088  13.633  1.00  0.00     0.146 A 
ATOM     11  O   UNL     1      14.722   7.401  13.465  1.00  0.00    -0.452 OA
ENDROOT
BRANCH   1  12
ATOM     12  C   UNL     1      15.876   9.484  13.077  1.00  0.00     0.025 A 
ATOM     13  C   UNL     1      16.286  10.294  14.148  1.00  0.00     0.016 A 
ATOM     14  C   UNL     1      16.308  11.685  14.015  1.00  0.00     0.051 A 
ATOM     15  C   UNL     1      15.937  12.284  12.804  1.00  0.00     0.157 A 
ATOM     16  C   UNL     1      15.524  10.089  11.857  1.00  0.00     0.062 A 
ATOM     17  C   UNL     1      15.548  11.485  11.722  1.00  0.00     0.158 A 
BRANCH  15  18
ATOM     18  O   UNL     1      15.956  13.671  12.667  1.00  0.00    -0.504 OA
ATOM     19  H   UNL     1      15.930  14.284  13.475  1.00  0.00     0.293 HD
ENDBRANCH  15  18
BRANCH  17  20
ATOM     20  O   UNL     1      15.192  12.082  10.514  1.00  0.00    -0.504 OA
ATOM     21  H   UNL     1      15.362  13.065  10.338  1.00  0.00     0.293 HD
ENDBRANCH  17  20
ENDBRANCH   1  12
BRANCH   2  22
ATOM     22  O   UNL     1      18.277   7.874  12.822  1.00  0.00    -0.502 OA
ATOM     23  H   UNL     1      18.436   8.861  12.984  1.00  0.00     0.293 HD
ENDBRANCH   2  22
BRANCH   6  24
ATOM     24  O   UNL     1      16.691   3.000  13.704  1.00  0.00    -0.507 OA
ATOM     25  H   UNL     1      16.695   2.176  13.113  1.00  0.00     0.293 HD
ENDBRANCH   6  24
BRANCH   8  26
ATOM     26  O   UNL     1      11.943   3.610  14.307  1.00  0.00    -0.508 OA
ATOM     27  H   UNL     1      11.772   2.616  14.210  1.00  0.00     0.293 HD
ENDBRANCH   8  26
TORSDOF 6
ENDMDL
MODEL 5
REMARK VINA RESULT:    -6.449      2.261      3.294
REMARK INTER + INTRA:          -8.084
REMARK INTER:                  -7.791
REMARK INTRA:                  -0.293
REMARK UNBOUND:                -0.315
REMARK SMILES O=c1c(O)c(-c2ccc(O)c(O)c2)oc2cc(O)cc(O)c12
REMARK SMILES IDX 5 1 3 2 2 3 1 4 22 5 20 6 19 7 17 8 16 9 15 10 14 11 6 12
REMARK SMILES IDX 7 13 8 14 9 15 13 16 11 17 10 18 12 20 4 22 21 24 18 26
REMARK H PARENT 10 19 12 21 4 23 21 25 18 27
REMARK Flexibility Score: inf
ROOT
ATOM      1  C   UNL     1      16.256   8.904  14.078  1.00  0.00     0.180 A 
ATOM      2  C   UNL     1      16.290   8.752  12.678  1.00  0.00     0.208 A 
ATOM      3  C   UNL     1      15.851   9.812  11.870  1.00  0.00     0.238 A 
ATOM      4  O   UNL     1      15.867   9.683  10.616  1.00  0.00    -0.285 OA
ATOM      5  C   UNL     1      15.407  11.009  12.469  1.00  0.00     0.111 A 
ATOM      6  C   UNL     1      14.953  12.125  11.726  1.00  0.00     0.134 A 
ATOM      7  C   UNL     1      14.535  13.284  12.397  1.00  0.00     0.093 A 
ATOM      8  C   UNL     1      14.564  13.350  13.791  1.00  0.00     0.123 A 
ATOM      9  C   UNL     1      15.012  12.250  14.532  1.00  0.00     0.094 A 
ATOM     10  C   UNL     1      15.430  11.085  13.881  1.00  0.00     0.146 A 
ATOM     11  O   UNL     1      15.846  10.054  14.608  1.00  0.00    -0.452 OA
ENDROOT
BRANCH   1  12
ATOM     12  C   UNL     1      16.684   7.826  14.998  1.00  0.00     0.025 A 
ATOM     13  C   UNL     1      15.816   6.754  15.256  1.00  0.00     0.016 A 
ATOM     14  C   UNL     1      16.206   5.715  16.104  1.00  0.00     0.051 A 
ATOM     15  C   UNL     1      17.478   5.724  16.693  1.00  0.00     0.157 A 
ATOM     16  C   UNL     1      17.967   7.821  15.575  1.00  0.00     0.062 A 
ATOM     17  C   UNL     1      18.361   6.777  16.424  1.00  0.00     0.158 A 
BRANCH  15  18
ATOM     18  O   UNL     1      17.871   4.691  17.541  1.00  0.00    -0.504 OA
ATOM     19  H   UNL     1      17.242   4.307  18.237  1.00  0.00     0.293 HD
ENDBRANCH  15  18
BRANCH  17  20
ATOM     20  O   UNL     1      19.631   6.778  17.000  1.00  0.00    -0.504 OA
ATOM     21  H   UNL     1      19.786   7.116  17.942  1.00  0.00     0.293 HD
ENDBRANCH  17  20
ENDBRANCH   1  12
BRANCH   2  22
ATOM     22  O   UNL     1      16.781   7.574  12.109  1.00  0.00    -0.502 OA
ATOM     23  H   UNL     1      17.766   7.336  12.120  1.00  0.00     0.293 HD
ENDBRANCH   2  22
BRANCH   6  24
ATOM     24  O   UNL     1      14.913  12.091  10.332  1.00  0.00    -0.507 OA
ATOM     25  H   UNL     1      14.885  12.940   9.779  1.00  0.00     0.293 HD
ENDBRANCH   6  24
BRANCH   8  26
ATOM     26  O   UNL     1      14.145  14.513  14.434  1.00  0.00    -0.508 OA
ATOM     27  H   UNL     1      14.740  15.331  14.492  1.00  0.00     0.293 HD
ENDBRANCH   8  26
TORSDOF 6
ENDMDL
MODEL 6
REMARK VINA RESULT:    -6.407      2.195      6.956
REMARK INTER + INTRA:          -8.033
REMARK INTER:                  -7.744
REMARK INTRA:                  -0.290
REMARK UNBOUND:                -0.315
REMARK SMILES O=c1c(O)c(-c2ccc(O)c(O)c2)oc2cc(O)cc(O)c12
REMARK SMILES IDX 5 1 3 2 2 3 1 4 22 5 20 6 19 7 17 8 16 9 15 10 14 11 6 12
REMARK SMILES IDX 7 13 8 14 9 15 13 16 11 17 10 18 12 20 4 22 21 24 18 26
REMARK H PARENT 10 19 12 21 4 23 21 25 18 27
REMARK Flexibility Score: inf
ROOT
ATOM      1  C   UNL     1      15.874  10.970  14.851  1.00  0.00     0.180 A 
ATOM      2  C   UNL     1      16.010  10.656  16.218  1.00  0.00     0.208 A 
ATOM      3  C   UNL     1      16.509   9.393  16.576  1.00  0.00     0.238 A 
ATOM      4  O   UNL     1      16.625   9.097  17.797  1.00  0.00    -0.285 OA
ATOM      5  C   UNL     1      16.881   8.479  15.570  1.00  0.00     0.111 A 
ATOM      6  C   UNL     1      17.395   7.189  15.847  1.00  0.00     0.134 A 
ATOM      7  C   UNL     1      17.751   6.339  14.789  1.00  0.00     0.093 A 
ATOM      8  C   UNL     1      17.605   6.753  13.464  1.00  0.00     0.123 A 
ATOM      9  C   UNL     1      17.097   8.027  13.183  1.00  0.00     0.094 A 
ATOM     10  C   UNL     1      16.735   8.887  14.224  1.00  0.00     0.146 A 
ATOM     11  O   UNL     1      16.250  10.088  13.929  1.00  0.00    -0.452 OA
ENDROOT
BRANCH   1  12
ATOM     12  C   UNL     1      15.339  12.272  14.394  1.00  0.00     0.025 A 
ATOM     13  C   UNL     1      16.215  13.226  13.849  1.00  0.00     0.016 A 
ATOM     14  C   UNL     1      15.729  14.453  13.392  1.00  0.00     0.051 A 
ATOM     15  C   UNL     1      14.359  14.739  13.456  1.00  0.00     0.157 A 
ATOM     16  C   UNL     1      13.962  12.555  14.437  1.00  0.00     0.062 A 
ATOM     17  C   UNL     1      13.473  13.786  13.976  1.00  0.00     0.158 A 
BRANCH  15  18
ATOM     18  O   UNL     1      13.870  15.962  13.003  1.00  0.00    -0.504 OA
ATOM     19  H   UNL     1      13.677  16.726  13.642  1.00  0.00     0.293 HD
ENDBRANCH  15  18
BRANCH  17  20
ATOM     20  O   UNL     1      12.109  14.067  14.027  1.00  0.00    -0.504 OA
ATOM     21  H   UNL     1      11.476  13.521  14.599  1.00  0.00     0.293 HD
ENDBRANCH  17  20
ENDBRANCH   1  12
BRANCH   2  22
ATOM     22  O   UNL     1      15.681  11.599  17.195  1.00  0.00    -0.502 OA
ATOM     23  H   UNL     1      16.349  11.918  17.886  1.00  0.00     0.293 HD
ENDBRANCH   2  22
BRANCH   6  24
ATOM     24  O   UNL     1      17.554   6.747  17.161  1.00  0.00    -0.507 OA
ATOM     25  H   UNL     1      17.603   7.394  17.939  1.00  0.00     0.293 HD
ENDBRANCH   6  24
BRANCH   8  26
ATOM     26  O   UNL     1      17.967   5.891  12.430  1.00  0.00    -0.508 OA
ATOM     27  H   UNL     1      17.351   5.150  12.118  1.00  0.00     0.293 HD
ENDBRANCH   8  26
TORSDOF 6
ENDMDL
MODEL 7
REMARK VINA RESULT:    -6.401      6.304      7.926
REMARK INTER + INTRA:          -8.026
REMARK INTER:                  -7.712
REMARK INTRA:                  -0.314
REMARK UNBOUND:                -0.315
REMARK SMILES O=c1c(O)c(-c2ccc(O)c(O)c2)oc2cc(O)cc(O)c12
REMARK SMILES IDX 5 1 3 2 2 3 1 4 22 5 20 6 19 7 17 8 16 9 15 10 14 11 6 12
REMARK SMILES IDX 7 13 8 14 9 15 13 16 11 17 10 18 12 20 4 22 21 24 18 26
REMARK H PARENT 10 19 12 21 4 23 21 25 18 27
REMARK Flexibility Score: inf
ROOT
ATOM      1  C   UNL     1      15.159  15.825  13.973  1.00  0.00     0.180 A 
ATOM      2  C   UNL     1      14.881  17.107  14.486  1.00  0.00     0.208 A 
ATOM      3  C   UNL     1      15.899  17.805  15.155  1.00  0.00     0.238 A 
ATOM      4  O   UNL     1      15.658  18.949  15.628  1.00  0.00    -0.285 OA
ATOM      5  C   UNL     1      17.177  17.224  15.281  1.00  0.00     0.111 A 
ATOM      6  C   UNL     1      18.257  17.863  15.935  1.00  0.00     0.134 A 
ATOM      7  C   UNL     1      19.503  17.221  16.011  1.00  0.00     0.093 A 
ATOM      8  C   UNL     1      19.689  15.959  15.446  1.00  0.00     0.123 A 
ATOM      9  C   UNL     1      18.625  15.321  14.797  1.00  0.00     0.094 A 
ATOM     10  C   UNL     1      17.376  15.944  14.713  1.00  0.00     0.146 A 
ATOM     11  O   UNL     1      16.382  15.315  14.097  1.00  0.00    -0.452 OA
ENDROOT
BRANCH   1  12
ATOM     12  C   UNL     1      14.134  15.018  13.273  1.00  0.00     0.025 A 
ATOM     13  C   UNL     1      13.370  14.091  14.000  1.00  0.00     0.016 A 
ATOM     14  C   UNL     1      12.384  13.334  13.364  1.00  0.00     0.051 A 
ATOM     15  C   UNL     1      12.135  13.504  11.996  1.00  0.00     0.157 A 
ATOM     16  C   UNL     1      13.867  15.201  11.904  1.00  0.00     0.062 A 
ATOM     17  C   UNL     1      12.875  14.442  11.266  1.00  0.00     0.158 A 
BRANCH  15  18
ATOM     18  O   UNL     1      11.153  12.750  11.357  1.00  0.00    -0.504 OA
ATOM     19  H   UNL     1      10.852  11.853  11.722  1.00  0.00     0.293 HD
ENDBRANCH  15  18
BRANCH  17  20
ATOM     20  O   UNL     1      12.617  14.620   9.907  1.00  0.00    -0.504 OA
ATOM     21  H   UNL     1      11.725  14.366   9.499  1.00  0.00     0.293 HD
ENDBRANCH  17  20
ENDBRANCH   1  12
BRANCH   2  22
ATOM     22  O   UNL     1      13.620  17.681  14.305  1.00  0.00    -0.502 OA
ATOM     23  H   UNL     1      13.499  18.618  13.940  1.00  0.00     0.293 HD
ENDBRANCH   2  22
BRANCH   6  24
ATOM     24  O   UNL     1      18.104  19.125  16.510  1.00  0.00    -0.507 OA
ATOM     25  H   UNL     1      18.275  19.286  17.495  1.00  0.00     0.293 HD
ENDBRANCH   6  24
BRANCH   8  26
ATOM     26  O   UNL     1      20.936  15.343  15.533  1.00  0.00    -0.508 OA
ATOM     27  H   UNL     1      21.751  15.841  15.873  1.00  0.00     0.293 HD
ENDBRANCH   8  26
TORSDOF 6
ENDMDL
MODEL 8
REMARK VINA RESULT:    -6.248      3.210      8.080
REMARK INTER + INTRA:          -7.842
REMARK INTER:                  -7.519
REMARK INTRA:                  -0.324
REMARK UNBOUND:                -0.315
REMARK SMILES O=c1c(O)c(-c2ccc(O)c(O)c2)oc2cc(O)cc(O)c12
REMARK SMILES IDX 5 1 3 2 2 3 1 4 22 5 20 6 19 7 17 8 16 9 15 10 14 11 6 12
REMARK SMILES IDX 7 13 8 14 9 15 13 16 11 17 10 18 12 20 4 22 21 24 18 26
REMARK H PARENT 10 19 12 21 4 23 21 25 18 27
REMARK Flexibility Score: inf
ROOT
ATOM      1  C   UNL     1      16.501   5.396  15.202  1.00  0.00     0.180 A 
ATOM      2  C   UNL     1      16.685   4.844  16.485  1.00  0.00     0.208 A 
ATOM      3  C   UNL     1      16.312   3.509  16.709  1.00  0.00     0.238 A 
ATOM      4  O   UNL     1      16.462   3.008  17.857  1.00  0.00    -0.285 OA
ATOM      5  C   UNL     1      15.783   2.745  15.649  1.00  0.00     0.111 A 
ATOM      6  C   UNL     1      15.387   1.394  15.790  1.00  0.00     0.134 A 
ATOM      7  C   UNL     1      14.877   0.698  14.683  1.00  0.00     0.093 A 
ATOM      8  C   UNL     1      14.758   1.326  13.442  1.00  0.00     0.123 A 
ATOM      9  C   UNL     1      15.147   2.662  13.295  1.00  0.00     0.094 A 
ATOM     10  C   UNL     1      15.656   3.372  14.387  1.00  0.00     0.146 A 
ATOM     11  O   UNL     1      16.013   4.640  14.222  1.00  0.00    -0.452 OA
ENDROOT
BRANCH   1  12
ATOM     12  C   UNL     1      16.852   6.800  14.892  1.00  0.00     0.025 A 
ATOM     13  C   UNL     1      15.912   7.815  15.132  1.00  0.00     0.016 A 
ATOM     14  C   UNL     1      16.229   9.150  14.865  1.00  0.00     0.051 A 
ATOM     15  C   UNL     1      17.496   9.491  14.373  1.00  0.00     0.157 A 
ATOM     16  C   UNL     1      18.129   7.149  14.417  1.00  0.00     0.062 A 
ATOM     17  C   UNL     1      18.448   8.488  14.152  1.00  0.00     0.158 A 
BRANCH  15  18
ATOM     18  O   UNL     1      17.815  10.820  14.104  1.00  0.00    -0.504 OA
ATOM     19  H   UNL     1      17.098  11.531  14.018  1.00  0.00     0.293 HD
ENDBRANCH  15  18
BRANCH  17  20
ATOM     20  O   UNL     1      19.713   8.831  13.675  1.00  0.00    -0.504 OA
ATOM     21  H   UNL     1      19.836   9.289  12.780  1.00  0.00     0.293 HD
ENDBRANCH  17  20
ENDBRANCH   1  12
BRANCH   2  22
ATOM     22  O   UNL     1      17.258   5.607  17.506  1.00  0.00    -0.502 OA
ATOM     23  H   UNL     1      17.465   5.222  18.419  1.00  0.00     0.293 HD
ENDBRANCH   2  22
BRANCH   6  24
ATOM     24  O   UNL     1      15.494   0.739  17.017  1.00  0.00    -0.507 OA
ATOM     25  H   UNL     1      15.950  -0.162  17.103  1.00  0.00     0.293 HD
ENDBRANCH   6  24
BRANCH   8  26
ATOM     26  O   UNL     1      14.250   0.613  12.358  1.00  0.00    -0.508 OA
ATOM     27  H   UNL     1      14.858   0.220  11.649  1.00  0.00     0.293 HD
ENDBRANCH   8  26
TORSDOF 6
ENDMDL
MODEL 9
REMARK VINA RESULT:    -6.246      2.407      7.371
REMARK INTER + INTRA:          -7.840
REMARK INTER:                  -7.552
REMARK INTRA:                  -0.288
REMARK UNBOUND:                -0.315
REMARK SMILES O=c1c(O)c(-c2ccc(O)c(O)c2)oc2cc(O)cc(O)c12
REMARK SMILES IDX 5 1 3 2 2 3 1 4 22 5 20 6 19 7 17 8 16 9 15 10 14 11 6 12
REMARK SMILES IDX 7 13 8 14 9 15 13 16 11 17 10 18 12 20 4 22 21 24 18 26
REMARK H PARENT 10 19 12 21 4 23 21 25 18 27
REMARK Flexibility Score: inf
ROOT
ATOM      1  C   UNL     1      15.868  11.092  14.405  1.00  0.00     0.180 A 
ATOM      2  C   UNL     1      16.153  10.076  13.473  1.00  0.00     0.208 A 
ATOM      3  C   UNL     1      16.639   8.845  13.940  1.00  0.00     0.238 A 
ATOM      4  O   UNL     1      16.908   7.931  13.113  1.00  0.00    -0.285 OA
ATOM      5  C   UNL     1      16.813   8.643  15.324  1.00  0.00     0.111 A 
ATOM      6  C   UNL     1      17.295   7.431  15.876  1.00  0.00     0.134 A 
ATOM      7  C   UNL     1      17.432   7.306  17.267  1.00  0.00     0.093 A 
ATOM      8  C   UNL     1      17.096   8.364  18.114  1.00  0.00     0.123 A 
ATOM      9  C   UNL     1      16.620   9.564  17.575  1.00  0.00     0.094 A 
ATOM     10  C   UNL     1      16.479   9.709  16.192  1.00  0.00     0.146 A 
ATOM     11  O   UNL     1      16.029  10.861  15.706  1.00  0.00    -0.452 OA
ENDROOT
BRANCH   1  12
ATOM     12  C   UNL     1      15.370  12.423  13.991  1.00  0.00     0.025 A 
ATOM     13  C   UNL     1      14.023  12.755  14.210  1.00  0.00     0.016 A 
ATOM     14  C   UNL     1      13.536  14.013  13.845  1.00  0.00     0.051 A 
ATOM     15  C   UNL     1      14.392  14.963  13.272  1.00  0.00     0.157 A 
ATOM     16  C   UNL     1      16.229  13.387  13.433  1.00  0.00     0.062 A 
ATOM     17  C   UNL     1      15.742  14.650  13.069  1.00  0.00     0.158 A 
BRANCH  15  18
ATOM     18  O   UNL     1      13.910  16.217  12.905  1.00  0.00    -0.504 OA
ATOM     19  H   UNL     1      13.950  16.541  11.945  1.00  0.00     0.293 HD
ENDBRANCH  15  18
BRANCH  17  20
ATOM     20  O   UNL     1      16.595  15.601  12.511  1.00  0.00    -0.504 OA
ATOM     21  H   UNL     1      16.986  15.484  11.584  1.00  0.00     0.293 HD
ENDBRANCH  17  20
ENDBRANCH   1  12
BRANCH   2  22
ATOM     22  O   UNL     1      15.925  10.284  12.110  1.00  0.00    -0.502 OA
ATOM     23  H   UNL     1      14.993  10.305  11.714  1.00  0.00     0.293 HD
ENDBRANCH   2  22
BRANCH   6  24
ATOM     24  O   UNL     1      17.638   6.356  15.057  1.00  0.00    -0.507 OA
ATOM     25  H   UNL     1      17.820   5.434  15.436  1.00  0.00     0.293 HD
ENDBRANCH   6  24
BRANCH   8  26
ATOM     26  O   UNL     1      17.240   8.214  19.491  1.00  0.00    -0.508 OA
ATOM     27  H   UNL     1      16.449   8.292  20.119  1.00  0.00     0.293 HD
ENDBRANCH   8  26
TORSDOF 6
ENDMDL
