MODEL 1
REMARK VINA RESULT:    -5.767      0.000      0.000
REMARK INTER + INTRA:          -7.040
REMARK INTER:                  -6.778
REMARK INTRA:                  -0.263
REMARK UNBOUND:                -0.263
REMARK SMILES O=c1cc(-c2ccc(O)c(O)c2)oc2cc(O)cc(O)c12
REMARK SMILES IDX 4 1 3 2 2 3 1 4 21 5 19 6 18 7 16 8 15 9 14 10 13 11 5 12
REMARK SMILES IDX 6 13 7 14 8 15 12 16 10 17 9 18 11 20 20 22 17 24
REMARK H PARENT 9 19 11 21 20 23 17 25
REMARK Flexibility Score: inf
ROOT
ATOM      1  C   UNL     1     145.678 150.783 136.719  1.00  0.00     0.138 A 
ATOM      2  C   UNL     1     146.289 151.999 136.380  1.00  0.00     0.100 A 
ATOM      3  C   UNL     1     147.676 152.122 136.465  1.00  0.00     0.197 A 
ATOM      4  O   UNL     1     148.199 153.205 136.096  1.00  0.00    -0.289 OA
ATOM      5  C   UNL     1     148.452 151.031 136.922  1.00  0.00     0.107 A 
ATOM      6  C   UNL     1     149.869 151.054 137.086  1.00  0.00     0.134 A 
ATOM      7  C   UNL     1     150.543 149.876 137.434  1.00  0.00     0.093 A 
ATOM      8  C   UNL     1     149.844 148.691 137.680  1.00  0.00     0.123 A 
ATOM      9  C   UNL     1     148.456 148.672 137.573  1.00  0.00     0.094 A 
ATOM     10  C   UNL     1     147.758 149.822 137.195  1.00  0.00     0.146 A 
ATOM     11  O   UNL     1     146.434 149.756 137.091  1.00  0.00    -0.456 OA
ENDROOT
BRANCH   1  12
ATOM     12  C   UNL     1     144.206 150.599 136.647  1.00  0.00     0.021 A 
ATOM     13  C   UNL     1     143.583 150.054 135.509  1.00  0.00     0.016 A 
ATOM     14  C   UNL     1     142.195 149.901 135.465  1.00  0.00     0.051 A 
ATOM     15  C   UNL     1     141.406 150.298 136.552  1.00  0.00     0.157 A 
ATOM     16  C   UNL     1     143.405 151.008 137.729  1.00  0.00     0.062 A 
ATOM     17  C   UNL     1     142.011 150.854 137.684  1.00  0.00     0.158 A 
BRANCH  15  18
ATOM     18  O   UNL     1     140.020 150.147 136.511  1.00  0.00    -0.504 OA
ATOM     19  H   UNL     1     139.424 150.841 136.075  1.00  0.00     0.293 HD
ENDBRANCH  15  18
BRANCH  17  20
ATOM     20  O   UNL     1     141.223 151.251 138.763  1.00  0.00    -0.504 OA
ATOM     21  H   UNL     1     141.589 151.276 139.707  1.00  0.00     0.293 HD
ENDBRANCH  17  20
ENDBRANCH   1  12
BRANCH   6  22
ATOM     22  O   UNL     1     150.653 152.203 136.948  1.00  0.00    -0.507 OA
ATOM     23  H   UNL     1     150.914 152.817 137.704  1.00  0.00     0.293 HD
ENDBRANCH   6  22
BRANCH   8  24
ATOM     24  O   UNL     1     150.522 147.529 138.039  1.00  0.00    -0.508 OA
ATOM     25  H   UNL     1     150.571 146.730 137.418  1.00  0.00     0.293 HD
ENDBRANCH   8  24
TORSDOF 5
ENDMDL
MODEL 2
REMARK VINA RESULT:    -5.764      7.496     11.145
REMARK INTER + INTRA:          -7.037
REMARK INTER:                  -6.774
REMARK INTRA:                  -0.263
REMARK UNBOUND:                -0.263
REMARK SMILES O=c1cc(-c2ccc(O)c(O)c2)oc2cc(O)cc(O)c12
REMARK SMILES IDX 4 1 3 2 2 3 1 4 21 5 19 6 18 7 16 8 15 9 14 10 13 11 5 12
REMARK SMILES IDX 6 13 7 14 8 15 12 16 10 17 9 18 11 20 20 22 17 24
REMARK H PARENT 9 19 11 21 20 23 17 25
REMARK Flexibility Score: inf
ROOT
ATOM      1  C   UNL     1     146.870 141.779 136.681  1.00  0.00     0.138 A 
ATOM      2  C   UNL     1     146.256 140.586 136.274  1.00  0.00     0.100 A 
ATOM      3  C   UNL     1     144.868 140.465 136.344  1.00  0.00     0.197 A 
ATOM      4  O   UNL     1     144.342 139.407 135.913  1.00  0.00    -0.289 OA
ATOM      5  C   UNL     1     144.094 141.534 136.854  1.00  0.00     0.107 A 
ATOM      6  C   UNL     1     142.675 141.508 137.009  1.00  0.00     0.134 A 
ATOM      7  C   UNL     1     142.005 142.669 137.416  1.00  0.00     0.093 A 
ATOM      8  C   UNL     1     142.707 143.835 137.731  1.00  0.00     0.123 A 
ATOM      9  C   UNL     1     144.097 143.853 137.633  1.00  0.00     0.094 A 
ATOM     10  C   UNL     1     144.792 142.723 137.197  1.00  0.00     0.146 A 
ATOM     11  O   UNL     1     146.116 142.788 137.104  1.00  0.00    -0.456 OA
ENDROOT
BRANCH   1  12
ATOM     12  C   UNL     1     148.343 141.960 136.628  1.00  0.00     0.021 A 
ATOM     13  C   UNL     1     148.987 142.454 135.478  1.00  0.00     0.016 A 
ATOM     14  C   UNL     1     150.376 142.604 135.453  1.00  0.00     0.051 A 
ATOM     15  C   UNL     1     151.145 142.256 136.571  1.00  0.00     0.157 A 
ATOM     16  C   UNL     1     149.125 141.599 137.741  1.00  0.00     0.062 A 
ATOM     17  C   UNL     1     150.519 141.751 137.715  1.00  0.00     0.158 A 
BRANCH  15  18
ATOM     18  O   UNL     1     152.531 142.405 136.548  1.00  0.00    -0.504 OA
ATOM     19  H   UNL     1     152.964 143.298 136.346  1.00  0.00     0.293 HD
ENDBRANCH  15  18
BRANCH  17  20
ATOM     20  O   UNL     1     151.287 141.401 138.824  1.00  0.00    -0.504 OA
ATOM     21  H   UNL     1     150.859 141.110 139.695  1.00  0.00     0.293 HD
ENDBRANCH  17  20
ENDBRANCH   1  12
BRANCH   6  22
ATOM     22  O   UNL     1     141.888 140.372 136.804  1.00  0.00    -0.507 OA
ATOM     23  H   UNL     1     142.052 139.472 137.228  1.00  0.00     0.293 HD
ENDBRANCH   6  22
BRANCH   8  24
ATOM     24  O   UNL     1     142.033 144.980 138.149  1.00  0.00    -0.508 OA
ATOM     25  H   UNL     1     141.711 145.086 139.104  1.00  0.00     0.293 HD
ENDBRANCH   8  24
TORSDOF 5
ENDMDL
MODEL 3
REMARK VINA RESULT:    -5.753      5.380      7.879
REMARK INTER + INTRA:          -7.024
REMARK INTER:                  -6.761
REMARK INTRA:                  -0.263
REMARK UNBOUND:                -0.263
REMARK SMILES O=c1cc(-c2ccc(O)c(O)c2)oc2cc(O)cc(O)c12
REMARK SMILES IDX 4 1 3 2 2 3 1 4 21 5 19 6 18 7 16 8 15 9 14 10 13 11 5 12
REMARK SMILES IDX 6 13 7 14 8 15 12 16 10 17 9 18 11 20 20 22 17 24
REMARK H PARENT 9 19 11 21 20 23 17 25
REMARK Flexibility Score: inf
ROOT
ATOM      1  C   UNL     1     141.734 145.690 136.678  1.00  0.00     0.138 A 
ATOM      2  C   UNL     1     140.538 146.314 136.298  1.00  0.00     0.100 A 
ATOM      3  C   UNL     1     140.432 147.704 136.364  1.00  0.00     0.197 A 
ATOM      4  O   UNL     1     139.367 148.238 135.959  1.00  0.00    -0.289 OA
ATOM      5  C   UNL     1     141.521 148.470 136.842  1.00  0.00     0.107 A 
ATOM      6  C   UNL     1     141.513 149.889 136.990  1.00  0.00     0.134 A 
ATOM      7  C   UNL     1     142.690 150.550 137.363  1.00  0.00     0.093 A 
ATOM      8  C   UNL     1     143.857 149.838 137.651  1.00  0.00     0.123 A 
ATOM      9  C   UNL     1     143.860 148.448 137.560  1.00  0.00     0.094 A 
ATOM     10  C   UNL     1     142.712 147.762 137.157  1.00  0.00     0.146 A 
ATOM     11  O   UNL     1     142.761 146.437 137.070  1.00  0.00    -0.456 OA
ENDROOT
BRANCH   1  12
ATOM     12  C   UNL     1     141.900 144.215 136.628  1.00  0.00     0.021 A 
ATOM     13  C   UNL     1     142.356 143.560 135.468  1.00  0.00     0.016 A 
ATOM     14  C   UNL     1     142.493 142.170 135.446  1.00  0.00     0.051 A 
ATOM     15  C   UNL     1     142.167 141.410 136.577  1.00  0.00     0.157 A 
ATOM     16  C   UNL     1     141.563 143.443 137.754  1.00  0.00     0.062 A 
ATOM     17  C   UNL     1     141.701 142.047 137.732  1.00  0.00     0.158 A 
BRANCH  15  18
ATOM     18  O   UNL     1     142.303 140.023 136.558  1.00  0.00    -0.504 OA
ATOM     19  H   UNL     1     142.118 139.461 137.381  1.00  0.00     0.293 HD
ENDBRANCH  15  18
BRANCH  17  20
ATOM     20  O   UNL     1     141.374 141.288 138.855  1.00  0.00    -0.504 OA
ATOM     21  H   UNL     1     141.413 140.276 138.840  1.00  0.00     0.293 HD
ENDBRANCH  17  20
ENDBRANCH   1  12
BRANCH   6  22
ATOM     22  O   UNL     1     140.379 150.687 136.811  1.00  0.00    -0.507 OA
ATOM     23  H   UNL     1     140.348 151.685 136.952  1.00  0.00     0.293 HD
ENDBRANCH   6  22
BRANCH   8  24
ATOM     24  O   UNL     1     145.019 150.504 138.035  1.00  0.00    -0.508 OA
ATOM     25  H   UNL     1     145.013 151.491 138.263  1.00  0.00     0.293 HD
ENDBRANCH   8  24
TORSDOF 5
ENDMDL
MODEL 4
REMARK VINA RESULT:    -5.724      5.373      7.918
REMARK INTER + INTRA:          -6.991
REMARK INTER:                  -6.728
REMARK INTRA:                  -0.263
REMARK UNBOUND:                -0.263
REMARK SMILES O=c1cc(-c2ccc(O)c(O)c2)oc2cc(O)cc(O)c12
REMARK SMILES IDX 4 1 3 2 2 3 1 4 21 5 19 6 18 7 16 8 15 9 14 10 13 11 5 12
REMARK SMILES IDX 6 13 7 14 8 15 12 16 10 17 9 18 11 20 20 22 17 24
REMARK H PARENT 9 19 11 21 20 23 17 25
REMARK Flexibility Score: inf
ROOT
ATOM      1  C   UNL     1     150.765 146.814 136.700  1.00  0.00     0.138 A 
ATOM      2  C   UNL     1     151.958 146.199 136.296  1.00  0.00     0.100 A 
ATOM      3  C   UNL     1     152.077 144.810 136.365  1.00  0.00     0.197 A 
ATOM      4  O   UNL     1     153.137 144.283 135.938  1.00  0.00    -0.289 OA
ATOM      5  C   UNL     1     151.006 144.037 136.872  1.00  0.00     0.107 A 
ATOM      6  C   UNL     1     151.030 142.619 137.027  1.00  0.00     0.134 A 
ATOM      7  C   UNL     1     149.868 141.949 137.430  1.00  0.00     0.093 A 
ATOM      8  C   UNL     1     148.701 142.653 137.742  1.00  0.00     0.123 A 
ATOM      9  C   UNL     1     148.685 144.042 137.644  1.00  0.00     0.094 A 
ATOM     10  C   UNL     1     149.817 144.736 137.212  1.00  0.00     0.146 A 
ATOM     11  O   UNL     1     149.754 146.061 137.120  1.00  0.00    -0.456 OA
ENDROOT
BRANCH   1  12
ATOM     12  C   UNL     1     150.586 148.287 136.648  1.00  0.00     0.021 A 
ATOM     13  C   UNL     1     150.021 148.925 135.527  1.00  0.00     0.016 A 
ATOM     14  C   UNL     1     149.873 150.313 135.501  1.00  0.00     0.051 A 
ATOM     15  C   UNL     1     150.296 151.090 136.587  1.00  0.00     0.157 A 
ATOM     16  C   UNL     1     151.020 149.076 137.729  1.00  0.00     0.062 A 
ATOM     17  C   UNL     1     150.872 150.470 137.702  1.00  0.00     0.158 A 
BRANCH  15  18
ATOM     18  O   UNL     1     150.150 152.476 136.564  1.00  0.00    -0.504 OA
ATOM     19  H   UNL     1     150.953 153.093 136.541  1.00  0.00     0.293 HD
ENDBRANCH  15  18
BRANCH  17  20
ATOM     20  O   UNL     1     151.295 151.246 138.780  1.00  0.00    -0.504 OA
ATOM     21  H   UNL     1     151.950 150.889 139.465  1.00  0.00     0.293 HD
ENDBRANCH  17  20
ENDBRANCH   1  12
BRANCH   6  22
ATOM     22  O   UNL     1     152.166 141.830 136.825  1.00  0.00    -0.507 OA
ATOM     23  H   UNL     1     152.153 140.857 136.559  1.00  0.00     0.293 HD
ENDBRANCH   6  22
BRANCH   8  24
ATOM     24  O   UNL     1     147.555 141.979 138.156  1.00  0.00    -0.508 OA
ATOM     25  H   UNL     1     146.679 142.467 138.307  1.00  0.00     0.293 HD
ENDBRANCH   8  24
TORSDOF 5
ENDMDL
MODEL 5
REMARK VINA RESULT:    -5.503      1.110      2.806
REMARK INTER + INTRA:          -6.731
REMARK INTER:                  -6.461
REMARK INTRA:                  -0.269
REMARK UNBOUND:                -0.263
REMARK SMILES O=c1cc(-c2ccc(O)c(O)c2)oc2cc(O)cc(O)c12
REMARK SMILES IDX 4 1 3 2 2 3 1 4 21 5 19 6 18 7 16 8 15 9 14 10 13 11 5 12
REMARK SMILES IDX 6 13 7 14 8 15 12 16 10 17 9 18 11 20 20 22 17 24
REMARK H PARENT 9 19 11 21 20 23 17 25
REMARK Flexibility Score: inf
ROOT
ATOM      1  C   UNL     1     145.529 149.146 137.092  1.00  0.00     0.138 A 
ATOM      2  C   UNL     1     145.985 147.848 137.358  1.00  0.00     0.100 A 
ATOM      3  C   UNL     1     147.353 147.610 137.490  1.00  0.00     0.197 A 
ATOM      4  O   UNL     1     147.727 146.446 137.789  1.00  0.00    -0.289 OA
ATOM      5  C   UNL     1     148.271 148.674 137.324  1.00  0.00     0.107 A 
ATOM      6  C   UNL     1     149.690 148.541 137.397  1.00  0.00     0.134 A 
ATOM      7  C   UNL     1     150.494 149.687 137.333  1.00  0.00     0.093 A 
ATOM      8  C   UNL     1     149.933 150.952 137.138  1.00  0.00     0.123 A 
ATOM      9  C   UNL     1     148.552 151.084 137.013  1.00  0.00     0.094 A 
ATOM     10  C   UNL     1     147.721 149.965 137.107  1.00  0.00     0.146 A 
ATOM     11  O   UNL     1     146.408 150.138 136.997  1.00  0.00    -0.456 OA
ENDROOT
BRANCH   1  12
ATOM     12  C   UNL     1     144.084 149.454 136.941  1.00  0.00     0.021 A 
ATOM     13  C   UNL     1     143.365 149.087 135.787  1.00  0.00     0.016 A 
ATOM     14  C   UNL     1     142.009 149.399 135.668  1.00  0.00     0.051 A 
ATOM     15  C   UNL     1     141.349 150.089 136.693  1.00  0.00     0.157 A 
ATOM     16  C   UNL     1     143.416 150.158 137.960  1.00  0.00     0.062 A 
ATOM     17  C   UNL     1     142.054 150.470 137.839  1.00  0.00     0.158 A 
BRANCH  15  18
ATOM     18  O   UNL     1     139.995 150.400 136.576  1.00  0.00    -0.504 OA
ATOM     19  H   UNL     1     139.373 149.849 135.998  1.00  0.00     0.293 HD
ENDBRANCH  15  18
BRANCH  17  20
ATOM     20  O   UNL     1     141.396 151.160 138.856  1.00  0.00    -0.504 OA
ATOM     21  H   UNL     1     141.799 151.984 139.285  1.00  0.00     0.293 HD
ENDBRANCH  17  20
ENDBRANCH   1  12
BRANCH   6  22
ATOM     22  O   UNL     1     150.356 147.318 137.505  1.00  0.00    -0.507 OA
ATOM     23  H   UNL     1     149.949 146.419 137.294  1.00  0.00     0.293 HD
ENDBRANCH   6  22
BRANCH   8  24
ATOM     24  O   UNL     1     150.742 152.083 137.060  1.00  0.00    -0.508 OA
ATOM     25  H   UNL     1     151.632 152.132 137.542  1.00  0.00     0.293 HD
ENDBRANCH   8  24
TORSDOF 5
ENDMDL
MODEL 6
REMARK VINA RESULT:    -5.484      5.411      7.351
REMARK INTER + INTRA:          -6.709
REMARK INTER:                  -6.440
REMARK INTRA:                  -0.269
REMARK UNBOUND:                -0.263
REMARK SMILES O=c1cc(-c2ccc(O)c(O)c2)oc2cc(O)cc(O)c12
REMARK SMILES IDX 4 1 3 2 2 3 1 4 21 5 19 6 18 7 16 8 15 9 14 10 13 11 5 12
REMARK SMILES IDX 6 13 7 14 8 15 12 16 10 17 9 18 11 20 20 22 17 24
REMARK H PARENT 9 19 11 21 20 23 17 25
REMARK Flexibility Score: inf
ROOT
ATOM      1  C   UNL     1     143.493 145.623 137.083  1.00  0.00     0.138 A 
ATOM      2  C   UNL     1     144.791 146.079 137.348  1.00  0.00     0.100 A 
ATOM      3  C   UNL     1     145.027 147.447 137.492  1.00  0.00     0.197 A 
ATOM      4  O   UNL     1     146.191 147.820 137.790  1.00  0.00    -0.289 OA
ATOM      5  C   UNL     1     143.961 148.364 137.338  1.00  0.00     0.107 A 
ATOM      6  C   UNL     1     144.091 149.782 137.423  1.00  0.00     0.134 A 
ATOM      7  C   UNL     1     142.944 150.585 137.370  1.00  0.00     0.093 A 
ATOM      8  C   UNL     1     141.679 150.023 137.174  1.00  0.00     0.123 A 
ATOM      9  C   UNL     1     141.549 148.643 137.037  1.00  0.00     0.094 A 
ATOM     10  C   UNL     1     142.670 147.813 137.120  1.00  0.00     0.146 A 
ATOM     11  O   UNL     1     142.499 146.501 136.998  1.00  0.00    -0.456 OA
ENDROOT
BRANCH   1  12
ATOM     12  C   UNL     1     143.187 144.178 136.920  1.00  0.00     0.021 A 
ATOM     13  C   UNL     1     143.533 143.476 135.749  1.00  0.00     0.016 A 
ATOM     14  C   UNL     1     143.224 142.120 135.619  1.00  0.00     0.051 A 
ATOM     15  C   UNL     1     142.557 141.445 136.650  1.00  0.00     0.157 A 
ATOM     16  C   UNL     1     142.506 143.496 137.944  1.00  0.00     0.062 A 
ATOM     17  C   UNL     1     142.196 142.134 137.813  1.00  0.00     0.158 A 
BRANCH  15  18
ATOM     18  O   UNL     1     142.248 140.092 136.522  1.00  0.00    -0.504 OA
ATOM     19  H   UNL     1     142.117 139.661 135.614  1.00  0.00     0.293 HD
ENDBRANCH  15  18
BRANCH  17  20
ATOM     20  O   UNL     1     141.530 141.460 138.835  1.00  0.00    -0.504 OA
ATOM     21  H   UNL     1     141.758 141.617 139.809  1.00  0.00     0.293 HD
ENDBRANCH  17  20
ENDBRANCH   1  12
BRANCH   6  22
ATOM     22  O   UNL     1     145.314 150.449 137.533  1.00  0.00    -0.507 OA
ATOM     23  H   UNL     1     145.808 150.610 138.397  1.00  0.00     0.293 HD
ENDBRANCH   6  22
BRANCH   8  24
ATOM     24  O   UNL     1     140.546 150.830 137.108  1.00  0.00    -0.508 OA
ATOM     25  H   UNL     1     139.861 150.722 136.369  1.00  0.00     0.293 HD
ENDBRANCH   8  24
TORSDOF 5
ENDMDL
MODEL 7
REMARK VINA RESULT:    -5.466      4.758      7.491
REMARK INTER + INTRA:          -6.688
REMARK INTER:                  -6.418
REMARK INTRA:                  -0.270
REMARK UNBOUND:                -0.263
REMARK SMILES O=c1cc(-c2ccc(O)c(O)c2)oc2cc(O)cc(O)c12
REMARK SMILES IDX 4 1 3 2 2 3 1 4 21 5 19 6 18 7 16 8 15 9 14 10 13 11 5 12
REMARK SMILES IDX 6 13 7 14 8 15 12 16 10 17 9 18 11 20 20 22 17 24
REMARK H PARENT 9 19 11 21 20 23 17 25
REMARK Flexibility Score: inf
ROOT
ATOM      1  C   UNL     1     149.144 146.927 137.097  1.00  0.00     0.138 A 
ATOM      2  C   UNL     1     147.834 146.489 137.334  1.00  0.00     0.100 A 
ATOM      3  C   UNL     1     147.576 145.124 137.470  1.00  0.00     0.197 A 
ATOM      4  O   UNL     1     146.401 144.766 137.743  1.00  0.00    -0.289 OA
ATOM      5  C   UNL     1     148.632 144.192 137.335  1.00  0.00     0.107 A 
ATOM      6  C   UNL     1     148.480 142.775 137.413  1.00  0.00     0.134 A 
ATOM      7  C   UNL     1     149.617 141.957 137.381  1.00  0.00     0.093 A 
ATOM      8  C   UNL     1     150.893 142.501 137.213  1.00  0.00     0.123 A 
ATOM      9  C   UNL     1     151.045 143.880 137.083  1.00  0.00     0.094 A 
ATOM     10  C   UNL     1     149.935 144.725 137.145  1.00  0.00     0.146 A 
ATOM     11  O   UNL     1     150.126 146.035 137.031  1.00  0.00    -0.456 OA
ENDROOT
BRANCH   1  12
ATOM     12  C   UNL     1     149.473 148.367 136.945  1.00  0.00     0.021 A 
ATOM     13  C   UNL     1     149.132 149.086 135.783  1.00  0.00     0.016 A 
ATOM     14  C   UNL     1     149.463 150.437 135.662  1.00  0.00     0.051 A 
ATOM     15  C   UNL     1     150.148 151.092 136.694  1.00  0.00     0.157 A 
ATOM     16  C   UNL     1     150.172 149.029 137.970  1.00  0.00     0.062 A 
ATOM     17  C   UNL     1     150.504 150.387 137.848  1.00  0.00     0.158 A 
BRANCH  15  18
ATOM     18  O   UNL     1     150.479 152.441 136.576  1.00  0.00    -0.504 OA
ATOM     19  H   UNL     1     151.434 152.763 136.678  1.00  0.00     0.293 HD
ENDBRANCH  15  18
BRANCH  17  20
ATOM     20  O   UNL     1     151.189 151.040 138.872  1.00  0.00    -0.504 OA
ATOM     21  H   UNL     1     150.823 151.077 139.816  1.00  0.00     0.293 HD
ENDBRANCH  17  20
ENDBRANCH   1  12
BRANCH   6  22
ATOM     22  O   UNL     1     147.246 142.125 137.496  1.00  0.00    -0.507 OA
ATOM     23  H   UNL     1     146.595 142.024 136.732  1.00  0.00     0.293 HD
ENDBRANCH   6  22
BRANCH   8  24
ATOM     24  O   UNL     1     152.016 141.678 137.167  1.00  0.00    -0.508 OA
ATOM     25  H   UNL     1     152.793 141.807 137.805  1.00  0.00     0.293 HD
ENDBRANCH   8  24
TORSDOF 5
ENDMDL
MODEL 8
REMARK VINA RESULT:    -5.462      6.396     10.024
REMARK INTER + INTRA:          -6.683
REMARK INTER:                  -6.413
REMARK INTRA:                  -0.269
REMARK UNBOUND:                -0.263
REMARK SMILES O=c1cc(-c2ccc(O)c(O)c2)oc2cc(O)cc(O)c12
REMARK SMILES IDX 4 1 3 2 2 3 1 4 21 5 19 6 18 7 16 8 15 9 14 10 13 11 5 12
REMARK SMILES IDX 6 13 7 14 8 15 12 16 10 17 9 18 11 20 20 22 17 24
REMARK H PARENT 9 19 11 21 20 23 17 25
REMARK Flexibility Score: inf
ROOT
ATOM      1  C   UNL     1     146.935 143.538 137.101  1.00  0.00     0.138 A 
ATOM      2  C   UNL     1     146.485 144.842 137.350  1.00  0.00     0.100 A 
ATOM      3  C   UNL     1     145.119 145.084 137.503  1.00  0.00     0.197 A 
ATOM      4  O   UNL     1     144.751 146.253 137.786  1.00  0.00    -0.289 OA
ATOM      5  C   UNL     1     144.197 144.018 137.374  1.00  0.00     0.107 A 
ATOM      6  C   UNL     1     142.780 144.153 137.471  1.00  0.00     0.134 A 
ATOM      7  C   UNL     1     141.974 143.008 137.443  1.00  0.00     0.093 A 
ATOM      8  C   UNL     1     142.531 141.739 137.262  1.00  0.00     0.123 A 
ATOM      9  C   UNL     1     143.909 141.602 137.114  1.00  0.00     0.094 A 
ATOM     10  C   UNL     1     144.743 142.722 137.172  1.00  0.00     0.146 A 
ATOM     11  O   UNL     1     146.053 142.546 137.040  1.00  0.00    -0.456 OA
ENDROOT
BRANCH   1  12
ATOM     12  C   UNL     1     148.377 143.226 136.929  1.00  0.00     0.021 A 
ATOM     13  C   UNL     1     149.073 143.567 135.754  1.00  0.00     0.016 A 
ATOM     14  C   UNL     1     150.427 143.252 135.616  1.00  0.00     0.051 A 
ATOM     15  C   UNL     1     151.105 142.583 136.643  1.00  0.00     0.157 A 
ATOM     16  C   UNL     1     149.062 142.543 137.950  1.00  0.00     0.062 A 
ATOM     17  C   UNL     1     150.422 142.227 137.810  1.00  0.00     0.158 A 
BRANCH  15  18
ATOM     18  O   UNL     1     152.457 142.268 136.508  1.00  0.00    -0.504 OA
ATOM     19  H   UNL     1     153.023 142.670 135.770  1.00  0.00     0.293 HD
ENDBRANCH  15  18
BRANCH  17  20
ATOM     20  O   UNL     1     151.099 141.558 138.829  1.00  0.00    -0.504 OA
ATOM     21  H   UNL     1     151.634 140.717 138.647  1.00  0.00     0.293 HD
ENDBRANCH  17  20
ENDBRANCH   1  12
BRANCH   6  22
ATOM     22  O   UNL     1     142.117 145.380 137.567  1.00  0.00    -0.507 OA
ATOM     23  H   UNL     1     141.850 145.824 138.432  1.00  0.00     0.293 HD
ENDBRANCH   6  22
BRANCH   8  24
ATOM     24  O   UNL     1     141.720 140.607 137.220  1.00  0.00    -0.508 OA
ATOM     25  H   UNL     1     140.716 140.678 137.096  1.00  0.00     0.293 HD
ENDBRANCH   8  24
TORSDOF 5
ENDMDL
MODEL 9
REMARK VINA RESULT:    -5.440      3.326      7.805
REMARK INTER + INTRA:          -6.656
REMARK INTER:                  -6.340
REMARK INTRA:                  -0.316
REMARK UNBOUND:                -0.263
REMARK SMILES O=c1cc(-c2ccc(O)c(O)c2)oc2cc(O)cc(O)c12
REMARK SMILES IDX 4 1 3 2 2 3 1 4 21 5 19 6 18 7 16 8 15 9 14 10 13 11 5 12
REMARK SMILES IDX 6 13 7 14 8 15 12 16 10 17 9 18 11 20 20 22 17 24
REMARK H PARENT 9 19 11 21 20 23 17 25
REMARK Flexibility Score: inf
ROOT
ATOM      1  C   UNL     1     149.059 146.556 137.014  1.00  0.00     0.138 A 
ATOM      2  C   UNL     1     147.674 146.585 137.226  1.00  0.00     0.100 A 
ATOM      3  C   UNL     1     147.006 147.809 137.262  1.00  0.00     0.197 A 
ATOM      4  O   UNL     1     145.755 147.799 137.393  1.00  0.00    -0.289 OA
ATOM      5  C   UNL     1     147.735 149.013 137.115  1.00  0.00     0.107 A 
ATOM      6  C   UNL     1     147.166 150.320 137.173  1.00  0.00     0.134 A 
ATOM      7  C   UNL     1     147.968 151.434 136.897  1.00  0.00     0.093 A 
ATOM      8  C   UNL     1     149.331 151.292 136.623  1.00  0.00     0.123 A 
ATOM      9  C   UNL     1     149.906 150.024 136.616  1.00  0.00     0.094 A 
ATOM     10  C   UNL     1     149.126 148.890 136.853  1.00  0.00     0.146 A 
ATOM     11  O   UNL     1     149.712 147.697 136.823  1.00  0.00    -0.456 OA
ENDROOT
BRANCH   1  12
ATOM     12  C   UNL     1     149.819 145.281 136.968  1.00  0.00     0.021 A 
ATOM     13  C   UNL     1     149.254 144.067 137.403  1.00  0.00     0.016 A 
ATOM     14  C   UNL     1     149.996 142.884 137.358  1.00  0.00     0.051 A 
ATOM     15  C   UNL     1     151.316 142.894 136.888  1.00  0.00     0.157 A 
ATOM     16  C   UNL     1     151.149 145.284 136.510  1.00  0.00     0.062 A 
ATOM     17  C   UNL     1     151.893 144.096 136.465  1.00  0.00     0.158 A 
BRANCH  15  18
ATOM     18  O   UNL     1     152.058 141.715 136.842  1.00  0.00    -0.504 OA
ATOM     19  H   UNL     1     151.803 140.907 137.397  1.00  0.00     0.293 HD
ENDBRANCH  15  18
BRANCH  17  20
ATOM     20  O   UNL     1     153.208 144.104 136.001  1.00  0.00    -0.504 OA
ATOM     21  H   UNL     1     153.420 144.125 135.010  1.00  0.00     0.293 HD
ENDBRANCH  17  20
ENDBRANCH   1  12
BRANCH   6  22
ATOM     22  O   UNL     1     145.837 150.578 137.521  1.00  0.00    -0.507 OA
ATOM     23  H   UNL     1     145.219 149.919 137.968  1.00  0.00     0.293 HD
ENDBRANCH   6  22
BRANCH   8  24
ATOM     24  O   UNL     1     150.123 152.408 136.364  1.00  0.00    -0.508 OA
ATOM     25  H   UNL     1     151.130 152.334 136.272  1.00  0.00     0.293 HD
ENDBRANCH   8  24
TORSDOF 5
ENDMDL
