MODEL 1
REMARK VINA RESULT:    -3.978      0.000      0.000
REMARK INTER + INTRA:          -9.352
REMARK INTER:                  -7.698
REMARK INTRA:                  -1.655
REMARK UNBOUND:                -1.655
REMARK SMILES CCCCCCCCCCCCCCCCCC(=O)[O-]
REMARK SMILES IDX 10 1 11 2 12 3 13 4 14 5 15 6 16 7 17 8 18 9 19 10 20 11
REMARK SMILES IDX 9 12 8 13 7 14 6 15 5 16 4 17 3 18 2 19 1 20
REMARK H PARENT
REMARK Flexibility Score: inf
ROOT
ATOM      1  C   UNL     1      33.874   8.973  46.722  1.00  0.00     0.000 C 
ENDROOT
BRANCH   1   2
ATOM      2  C   UNL     1      34.962   9.637  45.861  1.00  0.00     0.000 C 
BRANCH   2   3
ATOM      3  C   UNL     1      36.328   9.696  46.564  1.00  0.00     0.000 C 
BRANCH   3   4
ATOM      4  C   UNL     1      36.836  11.137  46.740  1.00  0.00     0.000 C 
BRANCH   4   5
ATOM      5  C   UNL     1      35.720  12.180  46.556  1.00  0.00     0.000 C 
BRANCH   5   6
ATOM      6  C   UNL     1      36.231  13.623  46.686  1.00  0.00     0.000 C 
BRANCH   6   7
ATOM      7  C   UNL     1      35.749  14.530  45.544  1.00  0.00     0.006 C 
BRANCH   7   8
ATOM      8  C   UNL     1      36.796  15.597  45.215  1.00  0.00     0.053 C 
BRANCH   8   9
ATOM      9  C   UNL     1      36.558  16.833  46.026  1.00  0.00     0.041 C 
ATOM     10  O   UNL     1      37.150  16.991  47.127  1.00  0.00    -0.550 OA
ATOM     11  O   UNL     1      35.720  17.831  45.545  1.00  0.00    -0.550 OA
ENDBRANCH   8   9
ENDBRANCH   7   8
ENDBRANCH   6   7
ENDBRANCH   5   6
ENDBRANCH   4   5
ENDBRANCH   3   4
ENDBRANCH   2   3
ENDBRANCH   1   2
BRANCH   1  12
ATOM     12  C   UNL     1      34.037   9.234  48.235  1.00  0.00     0.000 C 
BRANCH  12  13
ATOM     13  C   UNL     1      33.160  10.403  48.717  1.00  0.00    -0.000 C 
BRANCH  13  14
ATOM     14  C   UNL     1      31.661  10.066  48.695  1.00  0.00    -0.000 C 
BRANCH  14  15
ATOM     15  C   UNL     1      31.300   8.912  49.641  1.00  0.00    -0.000 C 
BRANCH  15  16
ATOM     16  C   UNL     1      29.986   8.245  49.214  1.00  0.00    -0.000 C 
BRANCH  16  17
ATOM     17  C   UNL     1      30.076   6.718  49.328  1.00  0.00    -0.000 C 
BRANCH  17  18
ATOM     18  C   UNL     1      29.996   6.061  47.946  1.00  0.00    -0.000 C 
BRANCH  18  19
ATOM     19  C   UNL     1      31.314   6.223  47.181  1.00  0.00    -0.003 C 
ATOM     20  C   UNL     1      32.480   5.623  47.960  1.00  0.00     0.004 C 
ENDBRANCH  18  19
ENDBRANCH  17  18
ENDBRANCH  16  17
ENDBRANCH  15  16
ENDBRANCH  14  15
ENDBRANCH  13  14
ENDBRANCH  12  13
ENDBRANCH   1  12
TORSDOF 16
ENDMDL
MODEL 2
REMARK VINA RESULT:    -3.924      4.054      7.709
REMARK INTER + INTRA:          -9.249
REMARK INTER:                  -7.154
REMARK INTRA:                  -2.095
REMARK UNBOUND:                -1.655
REMARK SMILES CCCCCCCCCCCCCCCCCC(=O)[O-]
REMARK SMILES IDX 10 1 11 2 12 3 13 4 14 5 15 6 16 7 17 8 18 9 19 10 20 11
REMARK SMILES IDX 9 12 8 13 7 14 6 15 5 16 4 17 3 18 2 19 1 20
REMARK H PARENT
REMARK Flexibility Score: inf
ROOT
ATOM      1  C   UNL     1      34.938   9.046  49.409  1.00  0.00     0.000 C 
ENDROOT
BRANCH   1   2
ATOM      2  C   UNL     1      33.616   9.698  49.852  1.00  0.00     0.000 C 
BRANCH   2   3
ATOM      3  C   UNL     1      32.877  10.394  48.697  1.00  0.00     0.000 C 
BRANCH   3   4
ATOM      4  C   UNL     1      31.395   9.989  48.619  1.00  0.00     0.000 C 
BRANCH   4   5
ATOM      5  C   UNL     1      31.046   8.851  49.595  1.00  0.00     0.000 C 
BRANCH   5   6
ATOM      6  C   UNL     1      29.850   8.012  49.120  1.00  0.00     0.000 C 
BRANCH   6   7
ATOM      7  C   UNL     1      30.214   6.540  48.877  1.00  0.00     0.006 C 
BRANCH   7   8
ATOM      8  C   UNL     1      30.668   6.321  47.431  1.00  0.00     0.053 C 
BRANCH   8   9
ATOM      9  C   UNL     1      32.154   6.152  47.368  1.00  0.00     0.041 C 
ATOM     10  O   UNL     1      32.878   7.076  46.910  1.00  0.00    -0.550 OA
ATOM     11  O   UNL     1      32.745   4.995  47.861  1.00  0.00    -0.550 OA
ENDBRANCH   8   9
ENDBRANCH   7   8
ENDBRANCH   6   7
ENDBRANCH   5   6
ENDBRANCH   4   5
ENDBRANCH   3   4
ENDBRANCH   2   3
ENDBRANCH   1   2
BRANCH   1  12
ATOM     12  C   UNL     1      36.188   9.678  50.057  1.00  0.00     0.000 C 
BRANCH  12  13
ATOM     13  C   UNL     1      36.360  11.155  49.662  1.00  0.00    -0.000 C 
BRANCH  13  14
ATOM     14  C   UNL     1      37.450  11.359  48.599  1.00  0.00    -0.000 C 
BRANCH  14  15
ATOM     15  C   UNL     1      36.890  11.352  47.168  1.00  0.00    -0.000 C 
BRANCH  15  16
ATOM     16  C   UNL     1      37.125   9.995  46.495  1.00  0.00    -0.000 C 
BRANCH  16  17
ATOM     17  C   UNL     1      35.819   9.417  45.939  1.00  0.00    -0.000 C 
BRANCH  17  18
ATOM     18  C   UNL     1      34.798  10.529  45.674  1.00  0.00    -0.000 C 
BRANCH  18  19
ATOM     19  C   UNL     1      34.164  10.376  44.286  1.00  0.00    -0.003 C 
ATOM     20  C   UNL     1      34.359   8.964  43.744  1.00  0.00     0.004 C 
ENDBRANCH  18  19
ENDBRANCH  17  18
ENDBRANCH  16  17
ENDBRANCH  15  16
ENDBRANCH  14  15
ENDBRANCH  13  14
ENDBRANCH  12  13
ENDBRANCH   1  12
TORSDOF 16
ENDMDL
MODEL 3
REMARK VINA RESULT:    -3.892      3.776      8.798
REMARK INTER + INTRA:          -9.187
REMARK INTER:                  -7.720
REMARK INTRA:                  -1.466
REMARK UNBOUND:                -1.655
REMARK SMILES CCCCCCCCCCCCCCCCCC(=O)[O-]
REMARK SMILES IDX 10 1 11 2 12 3 13 4 14 5 15 6 16 7 17 8 18 9 19 10 20 11
REMARK SMILES IDX 9 12 8 13 7 14 6 15 5 16 4 17 3 18 2 19 1 20
REMARK H PARENT
REMARK Flexibility Score: inf
ROOT
ATOM      1  C   UNL     1      34.023   9.427  46.478  1.00  0.00     0.000 C 
ENDROOT
BRANCH   1   2
ATOM      2  C   UNL     1      34.001   9.377  48.015  1.00  0.00     0.000 C 
BRANCH   2   3
ATOM      3  C   UNL     1      33.122  10.474  48.637  1.00  0.00     0.000 C 
BRANCH   3   4
ATOM      4  C   UNL     1      31.626  10.116  48.606  1.00  0.00     0.000 C 
BRANCH   4   5
ATOM      5  C   UNL     1      31.282   8.951  49.550  1.00  0.00     0.000 C 
BRANCH   5   6
ATOM      6  C   UNL     1      30.041   8.167  49.095  1.00  0.00     0.000 C 
BRANCH   6   7
ATOM      7  C   UNL     1      30.309   6.663  48.946  1.00  0.00     0.006 C 
BRANCH   7   8
ATOM      8  C   UNL     1      30.710   6.317  47.509  1.00  0.00     0.053 C 
BRANCH   8   9
ATOM      9  C   UNL     1      32.193   6.145  47.406  1.00  0.00     0.041 C 
ATOM     10  O   UNL     1      32.768   6.258  46.291  1.00  0.00    -0.550 OA
ATOM     11  O   UNL     1      32.948   5.909  48.549  1.00  0.00    -0.550 OA
ENDBRANCH   8   9
ENDBRANCH   7   8
ENDBRANCH   6   7
ENDBRANCH   5   6
ENDBRANCH   4   5
ENDBRANCH   3   4
ENDBRANCH   2   3
ENDBRANCH   1   2
BRANCH   1  12
ATOM     12  C   UNL     1      35.296  10.081  45.898  1.00  0.00     0.000 C 
BRANCH  12  13
ATOM     13  C   UNL     1      36.555   9.703  46.697  1.00  0.00    -0.000 C 
BRANCH  13  14
ATOM     14  C   UNL     1      37.468  10.910  46.967  1.00  0.00    -0.000 C 
BRANCH  14  15
ATOM     15  C   UNL     1      36.678  12.194  47.263  1.00  0.00    -0.000 C 
BRANCH  15  16
ATOM     16  C   UNL     1      37.125  13.335  46.339  1.00  0.00    -0.000 C 
BRANCH  16  17
ATOM     17  C   UNL     1      35.924  13.993  45.650  1.00  0.00    -0.000 C 
BRANCH  17  18
ATOM     18  C   UNL     1      36.288  15.390  45.135  1.00  0.00    -0.000 C 
BRANCH  18  19
ATOM     19  C   UNL     1      36.237  16.425  46.264  1.00  0.00    -0.003 C 
ATOM     20  C   UNL     1      35.940  17.819  45.722  1.00  0.00     0.004 C 
ENDBRANCH  18  19
ENDBRANCH  17  18
ENDBRANCH  16  17
ENDBRANCH  15  16
ENDBRANCH  14  15
ENDBRANCH  13  14
ENDBRANCH  12  13
ENDBRANCH   1  12
TORSDOF 16
ENDMDL
MODEL 4
REMARK VINA RESULT:    -3.871      4.736      8.160
REMARK INTER + INTRA:          -9.147
REMARK INTER:                  -7.224
REMARK INTRA:                  -1.923
REMARK UNBOUND:                -1.655
REMARK SMILES CCCCCCCCCCCCCCCCCC(=O)[O-]
REMARK SMILES IDX 10 1 11 2 12 3 13 4 14 5 15 6 16 7 17 8 18 9 19 10 20 11
REMARK SMILES IDX 9 12 8 13 7 14 6 15 5 16 4 17 3 18 2 19 1 20
REMARK H PARENT
REMARK Flexibility Score: inf
ROOT
ATOM      1  C   UNL     1      31.842  10.751  49.007  1.00  0.00     0.000 C 
ENDROOT
BRANCH   1   2
ATOM      2  C   UNL     1      31.341   9.297  49.036  1.00  0.00     0.000 C 
BRANCH   2   3
ATOM      3  C   UNL     1      32.287   8.354  49.798  1.00  0.00     0.000 C 
BRANCH   3   4
ATOM      4  C   UNL     1      33.375   7.756  48.892  1.00  0.00     0.000 C 
BRANCH   4   5
ATOM      5  C   UNL     1      32.789   7.069  47.645  1.00  0.00     0.000 C 
BRANCH   5   6
ATOM      6  C   UNL     1      32.698   5.543  47.798  1.00  0.00     0.000 C 
BRANCH   6   7
ATOM      7  C   UNL     1      31.249   5.037  47.859  1.00  0.00     0.006 C 
BRANCH   7   8
ATOM      8  C   UNL     1      30.262   6.164  47.541  1.00  0.00     0.053 C 
BRANCH   8   9
ATOM      9  C   UNL     1      29.016   6.013  48.356  1.00  0.00     0.041 C 
ATOM     10  O   UNL     1      28.961   6.485  49.523  1.00  0.00    -0.550 OA
ATOM     11  O   UNL     1      27.897   5.394  47.811  1.00  0.00    -0.550 OA
ENDBRANCH   8   9
ENDBRANCH   7   8
ENDBRANCH   6   7
ENDBRANCH   5   6
ENDBRANCH   4   5
ENDBRANCH   3   4
ENDBRANCH   2   3
ENDBRANCH   1   2
BRANCH   1  12
ATOM     12  C   UNL     1      33.014  11.022  49.974  1.00  0.00     0.000 C 
BRANCH  12  13
ATOM     13  C   UNL     1      33.436  12.501  49.971  1.00  0.00    -0.000 C 
BRANCH  13  14
ATOM     14  C   UNL     1      34.955  12.682  49.822  1.00  0.00    -0.000 C 
BRANCH  14  15
ATOM     15  C   UNL     1      35.373  13.022  48.384  1.00  0.00    -0.000 C 
BRANCH  15  16
ATOM     16  C   UNL     1      36.318  11.953  47.822  1.00  0.00    -0.000 C 
BRANCH  16  17
ATOM     17  C   UNL     1      35.833  11.442  46.461  1.00  0.00    -0.000 C 
BRANCH  17  18
ATOM     18  C   UNL     1      34.708  10.415  46.631  1.00  0.00    -0.000 C 
BRANCH  18  19
ATOM     19  C   UNL     1      34.846   9.273  45.618  1.00  0.00    -0.003 C 
ATOM     20  C   UNL     1      34.369   9.703  44.235  1.00  0.00     0.004 C 
ENDBRANCH  18  19
ENDBRANCH  17  18
ENDBRANCH  16  17
ENDBRANCH  15  16
ENDBRANCH  14  15
ENDBRANCH  13  14
ENDBRANCH  12  13
ENDBRANCH   1  12
TORSDOF 16
ENDMDL
MODEL 5
REMARK VINA RESULT:    -3.836      3.885      8.920
REMARK INTER + INTRA:          -9.078
REMARK INTER:                  -7.433
REMARK INTRA:                  -1.646
REMARK UNBOUND:                -1.655
REMARK SMILES CCCCCCCCCCCCCCCCCC(=O)[O-]
REMARK SMILES IDX 10 1 11 2 12 3 13 4 14 5 15 6 16 7 17 8 18 9 19 10 20 11
REMARK SMILES IDX 9 12 8 13 7 14 6 15 5 16 4 17 3 18 2 19 1 20
REMARK H PARENT
REMARK Flexibility Score: inf
ROOT
ATOM      1  C   UNL     1      35.100   9.892  45.906  1.00  0.00     0.000 C 
ENDROOT
BRANCH   1   2
ATOM      2  C   UNL     1      34.047   9.032  46.627  1.00  0.00     0.000 C 
BRANCH   2   3
ATOM      3  C   UNL     1      34.098   9.184  48.156  1.00  0.00     0.000 C 
BRANCH   3   4
ATOM      4  C   UNL     1      33.111  10.244  48.675  1.00  0.00     0.000 C 
BRANCH   4   5
ATOM      5  C   UNL     1      31.644   9.850  48.427  1.00  0.00     0.000 C 
BRANCH   5   6
ATOM      6  C   UNL     1      31.175   8.710  49.344  1.00  0.00     0.000 C 
BRANCH   6   7
ATOM      7  C   UNL     1      30.114   7.816  48.686  1.00  0.00     0.006 C 
BRANCH   7   8
ATOM      8  C   UNL     1      30.555   6.350  48.691  1.00  0.00     0.053 C 
BRANCH   8   9
ATOM      9  C   UNL     1      31.813   6.179  47.897  1.00  0.00     0.041 C 
ATOM     10  O   UNL     1      32.893   5.886  48.476  1.00  0.00    -0.550 OA
ATOM     11  O   UNL     1      31.784   6.295  46.513  1.00  0.00    -0.550 OA
ENDBRANCH   8   9
ENDBRANCH   7   8
ENDBRANCH   6   7
ENDBRANCH   5   6
ENDBRANCH   4   5
ENDBRANCH   3   4
ENDBRANCH   2   3
ENDBRANCH   1   2
BRANCH   1  12
ATOM     12  C   UNL     1      36.341  10.204  46.768  1.00  0.00     0.000 C 
BRANCH  12  13
ATOM     13  C   UNL     1      36.760  11.681  46.664  1.00  0.00    -0.000 C 
BRANCH  13  14
ATOM     14  C   UNL     1      35.556  12.634  46.597  1.00  0.00    -0.000 C 
BRANCH  14  15
ATOM     15  C   UNL     1      35.745  13.755  45.564  1.00  0.00    -0.000 C 
BRANCH  15  16
ATOM     16  C   UNL     1      37.186  14.278  45.583  1.00  0.00    -0.000 C 
BRANCH  16  17
ATOM     17  C   UNL     1      37.262  15.674  46.212  1.00  0.00    -0.000 C 
BRANCH  17  18
ATOM     18  C   UNL     1      36.893  16.756  45.191  1.00  0.00    -0.000 C 
BRANCH  18  19
ATOM     19  C   UNL     1      35.887  17.751  45.781  1.00  0.00    -0.003 C 
ATOM     20  C   UNL     1      35.157  17.152  46.979  1.00  0.00     0.004 C 
ENDBRANCH  18  19
ENDBRANCH  17  18
ENDBRANCH  16  17
ENDBRANCH  15  16
ENDBRANCH  14  15
ENDBRANCH  13  14
ENDBRANCH  12  13
ENDBRANCH   1  12
TORSDOF 16
ENDMDL
MODEL 6
REMARK VINA RESULT:    -3.828      4.382      9.104
REMARK INTER + INTRA:          -9.063
REMARK INTER:                  -7.608
REMARK INTRA:                  -1.455
REMARK UNBOUND:                -1.655
REMARK SMILES CCCCCCCCCCCCCCCCCC(=O)[O-]
REMARK SMILES IDX 10 1 11 2 12 3 13 4 14 5 15 6 16 7 17 8 18 9 19 10 20 11
REMARK SMILES IDX 9 12 8 13 7 14 6 15 5 16 4 17 3 18 2 19 1 20
REMARK H PARENT
REMARK Flexibility Score: inf
ROOT
ATOM      1  C   UNL     1      34.819  11.180  45.632  1.00  0.00     0.000 C 
ENDROOT
BRANCH   1   2
ATOM      2  C   UNL     1      35.164   9.721  45.976  1.00  0.00     0.000 C 
BRANCH   2   3
ATOM      3  C   UNL     1      34.028   8.997  46.719  1.00  0.00     0.000 C 
BRANCH   3   4
ATOM      4  C   UNL     1      34.050   9.268  48.233  1.00  0.00     0.000 C 
BRANCH   4   5
ATOM      5  C   UNL     1      32.922  10.215  48.676  1.00  0.00     0.000 C 
BRANCH   5   6
ATOM      6  C   UNL     1      31.525   9.608  48.471  1.00  0.00     0.000 C 
BRANCH   6   7
ATOM      7  C   UNL     1      31.360   8.249  49.166  1.00  0.00     0.006 C 
BRANCH   7   8
ATOM      8  C   UNL     1      29.914   7.755  49.065  1.00  0.00     0.053 C 
BRANCH   8   9
ATOM      9  C   UNL     1      29.829   6.568  48.157  1.00  0.00     0.041 C 
ATOM     10  O   UNL     1      30.866   6.122  47.598  1.00  0.00    -0.550 OA
ATOM     11  O   UNL     1      28.613   5.924  47.965  1.00  0.00    -0.550 OA
ENDBRANCH   8   9
ENDBRANCH   7   8
ENDBRANCH   6   7
ENDBRANCH   5   6
ENDBRANCH   4   5
ENDBRANCH   3   4
ENDBRANCH   2   3
ENDBRANCH   1   2
BRANCH   1  12
ATOM     12  C   UNL     1      35.562  12.214  46.503  1.00  0.00     0.000 C 
BRANCH  12  13
ATOM     13  C   UNL     1      35.809  13.533  45.750  1.00  0.00    -0.000 C 
BRANCH  13  14
ATOM     14  C   UNL     1      37.276  13.985  45.813  1.00  0.00    -0.000 C 
BRANCH  14  15
ATOM     15  C   UNL     1      37.446  15.484  45.528  1.00  0.00    -0.000 C 
BRANCH  15  16
ATOM     16  C   UNL     1      36.096  16.137  45.206  1.00  0.00    -0.000 C 
BRANCH  16  17
ATOM     17  C   UNL     1      36.020  17.562  45.766  1.00  0.00    -0.000 C 
BRANCH  17  18
ATOM     18  C   UNL     1      35.693  17.544  47.263  1.00  0.00    -0.000 C 
BRANCH  18  19
ATOM     19  C   UNL     1      34.403  16.762  47.536  1.00  0.00    -0.003 C 
ATOM     20  C   UNL     1      34.606  15.734  48.644  1.00  0.00     0.004 C 
ENDBRANCH  18  19
ENDBRANCH  17  18
ENDBRANCH  16  17
ENDBRANCH  15  16
ENDBRANCH  14  15
ENDBRANCH  13  14
ENDBRANCH  12  13
ENDBRANCH   1  12
TORSDOF 16
ENDMDL
MODEL 7
REMARK VINA RESULT:    -3.819      1.123      1.679
REMARK INTER + INTRA:          -9.045
REMARK INTER:                  -7.663
REMARK INTRA:                  -1.382
REMARK UNBOUND:                -1.655
REMARK SMILES CCCCCCCCCCCCCCCCCC(=O)[O-]
REMARK SMILES IDX 10 1 11 2 12 3 13 4 14 5 15 6 16 7 17 8 18 9 19 10 20 11
REMARK SMILES IDX 9 12 8 13 7 14 6 15 5 16 4 17 3 18 2 19 1 20
REMARK H PARENT
REMARK Flexibility Score: inf
ROOT
ATOM      1  C   UNL     1      34.981   9.648  46.570  1.00  0.00     0.000 C 
ENDROOT
BRANCH   1   2
ATOM      2  C   UNL     1      34.972  11.098  46.055  1.00  0.00     0.000 C 
BRANCH   2   3
ATOM      3  C   UNL     1      36.141  11.933  46.603  1.00  0.00     0.000 C 
BRANCH   3   4
ATOM      4  C   UNL     1      35.799  13.429  46.702  1.00  0.00     0.000 C 
BRANCH   4   5
ATOM      5  C   UNL     1      35.720  14.106  45.323  1.00  0.00     0.000 C 
BRANCH   5   6
ATOM      6  C   UNL     1      36.670  15.307  45.198  1.00  0.00     0.000 C 
BRANCH   6   7
ATOM      7  C   UNL     1      35.988  16.642  45.529  1.00  0.00     0.006 C 
BRANCH   7   8
ATOM      8  C   UNL     1      36.445  17.167  46.894  1.00  0.00     0.053 C 
BRANCH   8   9
ATOM      9  C   UNL     1      35.296  17.200  47.853  1.00  0.00     0.041 C 
ATOM     10  O   UNL     1      35.464  17.618  49.029  1.00  0.00    -0.550 OA
ATOM     11  O   UNL     1      34.028  16.816  47.434  1.00  0.00    -0.550 OA
ENDBRANCH   8   9
ENDBRANCH   7   8
ENDBRANCH   6   7
ENDBRANCH   5   6
ENDBRANCH   4   5
ENDBRANCH   3   4
ENDBRANCH   2   3
ENDBRANCH   1   2
BRANCH   1  12
ATOM     12  C   UNL     1      33.722   9.271  47.381  1.00  0.00     0.000 C 
BRANCH  12  13
ATOM     13  C   UNL     1      33.256  10.420  48.292  1.00  0.00    -0.000 C 
BRANCH  13  14
ATOM     14  C   UNL     1      31.789  10.274  48.723  1.00  0.00    -0.000 C 
BRANCH  14  15
ATOM     15  C   UNL     1      31.534   8.992  49.530  1.00  0.00    -0.000 C 
BRANCH  15  16
ATOM     16  C   UNL     1      30.170   8.386  49.177  1.00  0.00    -0.000 C 
BRANCH  16  17
ATOM     17  C   UNL     1      30.224   6.854  49.189  1.00  0.00    -0.000 C 
BRANCH  17  18
ATOM     18  C   UNL     1      30.039   6.289  47.777  1.00  0.00    -0.000 C 
BRANCH  18  19
ATOM     19  C   UNL     1      31.380   6.194  47.040  1.00  0.00    -0.003 C 
ATOM     20  C   UNL     1      32.485   5.701  47.970  1.00  0.00     0.004 C 
ENDBRANCH  18  19
ENDBRANCH  17  18
ENDBRANCH  16  17
ENDBRANCH  15  16
ENDBRANCH  14  15
ENDBRANCH  13  14
ENDBRANCH  12  13
ENDBRANCH   1  12
TORSDOF 16
ENDMDL
MODEL 8
REMARK VINA RESULT:    -3.811     19.758     21.627
REMARK INTER + INTRA:          -9.030
REMARK INTER:                  -6.814
REMARK INTRA:                  -2.216
REMARK UNBOUND:                -1.655
REMARK SMILES CCCCCCCCCCCCCCCCCC(=O)[O-]
REMARK SMILES IDX 10 1 11 2 12 3 13 4 14 5 15 6 16 7 17 8 18 9 19 10 20 11
REMARK SMILES IDX 9 12 8 13 7 14 6 15 5 16 4 17 3 18 2 19 1 20
REMARK H PARENT
REMARK Flexibility Score: inf
ROOT
ATOM      1  C   UNL     1      20.681  12.527  35.475  1.00  0.00     0.000 C 
ENDROOT
BRANCH   1   2
ATOM      2  C   UNL     1      19.287  12.378  36.110  1.00  0.00     0.000 C 
BRANCH   2   3
ATOM      3  C   UNL     1      18.939  10.919  36.451  1.00  0.00     0.000 C 
BRANCH   3   4
ATOM      4  C   UNL     1      19.359   9.940  35.342  1.00  0.00     0.000 C 
BRANCH   4   5
ATOM      5  C   UNL     1      18.235   9.693  34.321  1.00  0.00     0.000 C 
BRANCH   5   6
ATOM      6  C   UNL     1      18.441  10.475  33.014  1.00  0.00     0.000 C 
BRANCH   6   7
ATOM      7  C   UNL     1      19.881  10.387  32.489  1.00  0.00     0.006 C 
BRANCH   7   8
ATOM      8  C   UNL     1      20.013  11.089  31.134  1.00  0.00     0.053 C 
BRANCH   8   9
ATOM      9  C   UNL     1      21.318  10.740  30.489  1.00  0.00     0.041 C 
ATOM     10  O   UNL     1      21.712   9.544  30.463  1.00  0.00    -0.550 OA
ATOM     11  O   UNL     1      22.078  11.728  29.875  1.00  0.00    -0.550 OA
ENDBRANCH   8   9
ENDBRANCH   7   8
ENDBRANCH   6   7
ENDBRANCH   5   6
ENDBRANCH   4   5
ENDBRANCH   3   4
ENDBRANCH   2   3
ENDBRANCH   1   2
BRANCH   1  12
ATOM     12  C   UNL     1      20.753  13.623  34.391  1.00  0.00     0.000 C 
BRANCH  12  13
ATOM     13  C   UNL     1      19.356  14.072  33.929  1.00  0.00    -0.000 C 
BRANCH  13  14
ATOM     14  C   UNL     1      19.311  14.418  32.432  1.00  0.00    -0.000 C 
BRANCH  14  15
ATOM     15  C   UNL     1      20.703  14.705  31.849  1.00  0.00    -0.000 C 
BRANCH  15  16
ATOM     16  C   UNL     1      20.601  15.588  30.600  1.00  0.00    -0.000 C 
BRANCH  16  17
ATOM     17  C   UNL     1      19.448  16.590  30.720  1.00  0.00    -0.000 C 
BRANCH  17  18
ATOM     18  C   UNL     1      19.965  18.031  30.642  1.00  0.00    -0.000 C 
BRANCH  18  19
ATOM     19  C   UNL     1      21.375  18.143  31.232  1.00  0.00    -0.003 C 
ATOM     20  C   UNL     1      22.296  18.937  30.310  1.00  0.00     0.004 C 
ENDBRANCH  18  19
ENDBRANCH  17  18
ENDBRANCH  16  17
ENDBRANCH  15  16
ENDBRANCH  14  15
ENDBRANCH  13  14
ENDBRANCH  12  13
ENDBRANCH   1  12
TORSDOF 16
ENDMDL
MODEL 9
REMARK VINA RESULT:    -3.754      4.500      9.407
REMARK INTER + INTRA:          -8.920
REMARK INTER:                  -7.677
REMARK INTRA:                  -1.243
REMARK UNBOUND:                -1.655
REMARK SMILES CCCCCCCCCCCCCCCCCC(=O)[O-]
REMARK SMILES IDX 10 1 11 2 12 3 13 4 14 5 15 6 16 7 17 8 18 9 19 10 20 11
REMARK SMILES IDX 9 12 8 13 7 14 6 15 5 16 4 17 3 18 2 19 1 20
REMARK H PARENT
REMARK Flexibility Score: inf
ROOT
ATOM      1  C   UNL     1      34.936  10.649  46.040  1.00  0.00     0.000 C 
ENDROOT
BRANCH   1   2
ATOM      2  C   UNL     1      34.271   9.412  46.666  1.00  0.00     0.000 C 
BRANCH   2   3
ATOM      3  C   UNL     1      34.178   9.496  48.199  1.00  0.00     0.000 C 
BRANCH   3   4
ATOM      4  C   UNL     1      33.147  10.535  48.669  1.00  0.00     0.000 C 
BRANCH   4   5
ATOM      5  C   UNL     1      31.698  10.046  48.494  1.00  0.00     0.000 C 
BRANCH   5   6
ATOM      6  C   UNL     1      31.411   8.755  49.276  1.00  0.00     0.000 C 
BRANCH   6   7
ATOM      7  C   UNL     1      29.971   8.256  49.094  1.00  0.00     0.006 C 
BRANCH   7   8
ATOM      8  C   UNL     1      29.795   6.858  49.694  1.00  0.00     0.053 C 
BRANCH   8   9
ATOM      9  C   UNL     1      29.642   5.838  48.609  1.00  0.00     0.041 C 
ATOM     10  O   UNL     1      28.495   5.504  48.211  1.00  0.00    -0.550 OA
ATOM     11  O   UNL     1      30.767   5.290  48.004  1.00  0.00    -0.550 OA
ENDBRANCH   8   9
ENDBRANCH   7   8
ENDBRANCH   6   7
ENDBRANCH   5   6
ENDBRANCH   4   5
ENDBRANCH   3   4
ENDBRANCH   2   3
ENDBRANCH   1   2
BRANCH   1  12
ATOM     12  C   UNL     1      36.186  11.135  46.804  1.00  0.00     0.000 C 
BRANCH  12  13
ATOM     13  C   UNL     1      36.532  12.598  46.476  1.00  0.00    -0.000 C 
BRANCH  13  14
ATOM     14  C   UNL     1      35.417  13.307  45.691  1.00  0.00    -0.000 C 
BRANCH  14  15
ATOM     15  C   UNL     1      35.903  14.591  45.003  1.00  0.00    -0.000 C 
BRANCH  15  16
ATOM     16  C   UNL     1      37.088  15.203  45.760  1.00  0.00    -0.000 C 
BRANCH  16  17
ATOM     17  C   UNL     1      37.209  16.706  45.483  1.00  0.00    -0.000 C 
BRANCH  17  18
ATOM     18  C   UNL     1      35.890  17.425  45.786  1.00  0.00    -0.000 C 
BRANCH  18  19
ATOM     19  C   UNL     1      35.635  17.495  47.296  1.00  0.00    -0.003 C 
ATOM     20  C   UNL     1      34.325  16.806  47.666  1.00  0.00     0.004 C 
ENDBRANCH  18  19
ENDBRANCH  17  18
ENDBRANCH  16  17
ENDBRANCH  15  16
ENDBRANCH  14  15
ENDBRANCH  13  14
ENDBRANCH  12  13
ENDBRANCH   1  12
TORSDOF 16
ENDMDL
