MODEL 1
REMARK VINA RESULT:    -6.285      0.000      0.000
REMARK INTER + INTRA:         -12.928
REMARK INTER:                 -11.796
REMARK INTRA:                  -1.133
REMARK UNBOUND:                -1.133
REMARK SMILES CCCCCCCCC=CCCCCCCCC(=O)[O-]
REMARK SMILES IDX 10 1 9 2 11 3 12 4 13 5 14 6 15 7 16 8 17 9 18 10 19 11
REMARK SMILES IDX 20 12 8 13 7 14 6 15 5 16 4 17 3 18 2 19 1 20
REMARK H PARENT
REMARK Flexibility Score: inf
ROOT
ATOM      1  C   UNL     1      -2.476  45.161   4.413  1.00  0.00    -0.031 C 
ATOM      2  C   UNL     1      -1.248  45.709   4.472  1.00  0.00    -0.031 C 
ENDROOT
BRANCH   1   3
ATOM      3  C   UNL     1      -3.241  44.906   3.138  1.00  0.00     0.027 C 
BRANCH   3   4
ATOM      4  C   UNL     1      -2.628  43.759   2.320  1.00  0.00     0.004 C 
BRANCH   4   5
ATOM      5  C   UNL     1      -2.909  43.905   0.818  1.00  0.00     0.000 C 
BRANCH   5   6
ATOM      6  C   UNL     1      -3.158  45.374   0.447  1.00  0.00     0.000 C 
BRANCH   6   7
ATOM      7  C   UNL     1      -1.938  46.040  -0.217  1.00  0.00     0.000 C 
BRANCH   7   8
ATOM      8  C   UNL     1      -1.473  45.386  -1.533  1.00  0.00     0.006 C 
BRANCH   8   9
ATOM      9  C   UNL     1      -0.050  44.806  -1.489  1.00  0.00     0.053 C 
BRANCH   9  10
ATOM     10  C   UNL     1       0.450  44.446  -2.854  1.00  0.00     0.041 C 
ATOM     11  O   UNL     1       1.687  44.405  -3.085  1.00  0.00    -0.550 OA
ATOM     12  O   UNL     1      -0.450  44.122  -3.862  1.00  0.00    -0.550 OA
ENDBRANCH   9  10
ENDBRANCH   8   9
ENDBRANCH   7   8
ENDBRANCH   6   7
ENDBRANCH   5   6
ENDBRANCH   4   5
ENDBRANCH   3   4
ENDBRANCH   1   3
BRANCH   2  13
ATOM     13  C   UNL     1      -0.488  46.239   3.283  1.00  0.00     0.027 C 
BRANCH  13  14
ATOM     14  C   UNL     1       1.000  46.401   3.622  1.00  0.00     0.004 C 
BRANCH  14  15
ATOM     15  C   UNL     1       1.907  45.518   2.749  1.00  0.00     0.000 C 
BRANCH  15  16
ATOM     16  C   UNL     1       3.383  45.476   3.190  1.00  0.00     0.000 C 
BRANCH  16  17
ATOM     17  C   UNL     1       3.630  44.607   4.442  1.00  0.00    -0.000 C 
BRANCH  17  18
ATOM     18  C   UNL     1       5.051  44.786   5.004  1.00  0.00    -0.000 C 
BRANCH  18  19
ATOM     19  C   UNL     1       5.140  44.463   6.503  1.00  0.00    -0.003 C 
ATOM     20  C   UNL     1       6.243  45.249   7.213  1.00  0.00     0.004 C 
ENDBRANCH  18  19
ENDBRANCH  17  18
ENDBRANCH  16  17
ENDBRANCH  15  16
ENDBRANCH  14  15
ENDBRANCH  13  14
ENDBRANCH   2  13
TORSDOF 15
ENDMDL
MODEL 2
REMARK VINA RESULT:    -6.156      4.080      5.808
REMARK INTER + INTRA:         -12.687
REMARK INTER:                 -11.666
REMARK INTRA:                  -1.022
REMARK UNBOUND:                -1.133
REMARK SMILES CCCCCCCCC=CCCCCCCCC(=O)[O-]
REMARK SMILES IDX 10 1 9 2 11 3 12 4 13 5 14 6 15 7 16 8 17 9 18 10 19 11
REMARK SMILES IDX 20 12 8 13 7 14 6 15 5 16 4 17 3 18 2 19 1 20
REMARK H PARENT
REMARK Flexibility Score: inf
ROOT
ATOM      1  C   UNL     1       1.441  44.349   0.596  1.00  0.00    -0.031 C 
ATOM      2  C   UNL     1       2.475  44.815   1.320  1.00  0.00    -0.031 C 
ENDROOT
BRANCH   1   3
ATOM      3  C   UNL     1      -0.012  44.503   0.976  1.00  0.00     0.027 C 
BRANCH   3   4
ATOM      4  C   UNL     1      -0.852  45.057  -0.184  1.00  0.00     0.004 C 
BRANCH   4   5
ATOM      5  C   UNL     1      -1.998  45.953   0.308  1.00  0.00     0.000 C 
BRANCH   5   6
ATOM      6  C   UNL     1      -3.335  45.197   0.280  1.00  0.00     0.000 C 
BRANCH   6   7
ATOM      7  C   UNL     1      -3.935  44.988   1.683  1.00  0.00     0.000 C 
BRANCH   7   8
ATOM      8  C   UNL     1      -2.983  44.343   2.711  1.00  0.00     0.006 C 
BRANCH   8   9
ATOM      9  C   UNL     1      -3.238  44.762   4.168  1.00  0.00     0.053 C 
BRANCH   9  10
ATOM     10  C   UNL     1      -2.125  45.601   4.713  1.00  0.00     0.041 C 
ATOM     11  O   UNL     1      -2.125  45.946   5.923  1.00  0.00    -0.550 OA
ATOM     12  O   UNL     1      -1.069  45.973   3.890  1.00  0.00    -0.550 OA
ENDBRANCH   9  10
ENDBRANCH   8   9
ENDBRANCH   7   8
ENDBRANCH   6   7
ENDBRANCH   5   6
ENDBRANCH   4   5
ENDBRANCH   3   4
ENDBRANCH   1   3
BRANCH   2  13
ATOM     13  C   UNL     1       2.347  45.478   2.668  1.00  0.00     0.027 C 
BRANCH  13  14
ATOM     14  C   UNL     1       3.657  46.184   3.048  1.00  0.00     0.004 C 
BRANCH  14  15
ATOM     15  C   UNL     1       4.210  47.059   1.912  1.00  0.00     0.000 C 
BRANCH  15  16
ATOM     16  C   UNL     1       5.671  47.513   2.102  1.00  0.00     0.000 C 
BRANCH  16  17
ATOM     17  C   UNL     1       6.353  47.969   0.794  1.00  0.00    -0.000 C 
BRANCH  17  18
ATOM     18  C   UNL     1       5.566  49.086   0.086  1.00  0.00    -0.000 C 
BRANCH  18  19
ATOM     19  C   UNL     1       5.877  49.167  -1.416  1.00  0.00    -0.003 C 
ATOM     20  C   UNL     1       7.231  48.553  -1.774  1.00  0.00     0.004 C 
ENDBRANCH  18  19
ENDBRANCH  17  18
ENDBRANCH  16  17
ENDBRANCH  15  16
ENDBRANCH  14  15
ENDBRANCH  13  14
ENDBRANCH   2  13
TORSDOF 15
ENDMDL
MODEL 3
REMARK VINA RESULT:    -6.145      4.485      7.664
REMARK INTER + INTRA:         -12.667
REMARK INTER:                 -11.517
REMARK INTRA:                  -1.150
REMARK UNBOUND:                -1.133
REMARK SMILES CCCCCCCCC=CCCCCCCCC(=O)[O-]
REMARK SMILES IDX 10 1 9 2 11 3 12 4 13 5 14 6 15 7 16 8 17 9 18 10 19 11
REMARK SMILES IDX 20 12 8 13 7 14 6 15 5 16 4 17 3 18 2 19 1 20
REMARK H PARENT
REMARK Flexibility Score: inf
ROOT
ATOM      1  C   UNL     1       5.215  47.518   2.012  1.00  0.00    -0.031 C 
ATOM      2  C   UNL     1       4.399  46.724   2.730  1.00  0.00    -0.031 C 
ENDROOT
BRANCH   1   3
ATOM      3  C   UNL     1       4.942  47.979   0.601  1.00  0.00     0.027 C 
BRANCH   3   4
ATOM      4  C   UNL     1       5.829  49.169   0.205  1.00  0.00     0.004 C 
BRANCH   4   5
ATOM      5  C   UNL     1       7.161  48.717  -0.410  1.00  0.00     0.000 C 
BRANCH   5   6
ATOM      6  C   UNL     1       6.939  48.060  -1.780  1.00  0.00     0.000 C 
BRANCH   6   7
ATOM      7  C   UNL     1       8.100  47.139  -2.199  1.00  0.00     0.000 C 
BRANCH   7   8
ATOM      8  C   UNL     1       8.131  46.769  -3.696  1.00  0.00     0.006 C 
BRANCH   8   9
ATOM      9  C   UNL     1       7.803  45.298  -3.996  1.00  0.00     0.053 C 
BRANCH   9  10
ATOM     10  C   UNL     1       6.352  45.101  -4.311  1.00  0.00     0.041 C 
ATOM     11  O   UNL     1       5.854  43.945  -4.305  1.00  0.00    -0.550 OA
ATOM     12  O   UNL     1       5.543  46.199  -4.577  1.00  0.00    -0.550 OA
ENDBRANCH   9  10
ENDBRANCH   8   9
ENDBRANCH   7   8
ENDBRANCH   6   7
ENDBRANCH   5   6
ENDBRANCH   4   5
ENDBRANCH   3   4
ENDBRANCH   1   3
BRANCH   2  13
ATOM     13  C   UNL     1       3.133  46.098   2.203  1.00  0.00     0.027 C 
BRANCH  13  14
ATOM     14  C   UNL     1       2.247  45.618   3.362  1.00  0.00     0.004 C 
BRANCH  14  15
ATOM     15  C   UNL     1       1.050  46.549   3.617  1.00  0.00     0.000 C 
BRANCH  15  16
ATOM     16  C   UNL     1      -0.310  45.832   3.734  1.00  0.00     0.000 C 
BRANCH  16  17
ATOM     17  C   UNL     1      -1.203  45.991   2.485  1.00  0.00    -0.000 C 
BRANCH  17  18
ATOM     18  C   UNL     1      -1.319  44.685   1.681  1.00  0.00    -0.000 C 
BRANCH  18  19
ATOM     19  C   UNL     1      -0.786  44.824   0.247  1.00  0.00    -0.003 C 
ATOM     20  C   UNL     1       0.696  44.467   0.129  1.00  0.00     0.004 C 
ENDBRANCH  18  19
ENDBRANCH  17  18
ENDBRANCH  16  17
ENDBRANCH  15  16
ENDBRANCH  14  15
ENDBRANCH  13  14
ENDBRANCH   2  13
TORSDOF 15
ENDMDL
MODEL 4
REMARK VINA RESULT:    -6.105      5.149      8.228
REMARK INTER + INTRA:         -12.590
REMARK INTER:                 -11.615
REMARK INTRA:                  -0.976
REMARK UNBOUND:                -1.133
REMARK SMILES CCCCCCCCC=CCCCCCCCC(=O)[O-]
REMARK SMILES IDX 10 1 9 2 11 3 12 4 13 5 14 6 15 7 16 8 17 9 18 10 19 11
REMARK SMILES IDX 20 12 8 13 7 14 6 15 5 16 4 17 3 18 2 19 1 20
REMARK H PARENT
REMARK Flexibility Score: inf
ROOT
ATOM      1  C   UNL     1       7.532  47.921  -0.567  1.00  0.00    -0.031 C 
ATOM      2  C   UNL     1       7.169  47.822   0.725  1.00  0.00    -0.031 C 
ENDROOT
BRANCH   1   3
ATOM      3  C   UNL     1       6.643  48.435  -1.673  1.00  0.00     0.027 C 
BRANCH   3   4
ATOM      4  C   UNL     1       6.916  47.723  -3.006  1.00  0.00     0.004 C 
BRANCH   4   5
ATOM      5  C   UNL     1       8.320  47.101  -3.053  1.00  0.00     0.000 C 
BRANCH   5   6
ATOM      6  C   UNL     1       8.529  46.320  -4.359  1.00  0.00     0.000 C 
BRANCH   6   7
ATOM      7  C   UNL     1       8.296  44.807  -4.196  1.00  0.00     0.000 C 
BRANCH   7   8
ATOM      8  C   UNL     1       6.823  44.359  -4.297  1.00  0.00     0.006 C 
BRANCH   8   9
ATOM      9  C   UNL     1       6.098  44.832  -5.568  1.00  0.00     0.053 C 
BRANCH   9  10
ATOM     10  C   UNL     1       4.611  44.725  -5.437  1.00  0.00     0.041 C 
ATOM     11  O   UNL     1       4.054  44.950  -4.330  1.00  0.00    -0.550 OA
ATOM     12  O   UNL     1       3.836  44.410  -6.546  1.00  0.00    -0.550 OA
ENDBRANCH   9  10
ENDBRANCH   8   9
ENDBRANCH   7   8
ENDBRANCH   6   7
ENDBRANCH   5   6
ENDBRANCH   4   5
ENDBRANCH   3   4
ENDBRANCH   1   3
BRANCH   2  13
ATOM     13  C   UNL     1       5.788  48.121   1.251  1.00  0.00     0.027 C 
BRANCH  13  14
ATOM     14  C   UNL     1       5.431  47.169   2.400  1.00  0.00     0.004 C 
BRANCH  14  15
ATOM     15  C   UNL     1       3.913  47.010   2.590  1.00  0.00     0.000 C 
BRANCH  15  16
ATOM     16  C   UNL     1       3.461  45.598   3.011  1.00  0.00     0.000 C 
BRANCH  16  17
ATOM     17  C   UNL     1       2.040  45.234   2.530  1.00  0.00    -0.000 C 
BRANCH  17  18
ATOM     18  C   UNL     1       2.028  44.736   1.075  1.00  0.00    -0.000 C 
BRANCH  18  19
ATOM     19  C   UNL     1       0.613  44.403   0.576  1.00  0.00    -0.003 C 
ATOM     20  C   UNL     1      -0.482  45.013   1.451  1.00  0.00     0.004 C 
ENDBRANCH  18  19
ENDBRANCH  17  18
ENDBRANCH  16  17
ENDBRANCH  15  16
ENDBRANCH  14  15
ENDBRANCH  13  14
ENDBRANCH   2  13
TORSDOF 15
ENDMDL
MODEL 5
REMARK VINA RESULT:    -6.083      6.351      9.162
REMARK INTER + INTRA:         -12.550
REMARK INTER:                 -10.511
REMARK INTRA:                  -2.039
REMARK UNBOUND:                -1.133
REMARK SMILES CCCCCCCCC=CCCCCCCCC(=O)[O-]
REMARK SMILES IDX 10 1 9 2 11 3 12 4 13 5 14 6 15 7 16 8 17 9 18 10 19 11
REMARK SMILES IDX 20 12 8 13 7 14 6 15 5 16 4 17 3 18 2 19 1 20
REMARK H PARENT
REMARK Flexibility Score: inf
ROOT
ATOM      1  C   UNL     1       9.442  50.098  -0.495  1.00  0.00    -0.031 C 
ATOM      2  C   UNL     1       8.447  50.902  -0.913  1.00  0.00    -0.031 C 
ENDROOT
BRANCH   1   3
ATOM      3  C   UNL     1       9.253  48.877   0.372  1.00  0.00     0.027 C 
BRANCH   3   4
ATOM      4  C   UNL     1       9.911  47.632  -0.240  1.00  0.00     0.004 C 
BRANCH   4   5
ATOM      5  C   UNL     1       9.715  47.562  -1.761  1.00  0.00     0.000 C 
BRANCH   5   6
ATOM      6  C   UNL     1       8.499  46.694  -2.118  1.00  0.00     0.000 C 
BRANCH   6   7
ATOM      7  C   UNL     1       7.782  47.163  -3.398  1.00  0.00     0.000 C 
BRANCH   7   8
ATOM      8  C   UNL     1       7.940  46.229  -4.614  1.00  0.00     0.006 C 
BRANCH   8   9
ATOM      9  C   UNL     1       6.788  46.301  -5.629  1.00  0.00     0.053 C 
BRANCH   9  10
ATOM     10  C   UNL     1       5.713  45.303  -5.328  1.00  0.00     0.041 C 
ATOM     11  O   UNL     1       5.738  44.164  -5.863  1.00  0.00    -0.550 OA
ATOM     12  O   UNL     1       4.702  45.621  -4.430  1.00  0.00    -0.550 OA
ENDBRANCH   9  10
ENDBRANCH   8   9
ENDBRANCH   7   8
ENDBRANCH   6   7
ENDBRANCH   5   6
ENDBRANCH   4   5
ENDBRANCH   3   4
ENDBRANCH   1   3
BRANCH   2  13
ATOM     13  C   UNL     1       7.003  50.762  -0.503  1.00  0.00     0.027 C 
BRANCH  13  14
ATOM     14  C   UNL     1       6.256  49.830  -1.468  1.00  0.00     0.004 C 
BRANCH  14  15
ATOM     15  C   UNL     1       5.682  48.588  -0.768  1.00  0.00     0.000 C 
BRANCH  15  16
ATOM     16  C   UNL     1       5.479  48.741   0.752  1.00  0.00     0.000 C 
BRANCH  16  17
ATOM     17  C   UNL     1       6.136  47.618   1.582  1.00  0.00    -0.000 C 
BRANCH  17  18
ATOM     18  C   UNL     1       5.249  47.165   2.754  1.00  0.00    -0.000 C 
BRANCH  18  19
ATOM     19  C   UNL     1       3.838  46.758   2.305  1.00  0.00    -0.003 C 
ATOM     20  C   UNL     1       3.269  45.595   3.118  1.00  0.00     0.004 C 
ENDBRANCH  18  19
ENDBRANCH  17  18
ENDBRANCH  16  17
ENDBRANCH  15  16
ENDBRANCH  14  15
ENDBRANCH  13  14
ENDBRANCH   2  13
TORSDOF 15
ENDMDL
MODEL 6
REMARK VINA RESULT:    -6.078      5.523      9.824
REMARK INTER + INTRA:         -12.541
REMARK INTER:                 -11.794
REMARK INTRA:                  -0.748
REMARK UNBOUND:                -1.133
REMARK SMILES CCCCCCCCC=CCCCCCCCC(=O)[O-]
REMARK SMILES IDX 10 1 9 2 11 3 12 4 13 5 14 6 15 7 16 8 17 9 18 10 19 11
REMARK SMILES IDX 20 12 8 13 7 14 6 15 5 16 4 17 3 18 2 19 1 20
REMARK H PARENT
REMARK Flexibility Score: inf
ROOT
ATOM      1  C   UNL     1       4.945  44.441   5.959  1.00  0.00    -0.031 C 
ATOM      2  C   UNL     1       4.908  44.856   4.679  1.00  0.00    -0.031 C 
ENDROOT
BRANCH   1   3
ATOM      3  C   UNL     1       3.805  43.759   6.674  1.00  0.00     0.027 C 
BRANCH   3   4
ATOM      4  C   UNL     1       4.289  42.582   7.533  1.00  0.00     0.004 C 
BRANCH   4   5
ATOM      5  C   UNL     1       3.770  42.665   8.975  1.00  0.00     0.000 C 
BRANCH   5   6
ATOM      6  C   UNL     1       3.603  44.128   9.414  1.00  0.00     0.000 C 
BRANCH   6   7
ATOM      7  C   UNL     1       2.562  44.303  10.536  1.00  0.00     0.000 C 
BRANCH   7   8
ATOM      8  C   UNL     1       2.781  45.530  11.444  1.00  0.00     0.006 C 
BRANCH   8   9
ATOM      9  C   UNL     1       2.220  46.847  10.884  1.00  0.00     0.053 C 
BRANCH   9  10
ATOM     10  C   UNL     1       0.751  46.983  11.139  1.00  0.00     0.041 C 
ATOM     11  O   UNL     1       0.287  46.788  12.293  1.00  0.00    -0.550 OA
ATOM     12  O   UNL     1      -0.102  47.359  10.108  1.00  0.00    -0.550 OA
ENDBRANCH   9  10
ENDBRANCH   8   9
ENDBRANCH   7   8
ENDBRANCH   6   7
ENDBRANCH   5   6
ENDBRANCH   4   5
ENDBRANCH   3   4
ENDBRANCH   1   3
BRANCH   2  13
ATOM     13  C   UNL     1       3.690  44.789   3.792  1.00  0.00     0.027 C 
BRANCH  13  14
ATOM     14  C   UNL     1       3.529  46.092   2.997  1.00  0.00     0.004 C 
BRANCH  14  15
ATOM     15  C   UNL     1       2.932  45.864   1.599  1.00  0.00     0.000 C 
BRANCH  15  16
ATOM     16  C   UNL     1       2.140  44.550   1.443  1.00  0.00     0.000 C 
BRANCH  16  17
ATOM     17  C   UNL     1       1.110  44.580   0.295  1.00  0.00    -0.000 C 
BRANCH  17  18
ATOM     18  C   UNL     1      -0.335  44.692   0.811  1.00  0.00    -0.000 C 
BRANCH  18  19
ATOM     19  C   UNL     1      -1.306  45.219  -0.256  1.00  0.00    -0.003 C 
ATOM     20  C   UNL     1      -2.207  46.339   0.266  1.00  0.00     0.004 C 
ENDBRANCH  18  19
ENDBRANCH  17  18
ENDBRANCH  16  17
ENDBRANCH  15  16
ENDBRANCH  14  15
ENDBRANCH  13  14
ENDBRANCH   2  13
TORSDOF 15
ENDMDL
MODEL 7
REMARK VINA RESULT:    -6.072      4.886      8.056
REMARK INTER + INTRA:         -12.529
REMARK INTER:                 -11.457
REMARK INTRA:                  -1.072
REMARK UNBOUND:                -1.133
REMARK SMILES CCCCCCCCC=CCCCCCCCC(=O)[O-]
REMARK SMILES IDX 10 1 9 2 11 3 12 4 13 5 14 6 15 7 16 8 17 9 18 10 19 11
REMARK SMILES IDX 20 12 8 13 7 14 6 15 5 16 4 17 3 18 2 19 1 20
REMARK H PARENT
REMARK Flexibility Score: inf
ROOT
ATOM      1  C   UNL     1       6.025  48.246   0.396  1.00  0.00    -0.031 C 
ATOM      2  C   UNL     1       5.057  47.878   1.255  1.00  0.00    -0.031 C 
ENDROOT
BRANCH   1   3
ATOM      3  C   UNL     1       7.482  47.879   0.535  1.00  0.00     0.027 C 
BRANCH   3   4
ATOM      4  C   UNL     1       8.106  47.486  -0.813  1.00  0.00     0.004 C 
BRANCH   4   5
ATOM      5  C   UNL     1       7.554  48.327  -1.972  1.00  0.00     0.000 C 
BRANCH   5   6
ATOM      6  C   UNL     1       7.271  47.450  -3.201  1.00  0.00     0.000 C 
BRANCH   6   7
ATOM      7  C   UNL     1       8.389  46.427  -3.478  1.00  0.00     0.000 C 
BRANCH   7   8
ATOM      8  C   UNL     1       8.064  45.383  -4.565  1.00  0.00     0.006 C 
BRANCH   8   9
ATOM      9  C   UNL     1       6.795  45.683  -5.379  1.00  0.00     0.053 C 
BRANCH   9  10
ATOM     10  C   UNL     1       5.781  44.588  -5.259  1.00  0.00     0.041 C 
ATOM     11  O   UNL     1       4.866  44.476  -6.116  1.00  0.00    -0.550 OA
ATOM     12  O   UNL     1       5.868  43.671  -4.219  1.00  0.00    -0.550 OA
ENDBRANCH   9  10
ENDBRANCH   8   9
ENDBRANCH   7   8
ENDBRANCH   6   7
ENDBRANCH   5   6
ENDBRANCH   4   5
ENDBRANCH   3   4
ENDBRANCH   1   3
BRANCH   2  13
ATOM     13  C   UNL     1       5.293  47.122   2.539  1.00  0.00     0.027 C 
BRANCH  13  14
ATOM     14  C   UNL     1       3.985  46.501   3.047  1.00  0.00     0.004 C 
BRANCH  14  15
ATOM     15  C   UNL     1       3.220  45.746   1.948  1.00  0.00     0.000 C 
BRANCH  15  16
ATOM     16  C   UNL     1       1.708  45.591   2.206  1.00  0.00     0.000 C 
BRANCH  16  17
ATOM     17  C   UNL     1       1.259  46.114   3.587  1.00  0.00    -0.000 C 
BRANCH  17  18
ATOM     18  C   UNL     1      -0.273  46.185   3.712  1.00  0.00    -0.000 C 
BRANCH  18  19
ATOM     19  C   UNL     1      -0.994  45.551   2.513  1.00  0.00    -0.003 C 
ATOM     20  C   UNL     1      -2.368  44.989   2.879  1.00  0.00     0.004 C 
ENDBRANCH  18  19
ENDBRANCH  17  18
ENDBRANCH  16  17
ENDBRANCH  15  16
ENDBRANCH  14  15
ENDBRANCH  13  14
ENDBRANCH   2  13
TORSDOF 15
ENDMDL
MODEL 8
REMARK VINA RESULT:    -5.994      6.233      9.937
REMARK INTER + INTRA:         -12.384
REMARK INTER:                 -11.163
REMARK INTRA:                  -1.220
REMARK UNBOUND:                -1.133
REMARK SMILES CCCCCCCCC=CCCCCCCCC(=O)[O-]
REMARK SMILES IDX 10 1 9 2 11 3 12 4 13 5 14 6 15 7 16 8 17 9 18 10 19 11
REMARK SMILES IDX 20 12 8 13 7 14 6 15 5 16 4 17 3 18 2 19 1 20
REMARK H PARENT
REMARK Flexibility Score: inf
ROOT
ATOM      1  C   UNL     1       6.516  45.753   7.219  1.00  0.00    -0.031 C 
ATOM      2  C   UNL     1       5.993  44.869   6.350  1.00  0.00    -0.031 C 
ENDROOT
BRANCH   1   3
ATOM      3  C   UNL     1       5.950  46.052   8.586  1.00  0.00     0.027 C 
BRANCH   3   4
ATOM      4  C   UNL     1       6.637  45.225   9.683  1.00  0.00     0.004 C 
BRANCH   4   5
ATOM      5  C   UNL     1       5.623  44.512  10.590  1.00  0.00     0.000 C 
BRANCH   5   6
ATOM      6  C   UNL     1       4.191  44.710  10.072  1.00  0.00     0.000 C 
BRANCH   6   7
ATOM      7  C   UNL     1       3.291  45.462  11.070  1.00  0.00     0.000 C 
BRANCH   7   8
ATOM      8  C   UNL     1       1.872  44.879  11.237  1.00  0.00     0.006 C 
BRANCH   8   9
ATOM      9  C   UNL     1       0.839  45.868  11.800  1.00  0.00     0.053 C 
BRANCH   9  10
ATOM     10  C   UNL     1       0.092  46.577  10.713  1.00  0.00     0.041 C 
ATOM     11  O   UNL     1       0.090  47.834  10.661  1.00  0.00    -0.550 OA
ATOM     12  O   UNL     1      -0.575  45.846   9.737  1.00  0.00    -0.550 OA
ENDBRANCH   9  10
ENDBRANCH   8   9
ENDBRANCH   7   8
ENDBRANCH   6   7
ENDBRANCH   5   6
ENDBRANCH   4   5
ENDBRANCH   3   4
ENDBRANCH   1   3
BRANCH   2  13
ATOM     13  C   UNL     1       4.709  44.111   6.568  1.00  0.00     0.027 C 
BRANCH  13  14
ATOM     14  C   UNL     1       3.834  44.157   5.308  1.00  0.00     0.004 C 
BRANCH  14  15
ATOM     15  C   UNL     1       4.339  45.175   4.272  1.00  0.00     0.000 C 
BRANCH  15  16
ATOM     16  C   UNL     1       3.287  45.614   3.235  1.00  0.00     0.000 C 
BRANCH  16  17
ATOM     17  C   UNL     1       3.827  46.612   2.188  1.00  0.00    -0.000 C 
BRANCH  17  18
ATOM     18  C   UNL     1       5.216  47.156   2.566  1.00  0.00    -0.000 C 
BRANCH  18  19
ATOM     19  C   UNL     1       5.900  47.889   1.402  1.00  0.00    -0.003 C 
ATOM     20  C   UNL     1       7.353  47.457   1.203  1.00  0.00     0.004 C 
ENDBRANCH  18  19
ENDBRANCH  17  18
ENDBRANCH  16  17
ENDBRANCH  15  16
ENDBRANCH  14  15
ENDBRANCH  13  14
ENDBRANCH   2  13
TORSDOF 15
ENDMDL
MODEL 9
REMARK VINA RESULT:    -5.974      4.878      7.147
REMARK INTER + INTRA:         -12.346
REMARK INTER:                 -11.469
REMARK INTRA:                  -0.876
REMARK UNBOUND:                -1.133
REMARK SMILES CCCCCCCCC=CCCCCCCCC(=O)[O-]
REMARK SMILES IDX 10 1 9 2 11 3 12 4 13 5 14 6 15 7 16 8 17 9 18 10 19 11
REMARK SMILES IDX 20 12 8 13 7 14 6 15 5 16 4 17 3 18 2 19 1 20
REMARK H PARENT
REMARK Flexibility Score: inf
ROOT
ATOM      1  C   UNL     1       5.573  47.636   1.819  1.00  0.00    -0.031 C 
ATOM      2  C   UNL     1       5.008  46.857   2.760  1.00  0.00    -0.031 C 
ENDROOT
BRANCH   1   3
ATOM      3  C   UNL     1       4.862  48.155   0.593  1.00  0.00     0.027 C 
BRANCH   3   4
ATOM      4  C   UNL     1       5.847  48.519  -0.528  1.00  0.00     0.004 C 
BRANCH   4   5
ATOM      5  C   UNL     1       7.289  48.118  -0.186  1.00  0.00     0.000 C 
BRANCH   5   6
ATOM      6  C   UNL     1       8.203  48.259  -1.412  1.00  0.00     0.000 C 
BRANCH   6   7
ATOM      7  C   UNL     1       8.404  46.932  -2.167  1.00  0.00     0.000 C 
BRANCH   7   8
ATOM      8  C   UNL     1       7.566  46.781  -3.453  1.00  0.00     0.006 C 
BRANCH   8   9
ATOM      9  C   UNL     1       7.341  45.328  -3.900  1.00  0.00     0.053 C 
BRANCH   9  10
ATOM     10  C   UNL     1       6.132  45.191  -4.772  1.00  0.00     0.041 C 
ATOM     11  O   UNL     1       4.994  45.497  -4.331  1.00  0.00    -0.550 OA
ATOM     12  O   UNL     1       6.267  44.756  -6.085  1.00  0.00    -0.550 OA
ENDBRANCH   9  10
ENDBRANCH   8   9
ENDBRANCH   7   8
ENDBRANCH   6   7
ENDBRANCH   5   6
ENDBRANCH   4   5
ENDBRANCH   3   4
ENDBRANCH   1   3
BRANCH   2  13
ATOM     13  C   UNL     1       3.607  46.305   2.686  1.00  0.00     0.027 C 
BRANCH  13  14
ATOM     14  C   UNL     1       3.380  45.261   3.788  1.00  0.00     0.004 C 
BRANCH  14  15
ATOM     15  C   UNL     1       4.694  44.675   4.330  1.00  0.00     0.000 C 
BRANCH  15  16
ATOM     16  C   UNL     1       4.732  44.485   5.859  1.00  0.00     0.000 C 
BRANCH  16  17
ATOM     17  C   UNL     1       3.765  43.396   6.372  1.00  0.00    -0.000 C 
BRANCH  17  18
ATOM     18  C   UNL     1       4.333  42.637   7.584  1.00  0.00    -0.000 C 
BRANCH  18  19
ATOM     19  C   UNL     1       3.309  42.486   8.720  1.00  0.00    -0.003 C 
ATOM     20  C   UNL     1       3.372  43.633   9.729  1.00  0.00     0.004 C 
ENDBRANCH  18  19
ENDBRANCH  17  18
ENDBRANCH  16  17
ENDBRANCH  15  16
ENDBRANCH  14  15
ENDBRANCH  13  14
ENDBRANCH   2  13
TORSDOF 15
ENDMDL
