MODEL 1
REMARK VINA RESULT:    -8.298      0.000      0.000
REMARK INTER + INTRA:         -10.025
REMARK INTER:                  -9.753
REMARK INTRA:                  -0.272
REMARK UNBOUND:                -0.272
REMARK SMILES O=c1cc(-c2ccc(O)c(O)c2)oc2cc(O)cc(O)c12
REMARK SMILES IDX 4 1 3 2 2 3 1 4 21 5 19 6 18 7 16 8 15 9 14 10 13 11 5 12
REMARK SMILES IDX 6 13 7 14 8 15 12 16 10 17 9 18 11 20 20 22 17 24
REMARK H PARENT 9 19 11 21 20 23 17 25
REMARK Flexibility Score: inf
ROOT
ATOM      1  C   UNL     1      39.043  25.430  38.977  1.00  0.00     0.138 A 
ATOM      2  C   UNL     1      40.002  25.057  39.929  1.00  0.00     0.100 A 
ATOM      3  C   UNL     1      39.912  25.556  41.230  1.00  0.00     0.197 A 
ATOM      4  O   UNL     1      40.750  25.154  42.077  1.00  0.00    -0.289 OA
ATOM      5  C   UNL     1      38.876  26.457  41.567  1.00  0.00     0.107 A 
ATOM      6  C   UNL     1      38.711  27.062  42.850  1.00  0.00     0.134 A 
ATOM      7  C   UNL     1      37.580  27.849  43.102  1.00  0.00     0.093 A 
ATOM      8  C   UNL     1      36.642  28.102  42.102  1.00  0.00     0.123 A 
ATOM      9  C   UNL     1      36.822  27.561  40.829  1.00  0.00     0.094 A 
ATOM     10  C   UNL     1      37.921  26.744  40.556  1.00  0.00     0.146 A 
ATOM     11  O   UNL     1      38.048  26.236  39.335  1.00  0.00    -0.456 OA
ENDROOT
BRANCH   1  12
ATOM     12  C   UNL     1      39.091  24.930  37.579  1.00  0.00     0.021 A 
ATOM     13  C   UNL     1      40.106  25.383  36.718  1.00  0.00     0.016 A 
ATOM     14  C   UNL     1      40.178  24.923  35.401  1.00  0.00     0.051 A 
ATOM     15  C   UNL     1      39.244  23.995  34.924  1.00  0.00     0.157 A 
ATOM     16  C   UNL     1      38.163  23.987  37.097  1.00  0.00     0.062 A 
ATOM     17  C   UNL     1      38.234  23.522  35.779  1.00  0.00     0.158 A 
BRANCH  15  18
ATOM     18  O   UNL     1      39.318  23.538  33.609  1.00  0.00    -0.504 OA
ATOM     19  H   UNL     1      39.007  24.107  32.831  1.00  0.00     0.293 HD
ENDBRANCH  15  18
BRANCH  17  20
ATOM     20  O   UNL     1      37.296  22.590  35.338  1.00  0.00    -0.504 OA
ATOM     21  H   UNL     1      37.231  21.662  35.737  1.00  0.00     0.293 HD
ENDBRANCH  17  20
ENDBRANCH   1  12
BRANCH   6  22
ATOM     22  O   UNL     1      39.633  26.942  43.894  1.00  0.00    -0.507 OA
ATOM     23  H   UNL     1      40.089  27.716  44.352  1.00  0.00     0.293 HD
ENDBRANCH   6  22
BRANCH   8  24
ATOM     24  O   UNL     1      35.536  28.902  42.385  1.00  0.00    -0.508 OA
ATOM     25  H   UNL     1      35.126  28.932  43.311  1.00  0.00     0.293 HD
ENDBRANCH   8  24
TORSDOF 5
ENDMDL
MODEL 2
REMARK VINA RESULT:    -8.115      2.876      8.195
REMARK INTER + INTRA:          -9.810
REMARK INTER:                  -9.544
REMARK INTRA:                  -0.266
REMARK UNBOUND:                -0.272
REMARK SMILES O=c1cc(-c2ccc(O)c(O)c2)oc2cc(O)cc(O)c12
REMARK SMILES IDX 4 1 3 2 2 3 1 4 21 5 19 6 18 7 16 8 15 9 14 10 13 11 5 12
REMARK SMILES IDX 6 13 7 14 8 15 12 16 10 17 9 18 11 20 20 22 17 24
REMARK H PARENT 9 19 11 21 20 23 17 25
REMARK Flexibility Score: inf
ROOT
ATOM      1  C   UNL     1      36.546  28.657  43.291  1.00  0.00     0.138 A 
ATOM      2  C   UNL     1      37.726  28.193  43.889  1.00  0.00     0.100 A 
ATOM      3  C   UNL     1      38.551  27.308  43.191  1.00  0.00     0.197 A 
ATOM      4  O   UNL     1      39.633  26.958  43.729  1.00  0.00    -0.289 OA
ATOM      5  C   UNL     1      38.174  26.864  41.903  1.00  0.00     0.107 A 
ATOM      6  C   UNL     1      38.914  25.931  41.116  1.00  0.00     0.134 A 
ATOM      7  C   UNL     1      38.504  25.654  39.806  1.00  0.00     0.093 A 
ATOM      8  C   UNL     1      37.349  26.227  39.276  1.00  0.00     0.123 A 
ATOM      9  C   UNL     1      36.587  27.098  40.055  1.00  0.00     0.094 A 
ATOM     10  C   UNL     1      36.988  27.421  41.353  1.00  0.00     0.146 A 
ATOM     11  O   UNL     1      36.243  28.267  42.058  1.00  0.00    -0.456 OA
ENDROOT
BRANCH   1  12
ATOM     12  C   UNL     1      35.632  29.598  43.988  1.00  0.00     0.021 A 
ATOM     13  C   UNL     1      35.713  30.973  43.709  1.00  0.00     0.016 A 
ATOM     14  C   UNL     1      34.860  31.879  44.346  1.00  0.00     0.051 A 
ATOM     15  C   UNL     1      33.905  31.425  45.264  1.00  0.00     0.157 A 
ATOM     16  C   UNL     1      34.662  29.147  44.903  1.00  0.00     0.062 A 
ATOM     17  C   UNL     1      33.804  30.051  45.540  1.00  0.00     0.158 A 
BRANCH  15  18
ATOM     18  O   UNL     1      33.056  32.330  45.899  1.00  0.00    -0.504 OA
ATOM     19  H   UNL     1      33.324  33.296  46.045  1.00  0.00     0.293 HD
ENDBRANCH  15  18
BRANCH  17  20
ATOM     20  O   UNL     1      32.857  29.566  46.441  1.00  0.00    -0.504 OA
ATOM     21  H   UNL     1      31.892  29.872  46.424  1.00  0.00     0.293 HD
ENDBRANCH  17  20
ENDBRANCH   1  12
BRANCH   6  22
ATOM     22  O   UNL     1      40.037  25.237  41.578  1.00  0.00    -0.507 OA
ATOM     23  H   UNL     1      40.303  24.310  41.284  1.00  0.00     0.293 HD
ENDBRANCH   6  22
BRANCH   8  24
ATOM     24  O   UNL     1      36.963  25.916  37.974  1.00  0.00    -0.508 OA
ATOM     25  H   UNL     1      37.566  25.386  37.355  1.00  0.00     0.293 HD
ENDBRANCH   8  24
TORSDOF 5
ENDMDL
MODEL 3
REMARK VINA RESULT:    -7.527      4.496      8.034
REMARK INTER + INTRA:          -9.119
REMARK INTER:                  -8.855
REMARK INTRA:                  -0.264
REMARK UNBOUND:                -0.272
REMARK SMILES O=c1cc(-c2ccc(O)c(O)c2)oc2cc(O)cc(O)c12
REMARK SMILES IDX 4 1 3 2 2 3 1 4 21 5 19 6 18 7 16 8 15 9 14 10 13 11 5 12
REMARK SMILES IDX 6 13 7 14 8 15 12 16 10 17 9 18 11 20 20 22 17 24
REMARK H PARENT 9 19 11 21 20 23 17 25
REMARK Flexibility Score: inf
ROOT
ATOM      1  C   UNL     1      35.559  29.645  44.115  1.00  0.00     0.138 A 
ATOM      2  C   UNL     1      34.448  29.191  44.838  1.00  0.00     0.100 A 
ATOM      3  C   UNL     1      33.666  30.105  45.547  1.00  0.00     0.197 A 
ATOM      4  O   UNL     1      32.640  29.676  46.136  1.00  0.00    -0.289 OA
ATOM      5  C   UNL     1      34.019  31.474  45.555  1.00  0.00     0.107 A 
ATOM      6  C   UNL     1      33.320  32.489  46.276  1.00  0.00     0.134 A 
ATOM      7  C   UNL     1      33.692  33.830  46.116  1.00  0.00     0.093 A 
ATOM      8  C   UNL     1      34.773  34.186  45.311  1.00  0.00     0.123 A 
ATOM      9  C   UNL     1      35.498  33.197  44.645  1.00  0.00     0.094 A 
ATOM     10  C   UNL     1      35.130  31.855  44.757  1.00  0.00     0.146 A 
ATOM     11  O   UNL     1      35.836  30.945  44.095  1.00  0.00    -0.456 OA
ENDROOT
BRANCH   1  12
ATOM     12  C   UNL     1      36.426  28.717  43.345  1.00  0.00     0.021 A 
ATOM     13  C   UNL     1      36.106  28.422  42.008  1.00  0.00     0.016 A 
ATOM     14  C   UNL     1      36.909  27.558  41.259  1.00  0.00     0.051 A 
ATOM     15  C   UNL     1      38.050  26.981  41.829  1.00  0.00     0.157 A 
ATOM     16  C   UNL     1      37.582  28.144  43.908  1.00  0.00     0.062 A 
ATOM     17  C   UNL     1      38.389  27.279  43.160  1.00  0.00     0.158 A 
BRANCH  15  18
ATOM     18  O   UNL     1      38.848  26.118  41.081  1.00  0.00    -0.504 OA
ATOM     19  H   UNL     1      38.503  25.222  40.756  1.00  0.00     0.293 HD
ENDBRANCH  15  18
BRANCH  17  20
ATOM     20  O   UNL     1      39.525  26.730  43.753  1.00  0.00    -0.504 OA
ATOM     21  H   UNL     1      40.172  26.145  43.238  1.00  0.00     0.293 HD
ENDBRANCH  17  20
ENDBRANCH   1  12
BRANCH   6  22
ATOM     22  O   UNL     1      32.278  32.234  47.172  1.00  0.00    -0.507 OA
ATOM     23  H   UNL     1      32.107  32.752  48.020  1.00  0.00     0.293 HD
ENDBRANCH   6  22
BRANCH   8  24
ATOM     24  O   UNL     1      35.124  35.529  45.187  1.00  0.00    -0.508 OA
ATOM     25  H   UNL     1      34.735  36.237  45.800  1.00  0.00     0.293 HD
ENDBRANCH   8  24
TORSDOF 5
ENDMDL
MODEL 4
REMARK VINA RESULT:    -7.414      3.999      7.370
REMARK INTER + INTRA:          -8.986
REMARK INTER:                  -8.701
REMARK INTRA:                  -0.286
REMARK UNBOUND:                -0.272
REMARK SMILES O=c1cc(-c2ccc(O)c(O)c2)oc2cc(O)cc(O)c12
REMARK SMILES IDX 4 1 3 2 2 3 1 4 21 5 19 6 18 7 16 8 15 9 14 10 13 11 5 12
REMARK SMILES IDX 6 13 7 14 8 15 12 16 10 17 9 18 11 20 20 22 17 24
REMARK H PARENT 9 19 11 21 20 23 17 25
REMARK Flexibility Score: inf
ROOT
ATOM      1  C   UNL     1      35.798  29.492  43.294  1.00  0.00     0.138 A 
ATOM      2  C   UNL     1      35.101  29.411  44.508  1.00  0.00     0.100 A 
ATOM      3  C   UNL     1      34.168  30.397  44.834  1.00  0.00     0.197 A 
ATOM      4  O   UNL     1      33.513  30.264  45.900  1.00  0.00    -0.289 OA
ATOM      5  C   UNL     1      33.957  31.484  43.954  1.00  0.00     0.107 A 
ATOM      6  C   UNL     1      33.062  32.568  44.202  1.00  0.00     0.134 A 
ATOM      7  C   UNL     1      32.849  33.529  43.206  1.00  0.00     0.093 A 
ATOM      8  C   UNL     1      33.542  33.479  41.997  1.00  0.00     0.123 A 
ATOM      9  C   UNL     1      34.460  32.455  41.766  1.00  0.00     0.094 A 
ATOM     10  C   UNL     1      34.669  31.462  42.725  1.00  0.00     0.146 A 
ATOM     11  O   UNL     1      35.541  30.495  42.461  1.00  0.00    -0.456 OA
ENDROOT
BRANCH   1  12
ATOM     12  C   UNL     1      36.802  28.472  42.898  1.00  0.00     0.021 A 
ATOM     13  C   UNL     1      37.835  28.137  43.790  1.00  0.00     0.016 A 
ATOM     14  C   UNL     1      38.788  27.175  43.445  1.00  0.00     0.051 A 
ATOM     15  C   UNL     1      38.720  26.524  42.207  1.00  0.00     0.157 A 
ATOM     16  C   UNL     1      36.731  27.804  41.661  1.00  0.00     0.062 A 
ATOM     17  C   UNL     1      37.683  26.838  41.313  1.00  0.00     0.158 A 
BRANCH  15  18
ATOM     18  O   UNL     1      39.672  25.565  41.865  1.00  0.00    -0.504 OA
ATOM     19  H   UNL     1      39.998  24.879  42.535  1.00  0.00     0.293 HD
ENDBRANCH  15  18
BRANCH  17  20
ATOM     20  O   UNL     1      37.581  26.200  40.078  1.00  0.00    -0.504 OA
ATOM     21  H   UNL     1      37.007  26.567  39.328  1.00  0.00     0.293 HD
ENDBRANCH  17  20
ENDBRANCH   1  12
BRANCH   6  22
ATOM     22  O   UNL     1      32.381  32.759  45.408  1.00  0.00    -0.507 OA
ATOM     23  H   UNL     1      31.575  32.231  45.705  1.00  0.00     0.293 HD
ENDBRANCH   6  22
BRANCH   8  24
ATOM     24  O   UNL     1      33.315  34.461  41.035  1.00  0.00    -0.508 OA
ATOM     25  H   UNL     1      32.407  34.579  40.602  1.00  0.00     0.293 HD
ENDBRANCH   8  24
TORSDOF 5
ENDMDL
MODEL 5
REMARK VINA RESULT:    -7.239      4.616      7.150
REMARK INTER + INTRA:          -8.781
REMARK INTER:                  -8.486
REMARK INTRA:                  -0.295
REMARK UNBOUND:                -0.272
REMARK SMILES O=c1cc(-c2ccc(O)c(O)c2)oc2cc(O)cc(O)c12
REMARK SMILES IDX 4 1 3 2 2 3 1 4 21 5 19 6 18 7 16 8 15 9 14 10 13 11 5 12
REMARK SMILES IDX 6 13 7 14 8 15 12 16 10 17 9 18 11 20 20 22 17 24
REMARK H PARENT 9 19 11 21 20 23 17 25
REMARK Flexibility Score: inf
ROOT
ATOM      1  C   UNL     1      35.528  23.242  38.861  1.00  0.00     0.138 A 
ATOM      2  C   UNL     1      35.446  24.615  38.593  1.00  0.00     0.100 A 
ATOM      3  C   UNL     1      36.532  25.270  38.009  1.00  0.00     0.197 A 
ATOM      4  O   UNL     1      36.406  26.489  37.724  1.00  0.00    -0.289 OA
ATOM      5  C   UNL     1      37.715  24.551  37.722  1.00  0.00     0.107 A 
ATOM      6  C   UNL     1      38.899  25.122  37.166  1.00  0.00     0.134 A 
ATOM      7  C   UNL     1      39.970  24.289  36.816  1.00  0.00     0.093 A 
ATOM      8  C   UNL     1      39.923  22.917  37.059  1.00  0.00     0.123 A 
ATOM      9  C   UNL     1      38.792  22.355  37.653  1.00  0.00     0.094 A 
ATOM     10  C   UNL     1      37.695  23.154  37.981  1.00  0.00     0.146 A 
ATOM     11  O   UNL     1      36.631  22.579  38.531  1.00  0.00    -0.456 OA
ENDROOT
BRANCH   1  12
ATOM     12  C   UNL     1      34.403  22.496  39.481  1.00  0.00     0.021 A 
ATOM     13  C   UNL     1      34.627  21.205  39.988  1.00  0.00     0.016 A 
ATOM     14  C   UNL     1      33.588  20.485  40.584  1.00  0.00     0.051 A 
ATOM     15  C   UNL     1      32.310  21.047  40.693  1.00  0.00     0.157 A 
ATOM     16  C   UNL     1      33.119  23.061  39.606  1.00  0.00     0.062 A 
ATOM     17  C   UNL     1      32.077  22.343  40.205  1.00  0.00     0.158 A 
BRANCH  15  18
ATOM     18  O   UNL     1      31.276  20.326  41.287  1.00  0.00    -0.504 OA
ATOM     19  H   UNL     1      31.134  19.342  41.092  1.00  0.00     0.293 HD
ENDBRANCH  15  18
BRANCH  17  20
ATOM     20  O   UNL     1      30.819  22.935  40.308  1.00  0.00    -0.504 OA
ATOM     21  H   UNL     1      30.007  22.422  40.628  1.00  0.00     0.293 HD
ENDBRANCH  17  20
ENDBRANCH   1  12
BRANCH   6  22
ATOM     22  O   UNL     1      39.083  26.493  36.960  1.00  0.00    -0.507 OA
ATOM     23  H   UNL     1      38.338  27.169  36.883  1.00  0.00     0.293 HD
ENDBRANCH   6  22
BRANCH   8  24
ATOM     24  O   UNL     1      41.013  22.121  36.712  1.00  0.00    -0.508 OA
ATOM     25  H   UNL     1      41.718  21.862  37.392  1.00  0.00     0.293 HD
ENDBRANCH   8  24
TORSDOF 5
ENDMDL
MODEL 6
REMARK VINA RESULT:    -7.221      6.030      7.029
REMARK INTER + INTRA:          -8.759
REMARK INTER:                  -8.454
REMARK INTRA:                  -0.305
REMARK UNBOUND:                -0.272
REMARK SMILES O=c1cc(-c2ccc(O)c(O)c2)oc2cc(O)cc(O)c12
REMARK SMILES IDX 4 1 3 2 2 3 1 4 21 5 19 6 18 7 16 8 15 9 14 10 13 11 5 12
REMARK SMILES IDX 6 13 7 14 8 15 12 16 10 17 9 18 11 20 20 22 17 24
REMARK H PARENT 9 19 11 21 20 23 17 25
REMARK Flexibility Score: inf
ROOT
ATOM      1  C   UNL     1      34.688  22.884  39.420  1.00  0.00     0.138 A 
ATOM      2  C   UNL     1      33.386  23.402  39.366  1.00  0.00     0.100 A 
ATOM      3  C   UNL     1      32.365  22.778  40.086  1.00  0.00     0.197 A 
ATOM      4  O   UNL     1      31.222  23.302  40.068  1.00  0.00    -0.289 OA
ATOM      5  C   UNL     1      32.645  21.613  40.837  1.00  0.00     0.107 A 
ATOM      6  C   UNL     1      31.676  20.869  41.575  1.00  0.00     0.134 A 
ATOM      7  C   UNL     1      32.090  19.797  42.376  1.00  0.00     0.093 A 
ATOM      8  C   UNL     1      33.428  19.405  42.417  1.00  0.00     0.123 A 
ATOM      9  C   UNL     1      34.376  20.090  41.656  1.00  0.00     0.094 A 
ATOM     10  C   UNL     1      33.999  21.184  40.875  1.00  0.00     0.146 A 
ATOM     11  O   UNL     1      34.934  21.820  40.177  1.00  0.00    -0.456 OA
ENDROOT
BRANCH   1  12
ATOM     12  C   UNL     1      35.810  23.507  38.674  1.00  0.00     0.021 A 
ATOM     13  C   UNL     1      35.807  24.895  38.453  1.00  0.00     0.016 A 
ATOM     14  C   UNL     1      36.854  25.507  37.760  1.00  0.00     0.051 A 
ATOM     15  C   UNL     1      37.928  24.745  37.285  1.00  0.00     0.157 A 
ATOM     16  C   UNL     1      36.899  22.748  38.204  1.00  0.00     0.062 A 
ATOM     17  C   UNL     1      37.952  23.359  37.512  1.00  0.00     0.158 A 
BRANCH  15  18
ATOM     18  O   UNL     1      38.972  25.358  36.593  1.00  0.00    -0.504 OA
ATOM     19  H   UNL     1      39.428  24.904  35.810  1.00  0.00     0.293 HD
ENDBRANCH  15  18
BRANCH  17  20
ATOM     20  O   UNL     1      39.012  22.573  37.061  1.00  0.00    -0.504 OA
ATOM     21  H   UNL     1      39.777  22.303  37.666  1.00  0.00     0.293 HD
ENDBRANCH  17  20
ENDBRANCH   1  12
BRANCH   6  22
ATOM     22  O   UNL     1      30.302  21.125  41.539  1.00  0.00    -0.507 OA
ATOM     23  H   UNL     1      29.833  21.833  42.082  1.00  0.00     0.293 HD
ENDBRANCH   6  22
BRANCH   8  24
ATOM     24  O   UNL     1      33.802  18.324  43.213  1.00  0.00    -0.508 OA
ATOM     25  H   UNL     1      33.773  17.373  42.863  1.00  0.00     0.293 HD
ENDBRANCH   8  24
TORSDOF 5
ENDMDL
MODEL 7
REMARK VINA RESULT:    -7.027      6.211      7.058
REMARK INTER + INTRA:          -8.531
REMARK INTER:                  -8.252
REMARK INTRA:                  -0.279
REMARK UNBOUND:                -0.272
REMARK SMILES O=c1cc(-c2ccc(O)c(O)c2)oc2cc(O)cc(O)c12
REMARK SMILES IDX 4 1 3 2 2 3 1 4 21 5 19 6 18 7 16 8 15 9 14 10 13 11 5 12
REMARK SMILES IDX 6 13 7 14 8 15 12 16 10 17 9 18 11 20 20 22 17 24
REMARK H PARENT 9 19 11 21 20 23 17 25
REMARK Flexibility Score: inf
ROOT
ATOM      1  C   UNL     1      34.606  22.569  39.482  1.00  0.00     0.138 A 
ATOM      2  C   UNL     1      34.904  21.655  40.503  1.00  0.00     0.100 A 
ATOM      3  C   UNL     1      33.870  20.950  41.122  1.00  0.00     0.197 A 
ATOM      4  O   UNL     1      34.174  20.092  41.990  1.00  0.00    -0.289 OA
ATOM      5  C   UNL     1      32.530  21.186  40.737  1.00  0.00     0.107 A 
ATOM      6  C   UNL     1      31.392  20.557  41.326  1.00  0.00     0.134 A 
ATOM      7  C   UNL     1      30.120  20.782  40.784  1.00  0.00     0.093 A 
ATOM      8  C   UNL     1      29.938  21.659  39.715  1.00  0.00     0.123 A 
ATOM      9  C   UNL     1      31.036  22.322  39.167  1.00  0.00     0.094 A 
ATOM     10  C   UNL     1      32.321  22.092  39.662  1.00  0.00     0.146 A 
ATOM     11  O   UNL     1      33.343  22.732  39.103  1.00  0.00    -0.456 OA
ENDROOT
BRANCH   1  12
ATOM     12  C   UNL     1      35.666  23.346  38.792  1.00  0.00     0.021 A 
ATOM     13  C   UNL     1      35.460  24.711  38.526  1.00  0.00     0.016 A 
ATOM     14  C   UNL     1      36.445  25.467  37.884  1.00  0.00     0.051 A 
ATOM     15  C   UNL     1      37.657  24.875  37.507  1.00  0.00     0.157 A 
ATOM     16  C   UNL     1      36.892  22.760  38.422  1.00  0.00     0.062 A 
ATOM     17  C   UNL     1      37.882  23.515  37.782  1.00  0.00     0.158 A 
BRANCH  15  18
ATOM     18  O   UNL     1      38.637  25.630  36.867  1.00  0.00    -0.504 OA
ATOM     19  H   UNL     1      39.602  25.620  37.176  1.00  0.00     0.293 HD
ENDBRANCH  15  18
BRANCH  17  20
ATOM     20  O   UNL     1      39.082  22.899  37.429  1.00  0.00    -0.504 OA
ATOM     21  H   UNL     1      39.108  22.034  36.903  1.00  0.00     0.293 HD
ENDBRANCH  17  20
ENDBRANCH   1  12
BRANCH   6  22
ATOM     22  O   UNL     1      31.453  19.728  42.450  1.00  0.00    -0.507 OA
ATOM     23  H   UNL     1      31.313  18.729  42.437  1.00  0.00     0.293 HD
ENDBRANCH   6  22
BRANCH   8  24
ATOM     24  O   UNL     1      28.656  21.870  39.212  1.00  0.00    -0.508 OA
ATOM     25  H   UNL     1      27.981  22.445  39.703  1.00  0.00     0.293 HD
ENDBRANCH   8  24
TORSDOF 5
ENDMDL
MODEL 8
REMARK VINA RESULT:    -7.011      4.202      7.681
REMARK INTER + INTRA:          -8.513
REMARK INTER:                  -8.243
REMARK INTRA:                  -0.270
REMARK UNBOUND:                -0.272
REMARK SMILES O=c1cc(-c2ccc(O)c(O)c2)oc2cc(O)cc(O)c12
REMARK SMILES IDX 4 1 3 2 2 3 1 4 21 5 19 6 18 7 16 8 15 9 14 10 13 11 5 12
REMARK SMILES IDX 6 13 7 14 8 15 12 16 10 17 9 18 11 20 20 22 17 24
REMARK H PARENT 9 19 11 21 20 23 17 25
REMARK Flexibility Score: inf
ROOT
ATOM      1  C   UNL     1      35.869  29.909  43.190  1.00  0.00     0.138 A 
ATOM      2  C   UNL     1      35.787  30.996  42.308  1.00  0.00     0.100 A 
ATOM      3  C   UNL     1      34.939  32.064  42.607  1.00  0.00     0.197 A 
ATOM      4  O   UNL     1      34.934  33.052  41.828  1.00  0.00    -0.289 OA
ATOM      5  C   UNL     1      34.148  32.027  43.779  1.00  0.00     0.107 A 
ATOM      6  C   UNL     1      33.219  33.040  44.163  1.00  0.00     0.134 A 
ATOM      7  C   UNL     1      32.575  32.951  45.405  1.00  0.00     0.093 A 
ATOM      8  C   UNL     1      32.782  31.859  46.246  1.00  0.00     0.123 A 
ATOM      9  C   UNL     1      33.647  30.836  45.856  1.00  0.00     0.094 A 
ATOM     10  C   UNL     1      34.329  30.912  44.640  1.00  0.00     0.146 A 
ATOM     11  O   UNL     1      35.156  29.925  44.311  1.00  0.00    -0.456 OA
ENDROOT
BRANCH   1  12
ATOM     12  C   UNL     1      36.753  28.747  42.920  1.00  0.00     0.021 A 
ATOM     13  C   UNL     1      37.727  28.385  43.867  1.00  0.00     0.016 A 
ATOM     14  C   UNL     1      38.566  27.291  43.642  1.00  0.00     0.051 A 
ATOM     15  C   UNL     1      38.440  26.533  42.471  1.00  0.00     0.157 A 
ATOM     16  C   UNL     1      36.623  27.973  41.752  1.00  0.00     0.062 A 
ATOM     17  C   UNL     1      37.460  26.874  41.524  1.00  0.00     0.158 A 
BRANCH  15  18
ATOM     18  O   UNL     1      39.279  25.443  42.248  1.00  0.00    -0.504 OA
ATOM     19  H   UNL     1      39.718  24.945  43.014  1.00  0.00     0.293 HD
ENDBRANCH  15  18
BRANCH  17  20
ATOM     20  O   UNL     1      37.303  26.133  40.354  1.00  0.00    -0.504 OA
ATOM     21  H   UNL     1      37.476  25.136  40.320  1.00  0.00     0.293 HD
ENDBRANCH  17  20
ENDBRANCH   1  12
BRANCH   6  22
ATOM     22  O   UNL     1      32.876  34.132  43.360  1.00  0.00    -0.507 OA
ATOM     23  H   UNL     1      33.478  34.917  43.167  1.00  0.00     0.293 HD
ENDBRANCH   6  22
BRANCH   8  24
ATOM     24  O   UNL     1      32.113  31.797  47.467  1.00  0.00    -0.508 OA
ATOM     25  H   UNL     1      32.525  32.167  48.316  1.00  0.00     0.293 HD
ENDBRANCH   8  24
TORSDOF 5
ENDMDL
MODEL 9
REMARK VINA RESULT:    -6.986      7.642     11.455
REMARK INTER + INTRA:          -8.483
REMARK INTER:                  -8.209
REMARK INTRA:                  -0.275
REMARK UNBOUND:                -0.272
REMARK SMILES O=c1cc(-c2ccc(O)c(O)c2)oc2cc(O)cc(O)c12
REMARK SMILES IDX 4 1 3 2 2 3 1 4 21 5 19 6 18 7 16 8 15 9 14 10 13 11 5 12
REMARK SMILES IDX 6 13 7 14 8 15 12 16 10 17 9 18 11 20 20 22 17 24
REMARK H PARENT 9 19 11 21 20 23 17 25
REMARK Flexibility Score: inf
ROOT
ATOM      1  C   UNL     1      35.768  33.503  46.195  1.00  0.00     0.138 A 
ATOM      2  C   UNL     1      34.663  34.205  46.696  1.00  0.00     0.100 A 
ATOM      3  C   UNL     1      34.842  35.119  47.736  1.00  0.00     0.197 A 
ATOM      4  O   UNL     1      33.843  35.780  48.123  1.00  0.00    -0.289 OA
ATOM      5  C   UNL     1      36.127  35.306  48.296  1.00  0.00     0.107 A 
ATOM      6  C   UNL     1      36.420  36.180  49.386  1.00  0.00     0.134 A 
ATOM      7  C   UNL     1      37.751  36.370  49.779  1.00  0.00     0.093 A 
ATOM      8  C   UNL     1      38.791  35.674  49.164  1.00  0.00     0.123 A 
ATOM      9  C   UNL     1      38.510  34.776  48.134  1.00  0.00     0.094 A 
ATOM     10  C   UNL     1      37.198  34.590  47.696  1.00  0.00     0.146 A 
ATOM     11  O   UNL     1      36.974  33.737  46.702  1.00  0.00    -0.456 OA
ENDROOT
BRANCH   1  12
ATOM     12  C   UNL     1      35.635  32.518  45.091  1.00  0.00     0.021 A 
ATOM     13  C   UNL     1      36.497  32.600  43.984  1.00  0.00     0.016 A 
ATOM     14  C   UNL     1      36.397  31.682  42.935  1.00  0.00     0.051 A 
ATOM     15  C   UNL     1      35.442  30.659  42.980  1.00  0.00     0.157 A 
ATOM     16  C   UNL     1      34.685  31.479  45.135  1.00  0.00     0.062 A 
ATOM     17  C   UNL     1      34.585  30.556  44.088  1.00  0.00     0.158 A 
BRANCH  15  18
ATOM     18  O   UNL     1      35.344  29.745  41.932  1.00  0.00    -0.504 OA
ATOM     19  H   UNL     1      36.066  29.669  41.225  1.00  0.00     0.293 HD
ENDBRANCH  15  18
BRANCH  17  20
ATOM     20  O   UNL     1      33.630  29.543  44.167  1.00  0.00    -0.504 OA
ATOM     21  H   UNL     1      33.279  29.202  45.053  1.00  0.00     0.293 HD
ENDBRANCH  17  20
ENDBRANCH   1  12
BRANCH   6  22
ATOM     22  O   UNL     1      35.448  36.860  50.124  1.00  0.00    -0.507 OA
ATOM     23  H   UNL     1      34.484  36.576  50.207  1.00  0.00     0.293 HD
ENDBRANCH   6  22
BRANCH   8  24
ATOM     24  O   UNL     1      40.101  35.878  49.592  1.00  0.00    -0.508 OA
ATOM     25  H   UNL     1      40.880  35.858  48.944  1.00  0.00     0.293 HD
ENDBRANCH   8  24
TORSDOF 5
ENDMDL
