MODEL 1
REMARK VINA RESULT:    -3.270      0.000      0.000
REMARK INTER + INTRA:         -13.887
REMARK INTER:                  -8.240
REMARK INTRA:                  -5.647
REMARK UNBOUND:                -5.647
REMARK SMILES CCCCCCCCCCCCCCCCCCCCCCCCCCCC(=O)[O-]
REMARK SMILES IDX 15 1 16 2 17 3 18 4 19 5 20 6 21 7 22 8 23 9 24 10 25 11
REMARK SMILES IDX 26 12 27 13 28 14 29 15 30 16 14 17 13 18 12 19 11 20 10 21
REMARK SMILES IDX 9 22 8 23 7 24 6 25 5 26 4 27 3 28 2 29 1 30
REMARK H PARENT
REMARK Flexibility Score: inf
ROOT
ATOM      1  C   UNL     1      21.767   3.913  31.113  1.00  0.00     0.000 C 
ENDROOT
BRANCH   1   2
ATOM      2  C   UNL     1      20.413   4.379  31.667  1.00  0.00     0.000 C 
BRANCH   2   3
ATOM      3  C   UNL     1      20.389   4.267  33.199  1.00  0.00     0.000 C 
BRANCH   3   4
ATOM      4  C   UNL     1      20.430   5.635  33.906  1.00  0.00     0.000 C 
BRANCH   4   5
ATOM      5  C   UNL     1      21.792   6.349  33.861  1.00  0.00     0.000 C 
BRANCH   5   6
ATOM      6  C   UNL     1      21.763   7.782  33.295  1.00  0.00     0.000 C 
BRANCH   6   7
ATOM      7  C   UNL     1      21.908   7.853  31.759  1.00  0.00     0.000 C 
BRANCH   7   8
ATOM      8  C   UNL     1      23.164   7.123  31.253  1.00  0.00     0.000 C 
BRANCH   8   9
ATOM      9  C   UNL     1      24.460   7.894  31.553  1.00  0.00     0.000 C 
BRANCH   9  10
ATOM     10  C   UNL     1      25.303   8.142  30.290  1.00  0.00     0.000 C 
BRANCH  10  11
ATOM     11  C   UNL     1      24.455   8.602  29.093  1.00  0.00     0.000 C 
BRANCH  11  12
ATOM     12  C   UNL     1      24.717   7.770  27.826  1.00  0.00     0.006 C 
BRANCH  12  13
ATOM     13  C   UNL     1      23.670   8.029  26.735  1.00  0.00     0.053 C 
BRANCH  13  14
ATOM     14  C   UNL     1      23.281   6.769  26.025  1.00  0.00     0.041 C 
ATOM     15  O   UNL     1      24.114   6.168  25.298  1.00  0.00    -0.550 OA
ATOM     16  O   UNL     1      21.995   6.263  26.159  1.00  0.00    -0.550 OA
ENDBRANCH  13  14
ENDBRANCH  12  13
ENDBRANCH  11  12
ENDBRANCH  10  11
ENDBRANCH   9  10
ENDBRANCH   8   9
ENDBRANCH   7   8
ENDBRANCH   6   7
ENDBRANCH   5   6
ENDBRANCH   4   5
ENDBRANCH   3   4
ENDBRANCH   2   3
ENDBRANCH   1   2
BRANCH   1  17
ATOM     17  C   UNL     1      21.729   2.479  30.563  1.00  0.00     0.000 C 
BRANCH  17  18
ATOM     18  C   UNL     1      22.618   1.515  31.370  1.00  0.00     0.000 C 
BRANCH  18  19
ATOM     19  C   UNL     1      22.094   1.265  32.798  1.00  0.00     0.000 C 
BRANCH  19  20
ATOM     20  C   UNL     1      23.163   1.301  33.907  1.00  0.00     0.000 C 
BRANCH  20  21
ATOM     21  C   UNL     1      24.411   2.108  33.517  1.00  0.00     0.000 C 
BRANCH  21  22
ATOM     22  C   UNL     1      24.263   3.584  33.917  1.00  0.00    -0.000 C 
BRANCH  22  23
ATOM     23  C   UNL     1      24.999   4.530  32.945  1.00  0.00    -0.000 C 
BRANCH  23  24
ATOM     24  C   UNL     1      25.200   3.942  31.538  1.00  0.00    -0.000 C 
BRANCH  24  25
ATOM     25  C   UNL     1      26.353   4.605  30.772  1.00  0.00    -0.000 C 
BRANCH  25  26
ATOM     26  C   UNL     1      26.039   4.697  29.273  1.00  0.00    -0.000 C 
BRANCH  26  27
ATOM     27  C   UNL     1      24.556   4.410  29.004  1.00  0.00    -0.000 C 
BRANCH  27  28
ATOM     28  C   UNL     1      24.333   3.548  27.749  1.00  0.00    -0.000 C 
BRANCH  28  29
ATOM     29  C   UNL     1      25.318   2.364  27.635  1.00  0.00    -0.003 C 
ATOM     30  C   UNL     1      25.164   1.370  28.787  1.00  0.00     0.004 C 
ENDBRANCH  28  29
ENDBRANCH  27  28
ENDBRANCH  26  27
ENDBRANCH  25  26
ENDBRANCH  24  25
ENDBRANCH  23  24
ENDBRANCH  22  23
ENDBRANCH  21  22
ENDBRANCH  20  21
ENDBRANCH  19  20
ENDBRANCH  18  19
ENDBRANCH  17  18
ENDBRANCH   1  17
TORSDOF 26
ENDMDL
MODEL 2
REMARK VINA RESULT:    -3.229      1.600      4.816
REMARK INTER + INTRA:         -13.784
REMARK INTER:                  -8.264
REMARK INTRA:                  -5.521
REMARK UNBOUND:                -5.647
REMARK SMILES CCCCCCCCCCCCCCCCCCCCCCCCCCCC(=O)[O-]
REMARK SMILES IDX 15 1 16 2 17 3 18 4 19 5 20 6 21 7 22 8 23 9 24 10 25 11
REMARK SMILES IDX 26 12 27 13 28 14 29 15 30 16 14 17 13 18 12 19 11 20 10 21
REMARK SMILES IDX 9 22 8 23 7 24 6 25 5 26 4 27 3 28 2 29 1 30
REMARK H PARENT
REMARK Flexibility Score: inf
ROOT
ATOM      1  C   UNL     1      21.399   7.035  31.560  1.00  0.00     0.000 C 
ENDROOT
BRANCH   1   2
ATOM      2  C   UNL     1      21.464   5.622  30.962  1.00  0.00     0.000 C 
BRANCH   2   3
ATOM      3  C   UNL     1      20.217   4.813  31.350  1.00  0.00     0.000 C 
BRANCH   3   4
ATOM      4  C   UNL     1      19.929   4.836  32.862  1.00  0.00     0.000 C 
BRANCH   4   5
ATOM      5  C   UNL     1      20.910   4.020  33.723  1.00  0.00     0.000 C 
BRANCH   5   6
ATOM      6  C   UNL     1      21.392   2.699  33.093  1.00  0.00     0.000 C 
BRANCH   6   7
ATOM      7  C   UNL     1      22.927   2.532  33.087  1.00  0.00     0.000 C 
BRANCH   7   8
ATOM      8  C   UNL     1      23.491   2.336  31.668  1.00  0.00     0.000 C 
BRANCH   8   9
ATOM      9  C   UNL     1      22.394   2.077  30.623  1.00  0.00     0.000 C 
BRANCH   9  10
ATOM     10  C   UNL     1      22.782   2.583  29.223  1.00  0.00     0.000 C 
BRANCH  10  11
ATOM     11  C   UNL     1      23.951   3.582  29.259  1.00  0.00     0.000 C 
BRANCH  11  12
ATOM     12  C   UNL     1      24.169   4.287  27.909  1.00  0.00     0.006 C 
BRANCH  12  13
ATOM     13  C   UNL     1      23.505   5.669  27.863  1.00  0.00     0.053 C 
BRANCH  13  14
ATOM     14  C   UNL     1      23.946   6.461  26.671  1.00  0.00     0.041 C 
ATOM     15  O   UNL     1      23.518   6.169  25.523  1.00  0.00    -0.550 OA
ATOM     16  O   UNL     1      24.835   7.515  26.825  1.00  0.00    -0.550 OA
ENDBRANCH  13  14
ENDBRANCH  12  13
ENDBRANCH  11  12
ENDBRANCH  10  11
ENDBRANCH   9  10
ENDBRANCH   8   9
ENDBRANCH   7   8
ENDBRANCH   6   7
ENDBRANCH   5   6
ENDBRANCH   4   5
ENDBRANCH   3   4
ENDBRANCH   2   3
ENDBRANCH   1   2
BRANCH   1  17
ATOM     17  C   UNL     1      22.482   7.288  32.620  1.00  0.00     0.000 C 
BRANCH  17  18
ATOM     18  C   UNL     1      23.638   6.275  32.534  1.00  0.00     0.000 C 
BRANCH  18  19
ATOM     19  C   UNL     1      24.243   5.932  33.909  1.00  0.00     0.000 C 
BRANCH  19  20
ATOM     20  C   UNL     1      25.561   5.135  33.868  1.00  0.00     0.000 C 
BRANCH  20  21
ATOM     21  C   UNL     1      26.028   4.815  32.440  1.00  0.00     0.000 C 
BRANCH  21  22
ATOM     22  C   UNL     1      27.251   5.661  32.055  1.00  0.00    -0.000 C 
BRANCH  22  23
ATOM     23  C   UNL     1      27.344   5.895  30.533  1.00  0.00    -0.000 C 
BRANCH  23  24
ATOM     24  C   UNL     1      26.201   6.752  29.964  1.00  0.00    -0.000 C 
BRANCH  24  25
ATOM     25  C   UNL     1      26.480   8.258  30.054  1.00  0.00    -0.000 C 
BRANCH  25  26
ATOM     26  C   UNL     1      25.304   9.001  30.700  1.00  0.00    -0.000 C 
BRANCH  26  27
ATOM     27  C   UNL     1      24.049   8.912  29.821  1.00  0.00    -0.000 C 
BRANCH  27  28
ATOM     28  C   UNL     1      23.241  10.221  29.803  1.00  0.00    -0.000 C 
BRANCH  28  29
ATOM     29  C   UNL     1      22.911  10.719  28.380  1.00  0.00    -0.003 C 
ATOM     30  C   UNL     1      23.278  12.191  28.182  1.00  0.00     0.004 C 
ENDBRANCH  28  29
ENDBRANCH  27  28
ENDBRANCH  26  27
ENDBRANCH  25  26
ENDBRANCH  24  25
ENDBRANCH  23  24
ENDBRANCH  22  23
ENDBRANCH  21  22
ENDBRANCH  20  21
ENDBRANCH  19  20
ENDBRANCH  18  19
ENDBRANCH  17  18
ENDBRANCH   1  17
TORSDOF 26
ENDMDL
MODEL 3
REMARK VINA RESULT:    -3.205      2.193      6.749
REMARK INTER + INTRA:         -13.724
REMARK INTER:                  -7.873
REMARK INTRA:                  -5.851
REMARK UNBOUND:                -5.647
REMARK SMILES CCCCCCCCCCCCCCCCCCCCCCCCCCCC(=O)[O-]
REMARK SMILES IDX 15 1 16 2 17 3 18 4 19 5 20 6 21 7 22 8 23 9 24 10 25 11
REMARK SMILES IDX 26 12 27 13 28 14 29 15 30 16 14 17 13 18 12 19 11 20 10 21
REMARK SMILES IDX 9 22 8 23 7 24 6 25 5 26 4 27 3 28 2 29 1 30
REMARK H PARENT
REMARK Flexibility Score: inf
ROOT
ATOM      1  C   UNL     1      24.370   1.758  27.499  1.00  0.00     0.000 C 
ENDROOT
BRANCH   1   2
ATOM      2  C   UNL     1      25.627   0.954  27.864  1.00  0.00     0.000 C 
BRANCH   2   3
ATOM      3  C   UNL     1      26.887   1.645  27.320  1.00  0.00     0.000 C 
BRANCH   3   4
ATOM      4  C   UNL     1      27.744   2.294  28.422  1.00  0.00     0.000 C 
BRANCH   4   5
ATOM      5  C   UNL     1      27.257   3.675  28.895  1.00  0.00     0.000 C 
BRANCH   5   6
ATOM      6  C   UNL     1      26.802   3.741  30.366  1.00  0.00     0.000 C 
BRANCH   6   7
ATOM      7  C   UNL     1      27.122   2.468  31.179  1.00  0.00     0.000 C 
BRANCH   7   8
ATOM      8  C   UNL     1      25.863   1.640  31.495  1.00  0.00     0.000 C 
BRANCH   8   9
ATOM      9  C   UNL     1      25.079   2.189  32.698  1.00  0.00     0.000 C 
BRANCH   9  10
ATOM     10  C   UNL     1      23.561   1.979  32.556  1.00  0.00     0.000 C 
BRANCH  10  11
ATOM     11  C   UNL     1      22.806   2.219  33.874  1.00  0.00     0.000 C 
BRANCH  11  12
ATOM     12  C   UNL     1      21.574   3.124  33.693  1.00  0.00     0.006 C 
BRANCH  12  13
ATOM     13  C   UNL     1      21.361   3.528  32.229  1.00  0.00     0.053 C 
BRANCH  13  14
ATOM     14  C   UNL     1      20.326   4.601  32.091  1.00  0.00     0.041 C 
ATOM     15  O   UNL     1      19.842   5.151  33.115  1.00  0.00    -0.550 OA
ATOM     16  O   UNL     1      19.887   4.989  30.832  1.00  0.00    -0.550 OA
ENDBRANCH  13  14
ENDBRANCH  12  13
ENDBRANCH  11  12
ENDBRANCH  10  11
ENDBRANCH   9  10
ENDBRANCH   8   9
ENDBRANCH   7   8
ENDBRANCH   6   7
ENDBRANCH   5   6
ENDBRANCH   4   5
ENDBRANCH   3   4
ENDBRANCH   2   3
ENDBRANCH   1   2
BRANCH   1  17
ATOM     17  C   UNL     1      23.499   2.095  28.719  1.00  0.00     0.000 C 
BRANCH  17  18
ATOM     18  C   UNL     1      23.423   3.609  28.988  1.00  0.00     0.000 C 
BRANCH  18  19
ATOM     19  C   UNL     1      23.911   4.458  27.799  1.00  0.00     0.000 C 
BRANCH  19  20
ATOM     20  C   UNL     1      22.960   5.590  27.364  1.00  0.00     0.000 C 
BRANCH  20  21
ATOM     21  C   UNL     1      23.636   6.633  26.461  1.00  0.00     0.000 C 
BRANCH  21  22
ATOM     22  C   UNL     1      23.905   7.938  27.227  1.00  0.00    -0.000 C 
BRANCH  22  23
ATOM     23  C   UNL     1      25.142   7.833  28.143  1.00  0.00    -0.000 C 
BRANCH  23  24
ATOM     24  C   UNL     1      24.852   8.158  29.618  1.00  0.00    -0.000 C 
BRANCH  24  25
ATOM     25  C   UNL     1      23.352   8.201  29.938  1.00  0.00    -0.000 C 
BRANCH  25  26
ATOM     26  C   UNL     1      22.979   7.142  30.983  1.00  0.00    -0.000 C 
BRANCH  26  27
ATOM     27  C   UNL     1      24.173   6.228  31.290  1.00  0.00    -0.000 C 
BRANCH  27  28
ATOM     28  C   UNL     1      24.175   5.716  32.740  1.00  0.00    -0.000 C 
BRANCH  28  29
ATOM     29  C   UNL     1      25.521   5.931  33.466  1.00  0.00    -0.003 C 
ATOM     30  C   UNL     1      26.547   6.643  32.585  1.00  0.00     0.004 C 
ENDBRANCH  28  29
ENDBRANCH  27  28
ENDBRANCH  26  27
ENDBRANCH  25  26
ENDBRANCH  24  25
ENDBRANCH  23  24
ENDBRANCH  22  23
ENDBRANCH  21  22
ENDBRANCH  20  21
ENDBRANCH  19  20
ENDBRANCH  18  19
ENDBRANCH  17  18
ENDBRANCH   1  17
TORSDOF 26
ENDMDL
MODEL 4
REMARK VINA RESULT:    -3.166      1.975      5.716
REMARK INTER + INTRA:         -13.625
REMARK INTER:                  -8.722
REMARK INTRA:                  -4.903
REMARK UNBOUND:                -5.647
REMARK SMILES CCCCCCCCCCCCCCCCCCCCCCCCCCCC(=O)[O-]
REMARK SMILES IDX 15 1 16 2 17 3 18 4 19 5 20 6 21 7 22 8 23 9 24 10 25 11
REMARK SMILES IDX 26 12 27 13 28 14 29 15 30 16 14 17 13 18 12 19 11 20 10 21
REMARK SMILES IDX 9 22 8 23 7 24 6 25 5 26 4 27 3 28 2 29 1 30
REMARK H PARENT
REMARK Flexibility Score: inf
ROOT
ATOM      1  C   UNL     1      21.478   6.835  31.818  1.00  0.00     0.000 C 
ENDROOT
BRANCH   1   2
ATOM      2  C   UNL     1      21.159   5.591  30.975  1.00  0.00     0.000 C 
BRANCH   2   3
ATOM      3  C   UNL     1      20.210   4.652  31.735  1.00  0.00     0.000 C 
BRANCH   3   4
ATOM      4  C   UNL     1      20.301   4.808  33.264  1.00  0.00     0.000 C 
BRANCH   4   5
ATOM      5  C   UNL     1      21.371   3.936  33.944  1.00  0.00     0.000 C 
BRANCH   5   6
ATOM      6  C   UNL     1      21.700   2.617  33.218  1.00  0.00     0.000 C 
BRANCH   6   7
ATOM      7  C   UNL     1      23.204   2.268  33.201  1.00  0.00     0.000 C 
BRANCH   7   8
ATOM      8  C   UNL     1      23.654   1.673  31.855  1.00  0.00     0.000 C 
BRANCH   8   9
ATOM      9  C   UNL     1      22.947   2.320  30.653  1.00  0.00     0.000 C 
BRANCH   9  10
ATOM     10  C   UNL     1      22.857   1.373  29.444  1.00  0.00     0.000 C 
BRANCH  10  11
ATOM     11  C   UNL     1      24.233   1.061  28.833  1.00  0.00     0.000 C 
BRANCH  11  12
ATOM     12  C   UNL     1      24.260   1.252  27.306  1.00  0.00     0.006 C 
BRANCH  12  13
ATOM     13  C   UNL     1      25.639   1.696  26.802  1.00  0.00     0.053 C 
BRANCH  13  14
ATOM     14  C   UNL     1      25.741   1.615  25.310  1.00  0.00     0.041 C 
ATOM     15  O   UNL     1      26.789   1.173  24.769  1.00  0.00    -0.550 OA
ATOM     16  O   UNL     1      24.683   2.034  24.516  1.00  0.00    -0.550 OA
ENDBRANCH  13  14
ENDBRANCH  12  13
ENDBRANCH  11  12
ENDBRANCH  10  11
ENDBRANCH   9  10
ENDBRANCH   8   9
ENDBRANCH   7   8
ENDBRANCH   6   7
ENDBRANCH   5   6
ENDBRANCH   4   5
ENDBRANCH   3   4
ENDBRANCH   2   3
ENDBRANCH   1   2
BRANCH   1  17
ATOM     17  C   UNL     1      22.986   7.093  31.961  1.00  0.00     0.000 C 
BRANCH  17  18
ATOM     18  C   UNL     1      23.830   5.849  31.631  1.00  0.00     0.000 C 
BRANCH  18  19
ATOM     19  C   UNL     1      25.346   6.102  31.741  1.00  0.00     0.000 C 
BRANCH  19  20
ATOM     20  C   UNL     1      26.169   5.719  30.496  1.00  0.00     0.000 C 
BRANCH  20  21
ATOM     21  C   UNL     1      25.544   4.570  29.689  1.00  0.00     0.000 C 
BRANCH  21  22
ATOM     22  C   UNL     1      25.129   5.041  28.286  1.00  0.00    -0.000 C 
BRANCH  22  23
ATOM     23  C   UNL     1      23.636   4.781  28.001  1.00  0.00    -0.000 C 
BRANCH  23  24
ATOM     24  C   UNL     1      22.942   5.917  27.230  1.00  0.00    -0.000 C 
BRANCH  24  25
ATOM     25  C   UNL     1      23.924   6.982  26.723  1.00  0.00    -0.000 C 
BRANCH  25  26
ATOM     26  C   UNL     1      23.506   8.383  27.185  1.00  0.00    -0.000 C 
BRANCH  26  27
ATOM     27  C   UNL     1      23.983   8.654  28.618  1.00  0.00    -0.000 C 
BRANCH  27  28
ATOM     28  C   UNL     1      23.136   9.718  29.337  1.00  0.00    -0.000 C 
BRANCH  28  29
ATOM     29  C   UNL     1      23.804  11.109  29.381  1.00  0.00    -0.003 C 
ATOM     30  C   UNL     1      23.376  11.917  30.607  1.00  0.00     0.004 C 
ENDBRANCH  28  29
ENDBRANCH  27  28
ENDBRANCH  26  27
ENDBRANCH  25  26
ENDBRANCH  24  25
ENDBRANCH  23  24
ENDBRANCH  22  23
ENDBRANCH  21  22
ENDBRANCH  20  21
ENDBRANCH  19  20
ENDBRANCH  18  19
ENDBRANCH  17  18
ENDBRANCH   1  17
TORSDOF 26
ENDMDL
MODEL 5
REMARK VINA RESULT:    -3.148      2.541      5.036
REMARK INTER + INTRA:         -13.581
REMARK INTER:                  -8.395
REMARK INTRA:                  -5.186
REMARK UNBOUND:                -5.647
REMARK SMILES CCCCCCCCCCCCCCCCCCCCCCCCCCCC(=O)[O-]
REMARK SMILES IDX 15 1 16 2 17 3 18 4 19 5 20 6 21 7 22 8 23 9 24 10 25 11
REMARK SMILES IDX 26 12 27 13 28 14 29 15 30 16 14 17 13 18 12 19 11 20 10 21
REMARK SMILES IDX 9 22 8 23 7 24 6 25 5 26 4 27 3 28 2 29 1 30
REMARK H PARENT
REMARK Flexibility Score: inf
ROOT
ATOM      1  C   UNL     1      23.236   5.370  27.751  1.00  0.00     0.000 C 
ENDROOT
BRANCH   1   2
ATOM      2  C   UNL     1      23.029   6.178  26.461  1.00  0.00     0.000 C 
BRANCH   2   3
ATOM      3  C   UNL     1      23.606   7.594  26.613  1.00  0.00     0.000 C 
BRANCH   3   4
ATOM      4  C   UNL     1      24.921   7.629  27.412  1.00  0.00     0.000 C 
BRANCH   4   5
ATOM      5  C   UNL     1      24.832   8.327  28.781  1.00  0.00     0.000 C 
BRANCH   5   6
ATOM      6  C   UNL     1      26.161   8.898  29.313  1.00  0.00     0.000 C 
BRANCH   6   7
ATOM      7  C   UNL     1      26.280   8.877  30.853  1.00  0.00     0.000 C 
BRANCH   7   8
ATOM      8  C   UNL     1      26.398  10.289  31.452  1.00  0.00     0.000 C 
BRANCH   8   9
ATOM      9  C   UNL     1      25.093  10.767  32.108  1.00  0.00     0.000 C 
BRANCH   9  10
ATOM     10  C   UNL     1      24.035   9.653  32.197  1.00  0.00     0.000 C 
BRANCH  10  11
ATOM     11  C   UNL     1      22.772   9.970  31.379  1.00  0.00     0.000 C 
BRANCH  11  12
ATOM     12  C   UNL     1      22.841  11.346  30.693  1.00  0.00     0.006 C 
BRANCH  12  13
ATOM     13  C   UNL     1      22.886  11.229  29.164  1.00  0.00     0.053 C 
BRANCH  13  14
ATOM     14  C   UNL     1      23.746  12.289  28.548  1.00  0.00     0.041 C 
ATOM     15  O   UNL     1      23.251  13.116  27.738  1.00  0.00    -0.550 OA
ATOM     16  O   UNL     1      25.097  12.359  28.861  1.00  0.00    -0.550 OA
ENDBRANCH  13  14
ENDBRANCH  12  13
ENDBRANCH  11  12
ENDBRANCH  10  11
ENDBRANCH   9  10
ENDBRANCH   8   9
ENDBRANCH   7   8
ENDBRANCH   6   7
ENDBRANCH   5   6
ENDBRANCH   4   5
ENDBRANCH   3   4
ENDBRANCH   2   3
ENDBRANCH   1   2
BRANCH   1  17
ATOM     17  C   UNL     1      24.056   4.089  27.531  1.00  0.00     0.000 C 
BRANCH  17  18
ATOM     18  C   UNL     1      24.806   3.645  28.799  1.00  0.00     0.000 C 
BRANCH  18  19
ATOM     19  C   UNL     1      24.219   2.368  29.432  1.00  0.00     0.000 C 
BRANCH  19  20
ATOM     20  C   UNL     1      22.690   2.374  29.628  1.00  0.00     0.000 C 
BRANCH  20  21
ATOM     21  C   UNL     1      22.265   2.052  31.068  1.00  0.00     0.000 C 
BRANCH  21  22
ATOM     22  C   UNL     1      23.452   2.172  32.036  1.00  0.00    -0.000 C 
BRANCH  22  23
ATOM     23  C   UNL     1      23.074   2.918  33.333  1.00  0.00    -0.000 C 
BRANCH  23  24
ATOM     24  C   UNL     1      24.043   4.054  33.701  1.00  0.00    -0.000 C 
BRANCH  24  25
ATOM     25  C   UNL     1      24.804   4.608  32.489  1.00  0.00    -0.000 C 
BRANCH  25  26
ATOM     26  C   UNL     1      24.280   5.994  32.094  1.00  0.00    -0.000 C 
BRANCH  26  27
ATOM     27  C   UNL     1      23.185   5.883  31.025  1.00  0.00    -0.000 C 
BRANCH  27  28
ATOM     28  C   UNL     1      21.800   6.306  31.545  1.00  0.00    -0.000 C 
BRANCH  28  29
ATOM     29  C   UNL     1      20.654   5.401  31.044  1.00  0.00    -0.003 C 
ATOM     30  C   UNL     1      19.947   4.676  32.190  1.00  0.00     0.004 C 
ENDBRANCH  28  29
ENDBRANCH  27  28
ENDBRANCH  26  27
ENDBRANCH  25  26
ENDBRANCH  24  25
ENDBRANCH  23  24
ENDBRANCH  22  23
ENDBRANCH  21  22
ENDBRANCH  20  21
ENDBRANCH  19  20
ENDBRANCH  18  19
ENDBRANCH  17  18
ENDBRANCH   1  17
TORSDOF 26
ENDMDL
MODEL 6
REMARK VINA RESULT:    -3.126      1.544      5.059
REMARK INTER + INTRA:         -13.524
REMARK INTER:                  -8.134
REMARK INTRA:                  -5.390
REMARK UNBOUND:                -5.647
REMARK SMILES CCCCCCCCCCCCCCCCCCCCCCCCCCCC(=O)[O-]
REMARK SMILES IDX 15 1 16 2 17 3 18 4 19 5 20 6 21 7 22 8 23 9 24 10 25 11
REMARK SMILES IDX 26 12 27 13 28 14 29 15 30 16 14 17 13 18 12 19 11 20 10 21
REMARK SMILES IDX 9 22 8 23 7 24 6 25 5 26 4 27 3 28 2 29 1 30
REMARK H PARENT
REMARK Flexibility Score: inf
ROOT
ATOM      1  C   UNL     1      23.247   2.549  28.713  1.00  0.00     0.000 C 
ENDROOT
BRANCH   1   2
ATOM      2  C   UNL     1      24.168   1.366  28.379  1.00  0.00     0.000 C 
BRANCH   2   3
ATOM      3  C   UNL     1      25.630   1.829  28.287  1.00  0.00     0.000 C 
BRANCH   3   4
ATOM      4  C   UNL     1      26.589   0.971  29.133  1.00  0.00     0.000 C 
BRANCH   4   5
ATOM      5  C   UNL     1      26.381   1.072  30.655  1.00  0.00     0.000 C 
BRANCH   5   6
ATOM      6  C   UNL     1      27.501   1.799  31.423  1.00  0.00     0.000 C 
BRANCH   6   7
ATOM      7  C   UNL     1      27.081   3.169  31.997  1.00  0.00     0.000 C 
BRANCH   7   8
ATOM      8  C   UNL     1      26.746   4.190  30.895  1.00  0.00     0.000 C 
BRANCH   8   9
ATOM      9  C   UNL     1      25.329   4.771  31.034  1.00  0.00     0.000 C 
BRANCH   9  10
ATOM     10  C   UNL     1      25.257   6.252  30.625  1.00  0.00     0.000 C 
BRANCH  10  11
ATOM     11  C   UNL     1      25.041   6.438  29.114  1.00  0.00     0.000 C 
BRANCH  11  12
ATOM     12  C   UNL     1      23.556   6.611  28.745  1.00  0.00     0.006 C 
BRANCH  12  13
ATOM     13  C   UNL     1      23.205   5.926  27.419  1.00  0.00     0.053 C 
BRANCH  13  14
ATOM     14  C   UNL     1      23.459   6.819  26.244  1.00  0.00     0.041 C 
ATOM     15  O   UNL     1      23.160   8.041  26.301  1.00  0.00    -0.550 OA
ATOM     16  O   UNL     1      24.018   6.303  25.083  1.00  0.00    -0.550 OA
ENDBRANCH  13  14
ENDBRANCH  12  13
ENDBRANCH  11  12
ENDBRANCH  10  11
ENDBRANCH   9  10
ENDBRANCH   8   9
ENDBRANCH   7   8
ENDBRANCH   6   7
ENDBRANCH   5   6
ENDBRANCH   4   5
ENDBRANCH   3   4
ENDBRANCH   2   3
ENDBRANCH   1   2
BRANCH   1  17
ATOM     17  C   UNL     1      22.624   2.447  30.114  1.00  0.00     0.000 C 
BRANCH  17  18
ATOM     18  C   UNL     1      22.636   1.008  30.660  1.00  0.00     0.000 C 
BRANCH  18  19
ATOM     19  C   UNL     1      22.886   0.942  32.179  1.00  0.00     0.000 C 
BRANCH  19  20
ATOM     20  C   UNL     1      23.617   2.159  32.779  1.00  0.00     0.000 C 
BRANCH  20  21
ATOM     21  C   UNL     1      22.874   2.782  33.971  1.00  0.00     0.000 C 
BRANCH  21  22
ATOM     22  C   UNL     1      21.362   2.853  33.705  1.00  0.00    -0.000 C 
BRANCH  22  23
ATOM     23  C   UNL     1      20.859   4.306  33.577  1.00  0.00    -0.000 C 
BRANCH  23  24
ATOM     24  C   UNL     1      20.262   4.638  32.199  1.00  0.00    -0.000 C 
BRANCH  24  25
ATOM     25  C   UNL     1      21.173   5.538  31.354  1.00  0.00    -0.000 C 
BRANCH  25  26
ATOM     26  C   UNL     1      21.823   6.630  32.213  1.00  0.00    -0.000 C 
BRANCH  26  27
ATOM     27  C   UNL     1      21.731   7.998  31.524  1.00  0.00    -0.000 C 
BRANCH  27  28
ATOM     28  C   UNL     1      22.992   8.855  31.730  1.00  0.00    -0.000 C 
BRANCH  28  29
ATOM     29  C   UNL     1      23.082  10.058  30.766  1.00  0.00    -0.003 C 
ATOM     30  C   UNL     1      24.404  10.087  30.000  1.00  0.00     0.004 C 
ENDBRANCH  28  29
ENDBRANCH  27  28
ENDBRANCH  26  27
ENDBRANCH  25  26
ENDBRANCH  24  25
ENDBRANCH  23  24
ENDBRANCH  22  23
ENDBRANCH  21  22
ENDBRANCH  20  21
ENDBRANCH  19  20
ENDBRANCH  18  19
ENDBRANCH  17  18
ENDBRANCH   1  17
TORSDOF 26
ENDMDL
MODEL 7
REMARK VINA RESULT:    -3.089      3.204      4.967
REMARK INTER + INTRA:         -13.432
REMARK INTER:                  -7.952
REMARK INTRA:                  -5.480
REMARK UNBOUND:                -5.647
REMARK SMILES CCCCCCCCCCCCCCCCCCCCCCCCCCCC(=O)[O-]
REMARK SMILES IDX 15 1 16 2 17 3 18 4 19 5 20 6 21 7 22 8 23 9 24 10 25 11
REMARK SMILES IDX 26 12 27 13 28 14 29 15 30 16 14 17 13 18 12 19 11 20 10 21
REMARK SMILES IDX 9 22 8 23 7 24 6 25 5 26 4 27 3 28 2 29 1 30
REMARK H PARENT
REMARK Flexibility Score: inf
ROOT
ATOM      1  C   UNL     1      21.750   6.531  31.655  1.00  0.00     0.000 C 
ENDROOT
BRANCH   1   2
ATOM      2  C   UNL     1      23.228   6.173  31.433  1.00  0.00     0.000 C 
BRANCH   2   3
ATOM      3  C   UNL     1      24.056   6.496  32.686  1.00  0.00     0.000 C 
BRANCH   3   4
ATOM      4  C   UNL     1      25.574   6.475  32.429  1.00  0.00     0.000 C 
BRANCH   4   5
ATOM      5  C   UNL     1      26.169   7.806  31.938  1.00  0.00     0.000 C 
BRANCH   5   6
ATOM      6  C   UNL     1      26.802   7.763  30.534  1.00  0.00     0.000 C 
BRANCH   6   7
ATOM      7  C   UNL     1      25.789   7.946  29.383  1.00  0.00     0.000 C 
BRANCH   7   8
ATOM      8  C   UNL     1      25.112   9.328  29.411  1.00  0.00     0.000 C 
BRANCH   8   9
ATOM      9  C   UNL     1      23.578   9.239  29.373  1.00  0.00     0.000 C 
BRANCH   9  10
ATOM     10  C   UNL     1      22.906  10.244  30.324  1.00  0.00     0.000 C 
BRANCH  10  11
ATOM     11  C   UNL     1      23.174   9.928  31.805  1.00  0.00     0.000 C 
BRANCH  11  12
ATOM     12  C   UNL     1      22.491  10.926  32.756  1.00  0.00     0.006 C 
BRANCH  12  13
ATOM     13  C   UNL     1      21.738  12.027  31.998  1.00  0.00     0.053 C 
BRANCH  13  14
ATOM     14  C   UNL     1      22.368  13.371  32.197  1.00  0.00     0.041 C 
ATOM     15  O   UNL     1      22.591  13.802  33.359  1.00  0.00    -0.550 OA
ATOM     16  O   UNL     1      22.701  14.154  31.099  1.00  0.00    -0.550 OA
ENDBRANCH  13  14
ENDBRANCH  12  13
ENDBRANCH  11  12
ENDBRANCH  10  11
ENDBRANCH   9  10
ENDBRANCH   8   9
ENDBRANCH   7   8
ENDBRANCH   6   7
ENDBRANCH   5   6
ENDBRANCH   4   5
ENDBRANCH   3   4
ENDBRANCH   2   3
ENDBRANCH   1   2
BRANCH   1  17
ATOM     17  C   UNL     1      20.787   5.577  30.932  1.00  0.00     0.000 C 
BRANCH  17  18
ATOM     18  C   UNL     1      20.046   4.640  31.903  1.00  0.00     0.000 C 
BRANCH  18  19
ATOM     19  C   UNL     1      20.327   4.962  33.383  1.00  0.00     0.000 C 
BRANCH  19  20
ATOM     20  C   UNL     1      21.347   4.038  34.075  1.00  0.00     0.000 C 
BRANCH  20  21
ATOM     21  C   UNL     1      21.750   2.831  33.214  1.00  0.00     0.000 C 
BRANCH  21  22
ATOM     22  C   UNL     1      23.243   2.882  32.853  1.00  0.00    -0.000 C 
BRANCH  22  23
ATOM     23  C   UNL     1      23.558   2.106  31.557  1.00  0.00    -0.000 C 
BRANCH  23  24
ATOM     24  C   UNL     1      22.455   2.205  30.490  1.00  0.00    -0.000 C 
BRANCH  24  25
ATOM     25  C   UNL     1      22.856   3.078  29.293  1.00  0.00    -0.000 C 
BRANCH  25  26
ATOM     26  C   UNL     1      24.368   3.339  29.282  1.00  0.00    -0.000 C 
BRANCH  26  27
ATOM     27  C   UNL     1      24.702   4.602  28.478  1.00  0.00    -0.000 C 
BRANCH  27  28
ATOM     28  C   UNL     1      23.447   5.366  28.019  1.00  0.00    -0.000 C 
BRANCH  28  29
ATOM     29  C   UNL     1      23.481   5.764  26.528  1.00  0.00    -0.003 C 
ATOM     30  C   UNL     1      23.493   7.280  26.334  1.00  0.00     0.004 C 
ENDBRANCH  28  29
ENDBRANCH  27  28
ENDBRANCH  26  27
ENDBRANCH  25  26
ENDBRANCH  24  25
ENDBRANCH  23  24
ENDBRANCH  22  23
ENDBRANCH  21  22
ENDBRANCH  20  21
ENDBRANCH  19  20
ENDBRANCH  18  19
ENDBRANCH  17  18
ENDBRANCH   1  17
TORSDOF 26
ENDMDL
MODEL 8
REMARK VINA RESULT:    -3.031      2.674      5.149
REMARK INTER + INTRA:         -13.286
REMARK INTER:                  -8.390
REMARK INTRA:                  -4.896
REMARK UNBOUND:                -5.647
REMARK SMILES CCCCCCCCCCCCCCCCCCCCCCCCCCCC(=O)[O-]
REMARK SMILES IDX 15 1 16 2 17 3 18 4 19 5 20 6 21 7 22 8 23 9 24 10 25 11
REMARK SMILES IDX 26 12 27 13 28 14 29 15 30 16 14 17 13 18 12 19 11 20 10 21
REMARK SMILES IDX 9 22 8 23 7 24 6 25 5 26 4 27 3 28 2 29 1 30
REMARK H PARENT
REMARK Flexibility Score: inf
ROOT
ATOM      1  C   UNL     1      23.658   7.516  26.944  1.00  0.00     0.000 C 
ENDROOT
BRANCH   1   2
ATOM      2  C   UNL     1      25.070   7.737  27.506  1.00  0.00     0.000 C 
BRANCH   2   3
ATOM      3  C   UNL     1      25.005   8.441  28.870  1.00  0.00     0.000 C 
BRANCH   3   4
ATOM      4  C   UNL     1      23.593   8.439  29.484  1.00  0.00     0.000 C 
BRANCH   4   5
ATOM      5  C   UNL     1      23.448   7.621  30.780  1.00  0.00     0.000 C 
BRANCH   5   6
ATOM      6  C   UNL     1      22.018   7.545  31.350  1.00  0.00     0.000 C 
BRANCH   6   7
ATOM      7  C   UNL     1      21.713   8.613  32.422  1.00  0.00     0.000 C 
BRANCH   7   8
ATOM      8  C   UNL     1      22.946   8.957  33.277  1.00  0.00     0.000 C 
BRANCH   8   9
ATOM      9  C   UNL     1      23.330  10.444  33.195  1.00  0.00     0.000 C 
BRANCH   9  10
ATOM     10  C   UNL     1      22.121  11.349  32.903  1.00  0.00     0.000 C 
BRANCH  10  11
ATOM     11  C   UNL     1      22.377  12.320  31.738  1.00  0.00     0.000 C 
BRANCH  11  12
ATOM     12  C   UNL     1      22.826  11.599  30.454  1.00  0.00     0.006 C 
BRANCH  12  13
ATOM     13  C   UNL     1      24.170  12.126  29.934  1.00  0.00     0.053 C 
BRANCH  13  14
ATOM     14  C   UNL     1      24.037  12.750  28.579  1.00  0.00     0.041 C 
ATOM     15  O   UNL     1      24.915  13.550  28.160  1.00  0.00    -0.550 OA
ATOM     16  O   UNL     1      22.940  12.457  27.781  1.00  0.00    -0.550 OA
ENDBRANCH  13  14
ENDBRANCH  12  13
ENDBRANCH  11  12
ENDBRANCH  10  11
ENDBRANCH   9  10
ENDBRANCH   8   9
ENDBRANCH   7   8
ENDBRANCH   6   7
ENDBRANCH   5   6
ENDBRANCH   4   5
ENDBRANCH   3   4
ENDBRANCH   2   3
ENDBRANCH   1   2
BRANCH   1  17
ATOM     17  C   UNL     1      23.369   6.045  26.609  1.00  0.00     0.000 C 
BRANCH  17  18
ATOM     18  C   UNL     1      23.383   5.144  27.857  1.00  0.00     0.000 C 
BRANCH  18  19
ATOM     19  C   UNL     1      24.177   3.839  27.650  1.00  0.00     0.000 C 
BRANCH  19  20
ATOM     20  C   UNL     1      25.406   3.665  28.563  1.00  0.00     0.000 C 
BRANCH  20  21
ATOM     21  C   UNL     1      25.559   4.795  29.591  1.00  0.00     0.000 C 
BRANCH  21  22
ATOM     22  C   UNL     1      25.324   4.281  31.020  1.00  0.00    -0.000 C 
BRANCH  22  23
ATOM     23  C   UNL     1      25.357   2.740  31.099  1.00  0.00    -0.000 C 
BRANCH  23  24
ATOM     24  C   UNL     1      25.471   2.193  32.532  1.00  0.00    -0.000 C 
BRANCH  24  25
ATOM     25  C   UNL     1      24.212   1.445  32.988  1.00  0.00    -0.000 C 
BRANCH  25  26
ATOM     26  C   UNL     1      23.266   2.374  33.760  1.00  0.00    -0.000 C 
BRANCH  26  27
ATOM     27  C   UNL     1      21.955   2.585  32.992  1.00  0.00    -0.000 C 
BRANCH  27  28
ATOM     28  C   UNL     1      21.859   3.980  32.350  1.00  0.00    -0.000 C 
BRANCH  28  29
ATOM     29  C   UNL     1      21.515   3.941  30.845  1.00  0.00    -0.003 C 
ATOM     30  C   UNL     1      21.843   2.589  30.211  1.00  0.00     0.004 C 
ENDBRANCH  28  29
ENDBRANCH  27  28
ENDBRANCH  26  27
ENDBRANCH  25  26
ENDBRANCH  24  25
ENDBRANCH  23  24
ENDBRANCH  22  23
ENDBRANCH  21  22
ENDBRANCH  20  21
ENDBRANCH  19  20
ENDBRANCH  18  19
ENDBRANCH  17  18
ENDBRANCH   1  17
TORSDOF 26
ENDMDL
