MODEL 1
REMARK VINA RESULT:    -3.831      0.000      0.000
REMARK INTER + INTRA:         -13.371
REMARK INTER:                  -9.653
REMARK INTRA:                  -3.718
REMARK UNBOUND:                -3.718
REMARK SMILES CCCCCCCCCCCCCCCCCCCCCCCCCCCC(=O)[O-]
REMARK SMILES IDX 15 1 16 2 17 3 18 4 19 5 20 6 21 7 22 8 23 9 24 10 25 11
REMARK SMILES IDX 26 12 27 13 28 14 29 15 30 16 14 17 13 18 12 19 11 20 10 21
REMARK SMILES IDX 9 22 8 23 7 24 6 25 5 26 4 27 3 28 2 29 1 30
REMARK H PARENT
REMARK Flexibility Score: inf
ROOT
ATOM      1  C   UNL     1     -22.569  21.195  37.376  1.00  0.00     0.000 C 
ENDROOT
BRANCH   1   2
ATOM      2  C   UNL     1     -21.582  22.024  38.212  1.00  0.00     0.000 C 
BRANCH   2   3
ATOM      3  C   UNL     1     -21.920  21.935  39.708  1.00  0.00     0.000 C 
BRANCH   3   4
ATOM      4  C   UNL     1     -20.669  21.782  40.589  1.00  0.00     0.000 C 
BRANCH   4   5
ATOM      5  C   UNL     1     -20.912  20.860  41.798  1.00  0.00     0.000 C 
BRANCH   5   6
ATOM      6  C   UNL     1     -19.616  20.501  42.541  1.00  0.00     0.000 C 
BRANCH   6   7
ATOM      7  C   UNL     1     -18.563  19.858  41.621  1.00  0.00     0.000 C 
BRANCH   7   8
ATOM      8  C   UNL     1     -17.193  20.547  41.724  1.00  0.00     0.000 C 
BRANCH   8   9
ATOM      9  C   UNL     1     -17.105  21.824  40.869  1.00  0.00     0.000 C 
BRANCH   9  10
ATOM     10  C   UNL     1     -15.659  22.194  40.496  1.00  0.00     0.000 C 
BRANCH  10  11
ATOM     11  C   UNL     1     -15.517  23.426  39.578  1.00  0.00     0.000 C 
BRANCH  11  12
ATOM     12  C   UNL     1     -14.350  24.367  39.923  1.00  0.00     0.006 C 
BRANCH  12  13
ATOM     13  C   UNL     1     -12.992  23.651  39.949  1.00  0.00     0.053 C 
BRANCH  13  14
ATOM     14  C   UNL     1     -12.312  23.844  41.269  1.00  0.00     0.041 C 
ATOM     15  O   UNL     1     -12.855  23.434  42.330  1.00  0.00    -0.550 OA
ATOM     16  O   UNL     1     -11.072  24.469  41.328  1.00  0.00    -0.550 OA
ENDBRANCH  13  14
ENDBRANCH  12  13
ENDBRANCH  11  12
ENDBRANCH  10  11
ENDBRANCH   9  10
ENDBRANCH   8   9
ENDBRANCH   7   8
ENDBRANCH   6   7
ENDBRANCH   5   6
ENDBRANCH   4   5
ENDBRANCH   3   4
ENDBRANCH   2   3
ENDBRANCH   1   2
BRANCH   1  17
ATOM     17  C   UNL     1     -22.348  21.355  35.861  1.00  0.00     0.000 C 
BRANCH  17  18
ATOM     18  C   UNL     1     -21.368  22.477  35.458  1.00  0.00     0.000 C 
BRANCH  18  19
ATOM     19  C   UNL     1     -20.159  22.022  34.621  1.00  0.00     0.000 C 
BRANCH  19  20
ATOM     20  C   UNL     1     -19.703  23.085  33.606  1.00  0.00     0.000 C 
BRANCH  20  21
ATOM     21  C   UNL     1     -18.310  22.790  33.025  1.00  0.00     0.000 C 
BRANCH  21  22
ATOM     22  C   UNL     1     -17.356  22.169  34.061  1.00  0.00    -0.000 C 
BRANCH  22  23
ATOM     23  C   UNL     1     -16.211  23.118  34.452  1.00  0.00    -0.000 C 
BRANCH  23  24
ATOM     24  C   UNL     1     -16.233  23.496  35.941  1.00  0.00    -0.000 C 
BRANCH  24  25
ATOM     25  C   UNL     1     -16.480  25.002  36.120  1.00  0.00    -0.000 C 
BRANCH  25  26
ATOM     26  C   UNL     1     -17.947  25.387  35.863  1.00  0.00    -0.000 C 
BRANCH  26  27
ATOM     27  C   UNL     1     -18.929  24.782  36.892  1.00  0.00    -0.000 C 
BRANCH  27  28
ATOM     28  C   UNL     1     -18.633  25.200  38.346  1.00  0.00    -0.000 C 
BRANCH  28  29
ATOM     29  C   UNL     1     -19.863  25.211  39.269  1.00  0.00    -0.003 C 
ATOM     30  C   UNL     1     -19.491  25.249  40.753  1.00  0.00     0.004 C 
ENDBRANCH  28  29
ENDBRANCH  27  28
ENDBRANCH  26  27
ENDBRANCH  25  26
ENDBRANCH  24  25
ENDBRANCH  23  24
ENDBRANCH  22  23
ENDBRANCH  21  22
ENDBRANCH  20  21
ENDBRANCH  19  20
ENDBRANCH  18  19
ENDBRANCH  17  18
ENDBRANCH   1  17
TORSDOF 26
ENDMDL
MODEL 2
REMARK VINA RESULT:    -3.811      2.501      4.511
REMARK INTER + INTRA:         -13.323
REMARK INTER:                  -8.397
REMARK INTRA:                  -4.925
REMARK UNBOUND:                -3.718
REMARK SMILES CCCCCCCCCCCCCCCCCCCCCCCCCCCC(=O)[O-]
REMARK SMILES IDX 15 1 16 2 17 3 18 4 19 5 20 6 21 7 22 8 23 9 24 10 25 11
REMARK SMILES IDX 26 12 27 13 28 14 29 15 30 16 14 17 13 18 12 19 11 20 10 21
REMARK SMILES IDX 9 22 8 23 7 24 6 25 5 26 4 27 3 28 2 29 1 30
REMARK H PARENT
REMARK Flexibility Score: inf
ROOT
ATOM      1  C   UNL     1     -22.705  21.872  39.511  1.00  0.00     0.000 C 
ENDROOT
BRANCH   1   2
ATOM      2  C   UNL     1     -21.823  22.116  40.745  1.00  0.00     0.000 C 
BRANCH   2   3
ATOM      3  C   UNL     1     -20.341  22.214  40.350  1.00  0.00     0.000 C 
BRANCH   3   4
ATOM      4  C   UNL     1     -19.623  23.389  41.034  1.00  0.00     0.000 C 
BRANCH   4   5
ATOM      5  C   UNL     1     -20.602  24.348  41.734  1.00  0.00     0.000 C 
BRANCH   5   6
ATOM      6  C   UNL     1     -20.578  25.763  41.136  1.00  0.00     0.000 C 
BRANCH   6   7
ATOM      7  C   UNL     1     -20.957  25.782  39.644  1.00  0.00     0.000 C 
BRANCH   7   8
ATOM      8  C   UNL     1     -20.098  26.766  38.833  1.00  0.00     0.000 C 
BRANCH   8   9
ATOM      9  C   UNL     1     -19.684  26.201  37.463  1.00  0.00     0.000 C 
BRANCH   9  10
ATOM     10  C   UNL     1     -18.952  24.852  37.569  1.00  0.00     0.000 C 
BRANCH  10  11
ATOM     11  C   UNL     1     -17.650  24.880  38.397  1.00  0.00     0.000 C 
BRANCH  11  12
ATOM     12  C   UNL     1     -16.641  25.969  37.991  1.00  0.00     0.006 C 
BRANCH  12  13
ATOM     13  C   UNL     1     -15.650  26.312  39.112  1.00  0.00     0.053 C 
BRANCH  13  14
ATOM     14  C   UNL     1     -14.933  27.594  38.818  1.00  0.00     0.041 C 
ATOM     15  O   UNL     1     -15.054  28.145  37.691  1.00  0.00    -0.550 OA
ATOM     16  O   UNL     1     -14.138  28.186  39.792  1.00  0.00    -0.550 OA
ENDBRANCH  13  14
ENDBRANCH  12  13
ENDBRANCH  11  12
ENDBRANCH  10  11
ENDBRANCH   9  10
ENDBRANCH   8   9
ENDBRANCH   7   8
ENDBRANCH   6   7
ENDBRANCH   5   6
ENDBRANCH   4   5
ENDBRANCH   3   4
ENDBRANCH   2   3
ENDBRANCH   1   2
BRANCH   1  17
ATOM     17  C   UNL     1     -21.892  21.774  38.207  1.00  0.00     0.000 C 
BRANCH  17  18
ATOM     18  C   UNL     1     -22.631  21.114  37.025  1.00  0.00     0.000 C 
BRANCH  18  19
ATOM     19  C   UNL     1     -22.064  21.442  35.631  1.00  0.00     0.000 C 
BRANCH  19  20
ATOM     20  C   UNL     1     -20.952  22.504  35.675  1.00  0.00     0.000 C 
BRANCH  20  21
ATOM     21  C   UNL     1     -20.431  22.873  34.276  1.00  0.00     0.000 C 
BRANCH  21  22
ATOM     22  C   UNL     1     -20.387  24.394  34.042  1.00  0.00    -0.000 C 
BRANCH  22  23
ATOM     23  C   UNL     1     -19.931  24.759  32.620  1.00  0.00    -0.000 C 
BRANCH  23  24
ATOM     24  C   UNL     1     -18.601  25.527  32.601  1.00  0.00    -0.000 C 
BRANCH  24  25
ATOM     25  C   UNL     1     -18.212  25.985  34.015  1.00  0.00    -0.000 C 
BRANCH  25  26
ATOM     26  C   UNL     1     -16.690  25.952  34.241  1.00  0.00    -0.000 C 
BRANCH  26  27
ATOM     27  C   UNL     1     -16.081  24.538  34.096  1.00  0.00    -0.000 C 
BRANCH  27  28
ATOM     28  C   UNL     1     -16.725  23.491  35.024  1.00  0.00    -0.000 C 
BRANCH  28  29
ATOM     29  C   UNL     1     -16.836  22.082  34.417  1.00  0.00    -0.003 C 
ATOM     30  C   UNL     1     -17.150  22.104  32.919  1.00  0.00     0.004 C 
ENDBRANCH  28  29
ENDBRANCH  27  28
ENDBRANCH  26  27
ENDBRANCH  25  26
ENDBRANCH  24  25
ENDBRANCH  23  24
ENDBRANCH  22  23
ENDBRANCH  21  22
ENDBRANCH  20  21
ENDBRANCH  19  20
ENDBRANCH  18  19
ENDBRANCH  17  18
ENDBRANCH   1  17
TORSDOF 26
ENDMDL
MODEL 3
REMARK VINA RESULT:    -3.796      9.549     15.240
REMARK INTER + INTRA:         -13.283
REMARK INTER:                  -7.237
REMARK INTRA:                  -6.047
REMARK UNBOUND:                -3.718
REMARK SMILES CCCCCCCCCCCCCCCCCCCCCCCCCCCC(=O)[O-]
REMARK SMILES IDX 15 1 16 2 17 3 18 4 19 5 20 6 21 7 22 8 23 9 24 10 25 11
REMARK SMILES IDX 26 12 27 13 28 14 29 15 30 16 14 17 13 18 12 19 11 20 10 21
REMARK SMILES IDX 9 22 8 23 7 24 6 25 5 26 4 27 3 28 2 29 1 30
REMARK H PARENT
REMARK Flexibility Score: inf
ROOT
ATOM      1  C   UNL     1      -7.500  28.949  45.175  1.00  0.00     0.000 C 
ENDROOT
BRANCH   1   2
ATOM      2  C   UNL     1      -7.936  27.493  45.392  1.00  0.00     0.000 C 
BRANCH   2   3
ATOM      3  C   UNL     1      -6.754  26.630  45.862  1.00  0.00     0.000 C 
BRANCH   3   4
ATOM      4  C   UNL     1      -5.442  27.425  45.957  1.00  0.00     0.000 C 
BRANCH   4   5
ATOM      5  C   UNL     1      -4.367  26.902  44.987  1.00  0.00     0.000 C 
BRANCH   5   6
ATOM      6  C   UNL     1      -4.426  27.584  43.611  1.00  0.00     0.000 C 
BRANCH   6   7
ATOM      7  C   UNL     1      -5.062  26.689  42.533  1.00  0.00     0.000 C 
BRANCH   7   8
ATOM      8  C   UNL     1      -6.407  27.239  42.031  1.00  0.00     0.000 C 
BRANCH   8   9
ATOM      9  C   UNL     1      -6.292  28.670  41.474  1.00  0.00     0.000 C 
BRANCH   9  10
ATOM     10  C   UNL     1      -7.553  29.514  41.732  1.00  0.00     0.000 C 
BRANCH  10  11
ATOM     11  C   UNL     1      -8.831  29.007  41.033  1.00  0.00     0.000 C 
BRANCH  11  12
ATOM     12  C   UNL     1     -10.073  28.905  41.935  1.00  0.00     0.006 C 
BRANCH  12  13
ATOM     13  C   UNL     1     -10.250  27.511  42.554  1.00  0.00     0.053 C 
BRANCH  13  14
ATOM     14  C   UNL     1     -11.635  26.992  42.317  1.00  0.00     0.041 C 
ATOM     15  O   UNL     1     -12.023  26.731  41.147  1.00  0.00    -0.550 OA
ATOM     16  O   UNL     1     -12.495  26.790  43.389  1.00  0.00    -0.550 OA
ENDBRANCH  13  14
ENDBRANCH  12  13
ENDBRANCH  11  12
ENDBRANCH  10  11
ENDBRANCH   9  10
ENDBRANCH   8   9
ENDBRANCH   7   8
ENDBRANCH   6   7
ENDBRANCH   5   6
ENDBRANCH   4   5
ENDBRANCH   3   4
ENDBRANCH   2   3
ENDBRANCH   1   2
BRANCH   1  17
ATOM     17  C   UNL     1      -8.543  29.965  45.676  1.00  0.00     0.000 C 
BRANCH  17  18
ATOM     18  C   UNL     1      -7.986  31.079  46.586  1.00  0.00     0.000 C 
BRANCH  18  19
ATOM     19  C   UNL     1      -6.682  30.731  47.327  1.00  0.00     0.000 C 
BRANCH  19  20
ATOM     20  C   UNL     1      -5.885  31.978  47.749  1.00  0.00     0.000 C 
BRANCH  20  21
ATOM     21  C   UNL     1      -4.469  32.005  47.150  1.00  0.00     0.000 C 
BRANCH  21  22
ATOM     22  C   UNL     1      -4.182  30.788  46.252  1.00  0.00    -0.000 C 
BRANCH  22  23
ATOM     23  C   UNL     1      -3.876  31.187  44.798  1.00  0.00    -0.000 C 
BRANCH  23  24
ATOM     24  C   UNL     1      -5.142  31.520  43.994  1.00  0.00    -0.000 C 
BRANCH  24  25
ATOM     25  C   UNL     1      -5.208  33.021  43.674  1.00  0.00    -0.000 C 
BRANCH  25  26
ATOM     26  C   UNL     1      -6.638  33.579  43.789  1.00  0.00    -0.000 C 
BRANCH  26  27
ATOM     27  C   UNL     1      -7.719  32.601  43.274  1.00  0.00    -0.000 C 
BRANCH  27  28
ATOM     28  C   UNL     1      -9.160  33.079  43.542  1.00  0.00    -0.000 C 
BRANCH  28  29
ATOM     29  C   UNL     1     -10.169  32.710  42.441  1.00  0.00    -0.003 C 
ATOM     30  C   UNL     1      -9.584  32.836  41.033  1.00  0.00     0.004 C 
ENDBRANCH  28  29
ENDBRANCH  27  28
ENDBRANCH  26  27
ENDBRANCH  25  26
ENDBRANCH  24  25
ENDBRANCH  23  24
ENDBRANCH  22  23
ENDBRANCH  21  22
ENDBRANCH  20  21
ENDBRANCH  19  20
ENDBRANCH  18  19
ENDBRANCH  17  18
ENDBRANCH   1  17
TORSDOF 26
ENDMDL
MODEL 4
REMARK VINA RESULT:    -3.792      8.487     14.466
REMARK INTER + INTRA:         -13.273
REMARK INTER:                  -8.433
REMARK INTRA:                  -4.840
REMARK UNBOUND:                -3.718
REMARK SMILES CCCCCCCCCCCCCCCCCCCCCCCCCCCC(=O)[O-]
REMARK SMILES IDX 15 1 16 2 17 3 18 4 19 5 20 6 21 7 22 8 23 9 24 10 25 11
REMARK SMILES IDX 26 12 27 13 28 14 29 15 30 16 14 17 13 18 12 19 11 20 10 21
REMARK SMILES IDX 9 22 8 23 7 24 6 25 5 26 4 27 3 28 2 29 1 30
REMARK H PARENT
REMARK Flexibility Score: inf
ROOT
ATOM      1  C   UNL     1      -8.008  30.323  46.803  1.00  0.00     0.000 C 
ENDROOT
BRANCH   1   2
ATOM      2  C   UNL     1      -7.549  31.782  46.951  1.00  0.00     0.000 C 
BRANCH   2   3
ATOM      3  C   UNL     1      -6.265  31.871  47.791  1.00  0.00     0.000 C 
BRANCH   3   4
ATOM      4  C   UNL     1      -5.553  33.225  47.641  1.00  0.00     0.000 C 
BRANCH   4   5
ATOM      5  C   UNL     1      -4.463  33.197  46.554  1.00  0.00     0.000 C 
BRANCH   5   6
ATOM      6  C   UNL     1      -5.002  33.570  45.164  1.00  0.00     0.000 C 
BRANCH   6   7
ATOM      7  C   UNL     1      -5.003  32.378  44.190  1.00  0.00     0.000 C 
BRANCH   7   8
ATOM      8  C   UNL     1      -4.046  31.258  44.631  1.00  0.00     0.000 C 
BRANCH   8   9
ATOM      9  C   UNL     1      -4.772  29.925  44.887  1.00  0.00     0.000 C 
BRANCH   9  10
ATOM     10  C   UNL     1      -4.447  29.323  46.265  1.00  0.00     0.000 C 
BRANCH  10  11
ATOM     11  C   UNL     1      -5.052  27.929  46.527  1.00  0.00     0.000 C 
BRANCH  11  12
ATOM     12  C   UNL     1      -6.081  27.457  45.484  1.00  0.00     0.006 C 
BRANCH  12  13
ATOM     13  C   UNL     1      -6.110  25.930  45.322  1.00  0.00     0.053 C 
BRANCH  13  14
ATOM     14  C   UNL     1      -5.436  25.514  44.052  1.00  0.00     0.041 C 
ATOM     15  O   UNL     1      -4.189  25.648  43.921  1.00  0.00    -0.550 OA
ATOM     16  O   UNL     1      -6.182  24.970  43.014  1.00  0.00    -0.550 OA
ENDBRANCH  13  14
ENDBRANCH  12  13
ENDBRANCH  11  12
ENDBRANCH  10  11
ENDBRANCH   9  10
ENDBRANCH   8   9
ENDBRANCH   7   8
ENDBRANCH   6   7
ENDBRANCH   5   6
ENDBRANCH   4   5
ENDBRANCH   3   4
ENDBRANCH   2   3
ENDBRANCH   1   2
BRANCH   1  17
ATOM     17  C   UNL     1      -8.701  30.050  45.456  1.00  0.00     0.000 C 
BRANCH  17  18
ATOM     18  C   UNL     1      -8.504  31.144  44.386  1.00  0.00     0.000 C 
BRANCH  18  19
ATOM     19  C   UNL     1      -8.714  30.685  42.931  1.00  0.00     0.000 C 
BRANCH  19  20
ATOM     20  C   UNL     1      -7.411  30.214  42.261  1.00  0.00     0.000 C 
BRANCH  20  21
ATOM     21  C   UNL     1      -7.284  28.682  42.225  1.00  0.00     0.000 C 
BRANCH  21  22
ATOM     22  C   UNL     1      -8.569  27.992  41.734  1.00  0.00    -0.000 C 
BRANCH  22  23
ATOM     23  C   UNL     1      -9.098  26.951  42.734  1.00  0.00    -0.000 C 
BRANCH  23  24
ATOM     24  C   UNL     1     -10.344  27.433  43.491  1.00  0.00    -0.000 C 
BRANCH  24  25
ATOM     25  C   UNL     1     -11.496  27.729  42.518  1.00  0.00    -0.000 C 
BRANCH  25  26
ATOM     26  C   UNL     1     -12.549  26.607  42.501  1.00  0.00    -0.000 C 
BRANCH  26  27
ATOM     27  C   UNL     1     -12.600  25.835  41.163  1.00  0.00    -0.000 C 
BRANCH  27  28
ATOM     28  C   UNL     1     -13.538  24.613  41.191  1.00  0.00    -0.000 C 
BRANCH  28  29
ATOM     29  C   UNL     1     -12.949  23.373  41.884  1.00  0.00    -0.003 C 
ATOM     30  C   UNL     1     -11.419  23.380  41.916  1.00  0.00     0.004 C 
ENDBRANCH  28  29
ENDBRANCH  27  28
ENDBRANCH  26  27
ENDBRANCH  25  26
ENDBRANCH  24  25
ENDBRANCH  23  24
ENDBRANCH  22  23
ENDBRANCH  21  22
ENDBRANCH  20  21
ENDBRANCH  19  20
ENDBRANCH  18  19
ENDBRANCH  17  18
ENDBRANCH   1  17
TORSDOF 26
ENDMDL
MODEL 5
REMARK VINA RESULT:    -3.747      9.210     14.808
REMARK INTER + INTRA:         -13.161
REMARK INTER:                  -9.683
REMARK INTRA:                  -3.478
REMARK UNBOUND:                -3.718
REMARK SMILES CCCCCCCCCCCCCCCCCCCCCCCCCCCC(=O)[O-]
REMARK SMILES IDX 15 1 16 2 17 3 18 4 19 5 20 6 21 7 22 8 23 9 24 10 25 11
REMARK SMILES IDX 26 12 27 13 28 14 29 15 30 16 14 17 13 18 12 19 11 20 10 21
REMARK SMILES IDX 9 22 8 23 7 24 6 25 5 26 4 27 3 28 2 29 1 30
REMARK H PARENT
REMARK Flexibility Score: inf
ROOT
ATOM      1  C   UNL     1      -5.193  27.380  45.628  1.00  0.00     0.000 C 
ENDROOT
BRANCH   1   2
ATOM      2  C   UNL     1      -4.630  28.499  46.517  1.00  0.00     0.000 C 
BRANCH   2   3
ATOM      3  C   UNL     1      -4.530  29.821  45.740  1.00  0.00     0.000 C 
BRANCH   3   4
ATOM      4  C   UNL     1      -5.213  30.989  46.468  1.00  0.00     0.000 C 
BRANCH   4   5
ATOM      5  C   UNL     1      -6.292  30.514  47.458  1.00  0.00     0.000 C 
BRANCH   5   6
ATOM      6  C   UNL     1      -7.694  31.029  47.100  1.00  0.00     0.000 C 
BRANCH   6   7
ATOM      7  C   UNL     1      -8.074  30.747  45.636  1.00  0.00     0.000 C 
BRANCH   7   8
ATOM      8  C   UNL     1      -8.670  31.979  44.936  1.00  0.00     0.000 C 
BRANCH   8   9
ATOM      9  C   UNL     1      -7.735  33.200  44.988  1.00  0.00     0.000 C 
BRANCH   9  10
ATOM     10  C   UNL     1      -8.470  34.499  45.363  1.00  0.00     0.000 C 
BRANCH  10  11
ATOM     11  C   UNL     1      -8.088  35.092  46.735  1.00  0.00     0.000 C 
BRANCH  11  12
ATOM     12  C   UNL     1      -6.838  34.476  47.387  1.00  0.00     0.006 C 
BRANCH  12  13
ATOM     13  C   UNL     1      -6.963  34.343  48.912  1.00  0.00     0.053 C 
BRANCH  13  14
ATOM     14  C   UNL     1      -5.703  33.796  49.507  1.00  0.00     0.041 C 
ATOM     15  O   UNL     1      -4.664  33.683  48.802  1.00  0.00    -0.550 OA
ATOM     16  O   UNL     1      -5.672  33.418  50.844  1.00  0.00    -0.550 OA
ENDBRANCH  13  14
ENDBRANCH  12  13
ENDBRANCH  11  12
ENDBRANCH  10  11
ENDBRANCH   9  10
ENDBRANCH   8   9
ENDBRANCH   7   8
ENDBRANCH   6   7
ENDBRANCH   5   6
ENDBRANCH   4   5
ENDBRANCH   3   4
ENDBRANCH   2   3
ENDBRANCH   1   2
BRANCH   1  17
ATOM     17  C   UNL     1      -6.533  26.826  46.144  1.00  0.00     0.000 C 
BRANCH  17  18
ATOM     18  C   UNL     1      -7.767  27.210  45.301  1.00  0.00     0.000 C 
BRANCH  18  19
ATOM     19  C   UNL     1      -7.514  27.338  43.787  1.00  0.00     0.000 C 
BRANCH  19  20
ATOM     20  C   UNL     1      -8.716  27.928  43.029  1.00  0.00     0.000 C 
BRANCH  20  21
ATOM     21  C   UNL     1      -9.948  28.119  43.929  1.00  0.00     0.000 C 
BRANCH  21  22
ATOM     22  C   UNL     1     -11.152  27.275  43.473  1.00  0.00    -0.000 C 
BRANCH  22  23
ATOM     23  C   UNL     1     -11.727  27.746  42.127  1.00  0.00    -0.000 C 
BRANCH  23  24
ATOM     24  C   UNL     1     -11.835  26.613  41.096  1.00  0.00    -0.000 C 
BRANCH  24  25
ATOM     25  C   UNL     1     -11.585  25.248  41.756  1.00  0.00    -0.000 C 
BRANCH  25  26
ATOM     26  C   UNL     1     -12.883  24.443  41.941  1.00  0.00    -0.000 C 
BRANCH  26  27
ATOM     27  C   UNL     1     -12.739  22.952  41.556  1.00  0.00    -0.000 C 
BRANCH  27  28
ATOM     28  C   UNL     1     -11.278  22.465  41.511  1.00  0.00    -0.000 C 
BRANCH  28  29
ATOM     29  C   UNL     1     -10.975  21.461  40.385  1.00  0.00    -0.003 C 
ATOM     30  C   UNL     1     -11.094  20.005  40.841  1.00  0.00     0.004 C 
ENDBRANCH  28  29
ENDBRANCH  27  28
ENDBRANCH  26  27
ENDBRANCH  25  26
ENDBRANCH  24  25
ENDBRANCH  23  24
ENDBRANCH  22  23
ENDBRANCH  21  22
ENDBRANCH  20  21
ENDBRANCH  19  20
ENDBRANCH  18  19
ENDBRANCH  17  18
ENDBRANCH   1  17
TORSDOF 26
ENDMDL
MODEL 6
REMARK VINA RESULT:    -3.725      7.970     14.501
REMARK INTER + INTRA:         -13.104
REMARK INTER:                  -7.606
REMARK INTRA:                  -5.497
REMARK UNBOUND:                -3.718
REMARK SMILES CCCCCCCCCCCCCCCCCCCCCCCCCCCC(=O)[O-]
REMARK SMILES IDX 15 1 16 2 17 3 18 4 19 5 20 6 21 7 22 8 23 9 24 10 25 11
REMARK SMILES IDX 26 12 27 13 28 14 29 15 30 16 14 17 13 18 12 19 11 20 10 21
REMARK SMILES IDX 9 22 8 23 7 24 6 25 5 26 4 27 3 28 2 29 1 30
REMARK H PARENT
REMARK Flexibility Score: inf
ROOT
ATOM      1  C   UNL     1      -6.988  29.529  46.353  1.00  0.00     0.000 C 
ENDROOT
BRANCH   1   2
ATOM      2  C   UNL     1      -5.578  29.664  46.946  1.00  0.00     0.000 C 
BRANCH   2   3
ATOM      3  C   UNL     1      -4.719  28.436  46.606  1.00  0.00     0.000 C 
BRANCH   3   4
ATOM      4  C   UNL     1      -5.560  27.236  46.142  1.00  0.00     0.000 C 
BRANCH   4   5
ATOM      5  C   UNL     1      -4.883  26.450  45.004  1.00  0.00     0.000 C 
BRANCH   5   6
ATOM      6  C   UNL     1      -5.797  25.372  44.401  1.00  0.00     0.000 C 
BRANCH   6   7
ATOM      7  C   UNL     1      -5.440  25.041  42.941  1.00  0.00     0.000 C 
BRANCH   7   8
ATOM      8  C   UNL     1      -6.659  24.573  42.130  1.00  0.00     0.000 C 
BRANCH   8   9
ATOM      9  C   UNL     1      -6.677  25.147  40.702  1.00  0.00     0.000 C 
BRANCH   9  10
ATOM     10  C   UNL     1      -7.987  25.882  40.370  1.00  0.00     0.000 C 
BRANCH  10  11
ATOM     11  C   UNL     1      -9.248  25.305  41.045  1.00  0.00     0.000 C 
BRANCH  11  12
ATOM     12  C   UNL     1     -10.527  25.351  40.190  1.00  0.00     0.006 C 
BRANCH  12  13
ATOM     13  C   UNL     1     -11.390  24.090  40.337  1.00  0.00     0.053 C 
BRANCH  13  14
ATOM     14  C   UNL     1     -12.298  24.199  41.523  1.00  0.00     0.041 C 
ATOM     15  O   UNL     1     -12.353  23.266  42.369  1.00  0.00    -0.550 OA
ATOM     16  O   UNL     1     -13.078  25.336  41.700  1.00  0.00    -0.550 OA
ENDBRANCH  13  14
ENDBRANCH  12  13
ENDBRANCH  11  12
ENDBRANCH  10  11
ENDBRANCH   9  10
ENDBRANCH   8   9
ENDBRANCH   7   8
ENDBRANCH   6   7
ENDBRANCH   5   6
ENDBRANCH   4   5
ENDBRANCH   3   4
ENDBRANCH   2   3
ENDBRANCH   1   2
BRANCH   1  17
ATOM     17  C   UNL     1      -7.882  30.744  46.657  1.00  0.00     0.000 C 
BRANCH  17  18
ATOM     18  C   UNL     1      -8.688  31.280  45.456  1.00  0.00     0.000 C 
BRANCH  18  19
ATOM     19  C   UNL     1      -8.347  32.718  45.026  1.00  0.00     0.000 C 
BRANCH  19  20
ATOM     20  C   UNL     1      -6.965  33.178  45.522  1.00  0.00     0.000 C 
BRANCH  20  21
ATOM     21  C   UNL     1      -5.905  33.173  44.409  1.00  0.00     0.000 C 
BRANCH  21  22
ATOM     22  C   UNL     1      -4.577  32.536  44.858  1.00  0.00    -0.000 C 
BRANCH  22  23
ATOM     23  C   UNL     1      -4.168  31.343  43.979  1.00  0.00    -0.000 C 
BRANCH  23  24
ATOM     24  C   UNL     1      -5.349  30.748  43.197  1.00  0.00    -0.000 C 
BRANCH  24  25
ATOM     25  C   UNL     1      -5.130  29.250  42.931  1.00  0.00    -0.000 C 
BRANCH  25  26
ATOM     26  C   UNL     1      -6.326  28.605  42.209  1.00  0.00    -0.000 C 
BRANCH  26  27
ATOM     27  C   UNL     1      -7.689  28.956  42.849  1.00  0.00    -0.000 C 
BRANCH  27  28
ATOM     28  C   UNL     1      -8.393  27.750  43.501  1.00  0.00    -0.000 C 
BRANCH  28  29
ATOM     29  C   UNL     1      -9.713  28.091  44.213  1.00  0.00    -0.003 C 
ATOM     30  C   UNL     1     -10.911  27.331  43.638  1.00  0.00     0.004 C 
ENDBRANCH  28  29
ENDBRANCH  27  28
ENDBRANCH  26  27
ENDBRANCH  25  26
ENDBRANCH  24  25
ENDBRANCH  23  24
ENDBRANCH  22  23
ENDBRANCH  21  22
ENDBRANCH  20  21
ENDBRANCH  19  20
ENDBRANCH  18  19
ENDBRANCH  17  18
ENDBRANCH   1  17
TORSDOF 26
ENDMDL
MODEL 7
REMARK VINA RESULT:    -3.697      8.668     14.865
REMARK INTER + INTRA:         -13.034
REMARK INTER:                  -8.794
REMARK INTRA:                  -4.240
REMARK UNBOUND:                -3.718
REMARK SMILES CCCCCCCCCCCCCCCCCCCCCCCCCCCC(=O)[O-]
REMARK SMILES IDX 15 1 16 2 17 3 18 4 19 5 20 6 21 7 22 8 23 9 24 10 25 11
REMARK SMILES IDX 26 12 27 13 28 14 29 15 30 16 14 17 13 18 12 19 11 20 10 21
REMARK SMILES IDX 9 22 8 23 7 24 6 25 5 26 4 27 3 28 2 29 1 30
REMARK H PARENT
REMARK Flexibility Score: inf
ROOT
ATOM      1  C   UNL     1      -4.397  28.863  44.493  1.00  0.00     0.000 C 
ENDROOT
BRANCH   1   2
ATOM      2  C   UNL     1      -5.337  27.649  44.432  1.00  0.00     0.000 C 
BRANCH   2   3
ATOM      3  C   UNL     1      -6.019  27.414  45.788  1.00  0.00     0.000 C 
BRANCH   3   4
ATOM      4  C   UNL     1      -7.531  27.166  45.655  1.00  0.00     0.000 C 
BRANCH   4   5
ATOM      5  C   UNL     1      -8.032  27.361  44.213  1.00  0.00     0.000 C 
BRANCH   5   6
ATOM      6  C   UNL     1      -9.546  27.617  44.141  1.00  0.00     0.000 C 
BRANCH   6   7
ATOM      7  C   UNL     1      -9.980  28.233  42.799  1.00  0.00     0.000 C 
BRANCH   7   8
ATOM      8  C   UNL     1     -11.290  27.626  42.270  1.00  0.00     0.000 C 
BRANCH   8   9
ATOM      9  C   UNL     1     -11.052  26.485  41.265  1.00  0.00     0.000 C 
BRANCH   9  10
ATOM     10  C   UNL     1     -12.360  25.910  40.694  1.00  0.00     0.000 C 
BRANCH  10  11
ATOM     11  C   UNL     1     -13.246  25.165  41.714  1.00  0.00     0.000 C 
BRANCH  11  12
ATOM     12  C   UNL     1     -13.152  23.630  41.663  1.00  0.00     0.006 C 
BRANCH  12  13
ATOM     13  C   UNL     1     -11.719  23.112  41.853  1.00  0.00     0.053 C 
BRANCH  13  14
ATOM     14  C   UNL     1     -11.459  21.926  40.976  1.00  0.00     0.041 C 
ATOM     15  O   UNL     1     -11.015  20.855  41.471  1.00  0.00    -0.550 OA
ATOM     16  O   UNL     1     -11.713  22.000  39.612  1.00  0.00    -0.550 OA
ENDBRANCH  13  14
ENDBRANCH  12  13
ENDBRANCH  11  12
ENDBRANCH  10  11
ENDBRANCH   9  10
ENDBRANCH   8   9
ENDBRANCH   7   8
ENDBRANCH   6   7
ENDBRANCH   5   6
ENDBRANCH   4   5
ENDBRANCH   3   4
ENDBRANCH   2   3
ENDBRANCH   1   2
BRANCH   1  17
ATOM     17  C   UNL     1      -5.027  30.136  43.899  1.00  0.00     0.000 C 
BRANCH  17  18
ATOM     18  C   UNL     1      -5.975  29.900  42.705  1.00  0.00     0.000 C 
BRANCH  18  19
ATOM     19  C   UNL     1      -7.215  30.812  42.661  1.00  0.00     0.000 C 
BRANCH  19  20
ATOM     20  C   UNL     1      -7.015  32.129  43.431  1.00  0.00     0.000 C 
BRANCH  20  21
ATOM     21  C   UNL     1      -8.067  32.337  44.532  1.00  0.00     0.000 C 
BRANCH  21  22
ATOM     22  C   UNL     1      -8.824  31.042  44.880  1.00  0.00    -0.000 C 
BRANCH  22  23
ATOM     23  C   UNL     1      -8.389  30.450  46.231  1.00  0.00    -0.000 C 
BRANCH  23  24
ATOM     24  C   UNL     1      -7.485  31.398  47.033  1.00  0.00    -0.000 C 
BRANCH  24  25
ATOM     25  C   UNL     1      -6.137  30.731  47.349  1.00  0.00    -0.000 C 
BRANCH  25  26
ATOM     26  C   UNL     1      -4.970  31.734  47.320  1.00  0.00    -0.000 C 
BRANCH  26  27
ATOM     27  C   UNL     1      -5.365  33.116  46.751  1.00  0.00    -0.000 C 
BRANCH  27  28
ATOM     28  C   UNL     1      -5.495  34.212  47.828  1.00  0.00    -0.000 C 
BRANCH  28  29
ATOM     29  C   UNL     1      -5.164  33.746  49.256  1.00  0.00    -0.003 C 
ATOM     30  C   UNL     1      -6.298  34.018  50.247  1.00  0.00     0.004 C 
ENDBRANCH  28  29
ENDBRANCH  27  28
ENDBRANCH  26  27
ENDBRANCH  25  26
ENDBRANCH  24  25
ENDBRANCH  23  24
ENDBRANCH  22  23
ENDBRANCH  21  22
ENDBRANCH  20  21
ENDBRANCH  19  20
ENDBRANCH  18  19
ENDBRANCH  17  18
ENDBRANCH   1  17
TORSDOF 26
ENDMDL
MODEL 8
REMARK VINA RESULT:    -3.666      9.749     15.564
REMARK INTER + INTRA:         -12.956
REMARK INTER:                  -7.685
REMARK INTRA:                  -5.271
REMARK UNBOUND:                -3.718
REMARK SMILES CCCCCCCCCCCCCCCCCCCCCCCCCCCC(=O)[O-]
REMARK SMILES IDX 15 1 16 2 17 3 18 4 19 5 20 6 21 7 22 8 23 9 24 10 25 11
REMARK SMILES IDX 26 12 27 13 28 14 29 15 30 16 14 17 13 18 12 19 11 20 10 21
REMARK SMILES IDX 9 22 8 23 7 24 6 25 5 26 4 27 3 28 2 29 1 30
REMARK H PARENT
REMARK Flexibility Score: inf
ROOT
ATOM      1  C   UNL     1      -6.525  26.833  45.879  1.00  0.00     0.000 C 
ENDROOT
BRANCH   1   2
ATOM      2  C   UNL     1      -6.990  28.294  45.972  1.00  0.00     0.000 C 
BRANCH   2   3
ATOM      3  C   UNL     1      -8.306  28.501  45.207  1.00  0.00     0.000 C 
BRANCH   3   4
ATOM      4  C   UNL     1      -8.871  29.922  45.376  1.00  0.00     0.000 C 
BRANCH   4   5
ATOM      5  C   UNL     1      -8.007  30.789  46.309  1.00  0.00     0.000 C 
BRANCH   5   6
ATOM      6  C   UNL     1      -7.814  32.219  45.781  1.00  0.00     0.000 C 
BRANCH   6   7
ATOM      7  C   UNL     1      -8.850  32.599  44.709  1.00  0.00     0.000 C 
BRANCH   7   8
ATOM      8  C   UNL     1      -8.239  32.668  43.300  1.00  0.00     0.000 C 
BRANCH   8   9
ATOM      9  C   UNL     1      -9.244  33.154  42.240  1.00  0.00     0.000 C 
BRANCH   9  10
ATOM     10  C   UNL     1      -9.802  32.009  41.377  1.00  0.00     0.000 C 
BRANCH  10  11
ATOM     11  C   UNL     1      -9.510  30.590  41.907  1.00  0.00     0.000 C 
BRANCH  11  12
ATOM     12  C   UNL     1     -10.586  29.538  41.586  1.00  0.00     0.006 C 
BRANCH  12  13
ATOM     13  C   UNL     1     -10.120  28.102  41.862  1.00  0.00     0.053 C 
BRANCH  13  14
ATOM     14  C   UNL     1     -11.289  27.188  42.057  1.00  0.00     0.041 C 
ATOM     15  O   UNL     1     -12.465  27.633  41.972  1.00  0.00    -0.550 OA
ATOM     16  O   UNL     1     -11.082  25.840  42.326  1.00  0.00    -0.550 OA
ENDBRANCH  13  14
ENDBRANCH  12  13
ENDBRANCH  11  12
ENDBRANCH  10  11
ENDBRANCH   9  10
ENDBRANCH   8   9
ENDBRANCH   7   8
ENDBRANCH   6   7
ENDBRANCH   5   6
ENDBRANCH   4   5
ENDBRANCH   3   4
ENDBRANCH   2   3
ENDBRANCH   1   2
BRANCH   1  17
ATOM     17  C   UNL     1      -4.994  26.688  45.948  1.00  0.00     0.000 C 
BRANCH  17  18
ATOM     18  C   UNL     1      -4.292  26.508  44.585  1.00  0.00     0.000 C 
BRANCH  18  19
ATOM     19  C   UNL     1      -5.232  26.269  43.390  1.00  0.00     0.000 C 
BRANCH  19  20
ATOM     20  C   UNL     1      -5.098  27.348  42.301  1.00  0.00     0.000 C 
BRANCH  20  21
ATOM     21  C   UNL     1      -6.355  28.225  42.180  1.00  0.00     0.000 C 
BRANCH  21  22
ATOM     22  C   UNL     1      -6.084  29.700  42.529  1.00  0.00    -0.000 C 
BRANCH  22  23
ATOM     23  C   UNL     1      -4.707  29.908  43.182  1.00  0.00    -0.000 C 
BRANCH  23  24
ATOM     24  C   UNL     1      -4.751  30.888  44.363  1.00  0.00    -0.000 C 
BRANCH  24  25
ATOM     25  C   UNL     1      -3.933  30.353  45.549  1.00  0.00    -0.000 C 
BRANCH  25  26
ATOM     26  C   UNL     1      -4.330  31.019  46.878  1.00  0.00    -0.000 C 
BRANCH  26  27
ATOM     27  C   UNL     1      -4.259  32.562  46.835  1.00  0.00    -0.000 C 
BRANCH  27  28
ATOM     28  C   UNL     1      -4.445  33.227  48.213  1.00  0.00    -0.000 C 
BRANCH  28  29
ATOM     29  C   UNL     1      -5.868  33.116  48.788  1.00  0.00    -0.003 C 
ATOM     30  C   UNL     1      -6.117  34.085  49.947  1.00  0.00     0.004 C 
ENDBRANCH  28  29
ENDBRANCH  27  28
ENDBRANCH  26  27
ENDBRANCH  25  26
ENDBRANCH  24  25
ENDBRANCH  23  24
ENDBRANCH  22  23
ENDBRANCH  21  22
ENDBRANCH  20  21
ENDBRANCH  19  20
ENDBRANCH  18  19
ENDBRANCH  17  18
ENDBRANCH   1  17
TORSDOF 26
ENDMDL
MODEL 9
REMARK VINA RESULT:    -3.663      8.721     14.745
REMARK INTER + INTRA:         -12.947
REMARK INTER:                  -7.074
REMARK INTRA:                  -5.873
REMARK UNBOUND:                -3.718
REMARK SMILES CCCCCCCCCCCCCCCCCCCCCCCCCCCC(=O)[O-]
REMARK SMILES IDX 15 1 16 2 17 3 18 4 19 5 20 6 21 7 22 8 23 9 24 10 25 11
REMARK SMILES IDX 26 12 27 13 28 14 29 15 30 16 14 17 13 18 12 19 11 20 10 21
REMARK SMILES IDX 9 22 8 23 7 24 6 25 5 26 4 27 3 28 2 29 1 30
REMARK H PARENT
REMARK Flexibility Score: inf
ROOT
ATOM      1  C   UNL     1      -6.037  26.227  45.714  1.00  0.00     0.000 C 
ENDROOT
BRANCH   1   2
ATOM      2  C   UNL     1      -5.371  26.347  44.336  1.00  0.00     0.000 C 
BRANCH   2   3
ATOM      3  C   UNL     1      -5.364  24.993  43.609  1.00  0.00     0.000 C 
BRANCH   3   4
ATOM      4  C   UNL     1      -5.801  25.109  42.139  1.00  0.00     0.000 C 
BRANCH   4   5
ATOM      5  C   UNL     1      -7.317  24.917  41.961  1.00  0.00     0.000 C 
BRANCH   5   6
ATOM      6  C   UNL     1      -7.948  25.983  41.050  1.00  0.00     0.000 C 
BRANCH   6   7
ATOM      7  C   UNL     1      -7.375  27.389  41.299  1.00  0.00     0.000 C 
BRANCH   7   8
ATOM      8  C   UNL     1      -7.178  28.182  39.997  1.00  0.00     0.000 C 
BRANCH   8   9
ATOM      9  C   UNL     1      -8.192  29.330  39.843  1.00  0.00     0.000 C 
BRANCH   9  10
ATOM     10  C   UNL     1      -8.791  29.782  41.187  1.00  0.00     0.000 C 
BRANCH  10  11
ATOM     11  C   UNL     1     -10.321  29.622  41.305  1.00  0.00     0.000 C 
BRANCH  11  12
ATOM     12  C   UNL     1     -10.791  28.367  42.061  1.00  0.00     0.006 C 
BRANCH  12  13
ATOM     13  C   UNL     1     -11.514  27.359  41.156  1.00  0.00     0.053 C 
BRANCH  13  14
ATOM     14  C   UNL     1     -12.273  26.358  41.971  1.00  0.00     0.041 C 
ATOM     15  O   UNL     1     -12.682  26.656  43.125  1.00  0.00    -0.550 OA
ATOM     16  O   UNL     1     -12.536  25.095  41.453  1.00  0.00    -0.550 OA
ENDBRANCH  13  14
ENDBRANCH  12  13
ENDBRANCH  11  12
ENDBRANCH  10  11
ENDBRANCH   9  10
ENDBRANCH   8   9
ENDBRANCH   7   8
ENDBRANCH   6   7
ENDBRANCH   5   6
ENDBRANCH   4   5
ENDBRANCH   3   4
ENDBRANCH   2   3
ENDBRANCH   1   2
BRANCH   1  17
ATOM     17  C   UNL     1      -7.080  27.331  45.971  1.00  0.00     0.000 C 
BRANCH  17  18
ATOM     18  C   UNL     1      -7.900  27.755  44.735  1.00  0.00     0.000 C 
BRANCH  18  19
ATOM     19  C   UNL     1      -8.585  29.130  44.843  1.00  0.00     0.000 C 
BRANCH  19  20
ATOM     20  C   UNL     1      -8.236  29.870  46.146  1.00  0.00     0.000 C 
BRANCH  20  21
ATOM     21  C   UNL     1      -7.981  31.370  45.924  1.00  0.00     0.000 C 
BRANCH  21  22
ATOM     22  C   UNL     1      -6.726  31.872  46.661  1.00  0.00    -0.000 C 
BRANCH  22  23
ATOM     23  C   UNL     1      -5.903  30.726  47.273  1.00  0.00    -0.000 C 
BRANCH  23  24
ATOM     24  C   UNL     1      -4.446  30.715  46.787  1.00  0.00    -0.000 C 
BRANCH  24  25
ATOM     25  C   UNL     1      -4.205  29.555  45.808  1.00  0.00    -0.000 C 
BRANCH  25  26
ATOM     26  C   UNL     1      -3.875  30.050  44.389  1.00  0.00    -0.000 C 
BRANCH  26  27
ATOM     27  C   UNL     1      -4.981  29.732  43.357  1.00  0.00    -0.000 C 
BRANCH  27  28
ATOM     28  C   UNL     1      -5.864  30.944  43.005  1.00  0.00    -0.000 C 
BRANCH  28  29
ATOM     29  C   UNL     1      -5.223  32.309  43.307  1.00  0.00    -0.003 C 
ATOM     30  C   UNL     1      -6.217  33.469  43.199  1.00  0.00     0.004 C 
ENDBRANCH  28  29
ENDBRANCH  27  28
ENDBRANCH  26  27
ENDBRANCH  25  26
ENDBRANCH  24  25
ENDBRANCH  23  24
ENDBRANCH  22  23
ENDBRANCH  21  22
ENDBRANCH  20  21
ENDBRANCH  19  20
ENDBRANCH  18  19
ENDBRANCH  17  18
ENDBRANCH   1  17
TORSDOF 26
ENDMDL
