MODEL 1
REMARK VINA RESULT:    -5.048      0.000      0.000
REMARK INTER + INTRA:          -6.555
REMARK INTER:                  -6.080
REMARK INTRA:                  -0.475
REMARK UNBOUND:                -0.475
REMARK SMILES O=c1c(O)c(-c2ccc(O)cc2O)oc2cc(O)cc(O)c12
REMARK SMILES IDX 5 1 3 2 2 3 1 4 22 5 20 6 19 7 17 8 16 9 15 10 14 11 6 12
REMARK SMILES IDX 8 13 7 14 9 15 11 16 12 17 10 18 13 20 4 22 21 24 18 26
REMARK H PARENT 10 19 13 21 4 23 21 25 18 27
REMARK Flexibility Score: inf
ROOT
ATOM      1  C   UNL     1      75.801  89.791  11.752  1.00  0.00     0.184 A 
ATOM      2  C   UNL     1      76.048  91.013  12.399  1.00  0.00     0.208 A 
ATOM      3  C   UNL     1      74.998  91.934  12.539  1.00  0.00     0.238 A 
ATOM      4  O   UNL     1      75.211  93.002  13.169  1.00  0.00    -0.285 OA
ATOM      5  C   UNL     1      73.719  91.629  12.013  1.00  0.00     0.111 A 
ATOM      6  C   UNL     1      72.592  92.504  12.064  1.00  0.00     0.134 A 
ATOM      7  C   UNL     1      71.343  92.048  11.626  1.00  0.00     0.093 A 
ATOM      8  C   UNL     1      71.193  90.773  11.080  1.00  0.00     0.123 A 
ATOM      9  C   UNL     1      72.300  89.930  10.973  1.00  0.00     0.094 A 
ATOM     10  C   UNL     1      73.552  90.344  11.435  1.00  0.00     0.146 A 
ATOM     11  O   UNL     1      74.577  89.508  11.324  1.00  0.00    -0.451 OA
ENDROOT
BRANCH   1  12
ATOM     12  C   UNL     1      76.869  88.785  11.548  1.00  0.00     0.063 A 
ATOM     13  C   UNL     1      78.755  87.942  10.260  1.00  0.00     0.047 A 
ATOM     14  C   UNL     1      77.765  88.905  10.470  1.00  0.00     0.020 A 
ATOM     15  C   UNL     1      78.859  86.841  11.117  1.00  0.00     0.119 A 
ATOM     16  C   UNL     1      77.965  86.706  12.184  1.00  0.00     0.093 A 
ATOM     17  C   UNL     1      76.969  87.668  12.404  1.00  0.00     0.130 A 
BRANCH  15  18
ATOM     18  O   UNL     1      79.842  85.875  10.918  1.00  0.00    -0.508 OA
ATOM     19  H   UNL     1      80.672  86.070  10.370  1.00  0.00     0.293 HD
ENDBRANCH  15  18
BRANCH  17  20
ATOM     20  O   UNL     1      76.088  87.524  13.476  1.00  0.00    -0.507 OA
ATOM     21  H   UNL     1      75.809  88.315  14.044  1.00  0.00     0.293 HD
ENDBRANCH  17  20
ENDBRANCH   1  12
BRANCH   2  22
ATOM     22  O   UNL     1      77.316  91.287  12.921  1.00  0.00    -0.502 OA
ATOM     23  H   UNL     1      77.510  92.115  13.471  1.00  0.00     0.293 HD
ENDBRANCH   2  22
BRANCH   6  24
ATOM     24  O   UNL     1      72.652  93.830  12.505  1.00  0.00    -0.507 OA
ATOM     25  H   UNL     1      71.961  94.271  13.093  1.00  0.00     0.293 HD
ENDBRANCH   6  24
BRANCH   8  26
ATOM     26  O   UNL     1      69.938  90.357  10.640  1.00  0.00    -0.508 OA
ATOM     27  H   UNL     1      69.364  89.731  11.193  1.00  0.00     0.293 HD
ENDBRANCH   8  26
TORSDOF 6
ENDMDL
MODEL 2
REMARK VINA RESULT:    -5.040      1.802      6.702
REMARK INTER + INTRA:          -6.546
REMARK INTER:                  -6.115
REMARK INTRA:                  -0.431
REMARK UNBOUND:                -0.475
REMARK SMILES O=c1c(O)c(-c2ccc(O)cc2O)oc2cc(O)cc(O)c12
REMARK SMILES IDX 5 1 3 2 2 3 1 4 22 5 20 6 19 7 17 8 16 9 15 10 14 11 6 12
REMARK SMILES IDX 8 13 7 14 9 15 11 16 12 17 10 18 13 20 4 22 21 24 18 26
REMARK H PARENT 10 19 13 21 4 23 21 25 18 27
REMARK Flexibility Score: inf
ROOT
ATOM      1  C   UNL     1      74.635  89.353  11.427  1.00  0.00     0.184 A 
ATOM      2  C   UNL     1      75.313  89.199  12.647  1.00  0.00     0.208 A 
ATOM      3  C   UNL     1      76.569  88.569  12.653  1.00  0.00     0.238 A 
ATOM      4  O   UNL     1      77.196  88.485  13.740  1.00  0.00    -0.285 OA
ATOM      5  C   UNL     1      77.120  88.085  11.442  1.00  0.00     0.111 A 
ATOM      6  C   UNL     1      78.365  87.396  11.337  1.00  0.00     0.134 A 
ATOM      7  C   UNL     1      78.872  87.075  10.072  1.00  0.00     0.093 A 
ATOM      8  C   UNL     1      78.150  87.359   8.913  1.00  0.00     0.123 A 
ATOM      9  C   UNL     1      76.904  87.980   9.008  1.00  0.00     0.094 A 
ATOM     10  C   UNL     1      76.388  88.345  10.254  1.00  0.00     0.146 A 
ATOM     11  O   UNL     1      75.204  88.944  10.300  1.00  0.00    -0.451 OA
ENDROOT
BRANCH   1  12
ATOM     12  C   UNL     1      73.297  89.986  11.351  1.00  0.00     0.063 A 
ATOM     13  C   UNL     1      70.918  89.957  11.865  1.00  0.00     0.047 A 
ATOM     14  C   UNL     1      72.185  89.376  11.959  1.00  0.00     0.020 A 
ATOM     15  C   UNL     1      70.742  91.149  11.154  1.00  0.00     0.119 A 
ATOM     16  C   UNL     1      71.838  91.756  10.536  1.00  0.00     0.093 A 
ATOM     17  C   UNL     1      73.114  91.181  10.626  1.00  0.00     0.130 A 
BRANCH  15  18
ATOM     18  O   UNL     1      69.483  91.737  11.054  1.00  0.00    -0.508 OA
ATOM     19  H   UNL     1      68.758  91.554  11.737  1.00  0.00     0.293 HD
ENDBRANCH  15  18
BRANCH  17  20
ATOM     20  O   UNL     1      74.201  91.802  10.009  1.00  0.00    -0.507 OA
ATOM     21  H   UNL     1      75.156  91.588  10.274  1.00  0.00     0.293 HD
ENDBRANCH  17  20
ENDBRANCH   1  12
BRANCH   2  22
ATOM     22  O   UNL     1      74.756  89.697  13.828  1.00  0.00    -0.502 OA
ATOM     23  H   UNL     1      75.022  89.353  14.742  1.00  0.00     0.293 HD
ENDBRANCH   2  22
BRANCH   6  24
ATOM     24  O   UNL     1      79.125  86.983  12.436  1.00  0.00    -0.507 OA
ATOM     25  H   UNL     1      78.773  86.430  13.203  1.00  0.00     0.293 HD
ENDBRANCH   6  24
BRANCH   8  26
ATOM     26  O   UNL     1      78.678  87.011   7.672  1.00  0.00    -0.508 OA
ATOM     27  H   UNL     1      78.805  87.699   6.939  1.00  0.00     0.293 HD
ENDBRANCH   8  26
TORSDOF 6
ENDMDL
MODEL 3
REMARK VINA RESULT:    -4.948      2.220      3.508
REMARK INTER + INTRA:          -6.434
REMARK INTER:                  -6.006
REMARK INTRA:                  -0.428
REMARK UNBOUND:                -0.475
REMARK SMILES O=c1c(O)c(-c2ccc(O)cc2O)oc2cc(O)cc(O)c12
REMARK SMILES IDX 5 1 3 2 2 3 1 4 22 5 20 6 19 7 17 8 16 9 15 10 14 11 6 12
REMARK SMILES IDX 8 13 7 14 9 15 11 16 12 17 10 18 13 20 4 22 21 24 18 26
REMARK H PARENT 10 19 13 21 4 23 21 25 18 27
REMARK Flexibility Score: inf
ROOT
ATOM      1  C   UNL     1      75.716  88.337  10.483  1.00  0.00     0.184 A 
ATOM      2  C   UNL     1      74.701  87.530  11.022  1.00  0.00     0.208 A 
ATOM      3  C   UNL     1      73.706  88.126  11.815  1.00  0.00     0.238 A 
ATOM      4  O   UNL     1      72.769  87.408  12.249  1.00  0.00    -0.285 OA
ATOM      5  C   UNL     1      73.753  89.517  12.075  1.00  0.00     0.111 A 
ATOM      6  C   UNL     1      72.821  90.219  12.896  1.00  0.00     0.134 A 
ATOM      7  C   UNL     1      72.888  91.616  12.979  1.00  0.00     0.093 A 
ATOM      8  C   UNL     1      73.892  92.328  12.324  1.00  0.00     0.123 A 
ATOM      9  C   UNL     1      74.844  91.646  11.564  1.00  0.00     0.094 A 
ATOM     10  C   UNL     1      74.780  90.256  11.433  1.00  0.00     0.146 A 
ATOM     11  O   UNL     1      75.698  89.647  10.693  1.00  0.00    -0.451 OA
ENDROOT
BRANCH   1  12
ATOM     12  C   UNL     1      76.809  87.770   9.658  1.00  0.00     0.063 A 
ATOM     13  C   UNL     1      77.594  86.828   7.555  1.00  0.00     0.047 A 
ATOM     14  C   UNL     1      76.571  87.388   8.325  1.00  0.00     0.020 A 
ATOM     15  C   UNL     1      78.864  86.632   8.107  1.00  0.00     0.119 A 
ATOM     16  C   UNL     1      79.106  86.997   9.435  1.00  0.00     0.093 A 
ATOM     17  C   UNL     1      78.087  87.561  10.216  1.00  0.00     0.130 A 
BRANCH  15  18
ATOM     18  O   UNL     1      79.890  86.075   7.349  1.00  0.00    -0.508 OA
ATOM     19  H   UNL     1      79.727  85.726   6.412  1.00  0.00     0.293 HD
ENDBRANCH  15  18
BRANCH  17  20
ATOM     20  O   UNL     1      78.345  87.925  11.537  1.00  0.00    -0.507 OA
ATOM     21  H   UNL     1      79.290  87.964  11.903  1.00  0.00     0.293 HD
ENDBRANCH  17  20
ENDBRANCH   1  12
BRANCH   2  22
ATOM     22  O   UNL     1      74.668  86.161  10.742  1.00  0.00    -0.502 OA
ATOM     23  H   UNL     1      74.084  85.514  11.257  1.00  0.00     0.293 HD
ENDBRANCH   2  22
BRANCH   6  24
ATOM     24  O   UNL     1      71.834  89.596  13.667  1.00  0.00    -0.507 OA
ATOM     25  H   UNL     1      71.561  89.886  14.594  1.00  0.00     0.293 HD
ENDBRANCH   6  24
BRANCH   8  26
ATOM     26  O   UNL     1      73.938  93.716  12.441  1.00  0.00    -0.508 OA
ATOM     27  H   UNL     1      74.714  94.184  12.895  1.00  0.00     0.293 HD
ENDBRANCH   8  26
TORSDOF 6
ENDMDL
MODEL 4
REMARK VINA RESULT:    -4.869      2.958      5.356
REMARK INTER + INTRA:          -6.340
REMARK INTER:                  -5.860
REMARK INTRA:                  -0.480
REMARK UNBOUND:                -0.475
REMARK SMILES O=c1c(O)c(-c2ccc(O)cc2O)oc2cc(O)cc(O)c12
REMARK SMILES IDX 5 1 3 2 2 3 1 4 22 5 20 6 19 7 17 8 16 9 15 10 14 11 6 12
REMARK SMILES IDX 8 13 7 14 9 15 11 16 12 17 10 18 13 20 4 22 21 24 18 26
REMARK H PARENT 10 19 13 21 4 23 21 25 18 27
REMARK Flexibility Score: inf
ROOT
ATOM      1  C   UNL     1      72.040  91.789  11.735  1.00  0.00     0.184 A 
ATOM      2  C   UNL     1      71.149  90.711  11.615  1.00  0.00     0.208 A 
ATOM      3  C   UNL     1      69.793  90.973  11.356  1.00  0.00     0.238 A 
ATOM      4  O   UNL     1      69.010  90.002  11.193  1.00  0.00    -0.285 OA
ATOM      5  C   UNL     1      69.344  92.311  11.242  1.00  0.00     0.111 A 
ATOM      6  C   UNL     1      67.988  92.694  11.020  1.00  0.00     0.134 A 
ATOM      7  C   UNL     1      67.678  94.041  10.796  1.00  0.00     0.093 A 
ATOM      8  C   UNL     1      68.665  95.025  10.850  1.00  0.00     0.123 A 
ATOM      9  C   UNL     1      69.986  94.668  11.124  1.00  0.00     0.094 A 
ATOM     10  C   UNL     1      70.331  93.328  11.315  1.00  0.00     0.146 A 
ATOM     11  O   UNL     1      71.601  93.029  11.563  1.00  0.00    -0.451 OA
ENDROOT
BRANCH   1  12
ATOM     12  C   UNL     1      73.478  91.585  12.032  1.00  0.00     0.063 A 
ATOM     13  C   UNL     1      75.266  91.195  13.637  1.00  0.00     0.047 A 
ATOM     14  C   UNL     1      73.908  91.360  13.352  1.00  0.00     0.020 A 
ATOM     15  C   UNL     1      76.213  91.263  12.610  1.00  0.00     0.119 A 
ATOM     16  C   UNL     1      75.797  91.499  11.296  1.00  0.00     0.093 A 
ATOM     17  C   UNL     1      74.436  91.664  11.000  1.00  0.00     0.130 A 
BRANCH  15  18
ATOM     18  O   UNL     1      77.569  91.100  12.882  1.00  0.00    -0.508 OA
ATOM     19  H   UNL     1      78.112  90.364  12.446  1.00  0.00     0.293 HD
ENDBRANCH  15  18
BRANCH  17  20
ATOM     20  O   UNL     1      74.034  91.892   9.684  1.00  0.00    -0.507 OA
ATOM     21  H   UNL     1      73.644  92.782   9.395  1.00  0.00     0.293 HD
ENDBRANCH  17  20
ENDBRANCH   1  12
BRANCH   2  22
ATOM     22  O   UNL     1      71.617  89.398  11.718  1.00  0.00    -0.502 OA
ATOM     23  H   UNL     1      71.068  88.656  12.136  1.00  0.00     0.293 HD
ENDBRANCH   2  22
BRANCH   6  24
ATOM     24  O   UNL     1      66.911  91.802  11.038  1.00  0.00    -0.507 OA
ATOM     25  H   UNL     1      66.211  91.759  11.763  1.00  0.00     0.293 HD
ENDBRANCH   6  24
BRANCH   8  26
ATOM     26  O   UNL     1      68.319  96.358  10.637  1.00  0.00    -0.508 OA
ATOM     27  H   UNL     1      68.920  96.985  10.115  1.00  0.00     0.293 HD
ENDBRANCH   8  26
TORSDOF 6
ENDMDL
MODEL 5
REMARK VINA RESULT:    -4.815      3.103      4.991
REMARK INTER + INTRA:          -6.275
REMARK INTER:                  -5.904
REMARK INTRA:                  -0.371
REMARK UNBOUND:                -0.475
REMARK SMILES O=c1c(O)c(-c2ccc(O)cc2O)oc2cc(O)cc(O)c12
REMARK SMILES IDX 5 1 3 2 2 3 1 4 22 5 20 6 19 7 17 8 16 9 15 10 14 11 6 12
REMARK SMILES IDX 8 13 7 14 9 15 11 16 12 17 10 18 13 20 4 22 21 24 18 26
REMARK H PARENT 10 19 13 21 4 23 21 25 18 27
REMARK Flexibility Score: inf
ROOT
ATOM      1  C   UNL     1      72.162  92.656  12.375  1.00  0.00     0.184 A 
ATOM      2  C   UNL     1      71.767  93.969  12.677  1.00  0.00     0.208 A 
ATOM      3  C   UNL     1      70.422  94.334  12.497  1.00  0.00     0.238 A 
ATOM      4  O   UNL     1      70.063  95.495  12.822  1.00  0.00    -0.285 OA
ATOM      5  C   UNL     1      69.496  93.385  11.999  1.00  0.00     0.111 A 
ATOM      6  C   UNL     1      68.119  93.657  11.741  1.00  0.00     0.134 A 
ATOM      7  C   UNL     1      67.267  92.609  11.371  1.00  0.00     0.093 A 
ATOM      8  C   UNL     1      67.753  91.315  11.187  1.00  0.00     0.123 A 
ATOM      9  C   UNL     1      69.110  91.051  11.380  1.00  0.00     0.094 A 
ATOM     10  C   UNL     1      69.978  92.068  11.785  1.00  0.00     0.146 A 
ATOM     11  O   UNL     1      71.259  91.773  11.968  1.00  0.00    -0.451 OA
ENDROOT
BRANCH   1  12
ATOM     12  C   UNL     1      73.569  92.211  12.518  1.00  0.00     0.063 A 
ATOM     13  C   UNL     1      75.522  91.809  13.914  1.00  0.00     0.047 A 
ATOM     14  C   UNL     1      74.188  92.202  13.781  1.00  0.00     0.020 A 
ATOM     15  C   UNL     1      76.259  91.430  12.787  1.00  0.00     0.119 A 
ATOM     16  C   UNL     1      75.656  91.448  11.526  1.00  0.00     0.093 A 
ATOM     17  C   UNL     1      74.317  91.839  11.383  1.00  0.00     0.130 A 
BRANCH  15  18
ATOM     18  O   UNL     1      77.589  91.036  12.907  1.00  0.00    -0.508 OA
ATOM     19  H   UNL     1      78.237  91.116  12.132  1.00  0.00     0.293 HD
ENDBRANCH  15  18
BRANCH  17  20
ATOM     20  O   UNL     1      73.727  91.846  10.119  1.00  0.00    -0.507 OA
ATOM     21  H   UNL     1      73.328  91.007   9.714  1.00  0.00     0.293 HD
ENDBRANCH  17  20
ENDBRANCH   1  12
BRANCH   2  22
ATOM     22  O   UNL     1      72.696  94.885  13.179  1.00  0.00    -0.502 OA
ATOM     23  H   UNL     1      72.540  95.885  13.158  1.00  0.00     0.293 HD
ENDBRANCH   2  22
BRANCH   6  24
ATOM     24  O   UNL     1      67.548  94.932  11.806  1.00  0.00    -0.507 OA
ATOM     25  H   UNL     1      67.995  95.742  12.208  1.00  0.00     0.293 HD
ENDBRANCH   6  24
BRANCH   8  26
ATOM     26  O   UNL     1      66.879  90.300  10.803  1.00  0.00    -0.508 OA
ATOM     27  H   UNL     1      66.363  90.347   9.932  1.00  0.00     0.293 HD
ENDBRANCH   8  26
TORSDOF 6
ENDMDL
MODEL 6
REMARK VINA RESULT:    -4.705      1.933      6.944
REMARK INTER + INTRA:          -6.142
REMARK INTER:                  -5.784
REMARK INTRA:                  -0.358
REMARK UNBOUND:                -0.475
REMARK SMILES O=c1c(O)c(-c2ccc(O)cc2O)oc2cc(O)cc(O)c12
REMARK SMILES IDX 5 1 3 2 2 3 1 4 22 5 20 6 19 7 17 8 16 9 15 10 14 11 6 12
REMARK SMILES IDX 8 13 7 14 9 15 11 16 12 17 10 18 13 20 4 22 21 24 18 26
REMARK H PARENT 10 19 13 21 4 23 21 25 18 27
REMARK Flexibility Score: inf
ROOT
ATOM      1  C   UNL     1      72.567  91.476  12.010  1.00  0.00     0.184 A 
ATOM      2  C   UNL     1      73.548  92.465  12.189  1.00  0.00     0.208 A 
ATOM      3  C   UNL     1      74.900  92.122  12.021  1.00  0.00     0.238 A 
ATOM      4  O   UNL     1      75.770  93.024  12.127  1.00  0.00    -0.285 OA
ATOM      5  C   UNL     1      75.253  90.789  11.697  1.00  0.00     0.111 A 
ATOM      6  C   UNL     1      76.592  90.321  11.542  1.00  0.00     0.134 A 
ATOM      7  C   UNL     1      76.819  89.014  11.095  1.00  0.00     0.093 A 
ATOM      8  C   UNL     1      75.759  88.139  10.859  1.00  0.00     0.123 A 
ATOM      9  C   UNL     1      74.447  88.568  11.064  1.00  0.00     0.094 A 
ATOM     10  C   UNL     1      74.188  89.878  11.474  1.00  0.00     0.146 A 
ATOM     11  O   UNL     1      72.925  90.251  11.646  1.00  0.00    -0.451 OA
ENDROOT
BRANCH   1  12
ATOM     12  C   UNL     1      71.125  91.763  12.195  1.00  0.00     0.063 A 
ATOM     13  C   UNL     1      69.107  91.638  13.550  1.00  0.00     0.047 A 
ATOM     14  C   UNL     1      70.472  91.393  13.385  1.00  0.00     0.020 A 
ATOM     15  C   UNL     1      68.372  92.246  12.526  1.00  0.00     0.119 A 
ATOM     16  C   UNL     1      69.010  92.606  11.335  1.00  0.00     0.093 A 
ATOM     17  C   UNL     1      70.380  92.366  11.161  1.00  0.00     0.130 A 
BRANCH  15  18
ATOM     18  O   UNL     1      67.011  92.496  12.680  1.00  0.00    -0.508 OA
ATOM     19  H   UNL     1      66.660  93.074  13.434  1.00  0.00     0.293 HD
ENDBRANCH  15  18
BRANCH  17  20
ATOM     20  O   UNL     1      71.004  92.735   9.969  1.00  0.00    -0.507 OA
ATOM     21  H   UNL     1      71.940  93.126   9.958  1.00  0.00     0.293 HD
ENDBRANCH  17  20
ENDBRANCH   1  12
BRANCH   2  22
ATOM     22  O   UNL     1      73.175  93.776  12.496  1.00  0.00    -0.502 OA
ATOM     23  H   UNL     1      73.370  94.201  13.395  1.00  0.00     0.293 HD
ENDBRANCH   2  22
BRANCH   6  24
ATOM     24  O   UNL     1      77.726  91.085  11.838  1.00  0.00    -0.507 OA
ATOM     25  H   UNL     1      78.134  91.770  11.222  1.00  0.00     0.293 HD
ENDBRANCH   6  24
BRANCH   8  26
ATOM     26  O   UNL     1      76.023  86.840  10.430  1.00  0.00    -0.508 OA
ATOM     27  H   UNL     1      75.331  86.104  10.512  1.00  0.00     0.293 HD
ENDBRANCH   8  26
TORSDOF 6
ENDMDL
MODEL 7
REMARK VINA RESULT:    -4.674     11.407     15.696
REMARK INTER + INTRA:          -6.105
REMARK INTER:                  -5.708
REMARK INTRA:                  -0.397
REMARK UNBOUND:                -0.475
REMARK SMILES O=c1c(O)c(-c2ccc(O)cc2O)oc2cc(O)cc(O)c12
REMARK SMILES IDX 5 1 3 2 2 3 1 4 22 5 20 6 19 7 17 8 16 9 15 10 14 11 6 12
REMARK SMILES IDX 8 13 7 14 9 15 11 16 12 17 10 18 13 20 4 22 21 24 18 26
REMARK H PARENT 10 19 13 21 4 23 21 25 18 27
REMARK Flexibility Score: inf
ROOT
ATOM      1  C   UNL     1      67.607 101.431   6.077  1.00  0.00     0.184 A 
ATOM      2  C   UNL     1      66.634 100.418   6.066  1.00  0.00     0.208 A 
ATOM      3  C   UNL     1      66.840  99.268   6.845  1.00  0.00     0.238 A 
ATOM      4  O   UNL     1      65.939  98.390   6.875  1.00  0.00    -0.285 OA
ATOM      5  C   UNL     1      68.026  99.137   7.608  1.00  0.00     0.111 A 
ATOM      6  C   UNL     1      68.356  97.998   8.402  1.00  0.00     0.134 A 
ATOM      7  C   UNL     1      69.494  98.031   9.217  1.00  0.00     0.093 A 
ATOM      8  C   UNL     1      70.348  99.134   9.217  1.00  0.00     0.123 A 
ATOM      9  C   UNL     1      70.066 100.230   8.400  1.00  0.00     0.094 A 
ATOM     10  C   UNL     1      68.917 100.241   7.604  1.00  0.00     0.146 A 
ATOM     11  O   UNL     1      68.679 101.307   6.849  1.00  0.00    -0.451 OA
ENDROOT
BRANCH   1  12
ATOM     12  C   UNL     1      67.466 102.659   5.260  1.00  0.00     0.063 A 
ATOM     13  C   UNL     1      66.303 104.740   4.763  1.00  0.00     0.047 A 
ATOM     14  C   UNL     1      66.456 103.594   5.549  1.00  0.00     0.020 A 
ATOM     15  C   UNL     1      67.150 104.962   3.672  1.00  0.00     0.119 A 
ATOM     16  C   UNL     1      68.149 104.032   3.369  1.00  0.00     0.093 A 
ATOM     17  C   UNL     1      68.311 102.880   4.153  1.00  0.00     0.130 A 
BRANCH  15  18
ATOM     18  O   UNL     1      67.008 106.099   2.882  1.00  0.00    -0.508 OA
ATOM     19  H   UNL     1      67.034 107.029   3.283  1.00  0.00     0.293 HD
ENDBRANCH  15  18
BRANCH  17  20
ATOM     20  O   UNL     1      69.316 101.964   3.842  1.00  0.00    -0.507 OA
ATOM     21  H   UNL     1      69.264 100.997   4.142  1.00  0.00     0.293 HD
ENDBRANCH  17  20
ENDBRANCH   1  12
BRANCH   2  22
ATOM     22  O   UNL     1      65.466 100.575   5.315  1.00  0.00    -0.502 OA
ATOM     23  H   UNL     1      65.428 100.381   4.321  1.00  0.00     0.293 HD
ENDBRANCH   2  22
BRANCH   6  24
ATOM     24  O   UNL     1      67.621  96.808   8.406  1.00  0.00    -0.507 OA
ATOM     25  H   UNL     1      67.793  96.028   9.022  1.00  0.00     0.293 HD
ENDBRANCH   6  24
BRANCH   8  26
ATOM     26  O   UNL     1      71.481  99.126  10.028  1.00  0.00    -0.508 OA
ATOM     27  H   UNL     1      72.414  99.072   9.635  1.00  0.00     0.293 HD
ENDBRANCH   8  26
TORSDOF 6
ENDMDL
MODEL 8
REMARK VINA RESULT:    -4.051      6.848     10.727
REMARK INTER + INTRA:          -5.354
REMARK INTER:                  -4.966
REMARK INTRA:                  -0.388
REMARK UNBOUND:                -0.475
REMARK SMILES O=c1c(O)c(-c2ccc(O)cc2O)oc2cc(O)cc(O)c12
REMARK SMILES IDX 5 1 3 2 2 3 1 4 22 5 20 6 19 7 17 8 16 9 15 10 14 11 6 12
REMARK SMILES IDX 8 13 7 14 9 15 11 16 12 17 10 18 13 20 4 22 21 24 18 26
REMARK H PARENT 10 19 13 21 4 23 21 25 18 27
REMARK Flexibility Score: inf
ROOT
ATOM      1  C   UNL     1      80.202  86.750   5.507  1.00  0.00     0.184 A 
ATOM      2  C   UNL     1      81.573  87.026   5.638  1.00  0.00     0.208 A 
ATOM      3  C   UNL     1      82.390  86.973   4.498  1.00  0.00     0.238 A 
ATOM      4  O   UNL     1      83.606  87.277   4.611  1.00  0.00    -0.285 OA
ATOM      5  C   UNL     1      81.829  86.626   3.245  1.00  0.00     0.111 A 
ATOM      6  C   UNL     1      82.571  86.504   2.031  1.00  0.00     0.134 A 
ATOM      7  C   UNL     1      81.892  86.281   0.827  1.00  0.00     0.093 A 
ATOM      8  C   UNL     1      80.508  86.111   0.801  1.00  0.00     0.123 A 
ATOM      9  C   UNL     1      79.780  86.170   1.990  1.00  0.00     0.094 A 
ATOM     10  C   UNL     1      80.425  86.428   3.202  1.00  0.00     0.146 A 
ATOM     11  O   UNL     1      79.694  86.487   4.309  1.00  0.00    -0.451 OA
ENDROOT
BRANCH   1  12
ATOM     12  C   UNL     1      79.287  86.763   6.673  1.00  0.00     0.063 A 
ATOM     13  C   UNL     1      78.616  85.875   8.838  1.00  0.00     0.047 A 
ATOM     14  C   UNL     1      79.493  85.883   7.750  1.00  0.00     0.020 A 
ATOM     15  C   UNL     1      77.515  86.738   8.859  1.00  0.00     0.119 A 
ATOM     16  C   UNL     1      77.294  87.608   7.787  1.00  0.00     0.093 A 
ATOM     17  C   UNL     1      78.171  87.624   6.692  1.00  0.00     0.130 A 
BRANCH  15  18
ATOM     18  O   UNL     1      76.634  86.739   9.937  1.00  0.00    -0.508 OA
ATOM     19  H   UNL     1      76.019  87.524  10.118  1.00  0.00     0.293 HD
ENDBRANCH  15  18
BRANCH  17  20
ATOM     20  O   UNL     1      77.942  88.502   5.632  1.00  0.00    -0.507 OA
ATOM     21  H   UNL     1      77.164  89.151   5.639  1.00  0.00     0.293 HD
ENDBRANCH  17  20
ENDBRANCH   1  12
BRANCH   2  22
ATOM     22  O   UNL     1      82.102  87.379   6.883  1.00  0.00    -0.502 OA
ATOM     23  H   UNL     1      81.768  88.177   7.409  1.00  0.00     0.293 HD
ENDBRANCH   2  22
BRANCH   6  24
ATOM     24  O   UNL     1      83.966  86.566   1.958  1.00  0.00    -0.507 OA
ATOM     25  H   UNL     1      84.569  86.843   2.718  1.00  0.00     0.293 HD
ENDBRANCH   6  24
BRANCH   8  26
ATOM     26  O   UNL     1      79.867  85.875  -0.414  1.00  0.00    -0.508 OA
ATOM     27  H   UNL     1      79.252  85.080  -0.542  1.00  0.00     0.293 HD
ENDBRANCH   8  26
TORSDOF 6
ENDMDL
MODEL 9
REMARK VINA RESULT:    -4.048     10.014     14.317
REMARK INTER + INTRA:          -5.351
REMARK INTER:                  -5.007
REMARK INTRA:                  -0.344
REMARK UNBOUND:                -0.475
REMARK SMILES O=c1c(O)c(-c2ccc(O)cc2O)oc2cc(O)cc(O)c12
REMARK SMILES IDX 5 1 3 2 2 3 1 4 22 5 20 6 19 7 17 8 16 9 15 10 14 11 6 12
REMARK SMILES IDX 8 13 7 14 9 15 11 16 12 17 10 18 13 20 4 22 21 24 18 26
REMARK H PARENT 10 19 13 21 4 23 21 25 18 27
REMARK Flexibility Score: inf
ROOT
ATOM      1  C   UNL     1      68.068 100.638   7.359  1.00  0.00     0.184 A 
ATOM      2  C   UNL     1      68.633 101.436   8.366  1.00  0.00     0.208 A 
ATOM      3  C   UNL     1      69.385 100.821   9.381  1.00  0.00     0.238 A 
ATOM      4  O   UNL     1      69.935 101.546  10.249  1.00  0.00    -0.285 OA
ATOM      5  C   UNL     1      69.543  99.414   9.385  1.00  0.00     0.111 A 
ATOM      6  C   UNL     1      70.251  98.681  10.385  1.00  0.00     0.134 A 
ATOM      7  C   UNL     1      70.453  97.306  10.219  1.00  0.00     0.093 A 
ATOM      8  C   UNL     1      69.920  96.626   9.125  1.00  0.00     0.123 A 
ATOM      9  C   UNL     1      69.177  97.322   8.170  1.00  0.00     0.094 A 
ATOM     10  C   UNL     1      68.989  98.702   8.290  1.00  0.00     0.146 A 
ATOM     11  O   UNL     1      68.285  99.329   7.355  1.00  0.00    -0.451 OA
ENDROOT
BRANCH   1  12
ATOM     12  C   UNL     1      67.244 101.219   6.272  1.00  0.00     0.063 A 
ATOM     13  C   UNL     1      67.010 102.737   4.384  1.00  0.00     0.047 A 
ATOM     14  C   UNL     1      67.793 102.168   5.391  1.00  0.00     0.020 A 
ATOM     15  C   UNL     1      65.665 102.374   4.249  1.00  0.00     0.119 A 
ATOM     16  C   UNL     1      65.107 101.441   5.127  1.00  0.00     0.093 A 
ATOM     17  C   UNL     1      65.886 100.863   6.141  1.00  0.00     0.130 A 
BRANCH  15  18
ATOM     18  O   UNL     1      64.875 102.934   3.248  1.00  0.00    -0.508 OA
ATOM     19  H   UNL     1      64.675 103.927   3.225  1.00  0.00     0.293 HD
ENDBRANCH  15  18
BRANCH  17  20
ATOM     20  O   UNL     1      65.317  99.929   7.007  1.00  0.00    -0.507 OA
ATOM     21  H   UNL     1      65.608  98.958   7.006  1.00  0.00     0.293 HD
ENDBRANCH  17  20
ENDBRANCH   1  12
BRANCH   2  22
ATOM     22  O   UNL     1      68.474 102.824   8.335  1.00  0.00    -0.502 OA
ATOM     23  H   UNL     1      69.190 103.446   7.981  1.00  0.00     0.293 HD
ENDBRANCH   2  22
BRANCH   6  24
ATOM     24  O   UNL     1      70.746  99.247  11.564  1.00  0.00    -0.507 OA
ATOM     25  H   UNL     1      70.766  98.783  12.460  1.00  0.00     0.293 HD
ENDBRANCH   6  24
BRANCH   8  26
ATOM     26  O   UNL     1      70.128  95.253   9.000  1.00  0.00    -0.508 OA
ATOM     27  H   UNL     1      70.958  94.808   9.374  1.00  0.00     0.293 HD
ENDBRANCH   8  26
TORSDOF 6
ENDMDL
