MODEL 1
REMARK VINA RESULT:    -5.515      0.000      0.000
REMARK INTER + INTRA:          -5.676
REMARK INTER:                  -5.676
REMARK INTRA:                   0.000
REMARK UNBOUND:                 0.000
REMARK SMILES CC1(C)CC[C@]2(C)CC[C@@]3(C)C(=CC[C@H]4[C@@]5(C)CC[C@H](O)C(C)(C)[C@@H]5CC[C@@]43C)[C@@H]2C1
REMARK SMILES IDX 1 1 2 2 4 3 5 4 6 5 8 6 9 7 10 8 12 9 13 10 14 11 15 12
REMARK SMILES IDX 28 13 27 14 26 15 25 16 16 17 18 18 19 19 20 20 22 21 23 22
REMARK SMILES IDX 24 23 17 24 29 25 30 26 31 27 11 28 7 29 3 30 21 31
REMARK H PARENT 21 32
REMARK Flexibility Score: inf
ROOT
ATOM      1  C   UNL     1       2.165 -10.061  -4.623  1.00  0.00     0.011 C 
ATOM      2  C   UNL     1       1.546  -9.186  -3.505  1.00  0.00    -0.035 C 
ATOM      3  C   UNL     1       2.671  -8.485  -2.680  1.00  0.00     0.007 C 
ATOM      4  C   UNL     1       2.570  -6.955  -2.682  1.00  0.00     0.008 C 
ATOM      5  C   UNL     1       2.431  -6.346  -4.108  1.00  0.00    -0.026 C 
ATOM      6  C   UNL     1       2.249  -4.818  -3.911  1.00  0.00     0.008 C 
ATOM      7  C   UNL     1       1.986  -4.087  -5.227  1.00  0.00     0.012 C 
ATOM      8  C   UNL     1       0.693  -4.583  -5.974  1.00  0.00    -0.006 C 
ATOM      9  C   UNL     1       0.175  -5.913  -5.372  1.00  0.00    -0.064 C 
ATOM     10  C   UNL     1      -1.144  -6.236  -5.517  1.00  0.00    -0.027 C 
ATOM     11  C   UNL     1      -2.241  -5.277  -5.908  1.00  0.00     0.032 C 
ATOM     12  C   UNL     1      -1.742  -3.999  -6.613  1.00  0.00     0.006 C 
ATOM     13  C   UNL     1      -0.446  -3.446  -5.904  1.00  0.00    -0.020 C 
ATOM     14  C   UNL     1       0.053  -2.101  -6.584  1.00  0.00     0.008 C 
ATOM     15  C   UNL     1      -0.939  -1.442  -7.559  1.00  0.00     0.005 C 
ATOM     16  C   UNL     1      -2.353  -1.498  -6.953  1.00  0.00     0.003 C 
ATOM     17  C   UNL     1      -2.909  -2.966  -7.009  1.00  0.00    -0.025 C 
ATOM     18  C   UNL     1      -4.146  -3.017  -6.059  1.00  0.00     0.010 C 
ATOM     19  C   UNL     1      -5.209  -1.941  -6.375  1.00  0.00     0.033 C 
ATOM     20  C   UNL     1      -4.629  -0.509  -6.416  1.00  0.00     0.120 C 
ATOM     21  C   UNL     1      -3.358  -0.340  -7.323  1.00  0.00    -0.006 C 
ATOM     22  C   UNL     1      -2.725   1.035  -6.959  1.00  0.00     0.014 C 
ATOM     23  C   UNL     1      -3.709  -0.292  -8.834  1.00  0.00     0.014 C 
ATOM     24  C   UNL     1      -3.388  -3.391  -8.438  1.00  0.00     0.012 C 
ATOM     25  C   UNL     1      -0.772  -3.149  -4.396  1.00  0.00     0.012 C 
ATOM     26  C   UNL     1       1.210  -6.976  -4.901  1.00  0.00     0.022 C 
ATOM     27  C   UNL     1       0.553  -8.163  -4.125  1.00  0.00     0.015 C 
ATOM     28  C   UNL     1       1.106  -4.950  -7.440  1.00  0.00     0.017 C 
ATOM     29  C   UNL     1       3.763  -6.586  -4.877  1.00  0.00     0.012 C 
ATOM     30  C   UNL     1       0.745 -10.124  -2.573  1.00  0.00     0.011 C 
ENDROOT
BRANCH  20  31
ATOM     31  O   UNL     1      -5.631   0.428  -6.739  1.00  0.00    -0.393 OA
ATOM     32  H   UNL     1      -5.239   1.337  -6.672  1.00  0.00     0.210 HD
ENDBRANCH  20  31
TORSDOF 1
ENDMDL
MODEL 2
REMARK VINA RESULT:    -5.475      6.187      9.748
REMARK INTER + INTRA:          -5.635
REMARK INTER:                  -5.635
REMARK INTRA:                   0.000
REMARK UNBOUND:                 0.000
REMARK SMILES CC1(C)CC[C@]2(C)CC[C@@]3(C)C(=CC[C@H]4[C@@]5(C)CC[C@H](O)C(C)(C)[C@@H]5CC[C@@]43C)[C@@H]2C1
REMARK SMILES IDX 1 1 2 2 4 3 5 4 6 5 8 6 9 7 10 8 12 9 13 10 14 11 15 12
REMARK SMILES IDX 28 13 27 14 26 15 25 16 16 17 18 18 19 19 20 20 22 21 23 22
REMARK SMILES IDX 24 23 17 24 29 25 30 26 31 27 11 28 7 29 3 30 21 31
REMARK H PARENT 21 32
REMARK Flexibility Score: inf
ROOT
ATOM      1  C   UNL     1       7.487   2.010   1.877  1.00  0.00     0.011 C 
ATOM      2  C   UNL     1       7.112   2.184   0.385  1.00  0.00    -0.035 C 
ATOM      3  C   UNL     1       8.400   2.335  -0.484  1.00  0.00     0.007 C 
ATOM      4  C   UNL     1       8.531   1.270  -1.579  1.00  0.00     0.008 C 
ATOM      5  C   UNL     1       8.355  -0.184  -1.052  1.00  0.00    -0.026 C 
ATOM      6  C   UNL     1       8.423  -1.108  -2.296  1.00  0.00     0.008 C 
ATOM      7  C   UNL     1       8.153  -2.573  -1.951  1.00  0.00     0.012 C 
ATOM      8  C   UNL     1       6.738  -2.817  -1.309  1.00  0.00    -0.006 C 
ATOM      9  C   UNL     1       6.083  -1.482  -0.874  1.00  0.00    -0.064 C 
ATOM     10  C   UNL     1       4.723  -1.413  -0.773  1.00  0.00    -0.027 C 
ATOM     11  C   UNL     1       3.752  -2.403  -1.369  1.00  0.00     0.032 C 
ATOM     12  C   UNL     1       4.370  -3.776  -1.699  1.00  0.00     0.006 C 
ATOM     13  C   UNL     1       5.794  -3.599  -2.354  1.00  0.00    -0.020 C 
ATOM     14  C   UNL     1       6.425  -5.000  -2.749  1.00  0.00     0.008 C 
ATOM     15  C   UNL     1       5.458  -6.197  -2.713  1.00  0.00     0.005 C 
ATOM     16  C   UNL     1       4.114  -5.778  -3.333  1.00  0.00     0.003 C 
ATOM     17  C   UNL     1       3.340  -4.822  -2.355  1.00  0.00    -0.025 C 
ATOM     18  C   UNL     1       2.202  -4.151  -3.185  1.00  0.00     0.010 C 
ATOM     19  C   UNL     1       1.289  -5.166  -3.908  1.00  0.00     0.033 C 
ATOM     20  C   UNL     1       2.071  -6.166  -4.790  1.00  0.00     0.120 C 
ATOM     21  C   UNL     1       3.265  -6.886  -4.067  1.00  0.00    -0.006 C 
ATOM     22  C   UNL     1       4.128  -7.553  -5.179  1.00  0.00     0.014 C 
ATOM     23  C   UNL     1       2.788  -8.020  -3.122  1.00  0.00     0.014 C 
ATOM     24  C   UNL     1       2.674  -5.575  -1.154  1.00  0.00     0.012 C 
ATOM     25  C   UNL     1       5.656  -2.731  -3.656  1.00  0.00     0.012 C 
ATOM     26  C   UNL     1       6.985  -0.365  -0.271  1.00  0.00     0.022 C 
ATOM     27  C   UNL     1       6.231   0.990  -0.081  1.00  0.00     0.015 C 
ATOM     28  C   UNL     1       6.956  -3.601   0.029  1.00  0.00     0.017 C 
ATOM     29  C   UNL     1       9.560  -0.519  -0.124  1.00  0.00     0.012 C 
ATOM     30  C   UNL     1       6.268   3.474   0.267  1.00  0.00     0.011 C 
ENDROOT
BRANCH  20  31
ATOM     31  O   UNL     1       1.196  -7.086  -5.401  1.00  0.00    -0.393 OA
ATOM     32  H   UNL     1       1.444  -7.162  -6.358  1.00  0.00     0.210 HD
ENDBRANCH  20  31
TORSDOF 1
ENDMDL
MODEL 3
REMARK VINA RESULT:    -5.392      9.132     13.495
REMARK INTER + INTRA:          -5.550
REMARK INTER:                  -5.550
REMARK INTRA:                   0.000
REMARK UNBOUND:                 0.000
REMARK SMILES CC1(C)CC[C@]2(C)CC[C@@]3(C)C(=CC[C@H]4[C@@]5(C)CC[C@H](O)C(C)(C)[C@@H]5CC[C@@]43C)[C@@H]2C1
REMARK SMILES IDX 1 1 2 2 4 3 5 4 6 5 8 6 9 7 10 8 12 9 13 10 14 11 15 12
REMARK SMILES IDX 28 13 27 14 26 15 25 16 16 17 18 18 19 19 20 20 22 21 23 22
REMARK SMILES IDX 24 23 17 24 29 25 30 26 31 27 11 28 7 29 3 30 21 31
REMARK H PARENT 21 32
REMARK Flexibility Score: inf
ROOT
ATOM      1  C   UNL     1       4.456   9.980  -7.779  1.00  0.00     0.011 C 
ATOM      2  C   UNL     1       3.315   9.142  -7.152  1.00  0.00    -0.035 C 
ATOM      3  C   UNL     1       2.528   8.378  -8.263  1.00  0.00     0.007 C 
ATOM      4  C   UNL     1       2.522   6.856  -8.076  1.00  0.00     0.008 C 
ATOM      5  C   UNL     1       3.941   6.255  -7.853  1.00  0.00    -0.026 C 
ATOM      6  C   UNL     1       3.734   4.740  -7.592  1.00  0.00     0.008 C 
ATOM      7  C   UNL     1       5.039   4.024  -7.242  1.00  0.00     0.012 C 
ATOM      8  C   UNL     1       5.741   4.593  -5.954  1.00  0.00    -0.006 C 
ATOM      9  C   UNL     1       5.125   5.950  -5.533  1.00  0.00    -0.064 C 
ATOM     10  C   UNL     1       5.224   6.347  -4.230  1.00  0.00    -0.027 C 
ATOM     11  C   UNL     1       5.574   5.451  -3.068  1.00  0.00     0.032 C 
ATOM     12  C   UNL     1       6.293   4.147  -3.469  1.00  0.00     0.006 C 
ATOM     13  C   UNL     1       5.629   3.522  -4.755  1.00  0.00    -0.020 C 
ATOM     14  C   UNL     1       6.322   2.151  -5.154  1.00  0.00     0.008 C 
ATOM     15  C   UNL     1       7.260   1.549  -4.093  1.00  0.00     0.005 C 
ATOM     16  C   UNL     1       6.605   1.684  -2.706  1.00  0.00     0.003 C 
ATOM     17  C   UNL     1       6.645   3.181  -2.232  1.00  0.00    -0.025 C 
ATOM     18  C   UNL     1       5.653   3.303  -1.034  1.00  0.00     0.010 C 
ATOM     19  C   UNL     1       5.929   2.288   0.098  1.00  0.00     0.033 C 
ATOM     20  C   UNL     1       5.987   0.825  -0.398  1.00  0.00     0.120 C 
ATOM     21  C   UNL     1       6.938   0.585  -1.625  1.00  0.00    -0.006 C 
ATOM     22  C   UNL     1       6.593  -0.824  -2.192  1.00  0.00     0.014 C 
ATOM     23  C   UNL     1       8.435   0.556  -1.219  1.00  0.00     0.014 C 
ATOM     24  C   UNL     1       8.058   3.632  -1.728  1.00  0.00     0.012 C 
ATOM     25  C   UNL     1       4.110   3.245  -4.467  1.00  0.00     0.012 C 
ATOM     26  C   UNL     1       4.692   6.953  -6.642  1.00  0.00     0.022 C 
ATOM     27  C   UNL     1       3.897   8.176  -6.081  1.00  0.00     0.015 C 
ATOM     28  C   UNL     1       7.221   4.935  -6.336  1.00  0.00     0.017 C 
ATOM     29  C   UNL     1       4.757   6.420  -9.169  1.00  0.00     0.012 C 
ATOM     30  C   UNL     1       2.357  10.124  -6.438  1.00  0.00     0.011 C 
ENDROOT
BRANCH  20  31
ATOM     31  O   UNL     1       6.273  -0.053   0.666  1.00  0.00    -0.393 OA
ATOM     32  H   UNL     1       6.877   0.413   1.299  1.00  0.00     0.210 HD
ENDBRANCH  20  31
TORSDOF 1
ENDMDL
MODEL 4
REMARK VINA RESULT:    -5.289      3.042      8.476
REMARK INTER + INTRA:          -5.443
REMARK INTER:                  -5.443
REMARK INTRA:                   0.000
REMARK UNBOUND:                 0.000
REMARK SMILES CC1(C)CC[C@]2(C)CC[C@@]3(C)C(=CC[C@H]4[C@@]5(C)CC[C@H](O)C(C)(C)[C@@H]5CC[C@@]43C)[C@@H]2C1
REMARK SMILES IDX 1 1 2 2 4 3 5 4 6 5 8 6 9 7 10 8 12 9 13 10 14 11 15 12
REMARK SMILES IDX 28 13 27 14 26 15 25 16 16 17 18 18 19 19 20 20 22 21 23 22
REMARK SMILES IDX 24 23 17 24 29 25 30 26 31 27 11 28 7 29 3 30 21 31
REMARK H PARENT 21 32
REMARK Flexibility Score: inf
ROOT
ATOM      1  C   UNL     1      -6.294   0.018  -7.091  1.00  0.00     0.011 C 
ATOM      2  C   UNL     1      -6.714  -1.448  -6.820  1.00  0.00    -0.035 C 
ATOM      3  C   UNL     1      -7.484  -2.028  -8.047  1.00  0.00     0.007 C 
ATOM      4  C   UNL     1      -6.832  -3.281  -8.646  1.00  0.00     0.008 C 
ATOM      5  C   UNL     1      -5.314  -3.105  -8.944  1.00  0.00    -0.026 C 
ATOM      6  C   UNL     1      -4.809  -4.482  -9.448  1.00  0.00     0.008 C 
ATOM      7  C   UNL     1      -3.298  -4.501  -9.679  1.00  0.00     0.012 C 
ATOM      8  C   UNL     1      -2.461  -4.181  -8.387  1.00  0.00    -0.006 C 
ATOM      9  C   UNL     1      -3.359  -3.600  -7.267  1.00  0.00    -0.064 C 
ATOM     10  C   UNL     1      -2.962  -3.725  -5.966  1.00  0.00    -0.027 C 
ATOM     11  C   UNL     1      -1.901  -4.673  -5.465  1.00  0.00     0.032 C 
ATOM     12  C   UNL     1      -0.928  -5.168  -6.555  1.00  0.00     0.006 C 
ATOM     13  C   UNL     1      -1.711  -5.513  -7.879  1.00  0.00    -0.020 C 
ATOM     14  C   UNL     1      -0.734  -6.074  -8.997  1.00  0.00     0.008 C 
ATOM     15  C   UNL     1       0.677  -6.456  -8.514  1.00  0.00     0.005 C 
ATOM     16  C   UNL     1       0.565  -7.201  -7.172  1.00  0.00     0.003 C 
ATOM     17  C   UNL     1       0.188  -6.197  -6.025  1.00  0.00    -0.025 C 
ATOM     18  C   UNL     1      -0.272  -7.055  -4.805  1.00  0.00     0.010 C 
ATOM     19  C   UNL     1       0.762  -8.120  -4.379  1.00  0.00     0.033 C 
ATOM     20  C   UNL     1       1.200  -9.041  -5.541  1.00  0.00     0.120 C 
ATOM     21  C   UNL     1       1.661  -8.286  -6.839  1.00  0.00    -0.006 C 
ATOM     22  C   UNL     1       1.711  -9.343  -7.981  1.00  0.00     0.014 C 
ATOM     23  C   UNL     1       3.089  -7.694  -6.706  1.00  0.00     0.014 C 
ATOM     24  C   UNL     1       1.394  -5.312  -5.557  1.00  0.00     0.012 C 
ATOM     25  C   UNL     1      -2.791  -6.611  -7.568  1.00  0.00     0.012 C 
ATOM     26  C   UNL     1      -4.513  -2.630  -7.659  1.00  0.00     0.022 C 
ATOM     27  C   UNL     1      -5.461  -2.297  -6.462  1.00  0.00     0.015 C 
ATOM     28  C   UNL     1      -1.473  -3.017  -8.741  1.00  0.00     0.017 C 
ATOM     29  C   UNL     1      -5.157  -2.071 -10.098  1.00  0.00     0.012 C 
ATOM     30  C   UNL     1      -7.652  -1.441  -5.590  1.00  0.00     0.011 C 
ENDROOT
BRANCH  20  31
ATOM     31  O   UNL     1       2.164  -9.971  -5.106  1.00  0.00    -0.393 OA
ATOM     32  H   UNL     1       1.979 -10.839  -5.550  1.00  0.00     0.210 HD
ENDBRANCH  20  31
TORSDOF 1
ENDMDL
MODEL 5
REMARK VINA RESULT:    -5.158      2.817      8.506
REMARK INTER + INTRA:          -5.309
REMARK INTER:                  -5.309
REMARK INTRA:                   0.000
REMARK UNBOUND:                 0.000
REMARK SMILES CC1(C)CC[C@]2(C)CC[C@@]3(C)C(=CC[C@H]4[C@@]5(C)CC[C@H](O)C(C)(C)[C@@H]5CC[C@@]43C)[C@@H]2C1
REMARK SMILES IDX 1 1 2 2 4 3 5 4 6 5 8 6 9 7 10 8 12 9 13 10 14 11 15 12
REMARK SMILES IDX 28 13 27 14 26 15 25 16 16 17 18 18 19 19 20 20 22 21 23 22
REMARK SMILES IDX 24 23 17 24 29 25 30 26 31 27 11 28 7 29 3 30 21 31
REMARK H PARENT 21 32
REMARK Flexibility Score: inf
ROOT
ATOM      1  C   UNL     1      -7.838   0.758  -5.882  1.00  0.00     0.011 C 
ATOM      2  C   UNL     1      -7.991  -0.697  -6.388  1.00  0.00    -0.035 C 
ATOM      3  C   UNL     1      -8.340  -0.709  -7.910  1.00  0.00     0.007 C 
ATOM      4  C   UNL     1      -7.328  -1.478  -8.767  1.00  0.00     0.008 C 
ATOM      5  C   UNL     1      -5.852  -1.051  -8.514  1.00  0.00    -0.026 C 
ATOM      6  C   UNL     1      -4.974  -1.987  -9.385  1.00  0.00     0.008 C 
ATOM      7  C   UNL     1      -3.479  -1.762  -9.159  1.00  0.00     0.012 C 
ATOM      8  C   UNL     1      -3.025  -2.004  -7.673  1.00  0.00    -0.006 C 
ATOM      9  C   UNL     1      -4.245  -2.090  -6.722  1.00  0.00    -0.064 C 
ATOM     10  C   UNL     1      -4.120  -2.769  -5.543  1.00  0.00    -0.027 C 
ATOM     11  C   UNL     1      -3.017  -3.743  -5.209  1.00  0.00     0.032 C 
ATOM     12  C   UNL     1      -1.752  -3.589  -6.076  1.00  0.00     0.006 C 
ATOM     13  C   UNL     1      -2.141  -3.349  -7.585  1.00  0.00    -0.020 C 
ATOM     14  C   UNL     1      -0.851  -3.238  -8.503  1.00  0.00     0.008 C 
ATOM     15  C   UNL     1       0.470  -3.675  -7.845  1.00  0.00     0.005 C 
ATOM     16  C   UNL     1       0.230  -4.963  -7.038  1.00  0.00     0.003 C 
ATOM     17  C   UNL     1      -0.586  -4.642  -5.735  1.00  0.00    -0.025 C 
ATOM     18  C   UNL     1      -1.109  -6.005  -5.181  1.00  0.00     0.010 C 
ATOM     19  C   UNL     1       0.008  -7.051  -4.969  1.00  0.00     0.033 C 
ATOM     20  C   UNL     1       0.869  -7.285  -6.232  1.00  0.00     0.120 C 
ATOM     21  C   UNL     1       1.430  -5.977  -6.897  1.00  0.00    -0.006 C 
ATOM     22  C   UNL     1       1.945  -6.376  -8.311  1.00  0.00     0.014 C 
ATOM     23  C   UNL     1       2.640  -5.391  -6.123  1.00  0.00     0.014 C 
ATOM     24  C   UNL     1       0.279  -3.973  -4.614  1.00  0.00     0.012 C 
ATOM     25  C   UNL     1      -3.009  -4.556  -8.091  1.00  0.00     0.012 C 
ATOM     26  C   UNL     1      -5.464  -1.156  -6.979  1.00  0.00     0.022 C 
ATOM     27  C   UNL     1      -6.696  -1.501  -6.081  1.00  0.00     0.015 C 
ATOM     28  C   UNL     1      -2.250  -0.727  -7.202  1.00  0.00     0.017 C 
ATOM     29  C   UNL     1      -5.669   0.409  -9.024  1.00  0.00     0.012 C 
ATOM     30  C   UNL     1      -9.152  -1.343  -5.598  1.00  0.00     0.011 C 
ENDROOT
BRANCH  20  31
ATOM     31  O   UNL     1       1.889  -8.222  -5.976  1.00  0.00    -0.393 OA
ATOM     32  H   UNL     1       2.434  -7.887  -5.217  1.00  0.00     0.210 HD
ENDBRANCH  20  31
TORSDOF 1
ENDMDL
MODEL 6
REMARK VINA RESULT:    -5.094      9.133     10.780
REMARK INTER + INTRA:          -5.243
REMARK INTER:                  -5.243
REMARK INTRA:                   0.000
REMARK UNBOUND:                 0.000
REMARK SMILES CC1(C)CC[C@]2(C)CC[C@@]3(C)C(=CC[C@H]4[C@@]5(C)CC[C@H](O)C(C)(C)[C@@H]5CC[C@@]43C)[C@@H]2C1
REMARK SMILES IDX 1 1 2 2 4 3 5 4 6 5 8 6 9 7 10 8 12 9 13 10 14 11 15 12
REMARK SMILES IDX 28 13 27 14 26 15 25 16 16 17 18 18 19 19 20 20 22 21 23 22
REMARK SMILES IDX 24 23 17 24 29 25 30 26 31 27 11 28 7 29 3 30 21 31
REMARK H PARENT 21 32
REMARK Flexibility Score: inf
ROOT
ATOM      1  C   UNL     1       9.505  -1.176  -0.836  1.00  0.00     0.011 C 
ATOM      2  C   UNL     1       8.005  -1.310  -1.195  1.00  0.00    -0.035 C 
ATOM      3  C   UNL     1       7.122  -1.099   0.075  1.00  0.00     0.007 C 
ATOM      4  C   UNL     1       6.118   0.053  -0.059  1.00  0.00     0.008 C 
ATOM      5  C   UNL     1       6.765   1.383  -0.543  1.00  0.00    -0.026 C 
ATOM      6  C   UNL     1       5.601   2.395  -0.710  1.00  0.00     0.008 C 
ATOM      7  C   UNL     1       6.067   3.730  -1.293  1.00  0.00     0.012 C 
ATOM      8  C   UNL     1       6.731   3.598  -2.713  1.00  0.00    -0.006 C 
ATOM      9  C   UNL     1       7.056   2.120  -3.043  1.00  0.00    -0.064 C 
ATOM     10  C   UNL     1       7.156   1.740  -4.352  1.00  0.00    -0.027 C 
ATOM     11  C   UNL     1       6.647   2.530  -5.532  1.00  0.00     0.032 C 
ATOM     12  C   UNL     1       6.429   4.030  -5.243  1.00  0.00     0.006 C 
ATOM     13  C   UNL     1       5.757   4.229  -3.830  1.00  0.00    -0.020 C 
ATOM     14  C   UNL     1       5.478   5.763  -3.536  1.00  0.00     0.008 C 
ATOM     15  C   UNL     1       5.615   6.706  -4.745  1.00  0.00     0.005 C 
ATOM     16  C   UNL     1       4.966   6.047  -5.975  1.00  0.00     0.003 C 
ATOM     17  C   UNL     1       5.865   4.867  -6.494  1.00  0.00    -0.025 C 
ATOM     18  C   UNL     1       4.986   4.025  -7.472  1.00  0.00     0.010 C 
ATOM     19  C   UNL     1       4.352   4.864  -8.604  1.00  0.00     0.033 C 
ATOM     20  C   UNL     1       3.553   6.081  -8.084  1.00  0.00     0.120 C 
ATOM     21  C   UNL     1       4.329   6.991  -7.066  1.00  0.00    -0.006 C 
ATOM     22  C   UNL     1       3.274   7.920  -6.398  1.00  0.00     0.014 C 
ATOM     23  C   UNL     1       5.366   7.910  -7.763  1.00  0.00     0.014 C 
ATOM     24  C   UNL     1       7.126   5.353  -7.285  1.00  0.00     0.012 C 
ATOM     25  C   UNL     1       4.388   3.460  -3.799  1.00  0.00     0.012 C 
ATOM     26  C   UNL     1       7.562   1.190  -1.902  1.00  0.00     0.022 C 
ATOM     27  C   UNL     1       7.642  -0.311  -2.330  1.00  0.00     0.015 C 
ATOM     28  C   UNL     1       8.129   4.302  -2.647  1.00  0.00     0.017 C 
ATOM     29  C   UNL     1       7.713   1.905   0.576  1.00  0.00     0.012 C 
ATOM     30  C   UNL     1       7.784  -2.743  -1.732  1.00  0.00     0.011 C 
ENDROOT
BRANCH  20  31
ATOM     31  O   UNL     1       3.024   6.827  -9.155  1.00  0.00    -0.393 OA
ATOM     32  H   UNL     1       2.890   7.761  -8.847  1.00  0.00     0.210 HD
ENDBRANCH  20  31
TORSDOF 1
ENDMDL
MODEL 7
REMARK VINA RESULT:    -5.046      6.266      9.008
REMARK INTER + INTRA:          -5.193
REMARK INTER:                  -5.193
REMARK INTRA:                   0.000
REMARK UNBOUND:                 0.000
REMARK SMILES CC1(C)CC[C@]2(C)CC[C@@]3(C)C(=CC[C@H]4[C@@]5(C)CC[C@H](O)C(C)(C)[C@@H]5CC[C@@]43C)[C@@H]2C1
REMARK SMILES IDX 1 1 2 2 4 3 5 4 6 5 8 6 9 7 10 8 12 9 13 10 14 11 15 12
REMARK SMILES IDX 28 13 27 14 26 15 25 16 16 17 18 18 19 19 20 20 22 21 23 22
REMARK SMILES IDX 24 23 17 24 29 25 30 26 31 27 11 28 7 29 3 30 21 31
REMARK H PARENT 21 32
REMARK Flexibility Score: inf
ROOT
ATOM      1  C   UNL     1       3.879  -7.045  -6.173  1.00  0.00     0.011 C 
ATOM      2  C   UNL     1       2.844  -6.290  -5.304  1.00  0.00    -0.035 C 
ATOM      3  C   UNL     1       2.401  -7.174  -4.096  1.00  0.00     0.007 C 
ATOM      4  C   UNL     1       2.668  -6.528  -2.731  1.00  0.00     0.008 C 
ATOM      5  C   UNL     1       4.126  -6.009  -2.566  1.00  0.00    -0.026 C 
ATOM      6  C   UNL     1       4.185  -5.311  -1.182  1.00  0.00     0.008 C 
ATOM      7  C   UNL     1       5.536  -4.647  -0.919  1.00  0.00     0.012 C 
ATOM      8  C   UNL     1       5.908  -3.542  -1.976  1.00  0.00    -0.006 C 
ATOM      9  C   UNL     1       4.980  -3.615  -3.213  1.00  0.00    -0.064 C 
ATOM     10  C   UNL     1       4.800  -2.495  -3.974  1.00  0.00    -0.027 C 
ATOM     11  C   UNL     1       5.139  -1.088  -3.550  1.00  0.00     0.032 C 
ATOM     12  C   UNL     1       6.153  -1.003  -2.391  1.00  0.00     0.006 C 
ATOM     13  C   UNL     1       5.829  -2.086  -1.292  1.00  0.00    -0.020 C 
ATOM     14  C   UNL     1       6.831  -1.980  -0.065  1.00  0.00     0.008 C 
ATOM     15  C   UNL     1       7.697  -0.709  -0.024  1.00  0.00     0.005 C 
ATOM     16  C   UNL     1       6.825   0.507  -0.388  1.00  0.00     0.003 C 
ATOM     17  C   UNL     1       6.496   0.497  -1.924  1.00  0.00    -0.025 C 
ATOM     18  C   UNL     1       5.329   1.509  -2.143  1.00  0.00     0.010 C 
ATOM     19  C   UNL     1       5.625   2.918  -1.584  1.00  0.00     0.033 C 
ATOM     20  C   UNL     1       6.045   2.905  -0.096  1.00  0.00     0.120 C 
ATOM     21  C   UNL     1       7.199   1.898   0.252  1.00  0.00    -0.006 C 
ATOM     22  C   UNL     1       7.229   1.767   1.804  1.00  0.00     0.014 C 
ATOM     23  C   UNL     1       8.593   2.421  -0.185  1.00  0.00     0.014 C 
ATOM     24  C   UNL     1       7.699   0.956  -2.816  1.00  0.00     0.012 C 
ATOM     25  C   UNL     1       4.368  -1.857  -0.760  1.00  0.00     0.012 C 
ATOM     26  C   UNL     1       4.532  -5.013  -3.733  1.00  0.00     0.022 C 
ATOM     27  C   UNL     1       3.435  -4.928  -4.843  1.00  0.00     0.015 C 
ATOM     28  C   UNL     1       7.332  -3.882  -2.532  1.00  0.00     0.017 C 
ATOM     29  C   UNL     1       5.084  -7.236  -2.539  1.00  0.00     0.012 C 
ATOM     30  C   UNL     1       1.615  -5.999  -6.195  1.00  0.00     0.011 C 
ENDROOT
BRANCH  20  31
ATOM     31  O   UNL     1       6.333   4.209   0.355  1.00  0.00    -0.393 OA
ATOM     32  H   UNL     1       6.524   4.775  -0.437  1.00  0.00     0.210 HD
ENDBRANCH  20  31
TORSDOF 1
ENDMDL
MODEL 8
REMARK VINA RESULT:    -4.979      9.636     13.537
REMARK INTER + INTRA:          -5.124
REMARK INTER:                  -5.124
REMARK INTRA:                   0.000
REMARK UNBOUND:                 0.000
REMARK SMILES CC1(C)CC[C@]2(C)CC[C@@]3(C)C(=CC[C@H]4[C@@]5(C)CC[C@H](O)C(C)(C)[C@@H]5CC[C@@]43C)[C@@H]2C1
REMARK SMILES IDX 1 1 2 2 4 3 5 4 6 5 8 6 9 7 10 8 12 9 13 10 14 11 15 12
REMARK SMILES IDX 28 13 27 14 26 15 25 16 16 17 18 18 19 19 20 20 22 21 23 22
REMARK SMILES IDX 24 23 17 24 29 25 30 26 31 27 11 28 7 29 3 30 21 31
REMARK H PARENT 21 32
REMARK Flexibility Score: inf
ROOT
ATOM      1  C   UNL     1       5.228   5.975  -9.709  1.00  0.00     0.011 C 
ATOM      2  C   UNL     1       6.425   6.444  -8.846  1.00  0.00    -0.035 C 
ATOM      3  C   UNL     1       6.100   7.809  -8.162  1.00  0.00     0.007 C 
ATOM      4  C   UNL     1       6.181   7.764  -6.631  1.00  0.00     0.008 C 
ATOM      5  C   UNL     1       5.371   6.593  -6.003  1.00  0.00    -0.026 C 
ATOM      6  C   UNL     1       5.644   6.647  -4.477  1.00  0.00     0.008 C 
ATOM      7  C   UNL     1       5.000   5.481  -3.726  1.00  0.00     0.012 C 
ATOM      8  C   UNL     1       5.504   4.070  -4.205  1.00  0.00    -0.006 C 
ATOM      9  C   UNL     1       6.283   4.178  -5.540  1.00  0.00    -0.064 C 
ATOM     10  C   UNL     1       7.197   3.212  -5.854  1.00  0.00    -0.027 C 
ATOM     11  C   UNL     1       7.787   2.220  -4.883  1.00  0.00     0.032 C 
ATOM     12  C   UNL     1       6.957   2.020  -3.599  1.00  0.00     0.006 C 
ATOM     13  C   UNL     1       6.425   3.404  -3.063  1.00  0.00    -0.020 C 
ATOM     14  C   UNL     1       5.610   3.226  -1.712  1.00  0.00     0.008 C 
ATOM     15  C   UNL     1       5.743   1.850  -1.035  1.00  0.00     0.005 C 
ATOM     16  C   UNL     1       7.215   1.401  -1.090  1.00  0.00     0.003 C 
ATOM     17  C   UNL     1       7.598   0.980  -2.554  1.00  0.00    -0.025 C 
ATOM     18  C   UNL     1       9.156   0.908  -2.611  1.00  0.00     0.010 C 
ATOM     19  C   UNL     1       9.769  -0.004  -1.524  1.00  0.00     0.033 C 
ATOM     20  C   UNL     1       9.304   0.358  -0.095  1.00  0.00     0.120 C 
ATOM     21  C   UNL     1       7.749   0.486   0.078  1.00  0.00    -0.006 C 
ATOM     22  C   UNL     1       7.505   1.191   1.445  1.00  0.00     0.014 C 
ATOM     23  C   UNL     1       7.044  -0.894   0.149  1.00  0.00     0.014 C 
ATOM     24  C   UNL     1       7.041  -0.428  -2.958  1.00  0.00     0.012 C 
ATOM     25  C   UNL     1       7.647   4.352  -2.784  1.00  0.00     0.012 C 
ATOM     26  C   UNL     1       5.791   5.191  -6.615  1.00  0.00     0.022 C 
ATOM     27  C   UNL     1       6.789   5.344  -7.809  1.00  0.00     0.015 C 
ATOM     28  C   UNL     1       4.242   3.211  -4.555  1.00  0.00     0.017 C 
ATOM     29  C   UNL     1       3.856   6.860  -6.241  1.00  0.00     0.012 C 
ATOM     30  C   UNL     1       7.635   6.627  -9.791  1.00  0.00     0.011 C 
ENDROOT
BRANCH  20  31
ATOM     31  O   UNL     1       9.866  -0.522   0.852  1.00  0.00    -0.393 OA
ATOM     32  H   UNL     1      10.104  -1.366   0.388  1.00  0.00     0.210 HD
ENDBRANCH  20  31
TORSDOF 1
ENDMDL
MODEL 9
REMARK VINA RESULT:    -4.887      4.223      9.391
REMARK INTER + INTRA:          -5.030
REMARK INTER:                  -5.030
REMARK INTRA:                   0.000
REMARK UNBOUND:                 0.000
REMARK SMILES CC1(C)CC[C@]2(C)CC[C@@]3(C)C(=CC[C@H]4[C@@]5(C)CC[C@H](O)C(C)(C)[C@@H]5CC[C@@]43C)[C@@H]2C1
REMARK SMILES IDX 1 1 2 2 4 3 5 4 6 5 8 6 9 7 10 8 12 9 13 10 14 11 15 12
REMARK SMILES IDX 28 13 27 14 26 15 25 16 16 17 18 18 19 19 20 20 22 21 23 22
REMARK SMILES IDX 24 23 17 24 29 25 30 26 31 27 11 28 7 29 3 30 21 31
REMARK H PARENT 21 32
REMARK Flexibility Score: inf
ROOT
ATOM      1  C   UNL     1      -0.982  -3.233  -7.067  1.00  0.00     0.011 C 
ATOM      2  C   UNL     1      -1.420  -3.831  -5.708  1.00  0.00    -0.035 C 
ATOM      3  C   UNL     1      -2.245  -5.137  -5.930  1.00  0.00     0.007 C 
ATOM      4  C   UNL     1      -1.638  -6.370  -5.248  1.00  0.00     0.008 C 
ATOM      5  C   UNL     1      -0.130  -6.575  -5.569  1.00  0.00    -0.026 C 
ATOM      6  C   UNL     1       0.331  -7.796  -4.730  1.00  0.00     0.008 C 
ATOM      7  C   UNL     1       1.832  -8.057  -4.854  1.00  0.00     0.012 C 
ATOM      8  C   UNL     1       2.721  -6.849  -4.381  1.00  0.00    -0.006 C 
ATOM      9  C   UNL     1       1.874  -5.563  -4.214  1.00  0.00    -0.064 C 
ATOM     10  C   UNL     1       2.315  -4.584  -3.369  1.00  0.00    -0.027 C 
ATOM     11  C   UNL     1       3.375  -4.758  -2.309  1.00  0.00     0.032 C 
ATOM     12  C   UNL     1       4.298  -5.973  -2.530  1.00  0.00     0.006 C 
ATOM     13  C   UNL     1       3.462  -7.225  -3.001  1.00  0.00    -0.020 C 
ATOM     14  C   UNL     1       4.388  -8.501  -3.185  1.00  0.00     0.008 C 
ATOM     15  C   UNL     1       5.807  -8.380  -2.601  1.00  0.00     0.005 C 
ATOM     16  C   UNL     1       5.729  -7.701  -1.222  1.00  0.00     0.003 C 
ATOM     17  C   UNL     1       5.413  -6.171  -1.389  1.00  0.00    -0.025 C 
ATOM     18  C   UNL     1       4.979  -5.643   0.015  1.00  0.00     0.010 C 
ATOM     19  C   UNL     1       6.007  -5.945   1.128  1.00  0.00     0.033 C 
ATOM     20  C   UNL     1       6.386  -7.441   1.217  1.00  0.00     0.120 C 
ATOM     21  C   UNL     1       6.814  -8.092  -0.147  1.00  0.00    -0.006 C 
ATOM     22  C   UNL     1       6.803  -9.634   0.067  1.00  0.00     0.014 C 
ATOM     23  C   UNL     1       8.258  -7.702  -0.562  1.00  0.00     0.014 C 
ATOM     24  C   UNL     1       6.651  -5.331  -1.852  1.00  0.00     0.012 C 
ATOM     25  C   UNL     1       2.373  -7.553  -1.917  1.00  0.00     0.012 C 
ATOM     26  C   UNL     1       0.726  -5.283  -5.228  1.00  0.00     0.022 C 
ATOM     27  C   UNL     1      -0.172  -4.074  -4.812  1.00  0.00     0.015 C 
ATOM     28  C   UNL     1       3.718  -6.514  -5.543  1.00  0.00     0.017 C 
ATOM     29  C   UNL     1       0.007  -6.937  -7.078  1.00  0.00     0.012 C 
ATOM     30  C   UNL     1      -2.313  -2.782  -5.007  1.00  0.00     0.011 C 
ENDROOT
BRANCH  20  31
ATOM     31  O   UNL     1       7.347  -7.655   2.224  1.00  0.00    -0.393 OA
ATOM     32  H   UNL     1       7.022  -8.386   2.812  1.00  0.00     0.210 HD
ENDBRANCH  20  31
TORSDOF 1
ENDMDL
