MODEL 1
REMARK VINA RESULT:    -4.458      0.000      0.000
REMARK INTER + INTRA:          -8.576
REMARK INTER:                  -7.586
REMARK INTRA:                  -0.990
REMARK UNBOUND:                -0.990
REMARK SMILES CCCCCCCCCCCCCC(=O)[O-]
REMARK SMILES IDX 8 1 9 2 10 3 11 4 12 5 13 6 14 7 15 8 16 9 7 10 6 11 5 12
REMARK SMILES IDX 4 13 3 14 2 15 1 16
REMARK H PARENT
REMARK Flexibility Score: inf
ROOT
ATOM      1  C   UNL     1      33.344  26.425  70.578  1.00  0.00     0.000 C 
ENDROOT
BRANCH   1   2
ATOM      2  C   UNL     1      32.143  26.082  71.475  1.00  0.00     0.000 C 
BRANCH   2   3
ATOM      3  C   UNL     1      31.088  25.231  70.749  1.00  0.00     0.000 C 
BRANCH   3   4
ATOM      4  C   UNL     1      31.705  24.035  70.000  1.00  0.00     0.000 C 
BRANCH   4   5
ATOM      5  C   UNL     1      31.356  24.036  68.502  1.00  0.00     0.006 C 
BRANCH   5   6
ATOM      6  C   UNL     1      32.494  24.585  67.632  1.00  0.00     0.053 C 
BRANCH   6   7
ATOM      7  C   UNL     1      32.053  24.699  66.208  1.00  0.00     0.041 C 
ATOM      8  O   UNL     1      32.898  24.896  65.296  1.00  0.00    -0.550 OA
ATOM      9  O   UNL     1      30.712  24.540  65.880  1.00  0.00    -0.550 OA
ENDBRANCH   6   7
ENDBRANCH   5   6
ENDBRANCH   4   5
ENDBRANCH   3   4
ENDBRANCH   2   3
ENDBRANCH   1   2
BRANCH   1  10
ATOM     10  C   UNL     1      34.692  25.996  71.188  1.00  0.00     0.000 C 
BRANCH  10  11
ATOM     11  C   UNL     1      35.176  24.588  70.795  1.00  0.00    -0.000 C 
BRANCH  11  12
ATOM     12  C   UNL     1      36.099  24.591  69.565  1.00  0.00    -0.000 C 
BRANCH  12  13
ATOM     13  C   UNL     1      37.536  24.143  69.893  1.00  0.00    -0.000 C 
BRANCH  13  14
ATOM     14  C   UNL     1      37.858  24.003  71.394  1.00  0.00    -0.000 C 
BRANCH  14  15
ATOM     15  C   UNL     1      39.298  24.378  71.787  1.00  0.00    -0.003 C 
ATOM     16  C   UNL     1      39.419  24.833  73.241  1.00  0.00     0.004 C 
ENDBRANCH  14  15
ENDBRANCH  13  14
ENDBRANCH  12  13
ENDBRANCH  11  12
ENDBRANCH  10  11
ENDBRANCH   1  10
TORSDOF 12
ENDMDL
MODEL 2
REMARK VINA RESULT:    -4.159      1.347      2.577
REMARK INTER + INTRA:          -8.065
REMARK INTER:                  -7.015
REMARK INTRA:                  -1.050
REMARK UNBOUND:                -0.990
REMARK SMILES CCCCCCCCCCCCCC(=O)[O-]
REMARK SMILES IDX 8 1 9 2 10 3 11 4 12 5 13 6 14 7 15 8 16 9 7 10 6 11 5 12
REMARK SMILES IDX 4 13 3 14 2 15 1 16
REMARK H PARENT
REMARK Flexibility Score: inf
ROOT
ATOM      1  C   UNL     1      31.225  25.236  70.285  1.00  0.00     0.000 C 
ENDROOT
BRANCH   1   2
ATOM      2  C   UNL     1      32.005  23.986  69.843  1.00  0.00     0.000 C 
BRANCH   2   3
ATOM      3  C   UNL     1      32.287  23.971  68.331  1.00  0.00     0.000 C 
BRANCH   3   4
ATOM      4  C   UNL     1      31.076  24.429  67.498  1.00  0.00     0.000 C 
BRANCH   4   5
ATOM      5  C   UNL     1      31.220  24.078  66.008  1.00  0.00     0.006 C 
BRANCH   5   6
ATOM      6  C   UNL     1      32.243  24.967  65.290  1.00  0.00     0.053 C 
BRANCH   6   7
ATOM      7  C   UNL     1      31.863  25.146  63.854  1.00  0.00     0.041 C 
ATOM      8  O   UNL     1      32.343  24.387  62.972  1.00  0.00    -0.550 OA
ATOM      9  O   UNL     1      30.940  26.120  63.496  1.00  0.00    -0.550 OA
ENDBRANCH   6   7
ENDBRANCH   5   6
ENDBRANCH   4   5
ENDBRANCH   3   4
ENDBRANCH   2   3
ENDBRANCH   1   2
BRANCH   1  10
ATOM     10  C   UNL     1      32.100  26.257  71.036  1.00  0.00     0.000 C 
BRANCH  10  11
ATOM     11  C   UNL     1      33.488  25.747  71.466  1.00  0.00    -0.000 C 
BRANCH  11  12
ATOM     12  C   UNL     1      34.642  26.470  70.752  1.00  0.00    -0.000 C 
BRANCH  12  13
ATOM     13  C   UNL     1      35.280  25.623  69.636  1.00  0.00    -0.000 C 
BRANCH  13  14
ATOM     14  C   UNL     1      35.779  24.229  70.067  1.00  0.00    -0.000 C 
BRANCH  14  15
ATOM     15  C   UNL     1      37.302  24.027  69.980  1.00  0.00    -0.003 C 
ATOM     16  C   UNL     1      37.989  24.086  71.343  1.00  0.00     0.004 C 
ENDBRANCH  14  15
ENDBRANCH  13  14
ENDBRANCH  12  13
ENDBRANCH  11  12
ENDBRANCH  10  11
ENDBRANCH   1  10
TORSDOF 12
ENDMDL
MODEL 3
REMARK VINA RESULT:    -4.080      5.483     10.552
REMARK INTER + INTRA:          -7.931
REMARK INTER:                  -7.060
REMARK INTRA:                  -0.871
REMARK UNBOUND:                -0.990
REMARK SMILES CCCCCCCCCCCCCC(=O)[O-]
REMARK SMILES IDX 8 1 9 2 10 3 11 4 12 5 13 6 14 7 15 8 16 9 7 10 6 11 5 12
REMARK SMILES IDX 4 13 3 14 2 15 1 16
REMARK H PARENT
REMARK Flexibility Score: inf
ROOT
ATOM      1  C   UNL     1      29.302  27.562  63.149  1.00  0.00     0.000 C 
ENDROOT
BRANCH   1   2
ATOM      2  C   UNL     1      30.543  27.248  62.297  1.00  0.00     0.000 C 
BRANCH   2   3
ATOM      3  C   UNL     1      31.818  27.102  63.144  1.00  0.00     0.000 C 
BRANCH   3   4
ATOM      4  C   UNL     1      32.429  25.691  63.058  1.00  0.00     0.000 C 
BRANCH   4   5
ATOM      5  C   UNL     1      31.814  24.721  64.080  1.00  0.00     0.006 C 
BRANCH   5   6
ATOM      6  C   UNL     1      32.611  24.659  65.388  1.00  0.00     0.053 C 
BRANCH   6   7
ATOM      7  C   UNL     1      31.687  24.548  66.559  1.00  0.00     0.041 C 
ATOM      8  O   UNL     1      30.458  24.340  66.379  1.00  0.00    -0.550 OA
ATOM      9  O   UNL     1      32.190  24.625  67.851  1.00  0.00    -0.550 OA
ENDBRANCH   6   7
ENDBRANCH   5   6
ENDBRANCH   4   5
ENDBRANCH   3   4
ENDBRANCH   2   3
ENDBRANCH   1   2
BRANCH   1  10
ATOM     10  C   UNL     1      28.200  26.492  63.023  1.00  0.00     0.000 C 
BRANCH  10  11
ATOM     11  C   UNL     1      28.632  25.175  62.353  1.00  0.00    -0.000 C 
BRANCH  11  12
ATOM     12  C   UNL     1      27.445  24.268  61.989  1.00  0.00    -0.000 C 
BRANCH  12  13
ATOM     13  C   UNL     1      26.099  25.015  61.989  1.00  0.00    -0.000 C 
BRANCH  13  14
ATOM     14  C   UNL     1      24.886  24.192  62.468  1.00  0.00    -0.000 C 
BRANCH  14  15
ATOM     15  C   UNL     1      23.743  25.018  63.087  1.00  0.00    -0.003 C 
ATOM     16  C   UNL     1      22.994  24.267  64.187  1.00  0.00     0.004 C 
ENDBRANCH  14  15
ENDBRANCH  13  14
ENDBRANCH  12  13
ENDBRANCH  11  12
ENDBRANCH  10  11
ENDBRANCH   1  10
TORSDOF 12
ENDMDL
MODEL 4
REMARK VINA RESULT:    -4.060      4.133      8.241
REMARK INTER + INTRA:          -7.897
REMARK INTER:                  -6.807
REMARK INTRA:                  -1.090
REMARK UNBOUND:                -0.990
REMARK SMILES CCCCCCCCCCCCCC(=O)[O-]
REMARK SMILES IDX 8 1 9 2 10 3 11 4 12 5 13 6 14 7 15 8 16 9 7 10 6 11 5 12
REMARK SMILES IDX 4 13 3 14 2 15 1 16
REMARK H PARENT
REMARK Flexibility Score: inf
ROOT
ATOM      1  C   UNL     1      32.382  25.001  65.061  1.00  0.00     0.000 C 
ENDROOT
BRANCH   1   2
ATOM      2  C   UNL     1      31.090  24.196  65.277  1.00  0.00     0.000 C 
BRANCH   2   3
ATOM      3  C   UNL     1      30.586  24.269  66.728  1.00  0.00     0.000 C 
BRANCH   3   4
ATOM      4  C   UNL     1      31.727  24.466  67.743  1.00  0.00     0.000 C 
BRANCH   4   5
ATOM      5  C   UNL     1      31.210  24.704  69.171  1.00  0.00     0.006 C 
BRANCH   5   6
ATOM      6  C   UNL     1      32.328  24.653  70.220  1.00  0.00     0.053 C 
BRANCH   6   7
ATOM      7  C   UNL     1      32.429  25.961  70.939  1.00  0.00     0.041 C 
ATOM      8  O   UNL     1      33.517  26.594  70.955  1.00  0.00    -0.550 OA
ATOM      9  O   UNL     1      31.308  26.504  71.553  1.00  0.00    -0.550 OA
ENDBRANCH   6   7
ENDBRANCH   5   6
ENDBRANCH   4   5
ENDBRANCH   3   4
ENDBRANCH   2   3
ENDBRANCH   1   2
BRANCH   1  10
ATOM     10  C   UNL     1      33.050  24.714  63.702  1.00  0.00     0.000 C 
BRANCH  10  11
ATOM     11  C   UNL     1      32.697  25.698  62.572  1.00  0.00    -0.000 C 
BRANCH  11  12
ATOM     12  C   UNL     1      32.067  27.003  63.086  1.00  0.00    -0.000 C 
BRANCH  12  13
ATOM     13  C   UNL     1      30.771  27.375  62.344  1.00  0.00    -0.000 C 
BRANCH  13  14
ATOM     14  C   UNL     1      29.525  27.551  63.236  1.00  0.00    -0.000 C 
BRANCH  14  15
ATOM     15  C   UNL     1      28.469  26.439  63.106  1.00  0.00    -0.003 C 
ATOM     16  C   UNL     1      29.003  25.190  62.405  1.00  0.00     0.004 C 
ENDBRANCH  14  15
ENDBRANCH  13  14
ENDBRANCH  12  13
ENDBRANCH  11  12
ENDBRANCH  10  11
ENDBRANCH   1  10
TORSDOF 12
ENDMDL
MODEL 5
REMARK VINA RESULT:    -4.044      2.342      4.668
REMARK INTER + INTRA:          -7.870
REMARK INTER:                  -6.927
REMARK INTRA:                  -0.943
REMARK UNBOUND:                -0.990
REMARK SMILES CCCCCCCCCCCCCC(=O)[O-]
REMARK SMILES IDX 8 1 9 2 10 3 11 4 12 5 13 6 14 7 15 8 16 9 7 10 6 11 5 12
REMARK SMILES IDX 4 13 3 14 2 15 1 16
REMARK H PARENT
REMARK Flexibility Score: inf
ROOT
ATOM      1  C   UNL     1      33.036  24.174  67.810  1.00  0.00     0.000 C 
ENDROOT
BRANCH   1   2
ATOM      2  C   UNL     1      33.228  23.916  66.306  1.00  0.00     0.000 C 
BRANCH   2   3
ATOM      3  C   UNL     1      32.426  24.896  65.433  1.00  0.00     0.000 C 
BRANCH   3   4
ATOM      4  C   UNL     1      32.833  24.837  63.949  1.00  0.00     0.000 C 
BRANCH   4   5
ATOM      5  C   UNL     1      31.626  24.659  63.015  1.00  0.00     0.006 C 
BRANCH   5   6
ATOM      6  C   UNL     1      30.311  25.124  63.653  1.00  0.00     0.053 C 
BRANCH   6   7
ATOM      7  C   UNL     1      29.897  26.447  63.090  1.00  0.00     0.041 C 
ATOM      8  O   UNL     1      30.756  27.222  62.595  1.00  0.00    -0.550 OA
ATOM      9  O   UNL     1      28.554  26.802  63.068  1.00  0.00    -0.550 OA
ENDBRANCH   6   7
ENDBRANCH   5   6
ENDBRANCH   4   5
ENDBRANCH   3   4
ENDBRANCH   2   3
ENDBRANCH   1   2
BRANCH   1  10
ATOM     10  C   UNL     1      31.592  24.575  68.172  1.00  0.00     0.000 C 
BRANCH  10  11
ATOM     11  C   UNL     1      31.318  24.768  69.675  1.00  0.00    -0.000 C 
BRANCH  11  12
ATOM     12  C   UNL     1      32.591  24.686  70.534  1.00  0.00    -0.000 C 
BRANCH  12  13
ATOM     13  C   UNL     1      33.145  26.070  70.919  1.00  0.00    -0.000 C 
BRANCH  13  14
ATOM     14  C   UNL     1      34.681  26.202  70.878  1.00  0.00    -0.000 C 
BRANCH  14  15
ATOM     15  C   UNL     1      35.445  24.873  70.748  1.00  0.00    -0.003 C 
ATOM     16  C   UNL     1      36.180  24.736  69.415  1.00  0.00     0.004 C 
ENDBRANCH  14  15
ENDBRANCH  13  14
ENDBRANCH  12  13
ENDBRANCH  11  12
ENDBRANCH  10  11
ENDBRANCH   1  10
TORSDOF 12
ENDMDL
MODEL 6
REMARK VINA RESULT:    -4.037      4.526      9.686
REMARK INTER + INTRA:          -7.858
REMARK INTER:                  -6.970
REMARK INTRA:                  -0.888
REMARK UNBOUND:                -0.990
REMARK SMILES CCCCCCCCCCCCCC(=O)[O-]
REMARK SMILES IDX 8 1 9 2 10 3 11 4 12 5 13 6 14 7 15 8 16 9 7 10 6 11 5 12
REMARK SMILES IDX 4 13 3 14 2 15 1 16
REMARK H PARENT
REMARK Flexibility Score: inf
ROOT
ATOM      1  C   UNL     1      31.925  26.883  63.321  1.00  0.00     0.000 C 
ENDROOT
BRANCH   1   2
ATOM      2  C   UNL     1      32.710  25.608  62.969  1.00  0.00     0.000 C 
BRANCH   2   3
ATOM      3  C   UNL     1      32.778  24.615  64.140  1.00  0.00     0.000 C 
BRANCH   3   4
ATOM      4  C   UNL     1      31.901  25.042  65.331  1.00  0.00     0.000 C 
BRANCH   4   5
ATOM      5  C   UNL     1      32.302  24.339  66.639  1.00  0.00     0.006 C 
BRANCH   5   6
ATOM      6  C   UNL     1      31.176  24.345  67.680  1.00  0.00     0.053 C 
BRANCH   6   7
ATOM      7  C   UNL     1      31.715  24.695  69.031  1.00  0.00     0.041 C 
ATOM      8  O   UNL     1      30.930  24.936  69.984  1.00  0.00    -0.550 OA
ATOM      9  O   UNL     1      33.087  24.709  69.248  1.00  0.00    -0.550 OA
ENDBRANCH   6   7
ENDBRANCH   5   6
ENDBRANCH   4   5
ENDBRANCH   3   4
ENDBRANCH   2   3
ENDBRANCH   1   2
BRANCH   1  10
ATOM     10  C   UNL     1      30.734  27.136  62.377  1.00  0.00     0.000 C 
BRANCH  10  11
ATOM     11  C   UNL     1      29.438  27.609  63.061  1.00  0.00    -0.000 C 
BRANCH  11  12
ATOM     12  C   UNL     1      28.359  26.515  63.127  1.00  0.00    -0.000 C 
BRANCH  12  13
ATOM     13  C   UNL     1      28.749  25.243  62.352  1.00  0.00    -0.000 C 
BRANCH  13  14
ATOM     14  C   UNL     1      27.581  24.299  62.000  1.00  0.00    -0.000 C 
BRANCH  14  15
ATOM     15  C   UNL     1      26.184  24.943  62.059  1.00  0.00    -0.003 C 
ATOM     16  C   UNL     1      25.149  24.197  61.217  1.00  0.00     0.004 C 
ENDBRANCH  14  15
ENDBRANCH  13  14
ENDBRANCH  12  13
ENDBRANCH  11  12
ENDBRANCH  10  11
ENDBRANCH   1  10
TORSDOF 12
ENDMDL
MODEL 7
REMARK VINA RESULT:    -4.031      2.407      4.781
REMARK INTER + INTRA:          -7.849
REMARK INTER:                  -6.807
REMARK INTRA:                  -1.042
REMARK UNBOUND:                -0.990
REMARK SMILES CCCCCCCCCCCCCC(=O)[O-]
REMARK SMILES IDX 8 1 9 2 10 3 11 4 12 5 13 6 14 7 15 8 16 9 7 10 6 11 5 12
REMARK SMILES IDX 4 13 3 14 2 15 1 16
REMARK H PARENT
REMARK Flexibility Score: inf
ROOT
ATOM      1  C   UNL     1      33.774  23.976  68.692  1.00  0.00     0.000 C 
ENDROOT
BRANCH   1   2
ATOM      2  C   UNL     1      33.369  24.287  67.242  1.00  0.00     0.000 C 
BRANCH   2   3
ATOM      3  C   UNL     1      31.849  24.451  67.076  1.00  0.00     0.000 C 
BRANCH   3   4
ATOM      4  C   UNL     1      31.438  24.734  65.620  1.00  0.00     0.000 C 
BRANCH   4   5
ATOM      5  C   UNL     1      32.632  24.693  64.653  1.00  0.00     0.006 C 
BRANCH   5   6
ATOM      6  C   UNL     1      32.233  25.015  63.208  1.00  0.00     0.053 C 
BRANCH   6   7
ATOM      7  C   UNL     1      31.222  26.117  63.179  1.00  0.00     0.041 C 
ATOM      8  O   UNL     1      31.595  27.319  63.177  1.00  0.00    -0.550 OA
ATOM      9  O   UNL     1      29.868  25.816  63.104  1.00  0.00    -0.550 OA
ENDBRANCH   6   7
ENDBRANCH   5   6
ENDBRANCH   4   5
ENDBRANCH   3   4
ENDBRANCH   2   3
ENDBRANCH   1   2
BRANCH   1  10
ATOM     10  C   UNL     1      34.974  24.814  69.175  1.00  0.00     0.000 C 
BRANCH  10  11
ATOM     11  C   UNL     1      35.036  25.066  70.692  1.00  0.00    -0.000 C 
BRANCH  11  12
ATOM     12  C   UNL     1      34.628  26.497  71.081  1.00  0.00    -0.000 C 
BRANCH  12  13
ATOM     13  C   UNL     1      33.178  26.834  70.687  1.00  0.00    -0.000 C 
BRANCH  13  14
ATOM     14  C   UNL     1      32.086  26.089  71.481  1.00  0.00    -0.000 C 
BRANCH  14  15
ATOM     15  C   UNL     1      31.032  25.370  70.620  1.00  0.00    -0.003 C 
ATOM     16  C   UNL     1      30.859  23.900  70.996  1.00  0.00     0.004 C 
ENDBRANCH  14  15
ENDBRANCH  13  14
ENDBRANCH  12  13
ENDBRANCH  11  12
ENDBRANCH  10  11
ENDBRANCH   1  10
TORSDOF 12
ENDMDL
MODEL 8
REMARK VINA RESULT:    -3.925      2.742      6.802
REMARK INTER + INTRA:          -7.668
REMARK INTER:                  -6.641
REMARK INTRA:                  -1.027
REMARK UNBOUND:                -0.990
REMARK SMILES CCCCCCCCCCCCCC(=O)[O-]
REMARK SMILES IDX 8 1 9 2 10 3 11 4 12 5 13 6 14 7 15 8 16 9 7 10 6 11 5 12
REMARK SMILES IDX 4 13 3 14 2 15 1 16
REMARK H PARENT
REMARK Flexibility Score: inf
ROOT
ATOM      1  C   UNL     1      33.799  23.918  68.179  1.00  0.00     0.000 C 
ENDROOT
BRANCH   1   2
ATOM      2  C   UNL     1      35.266  24.379  68.173  1.00  0.00     0.000 C 
BRANCH   2   3
ATOM      3  C   UNL     1      35.731  24.884  69.549  1.00  0.00     0.000 C 
BRANCH   3   4
ATOM      4  C   UNL     1      34.678  24.660  70.650  1.00  0.00     0.000 C 
BRANCH   4   5
ATOM      5  C   UNL     1      34.246  25.971  71.326  1.00  0.00     0.006 C 
BRANCH   5   6
ATOM      6  C   UNL     1      33.009  26.595  70.668  1.00  0.00     0.053 C 
BRANCH   6   7
ATOM      7  C   UNL     1      31.764  25.928  71.159  1.00  0.00     0.041 C 
ATOM      8  O   UNL     1      31.181  25.070  70.446  1.00  0.00    -0.550 OA
ATOM      9  O   UNL     1      31.274  26.218  72.426  1.00  0.00    -0.550 OA
ENDBRANCH   6   7
ENDBRANCH   5   6
ENDBRANCH   4   5
ENDBRANCH   3   4
ENDBRANCH   2   3
ENDBRANCH   1   2
BRANCH   1  10
ATOM     10  C   UNL     1      33.054  24.265  66.876  1.00  0.00     0.000 C 
BRANCH  10  11
ATOM     11  C   UNL     1      31.559  24.599  67.040  1.00  0.00    -0.000 C 
BRANCH  11  12
ATOM     12  C   UNL     1      30.718  24.204  65.815  1.00  0.00    -0.000 C 
BRANCH  12  13
ATOM     13  C   UNL     1      31.488  24.342  64.489  1.00  0.00    -0.000 C 
BRANCH  13  14
ATOM     14  C   UNL     1      31.474  25.750  63.859  1.00  0.00    -0.000 C 
BRANCH  14  15
ATOM     15  C   UNL     1      32.630  26.039  62.885  1.00  0.00    -0.003 C 
ATOM     16  C   UNL     1      33.476  24.803  62.582  1.00  0.00     0.004 C 
ENDBRANCH  14  15
ENDBRANCH  13  14
ENDBRANCH  12  13
ENDBRANCH  11  12
ENDBRANCH  10  11
ENDBRANCH   1  10
TORSDOF 12
ENDMDL
MODEL 9
REMARK VINA RESULT:    -3.905      2.703      5.416
REMARK INTER + INTRA:          -7.634
REMARK INTER:                  -6.870
REMARK INTRA:                  -0.764
REMARK UNBOUND:                -0.990
REMARK SMILES CCCCCCCCCCCCCC(=O)[O-]
REMARK SMILES IDX 8 1 9 2 10 3 11 4 12 5 13 6 14 7 15 8 16 9 7 10 6 11 5 12
REMARK SMILES IDX 4 13 3 14 2 15 1 16
REMARK H PARENT
REMARK Flexibility Score: inf
ROOT
ATOM      1  C   UNL     1      33.458  24.030  66.411  1.00  0.00     0.000 C 
ENDROOT
BRANCH   1   2
ATOM      2  C   UNL     1      32.519  24.497  65.286  1.00  0.00     0.000 C 
BRANCH   2   3
ATOM      3  C   UNL     1      33.110  24.257  63.887  1.00  0.00     0.000 C 
BRANCH   3   4
ATOM      4  C   UNL     1      32.752  25.376  62.892  1.00  0.00     0.000 C 
BRANCH   4   5
ATOM      5  C   UNL     1      31.977  26.526  63.554  1.00  0.00     0.006 C 
BRANCH   5   6
ATOM      6  C   UNL     1      31.024  27.232  62.581  1.00  0.00     0.053 C 
BRANCH   6   7
ATOM      7  C   UNL     1      29.606  26.859  62.876  1.00  0.00     0.041 C 
ATOM      8  O   UNL     1      28.751  27.753  63.114  1.00  0.00    -0.550 OA
ATOM      9  O   UNL     1      29.216  25.526  62.840  1.00  0.00    -0.550 OA
ENDBRANCH   6   7
ENDBRANCH   5   6
ENDBRANCH   4   5
ENDBRANCH   3   4
ENDBRANCH   2   3
ENDBRANCH   1   2
BRANCH   1  10
ATOM     10  C   UNL     1      32.961  24.428  67.814  1.00  0.00     0.000 C 
BRANCH  10  11
ATOM     11  C   UNL     1      33.790  23.876  68.988  1.00  0.00    -0.000 C 
BRANCH  11  12
ATOM     12  C   UNL     1      35.077  24.677  69.245  1.00  0.00    -0.000 C 
BRANCH  12  13
ATOM     13  C   UNL     1      35.038  25.469  70.564  1.00  0.00    -0.000 C 
BRANCH  13  14
ATOM     14  C   UNL     1      33.913  26.518  70.672  1.00  0.00    -0.000 C 
BRANCH  14  15
ATOM     15  C   UNL     1      32.794  26.173  71.671  1.00  0.00    -0.003 C 
ATOM     16  C   UNL     1      31.460  25.869  70.990  1.00  0.00     0.004 C 
ENDBRANCH  14  15
ENDBRANCH  13  14
ENDBRANCH  12  13
ENDBRANCH  11  12
ENDBRANCH  10  11
ENDBRANCH   1  10
TORSDOF 12
ENDMDL
