MODEL 1
REMARK VINA RESULT:    -6.308      0.000      0.000
REMARK INTER + INTRA:          -7.800
REMARK INTER:                  -7.599
REMARK INTRA:                  -0.201
REMARK UNBOUND:                -0.201
REMARK SMILES O=c1c(O)c(-c2ccc(O)c(O)c2)oc2cc(O)cc(O)c12
REMARK SMILES IDX 5 1 3 2 2 3 1 4 22 5 20 6 19 7 17 8 16 9 15 10 14 11 6 12
REMARK SMILES IDX 7 13 8 14 9 15 13 16 11 17 10 18 12 20 4 22 21 24 18 26
REMARK H PARENT 10 19 12 21 4 23 21 25 18 27
REMARK Flexibility Score: inf
ROOT
ATOM      1  C   UNL     1      23.819   2.589 102.953  1.00  0.00     0.180 A 
ATOM      2  C   UNL     1      23.522   1.215 102.921  1.00  0.00     0.208 A 
ATOM      3  C   UNL     1      24.578   0.292 102.856  1.00  0.00     0.238 A 
ATOM      4  O   UNL     1      24.307  -0.938 102.884  1.00  0.00    -0.285 OA
ATOM      5  C   UNL     1      25.915   0.753 102.805  1.00  0.00     0.111 A 
ATOM      6  C   UNL     1      27.060  -0.092 102.697  1.00  0.00     0.134 A 
ATOM      7  C   UNL     1      28.341   0.466 102.787  1.00  0.00     0.093 A 
ATOM      8  C   UNL     1      28.520   1.842 102.916  1.00  0.00     0.123 A 
ATOM      9  C   UNL     1      27.407   2.684 102.962  1.00  0.00     0.094 A 
ATOM     10  C   UNL     1      26.116   2.154 102.912  1.00  0.00     0.146 A 
ATOM     11  O   UNL     1      25.085   2.988 102.969  1.00  0.00    -0.452 OA
ENDROOT
BRANCH   1  12
ATOM     12  C   UNL     1      22.760   3.623 102.996  1.00  0.00     0.025 A 
ATOM     13  C   UNL     1      22.531   4.484 101.909  1.00  0.00     0.016 A 
ATOM     14  C   UNL     1      21.543   5.468 101.982  1.00  0.00     0.051 A 
ATOM     15  C   UNL     1      20.776   5.616 103.142  1.00  0.00     0.157 A 
ATOM     16  C   UNL     1      22.002   3.788 104.167  1.00  0.00     0.062 A 
ATOM     17  C   UNL     1      21.008   4.774 104.242  1.00  0.00     0.158 A 
BRANCH  15  18
ATOM     18  O   UNL     1      19.794   6.606 103.184  1.00  0.00    -0.504 OA
ATOM     19  H   UNL     1      19.523   7.058 104.049  1.00  0.00     0.293 HD
ENDBRANCH  15  18
BRANCH  17  20
ATOM     20  O   UNL     1      20.252   4.922 105.405  1.00  0.00    -0.504 OA
ATOM     21  H   UNL     1      19.692   4.162 105.773  1.00  0.00     0.293 HD
ENDBRANCH  17  20
ENDBRANCH   1  12
BRANCH   2  22
ATOM     22  O   UNL     1      22.195   0.781 102.995  1.00  0.00    -0.502 OA
ATOM     23  H   UNL     1      21.467   1.155 102.399  1.00  0.00     0.293 HD
ENDBRANCH   2  22
BRANCH   6  24
ATOM     24  O   UNL     1      26.994  -1.471 102.474  1.00  0.00    -0.507 OA
ATOM     25  H   UNL     1      26.361  -2.099 102.944  1.00  0.00     0.293 HD
ENDBRANCH   6  24
BRANCH   8  26
ATOM     26  O   UNL     1      29.810   2.365 102.986  1.00  0.00    -0.508 OA
ATOM     27  H   UNL     1      30.023   3.297 102.649  1.00  0.00     0.293 HD
ENDBRANCH   8  26
TORSDOF 6
ENDMDL
MODEL 2
REMARK VINA RESULT:    -6.261      2.107      3.552
REMARK INTER + INTRA:          -7.743
REMARK INTER:                  -7.419
REMARK INTRA:                  -0.324
REMARK UNBOUND:                -0.201
REMARK SMILES O=c1c(O)c(-c2ccc(O)c(O)c2)oc2cc(O)cc(O)c12
REMARK SMILES IDX 5 1 3 2 2 3 1 4 22 5 20 6 19 7 17 8 16 9 15 10 14 11 6 12
REMARK SMILES IDX 7 13 8 14 9 15 13 16 11 17 10 18 12 20 4 22 21 24 18 26
REMARK H PARENT 10 19 12 21 4 23 21 25 18 27
REMARK Flexibility Score: inf
ROOT
ATOM      1  C   UNL     1      25.748   3.491 102.911  1.00  0.00     0.180 A 
ATOM      2  C   UNL     1      26.652   3.998 103.860  1.00  0.00     0.208 A 
ATOM      3  C   UNL     1      27.896   3.366 104.020  1.00  0.00     0.238 A 
ATOM      4  O   UNL     1      28.723   3.859 104.832  1.00  0.00    -0.285 OA
ATOM      5  C   UNL     1      28.213   2.226 103.244  1.00  0.00     0.111 A 
ATOM      6  C   UNL     1      29.426   1.483 103.353  1.00  0.00     0.134 A 
ATOM      7  C   UNL     1      29.688   0.451 102.443  1.00  0.00     0.093 A 
ATOM      8  C   UNL     1      28.754   0.092 101.473  1.00  0.00     0.123 A 
ATOM      9  C   UNL     1      27.537   0.772 101.396  1.00  0.00     0.094 A 
ATOM     10  C   UNL     1      27.263   1.831 102.265  1.00  0.00     0.146 A 
ATOM     11  O   UNL     1      26.100   2.459 102.153  1.00  0.00    -0.452 OA
ENDROOT
BRANCH   1  12
ATOM     12  C   UNL     1      24.408   4.087 102.702  1.00  0.00     0.025 A 
ATOM     13  C   UNL     1      23.274   3.593 103.370  1.00  0.00     0.016 A 
ATOM     14  C   UNL     1      22.017   4.156 103.139  1.00  0.00     0.051 A 
ATOM     15  C   UNL     1      21.869   5.209 102.231  1.00  0.00     0.157 A 
ATOM     16  C   UNL     1      24.253   5.131 101.775  1.00  0.00     0.062 A 
ATOM     17  C   UNL     1      22.992   5.698 101.543  1.00  0.00     0.158 A 
BRANCH  15  18
ATOM     18  O   UNL     1      20.602   5.753 102.022  1.00  0.00    -0.504 OA
ATOM     19  H   UNL     1      20.369   6.268 101.182  1.00  0.00     0.293 HD
ENDBRANCH  15  18
BRANCH  17  20
ATOM     20  O   UNL     1      22.851   6.743 100.630  1.00  0.00    -0.504 OA
ATOM     21  H   UNL     1      22.037   6.819 100.032  1.00  0.00     0.293 HD
ENDBRANCH  17  20
ENDBRANCH   1  12
BRANCH   2  22
ATOM     22  O   UNL     1      26.329   5.139 104.599  1.00  0.00    -0.502 OA
ATOM     23  H   UNL     1      27.033   5.779 104.947  1.00  0.00     0.293 HD
ENDBRANCH   2  22
BRANCH   6  24
ATOM     24  O   UNL     1      30.387   1.699 104.345  1.00  0.00    -0.507 OA
ATOM     25  H   UNL     1      31.161   2.341 104.265  1.00  0.00     0.293 HD
ENDBRANCH   6  24
BRANCH   8  26
ATOM     26  O   UNL     1      29.040  -0.952 100.595  1.00  0.00    -0.508 OA
ATOM     27  H   UNL     1      29.132  -1.908 100.920  1.00  0.00     0.293 HD
ENDBRANCH   8  26
TORSDOF 6
ENDMDL
MODEL 3
REMARK VINA RESULT:    -6.245      1.214      3.012
REMARK INTER + INTRA:          -7.724
REMARK INTER:                  -7.544
REMARK INTRA:                  -0.180
REMARK UNBOUND:                -0.201
REMARK SMILES O=c1c(O)c(-c2ccc(O)c(O)c2)oc2cc(O)cc(O)c12
REMARK SMILES IDX 5 1 3 2 2 3 1 4 22 5 20 6 19 7 17 8 16 9 15 10 14 11 6 12
REMARK SMILES IDX 7 13 8 14 9 15 13 16 11 17 10 18 12 20 4 22 21 24 18 26
REMARK H PARENT 10 19 12 21 4 23 21 25 18 27
REMARK Flexibility Score: inf
ROOT
ATOM      1  C   UNL     1      23.868   2.592 102.960  1.00  0.00     0.180 A 
ATOM      2  C   UNL     1      25.234   2.927 102.956  1.00  0.00     0.208 A 
ATOM      3  C   UNL     1      26.187   1.897 102.955  1.00  0.00     0.238 A 
ATOM      4  O   UNL     1      27.407   2.203 102.895  1.00  0.00    -0.285 OA
ATOM      5  C   UNL     1      25.765   0.546 102.977  1.00  0.00     0.111 A 
ATOM      6  C   UNL     1      26.644  -0.577 103.019  1.00  0.00     0.134 A 
ATOM      7  C   UNL     1      26.119  -1.870 102.905  1.00  0.00     0.093 A 
ATOM      8  C   UNL     1      24.744  -2.084 102.817  1.00  0.00     0.123 A 
ATOM      9  C   UNL     1      23.871  -0.995 102.835  1.00  0.00     0.094 A 
ATOM     10  C   UNL     1      24.367   0.308 102.911  1.00  0.00     0.146 A 
ATOM     11  O   UNL     1      23.504   1.316 102.915  1.00  0.00    -0.452 OA
ENDROOT
BRANCH   1  12
ATOM     12  C   UNL     1      22.805   3.622 102.987  1.00  0.00     0.025 A 
ATOM     13  C   UNL     1      22.599   4.492 101.902  1.00  0.00     0.016 A 
ATOM     14  C   UNL     1      21.605   5.471 101.959  1.00  0.00     0.051 A 
ATOM     15  C   UNL     1      20.812   5.608 103.102  1.00  0.00     0.157 A 
ATOM     16  C   UNL     1      22.020   3.776 104.142  1.00  0.00     0.062 A 
ATOM     17  C   UNL     1      21.021   4.758 104.201  1.00  0.00     0.158 A 
BRANCH  15  18
ATOM     18  O   UNL     1      19.825   6.594 103.130  1.00  0.00    -0.504 OA
ATOM     19  H   UNL     1      19.159   6.667 103.889  1.00  0.00     0.293 HD
ENDBRANCH  15  18
BRANCH  17  20
ATOM     20  O   UNL     1      20.238   4.894 105.347  1.00  0.00    -0.504 OA
ATOM     21  H   UNL     1      19.570   5.649 105.447  1.00  0.00     0.293 HD
ENDBRANCH  17  20
ENDBRANCH   1  12
BRANCH   2  22
ATOM     22  O   UNL     1      25.628   4.267 102.912  1.00  0.00    -0.502 OA
ATOM     23  H   UNL     1      24.977   5.031 103.051  1.00  0.00     0.293 HD
ENDBRANCH   2  22
BRANCH   6  24
ATOM     24  O   UNL     1      28.028  -0.480 103.198  1.00  0.00    -0.507 OA
ATOM     25  H   UNL     1      28.484  -0.347 104.087  1.00  0.00     0.293 HD
ENDBRANCH   6  24
BRANCH   8  26
ATOM     26  O   UNL     1      24.255  -3.386 102.721  1.00  0.00    -0.508 OA
ATOM     27  H   UNL     1      23.286  -3.603 102.923  1.00  0.00     0.293 HD
ENDBRANCH   8  26
TORSDOF 6
ENDMDL
MODEL 4
REMARK VINA RESULT:    -6.232      2.704      3.189
REMARK INTER + INTRA:          -7.708
REMARK INTER:                  -7.382
REMARK INTRA:                  -0.326
REMARK UNBOUND:                -0.201
REMARK SMILES O=c1c(O)c(-c2ccc(O)c(O)c2)oc2cc(O)cc(O)c12
REMARK SMILES IDX 5 1 3 2 2 3 1 4 22 5 20 6 19 7 17 8 16 9 15 10 14 11 6 12
REMARK SMILES IDX 7 13 8 14 9 15 13 16 11 17 10 18 12 20 4 22 21 24 18 26
REMARK H PARENT 10 19 12 21 4 23 21 25 18 27
REMARK Flexibility Score: inf
ROOT
ATOM      1  C   UNL     1      22.977   0.570 103.023  1.00  0.00     0.180 A 
ATOM      2  C   UNL     1      22.457  -0.205 101.971  1.00  0.00     0.208 A 
ATOM      3  C   UNL     1      23.065  -1.433 101.667  1.00  0.00     0.238 A 
ATOM      4  O   UNL     1      22.560  -2.148 100.761  1.00  0.00    -0.285 OA
ATOM      5  C   UNL     1      24.194  -1.863 102.404  1.00  0.00     0.111 A 
ATOM      6  C   UNL     1      24.913  -3.070 102.154  1.00  0.00     0.134 A 
ATOM      7  C   UNL     1      25.934  -3.459 103.030  1.00  0.00     0.093 A 
ATOM      8  C   UNL     1      26.306  -2.655 104.106  1.00  0.00     0.123 A 
ATOM      9  C   UNL     1      25.649  -1.442 104.324  1.00  0.00     0.094 A 
ATOM     10  C   UNL     1      24.602  -1.045 103.490  1.00  0.00     0.146 A 
ATOM     11  O   UNL     1      23.996   0.110 103.738  1.00  0.00    -0.452 OA
ENDROOT
BRANCH   1  12
ATOM     12  C   UNL     1      22.406   1.887 103.387  1.00  0.00     0.025 A 
ATOM     13  C   UNL     1      22.911   3.081 102.843  1.00  0.00     0.016 A 
ATOM     14  C   UNL     1      22.373   4.313 103.220  1.00  0.00     0.051 A 
ATOM     15  C   UNL     1      21.334   4.376 104.153  1.00  0.00     0.157 A 
ATOM     16  C   UNL     1      21.376   1.955 104.340  1.00  0.00     0.062 A 
ATOM     17  C   UNL     1      20.834   3.191 104.719  1.00  0.00     0.158 A 
BRANCH  15  18
ATOM     18  O   UNL     1      20.815   5.621 104.508  1.00  0.00    -0.504 OA
ATOM     19  H   UNL     1      20.293   5.761 105.365  1.00  0.00     0.293 HD
ENDBRANCH  15  18
BRANCH  17  20
ATOM     20  O   UNL     1      19.802   3.247 105.656  1.00  0.00    -0.504 OA
ATOM     21  H   UNL     1      19.924   3.704 106.552  1.00  0.00     0.293 HD
ENDBRANCH  17  20
ENDBRANCH   1  12
BRANCH   2  22
ATOM     22  O   UNL     1      21.327   0.228 101.271  1.00  0.00    -0.502 OA
ATOM     23  H   UNL     1      21.006   1.188 101.298  1.00  0.00     0.293 HD
ENDBRANCH   2  22
BRANCH   6  24
ATOM     24  O   UNL     1      24.684  -3.902 101.054  1.00  0.00    -0.507 OA
ATOM     25  H   UNL     1      25.098  -4.813 100.927  1.00  0.00     0.293 HD
ENDBRANCH   6  24
BRANCH   8  26
ATOM     26  O   UNL     1      27.338  -3.065 104.947  1.00  0.00    -0.508 OA
ATOM     27  H   UNL     1      28.243  -2.609 104.937  1.00  0.00     0.293 HD
ENDBRANCH   8  26
TORSDOF 6
ENDMDL
MODEL 5
REMARK VINA RESULT:    -5.917      6.567      8.668
REMARK INTER + INTRA:          -7.329
REMARK INTER:                  -7.034
REMARK INTRA:                  -0.295
REMARK UNBOUND:                -0.201
REMARK SMILES O=c1c(O)c(-c2ccc(O)c(O)c2)oc2cc(O)cc(O)c12
REMARK SMILES IDX 5 1 3 2 2 3 1 4 22 5 20 6 19 7 17 8 16 9 15 10 14 11 6 12
REMARK SMILES IDX 7 13 8 14 9 15 13 16 11 17 10 18 12 20 4 22 21 24 18 26
REMARK H PARENT 10 19 12 21 4 23 21 25 18 27
REMARK Flexibility Score: inf
ROOT
ATOM      1  C   UNL     1      31.077   1.919 104.187  1.00  0.00     0.180 A 
ATOM      2  C   UNL     1      31.438   3.209 104.617  1.00  0.00     0.208 A 
ATOM      3  C   UNL     1      31.949   4.120 103.680  1.00  0.00     0.238 A 
ATOM      4  O   UNL     1      32.217   5.290 104.059  1.00  0.00    -0.285 OA
ATOM      5  C   UNL     1      32.110   3.727 102.329  1.00  0.00     0.111 A 
ATOM      6  C   UNL     1      32.656   4.555 101.304  1.00  0.00     0.134 A 
ATOM      7  C   UNL     1      32.647   4.108  99.977  1.00  0.00     0.093 A 
ATOM      8  C   UNL     1      32.173   2.839  99.647  1.00  0.00     0.123 A 
ATOM      9  C   UNL     1      31.692   1.997 100.652  1.00  0.00     0.094 A 
ATOM     10  C   UNL     1      31.654   2.429 101.979  1.00  0.00     0.146 A 
ATOM     11  O   UNL     1      31.179   1.602 102.902  1.00  0.00    -0.452 OA
ENDROOT
BRANCH   1  12
ATOM     12  C   UNL     1      30.555   0.895 105.121  1.00  0.00     0.025 A 
ATOM     13  C   UNL     1      31.375  -0.136 105.612  1.00  0.00     0.016 A 
ATOM     14  C   UNL     1      30.854  -1.104 106.472  1.00  0.00     0.051 A 
ATOM     15  C   UNL     1      29.508  -1.068 106.846  1.00  0.00     0.157 A 
ATOM     16  C   UNL     1      29.198   0.917 105.482  1.00  0.00     0.062 A 
ATOM     17  C   UNL     1      28.673  -0.054 106.347  1.00  0.00     0.158 A 
BRANCH  15  18
ATOM     18  O   UNL     1      29.016  -2.047 107.710  1.00  0.00    -0.504 OA
ATOM     19  H   UNL     1      29.391  -2.181 108.641  1.00  0.00     0.293 HD
ENDBRANCH  15  18
BRANCH  17  20
ATOM     20  O   UNL     1      27.327  -0.016 106.711  1.00  0.00    -0.504 OA
ATOM     21  H   UNL     1      26.615   0.320 106.073  1.00  0.00     0.293 HD
ENDBRANCH  17  20
ENDBRANCH   1  12
BRANCH   2  22
ATOM     22  O   UNL     1      31.249   3.583 105.950  1.00  0.00    -0.502 OA
ATOM     23  H   UNL     1      30.361   3.473 106.425  1.00  0.00     0.293 HD
ENDBRANCH   2  22
BRANCH   6  24
ATOM     24  O   UNL     1      33.240   5.804 101.537  1.00  0.00    -0.507 OA
ATOM     25  H   UNL     1      34.177   5.944 101.883  1.00  0.00     0.293 HD
ENDBRANCH   6  24
BRANCH   8  26
ATOM     26  O   UNL     1      32.195   2.420  98.319  1.00  0.00    -0.508 OA
ATOM     27  H   UNL     1      31.824   1.518  98.042  1.00  0.00     0.293 HD
ENDBRANCH   8  26
TORSDOF 6
ENDMDL
MODEL 6
REMARK VINA RESULT:    -5.916      6.929      9.083
REMARK INTER + INTRA:          -7.328
REMARK INTER:                  -7.000
REMARK INTRA:                  -0.327
REMARK UNBOUND:                -0.201
REMARK SMILES O=c1c(O)c(-c2ccc(O)c(O)c2)oc2cc(O)cc(O)c12
REMARK SMILES IDX 5 1 3 2 2 3 1 4 22 5 20 6 19 7 17 8 16 9 15 10 14 11 6 12
REMARK SMILES IDX 7 13 8 14 9 15 13 16 11 17 10 18 12 20 4 22 21 24 18 26
REMARK H PARENT 10 19 12 21 4 23 21 25 18 27
REMARK Flexibility Score: inf
ROOT
ATOM      1  C   UNL     1      24.277  -4.660 101.348  1.00  0.00     0.180 A 
ATOM      2  C   UNL     1      22.968  -5.050 101.012  1.00  0.00     0.208 A 
ATOM      3  C   UNL     1      22.147  -5.603 102.008  1.00  0.00     0.238 A 
ATOM      4  O   UNL     1      20.958  -5.899 101.715  1.00  0.00    -0.285 OA
ATOM      5  C   UNL     1      22.648  -5.775 103.321  1.00  0.00     0.111 A 
ATOM      6  C   UNL     1      21.917  -6.361 104.397  1.00  0.00     0.134 A 
ATOM      7  C   UNL     1      22.466  -6.361 105.685  1.00  0.00     0.093 A 
ATOM      8  C   UNL     1      23.743  -5.856 105.924  1.00  0.00     0.123 A 
ATOM      9  C   UNL     1      24.491  -5.335 104.867  1.00  0.00     0.094 A 
ATOM     10  C   UNL     1      23.956  -5.287 103.578  1.00  0.00     0.146 A 
ATOM     11  O   UNL     1      24.696  -4.774 102.603  1.00  0.00    -0.452 OA
ENDROOT
BRANCH   1  12
ATOM     12  C   UNL     1      25.210  -4.093 100.348  1.00  0.00     0.025 A 
ATOM     13  C   UNL     1      26.098  -4.912  99.627  1.00  0.00     0.016 A 
ATOM     14  C   UNL     1      26.986  -4.352  98.707  1.00  0.00     0.051 A 
ATOM     15  C   UNL     1      27.013  -2.970  98.500  1.00  0.00     0.157 A 
ATOM     16  C   UNL     1      25.254  -2.703 100.152  1.00  0.00     0.062 A 
ATOM     17  C   UNL     1      26.144  -2.139  99.228  1.00  0.00     0.158 A 
BRANCH  15  18
ATOM     18  O   UNL     1      27.909  -2.439  97.572  1.00  0.00    -0.504 OA
ATOM     19  H   UNL     1      28.483  -1.632  97.779  1.00  0.00     0.293 HD
ENDBRANCH  15  18
BRANCH  17  20
ATOM     20  O   UNL     1      26.170  -0.759  99.031  1.00  0.00    -0.504 OA
ATOM     21  H   UNL     1      27.029  -0.228  99.113  1.00  0.00     0.293 HD
ENDBRANCH  17  20
ENDBRANCH   1  12
BRANCH   2  22
ATOM     22  O   UNL     1      22.486  -4.851  99.716  1.00  0.00    -0.502 OA
ATOM     23  H   UNL     1      21.504  -4.934  99.483  1.00  0.00     0.293 HD
ENDBRANCH   2  22
BRANCH   6  24
ATOM     24  O   UNL     1      20.670  -6.977 104.250  1.00  0.00    -0.507 OA
ATOM     25  H   UNL     1      19.937  -6.651 103.639  1.00  0.00     0.293 HD
ENDBRANCH   6  24
BRANCH   8  26
ATOM     26  O   UNL     1      24.264  -5.887 107.216  1.00  0.00    -0.508 OA
ATOM     27  H   UNL     1      24.497  -5.035 107.714  1.00  0.00     0.293 HD
ENDBRANCH   8  26
TORSDOF 6
ENDMDL
MODEL 7
REMARK VINA RESULT:    -5.877      4.930      7.828
REMARK INTER + INTRA:          -7.280
REMARK INTER:                  -7.279
REMARK INTRA:                  -0.001
REMARK UNBOUND:                -0.201
REMARK SMILES O=c1c(O)c(-c2ccc(O)c(O)c2)oc2cc(O)cc(O)c12
REMARK SMILES IDX 5 1 3 2 2 3 1 4 22 5 20 6 19 7 17 8 16 9 15 10 14 11 6 12
REMARK SMILES IDX 7 13 8 14 9 15 13 16 11 17 10 18 12 20 4 22 21 24 18 26
REMARK H PARENT 10 19 12 21 4 23 21 25 18 27
REMARK Flexibility Score: inf
ROOT
ATOM      1  C   UNL     1      29.808   2.360 103.832  1.00  0.00     0.180 A 
ATOM      2  C   UNL     1      29.275   1.834 105.022  1.00  0.00     0.208 A 
ATOM      3  C   UNL     1      28.196   0.938 104.947  1.00  0.00     0.238 A 
ATOM      4  O   UNL     1      27.760   0.427 106.012  1.00  0.00    -0.285 OA
ATOM      5  C   UNL     1      27.653   0.592 103.686  1.00  0.00     0.111 A 
ATOM      6  C   UNL     1      26.536  -0.273 103.494  1.00  0.00     0.134 A 
ATOM      7  C   UNL     1      26.167  -0.648 102.197  1.00  0.00     0.093 A 
ATOM      8  C   UNL     1      26.832  -0.138 101.083  1.00  0.00     0.123 A 
ATOM      9  C   UNL     1      27.888   0.757 101.257  1.00  0.00     0.094 A 
ATOM     10  C   UNL     1      28.304   1.121 102.540  1.00  0.00     0.146 A 
ATOM     11  O   UNL     1      29.319   1.967 102.662  1.00  0.00    -0.452 OA
ENDROOT
BRANCH   1  12
ATOM     12  C   UNL     1      30.928   3.329 103.832  1.00  0.00     0.025 A 
ATOM     13  C   UNL     1      30.919   4.459 104.668  1.00  0.00     0.016 A 
ATOM     14  C   UNL     1      31.975   5.372 104.633  1.00  0.00     0.051 A 
ATOM     15  C   UNL     1      33.047   5.181 103.757  1.00  0.00     0.157 A 
ATOM     16  C   UNL     1      31.996   3.150 102.939  1.00  0.00     0.062 A 
ATOM     17  C   UNL     1      33.058   4.065 102.903  1.00  0.00     0.158 A 
BRANCH  15  18
ATOM     18  O   UNL     1      34.089   6.108 103.746  1.00  0.00    -0.504 OA
ATOM     19  H   UNL     1      34.404   6.574 104.588  1.00  0.00     0.293 HD
ENDBRANCH  15  18
BRANCH  17  20
ATOM     20  O   UNL     1      34.121   3.872 102.021  1.00  0.00    -0.504 OA
ATOM     21  H   UNL     1      34.008   3.983 101.021  1.00  0.00     0.293 HD
ENDBRANCH  17  20
ENDBRANCH   1  12
BRANCH   2  22
ATOM     22  O   UNL     1      29.840   2.170 106.255  1.00  0.00    -0.502 OA
ATOM     23  H   UNL     1      30.715   2.676 106.332  1.00  0.00     0.293 HD
ENDBRANCH   2  22
BRANCH   6  24
ATOM     24  O   UNL     1      25.744  -0.768 104.535  1.00  0.00    -0.507 OA
ATOM     25  H   UNL     1      25.375  -1.705 104.581  1.00  0.00     0.293 HD
ENDBRANCH   6  24
BRANCH   8  26
ATOM     26  O   UNL     1      26.427  -0.520  99.805  1.00  0.00    -0.508 OA
ATOM     27  H   UNL     1      25.982   0.135  99.173  1.00  0.00     0.293 HD
ENDBRANCH   8  26
TORSDOF 6
ENDMDL
MODEL 8
REMARK VINA RESULT:    -5.876      7.742      8.825
REMARK INTER + INTRA:          -7.279
REMARK INTER:                  -7.267
REMARK INTRA:                  -0.012
REMARK UNBOUND:                -0.201
REMARK SMILES O=c1c(O)c(-c2ccc(O)c(O)c2)oc2cc(O)cc(O)c12
REMARK SMILES IDX 5 1 3 2 2 3 1 4 22 5 20 6 19 7 17 8 16 9 15 10 14 11 6 12
REMARK SMILES IDX 7 13 8 14 9 15 13 16 11 17 10 18 12 20 4 22 21 24 18 26
REMARK H PARENT 10 19 12 21 4 23 21 25 18 27
REMARK Flexibility Score: inf
ROOT
ATOM      1  C   UNL     1      32.075   4.171 102.930  1.00  0.00     0.180 A 
ATOM      2  C   UNL     1      32.457   2.818 102.909  1.00  0.00     0.208 A 
ATOM      3  C   UNL     1      32.619   2.176 101.671  1.00  0.00     0.238 A 
ATOM      4  O   UNL     1      33.016   0.981 101.659  1.00  0.00    -0.285 OA
ATOM      5  C   UNL     1      32.380   2.887 100.471  1.00  0.00     0.111 A 
ATOM      6  C   UNL     1      32.474   2.325  99.164  1.00  0.00     0.134 A 
ATOM      7  C   UNL     1      32.344   3.155  98.043  1.00  0.00     0.093 A 
ATOM      8  C   UNL     1      32.058   4.512  98.182  1.00  0.00     0.123 A 
ATOM      9  C   UNL     1      31.904   5.061  99.456  1.00  0.00     0.094 A 
ATOM     10  C   UNL     1      32.065   4.266 100.594  1.00  0.00     0.146 A 
ATOM     11  O   UNL     1      31.921   4.828 101.787  1.00  0.00    -0.452 OA
ENDROOT
BRANCH   1  12
ATOM     12  C   UNL     1      31.860   4.909 104.195  1.00  0.00     0.025 A 
ATOM     13  C   UNL     1      32.836   4.931 105.206  1.00  0.00     0.016 A 
ATOM     14  C   UNL     1      32.601   5.614 106.401  1.00  0.00     0.051 A 
ATOM     15  C   UNL     1      31.386   6.274 106.612  1.00  0.00     0.157 A 
ATOM     16  C   UNL     1      30.633   5.555 104.418  1.00  0.00     0.062 A 
ATOM     17  C   UNL     1      30.395   6.243 105.617  1.00  0.00     0.158 A 
BRANCH  15  18
ATOM     18  O   UNL     1      31.181   6.950 107.815  1.00  0.00    -0.504 OA
ATOM     19  H   UNL     1      31.791   6.826 108.613  1.00  0.00     0.293 HD
ENDBRANCH  15  18
BRANCH  17  20
ATOM     20  O   UNL     1      29.178   6.892 105.824  1.00  0.00    -0.504 OA
ATOM     21  H   UNL     1      28.711   6.869 106.723  1.00  0.00     0.293 HD
ENDBRANCH  17  20
ENDBRANCH   1  12
BRANCH   2  22
ATOM     22  O   UNL     1      32.711   2.141 104.105  1.00  0.00    -0.502 OA
ATOM     23  H   UNL     1      33.269   2.542 104.849  1.00  0.00     0.293 HD
ENDBRANCH   2  22
BRANCH   6  24
ATOM     24  O   UNL     1      32.666   0.962  98.911  1.00  0.00    -0.507 OA
ATOM     25  H   UNL     1      32.363   0.485  98.076  1.00  0.00     0.293 HD
ENDBRANCH   6  24
BRANCH   8  26
ATOM     26  O   UNL     1      31.918   5.305  97.045  1.00  0.00    -0.508 OA
ATOM     27  H   UNL     1      32.604   6.012  96.804  1.00  0.00     0.293 HD
ENDBRANCH   8  26
TORSDOF 6
ENDMDL
MODEL 9
REMARK VINA RESULT:    -5.592      5.644      8.271
REMARK INTER + INTRA:          -6.937
REMARK INTER:                  -6.646
REMARK INTRA:                  -0.291
REMARK UNBOUND:                -0.201
REMARK SMILES O=c1c(O)c(-c2ccc(O)c(O)c2)oc2cc(O)cc(O)c12
REMARK SMILES IDX 5 1 3 2 2 3 1 4 22 5 20 6 19 7 17 8 16 9 15 10 14 11 6 12
REMARK SMILES IDX 7 13 8 14 9 15 13 16 11 17 10 18 12 20 4 22 21 24 18 26
REMARK H PARENT 10 19 12 21 4 23 21 25 18 27
REMARK Flexibility Score: inf
ROOT
ATOM      1  C   UNL     1      30.425   2.125 102.417  1.00  0.00     0.180 A 
ATOM      2  C   UNL     1      31.429   2.652 101.586  1.00  0.00     0.208 A 
ATOM      3  C   UNL     1      32.290   3.636 102.098  1.00  0.00     0.238 A 
ATOM      4  O   UNL     1      33.222   4.063 101.367  1.00  0.00    -0.285 OA
ATOM      5  C   UNL     1      32.126   4.094 103.428  1.00  0.00     0.111 A 
ATOM      6  C   UNL     1      32.914   5.115 104.036  1.00  0.00     0.134 A 
ATOM      7  C   UNL     1      32.750   5.395 105.398  1.00  0.00     0.093 A 
ATOM      8  C   UNL     1      31.782   4.739 106.157  1.00  0.00     0.123 A 
ATOM      9  C   UNL     1      30.964   3.780 105.557  1.00  0.00     0.094 A 
ATOM     10  C   UNL     1      31.129   3.452 104.209  1.00  0.00     0.146 A 
ATOM     11  O   UNL     1      30.338   2.528 103.680  1.00  0.00    -0.452 OA
ENDROOT
BRANCH   1  12
ATOM     12  C   UNL     1      29.464   1.104 101.941  1.00  0.00     0.025 A 
ATOM     13  C   UNL     1      28.151   1.448 101.574  1.00  0.00     0.016 A 
ATOM     14  C   UNL     1      27.255   0.464 101.151  1.00  0.00     0.051 A 
ATOM     15  C   UNL     1      27.648  -0.877 101.100  1.00  0.00     0.157 A 
ATOM     16  C   UNL     1      29.850  -0.246 101.909  1.00  0.00     0.062 A 
ATOM     17  C   UNL     1      28.951  -1.235 101.483  1.00  0.00     0.158 A 
BRANCH  15  18
ATOM     18  O   UNL     1      26.732  -1.837 100.671  1.00  0.00    -0.504 OA
ATOM     19  H   UNL     1      26.822  -2.304  99.777  1.00  0.00     0.293 HD
ENDBRANCH  15  18
BRANCH  17  20
ATOM     20  O   UNL     1      29.348  -2.572 101.442  1.00  0.00    -0.504 OA
ATOM     21  H   UNL     1      29.273  -3.121 100.594  1.00  0.00     0.293 HD
ENDBRANCH  17  20
ENDBRANCH   1  12
BRANCH   2  22
ATOM     22  O   UNL     1      31.588   2.170 100.284  1.00  0.00    -0.502 OA
ATOM     23  H   UNL     1      32.439   2.311  99.752  1.00  0.00     0.293 HD
ENDBRANCH   2  22
BRANCH   6  24
ATOM     24  O   UNL     1      33.847   5.897 103.347  1.00  0.00    -0.507 OA
ATOM     25  H   UNL     1      33.772   6.893 103.212  1.00  0.00     0.293 HD
ENDBRANCH   6  24
BRANCH   8  26
ATOM     26  O   UNL     1      31.634   5.055 107.506  1.00  0.00    -0.508 OA
ATOM     27  H   UNL     1      32.256   4.674 108.211  1.00  0.00     0.293 HD
ENDBRANCH   8  26
TORSDOF 6
ENDMDL
