MODEL 1
REMARK VINA RESULT:    -7.011      0.000      0.000
REMARK INTER + INTRA:          -8.830
REMARK INTER:                  -8.446
REMARK INTRA:                  -0.384
REMARK UNBOUND:                -0.384
REMARK SMILES O=c1c(O)c(-c2ccc(O)cc2O)oc2cc(O)cc(O)c12
REMARK SMILES IDX 5 1 3 2 2 3 1 4 22 5 20 6 19 7 17 8 16 9 15 10 14 11 6 12
REMARK SMILES IDX 8 13 7 14 9 15 11 16 12 17 10 18 13 20 4 22 21 24 18 26
REMARK H PARENT 10 19 13 21 4 23 21 25 18 27
REMARK Flexibility Score: inf
ROOT
ATOM      1  C   UNL     1      18.009  11.812  11.348  1.00  0.00     0.184 A 
ATOM      2  C   UNL     1      18.786  10.743  10.874  1.00  0.00     0.208 A 
ATOM      3  C   UNL     1      18.141   9.572  10.441  1.00  0.00     0.238 A 
ATOM      4  O   UNL     1      18.844   8.596  10.071  1.00  0.00    -0.285 OA
ATOM      5  C   UNL     1      16.727   9.496  10.468  1.00  0.00     0.111 A 
ATOM      6  C   UNL     1      15.967   8.375  10.017  1.00  0.00     0.134 A 
ATOM      7  C   UNL     1      14.580   8.359  10.209  1.00  0.00     0.093 A 
ATOM      8  C   UNL     1      13.919   9.449  10.779  1.00  0.00     0.123 A 
ATOM      9  C   UNL     1      14.645  10.572  11.169  1.00  0.00     0.094 A 
ATOM     10  C   UNL     1      16.034  10.603  11.024  1.00  0.00     0.146 A 
ATOM     11  O   UNL     1      16.689  11.688  11.419  1.00  0.00    -0.451 OA
ENDROOT
BRANCH   1  12
ATOM     12  C   UNL     1      18.622  13.084  11.798  1.00  0.00     0.063 A 
ATOM     13  C   UNL     1      19.945  15.071  11.324  1.00  0.00     0.047 A 
ATOM     14  C   UNL     1      19.390  13.858  10.909  1.00  0.00     0.020 A 
ATOM     15  C   UNL     1      19.734  15.532  12.628  1.00  0.00     0.119 A 
ATOM     16  C   UNL     1      18.962  14.778  13.515  1.00  0.00     0.093 A 
ATOM     17  C   UNL     1      18.401  13.557  13.108  1.00  0.00     0.130 A 
BRANCH  15  18
ATOM     18  O   UNL     1      20.284  16.741  13.052  1.00  0.00    -0.508 OA
ATOM     19  H   UNL     1      19.781  17.360  13.677  1.00  0.00     0.293 HD
ENDBRANCH  15  18
BRANCH  17  20
ATOM     20  O   UNL     1      17.638  12.811  14.005  1.00  0.00    -0.507 OA
ATOM     21  H   UNL     1      17.914  11.879  14.291  1.00  0.00     0.293 HD
ENDBRANCH  17  20
ENDBRANCH   1  12
BRANCH   2  22
ATOM     22  O   UNL     1      20.179  10.836  10.869  1.00  0.00    -0.502 OA
ATOM     23  H   UNL     1      20.666  11.724  10.904  1.00  0.00     0.293 HD
ENDBRANCH   2  22
BRANCH   6  24
ATOM     24  O   UNL     1      16.518   7.276   9.352  1.00  0.00    -0.507 OA
ATOM     25  H   UNL     1      15.993   6.476   9.030  1.00  0.00     0.293 HD
ENDBRANCH   6  24
BRANCH   8  26
ATOM     26  O   UNL     1      12.536   9.431  10.953  1.00  0.00    -0.508 OA
ATOM     27  H   UNL     1      11.913   9.135  10.212  1.00  0.00     0.293 HD
ENDBRANCH   8  26
TORSDOF 6
ENDMDL
MODEL 2
REMARK VINA RESULT:    -7.005      1.541      6.943
REMARK INTER + INTRA:          -8.822
REMARK INTER:                  -8.459
REMARK INTRA:                  -0.364
REMARK UNBOUND:                -0.384
REMARK SMILES O=c1c(O)c(-c2ccc(O)cc2O)oc2cc(O)cc(O)c12
REMARK SMILES IDX 5 1 3 2 2 3 1 4 22 5 20 6 19 7 17 8 16 9 15 10 14 11 6 12
REMARK SMILES IDX 8 13 7 14 9 15 11 16 12 17 10 18 13 20 4 22 21 24 18 26
REMARK H PARENT 10 19 13 21 4 23 21 25 18 27
REMARK Flexibility Score: inf
ROOT
ATOM      1  C   UNL     1      17.688  11.408  11.747  1.00  0.00     0.184 A 
ATOM      2  C   UNL     1      17.226  11.667  13.047  1.00  0.00     0.208 A 
ATOM      3  C   UNL     1      17.641  12.842  13.696  1.00  0.00     0.238 A 
ATOM      4  O   UNL     1      17.269  13.041  14.882  1.00  0.00    -0.285 OA
ATOM      5  C   UNL     1      18.496  13.751  13.027  1.00  0.00     0.111 A 
ATOM      6  C   UNL     1      18.948  14.990  13.574  1.00  0.00     0.134 A 
ATOM      7  C   UNL     1      19.893  15.749  12.873  1.00  0.00     0.093 A 
ATOM      8  C   UNL     1      20.355  15.345  11.618  1.00  0.00     0.123 A 
ATOM      9  C   UNL     1      19.876  14.167  11.050  1.00  0.00     0.094 A 
ATOM     10  C   UNL     1      18.960  13.370  11.741  1.00  0.00     0.146 A 
ATOM     11  O   UNL     1      18.538  12.248  11.169  1.00  0.00    -0.451 OA
ENDROOT
BRANCH   1  12
ATOM     12  C   UNL     1      17.271  10.201  10.996  1.00  0.00     0.063 A 
ATOM     13  C   UNL     1      15.518   8.837  10.001  1.00  0.00     0.047 A 
ATOM     14  C   UNL     1      15.911   9.959  10.733  1.00  0.00     0.020 A 
ATOM     15  C   UNL     1      16.479   7.944   9.513  1.00  0.00     0.119 A 
ATOM     16  C   UNL     1      17.834   8.180   9.757  1.00  0.00     0.093 A 
ATOM     17  C   UNL     1      18.238   9.305  10.493  1.00  0.00     0.130 A 
BRANCH  15  18
ATOM     18  O   UNL     1      16.098   6.820   8.781  1.00  0.00    -0.508 OA
ATOM     19  H   UNL     1      16.140   6.809   7.769  1.00  0.00     0.293 HD
ENDBRANCH  15  18
BRANCH  17  20
ATOM     20  O   UNL     1      19.594   9.526  10.735  1.00  0.00    -0.507 OA
ATOM     21  H   UNL     1      20.050   9.170  11.567  1.00  0.00     0.293 HD
ENDBRANCH  17  20
ENDBRANCH   1  12
BRANCH   2  22
ATOM     22  O   UNL     1      16.393  10.749  13.692  1.00  0.00    -0.502 OA
ATOM     23  H   UNL     1      15.745  10.154  13.189  1.00  0.00     0.293 HD
ENDBRANCH   2  22
BRANCH   6  24
ATOM     24  O   UNL     1      18.481  15.529  14.775  1.00  0.00    -0.507 OA
ATOM     25  H   UNL     1      17.782  16.253  14.848  1.00  0.00     0.293 HD
ENDBRANCH   6  24
BRANCH   8  26
ATOM     26  O   UNL     1      21.285  16.115  10.921  1.00  0.00    -0.508 OA
ATOM     27  H   UNL     1      22.269  16.102  11.160  1.00  0.00     0.293 HD
ENDBRANCH   8  26
TORSDOF 6
ENDMDL
MODEL 3
REMARK VINA RESULT:    -6.962      3.074      5.175
REMARK INTER + INTRA:          -8.770
REMARK INTER:                  -8.342
REMARK INTRA:                  -0.428
REMARK UNBOUND:                -0.384
REMARK SMILES O=c1c(O)c(-c2ccc(O)cc2O)oc2cc(O)cc(O)c12
REMARK SMILES IDX 5 1 3 2 2 3 1 4 22 5 20 6 19 7 17 8 16 9 15 10 14 11 6 12
REMARK SMILES IDX 8 13 7 14 9 15 11 16 12 17 10 18 13 20 4 22 21 24 18 26
REMARK H PARENT 10 19 13 21 4 23 21 25 18 27
REMARK Flexibility Score: inf
ROOT
ATOM      1  C   UNL     1      18.051  15.967  13.571  1.00  0.00     0.184 A 
ATOM      2  C   UNL     1      19.276  15.877  12.890  1.00  0.00     0.208 A 
ATOM      3  C   UNL     1      19.629  14.661  12.280  1.00  0.00     0.238 A 
ATOM      4  O   UNL     1      20.753  14.569  11.721  1.00  0.00    -0.285 OA
ATOM      5  C   UNL     1      18.741  13.559  12.341  1.00  0.00     0.111 A 
ATOM      6  C   UNL     1      18.978  12.294  11.726  1.00  0.00     0.134 A 
ATOM      7  C   UNL     1      18.089  11.236  11.959  1.00  0.00     0.093 A 
ATOM      8  C   UNL     1      16.941  11.417  12.733  1.00  0.00     0.123 A 
ATOM      9  C   UNL     1      16.671  12.665  13.290  1.00  0.00     0.094 A 
ATOM     10  C   UNL     1      17.557  13.730  13.105  1.00  0.00     0.146 A 
ATOM     11  O   UNL     1      17.268  14.899  13.663  1.00  0.00    -0.451 OA
ENDROOT
BRANCH   1  12
ATOM     12  C   UNL     1      17.607  17.224  14.216  1.00  0.00     0.063 A 
ATOM     13  C   UNL     1      16.887  19.543  14.044  1.00  0.00     0.047 A 
ATOM     14  C   UNL     1      17.333  18.365  13.440  1.00  0.00     0.020 A 
ATOM     15  C   UNL     1      16.699  19.596  15.429  1.00  0.00     0.119 A 
ATOM     16  C   UNL     1      16.955  18.464  16.208  1.00  0.00     0.093 A 
ATOM     17  C   UNL     1      17.405  17.277  15.610  1.00  0.00     0.130 A 
BRANCH  15  18
ATOM     18  O   UNL     1      16.254  20.766  16.042  1.00  0.00    -0.508 OA
ATOM     19  H   UNL     1      15.869  20.758  16.980  1.00  0.00     0.293 HD
ENDBRANCH  15  18
BRANCH  17  20
ATOM     20  O   UNL     1      17.663  16.157  16.401  1.00  0.00    -0.507 OA
ATOM     21  H   UNL     1      18.335  15.452  16.120  1.00  0.00     0.293 HD
ENDBRANCH  17  20
ENDBRANCH   1  12
BRANCH   2  22
ATOM     22  O   UNL     1      20.142  16.973  12.855  1.00  0.00    -0.502 OA
ATOM     23  H   UNL     1      20.838  17.094  12.129  1.00  0.00     0.293 HD
ENDBRANCH   2  22
BRANCH   6  24
ATOM     24  O   UNL     1      20.044  12.033  10.861  1.00  0.00    -0.507 OA
ATOM     25  H   UNL     1      20.473  12.716  10.255  1.00  0.00     0.293 HD
ENDBRANCH   6  24
BRANCH   8  26
ATOM     26  O   UNL     1      16.055  10.363  12.947  1.00  0.00    -0.508 OA
ATOM     27  H   UNL     1      15.510   9.967  12.191  1.00  0.00     0.293 HD
ENDBRANCH   8  26
TORSDOF 6
ENDMDL
MODEL 4
REMARK VINA RESULT:    -6.781      6.498      8.902
REMARK INTER + INTRA:          -8.553
REMARK INTER:                  -8.205
REMARK INTRA:                  -0.348
REMARK UNBOUND:                -0.384
REMARK SMILES O=c1c(O)c(-c2ccc(O)cc2O)oc2cc(O)cc(O)c12
REMARK SMILES IDX 5 1 3 2 2 3 1 4 22 5 20 6 19 7 17 8 16 9 15 10 14 11 6 12
REMARK SMILES IDX 8 13 7 14 9 15 11 16 12 17 10 18 13 20 4 22 21 24 18 26
REMARK H PARENT 10 19 13 21 4 23 21 25 18 27
REMARK Flexibility Score: inf
ROOT
ATOM      1  C   UNL     1      17.143  18.799  14.829  1.00  0.00     0.184 A 
ATOM      2  C   UNL     1      16.150  19.646  14.309  1.00  0.00     0.208 A 
ATOM      3  C   UNL     1      15.895  19.629  12.928  1.00  0.00     0.238 A 
ATOM      4  O   UNL     1      15.044  20.431  12.461  1.00  0.00    -0.285 OA
ATOM      5  C   UNL     1      16.622  18.751  12.088  1.00  0.00     0.111 A 
ATOM      6  C   UNL     1      16.419  18.622  10.681  1.00  0.00     0.134 A 
ATOM      7  C   UNL     1      17.282  17.814   9.930  1.00  0.00     0.093 A 
ATOM      8  C   UNL     1      18.301  17.082  10.545  1.00  0.00     0.123 A 
ATOM      9  C   UNL     1      18.469  17.156  11.926  1.00  0.00     0.094 A 
ATOM     10  C   UNL     1      17.647  17.981  12.697  1.00  0.00     0.146 A 
ATOM     11  O   UNL     1      17.850  18.031  14.008  1.00  0.00    -0.451 OA
ENDROOT
BRANCH   1  12
ATOM     12  C   UNL     1      17.447  18.749  16.278  1.00  0.00     0.063 A 
ATOM     13  C   UNL     1      18.160  19.859  18.323  1.00  0.00     0.047 A 
ATOM     14  C   UNL     1      17.900  19.898  16.951  1.00  0.00     0.020 A 
ATOM     15  C   UNL     1      17.963  18.676  19.043  1.00  0.00     0.119 A 
ATOM     16  C   UNL     1      17.500  17.532  18.387  1.00  0.00     0.093 A 
ATOM     17  C   UNL     1      17.238  17.561  17.009  1.00  0.00     0.130 A 
BRANCH  15  18
ATOM     18  O   UNL     1      18.219  18.626  20.412  1.00  0.00    -0.508 OA
ATOM     19  H   UNL     1      19.156  18.749  20.780  1.00  0.00     0.293 HD
ENDBRANCH  15  18
BRANCH  17  20
ATOM     20  O   UNL     1      16.783  16.411  16.365  1.00  0.00    -0.507 OA
ATOM     21  H   UNL     1      16.408  15.624  16.883  1.00  0.00     0.293 HD
ENDBRANCH  17  20
ENDBRANCH   1  12
BRANCH   2  22
ATOM     22  O   UNL     1      15.455  20.514  15.155  1.00  0.00    -0.502 OA
ATOM     23  H   UNL     1      15.381  20.357  16.154  1.00  0.00     0.293 HD
ENDBRANCH   2  22
BRANCH   6  24
ATOM     24  O   UNL     1      15.376  19.237   9.983  1.00  0.00    -0.507 OA
ATOM     25  H   UNL     1      15.424  19.535   9.021  1.00  0.00     0.293 HD
ENDBRANCH   6  24
BRANCH   8  26
ATOM     26  O   UNL     1      19.146  16.269   9.792  1.00  0.00    -0.508 OA
ATOM     27  H   UNL     1      18.784  15.520   9.215  1.00  0.00     0.293 HD
ENDBRANCH   8  26
TORSDOF 6
ENDMDL
MODEL 5
REMARK VINA RESULT:    -6.757      4.620      8.483
REMARK INTER + INTRA:          -8.524
REMARK INTER:                  -8.253
REMARK INTRA:                  -0.271
REMARK UNBOUND:                -0.384
REMARK SMILES O=c1c(O)c(-c2ccc(O)cc2O)oc2cc(O)cc(O)c12
REMARK SMILES IDX 5 1 3 2 2 3 1 4 22 5 20 6 19 7 17 8 16 9 15 10 14 11 6 12
REMARK SMILES IDX 8 13 7 14 9 15 11 16 12 17 10 18 13 20 4 22 21 24 18 26
REMARK H PARENT 10 19 13 21 4 23 21 25 18 27
REMARK Flexibility Score: inf
ROOT
ATOM      1  C   UNL     1      18.194  16.874  13.178  1.00  0.00     0.184 A 
ATOM      2  C   UNL     1      17.620  18.022  12.607  1.00  0.00     0.208 A 
ATOM      3  C   UNL     1      16.923  18.918  13.434  1.00  0.00     0.238 A 
ATOM      4  O   UNL     1      16.362  19.915  12.907  1.00  0.00    -0.285 OA
ATOM      5  C   UNL     1      16.826  18.665  14.824  1.00  0.00     0.111 A 
ATOM      6  C   UNL     1      16.177  19.524  15.760  1.00  0.00     0.134 A 
ATOM      7  C   UNL     1      16.032  19.111  17.091  1.00  0.00     0.093 A 
ATOM      8  C   UNL     1      16.568  17.898  17.531  1.00  0.00     0.123 A 
ATOM      9  C   UNL     1      17.253  17.079  16.636  1.00  0.00     0.094 A 
ATOM     10  C   UNL     1      17.383  17.447  15.295  1.00  0.00     0.146 A 
ATOM     11  O   UNL     1      18.034  16.632  14.474  1.00  0.00    -0.451 OA
ENDROOT
BRANCH   1  12
ATOM     12  C   UNL     1      18.962  15.900  12.369  1.00  0.00     0.063 A 
ATOM     13  C   UNL     1      19.160  13.703  11.341  1.00  0.00     0.047 A 
ATOM     14  C   UNL     1      18.449  14.612  12.127  1.00  0.00     0.020 A 
ATOM     15  C   UNL     1      20.389  14.067  10.779  1.00  0.00     0.119 A 
ATOM     16  C   UNL     1      20.901  15.348  11.002  1.00  0.00     0.093 A 
ATOM     17  C   UNL     1      20.195  16.269  11.792  1.00  0.00     0.130 A 
BRANCH  15  18
ATOM     18  O   UNL     1      21.106  13.167   9.993  1.00  0.00    -0.508 OA
ATOM     19  H   UNL     1      20.645  12.576   9.311  1.00  0.00     0.293 HD
ENDBRANCH  15  18
BRANCH  17  20
ATOM     20  O   UNL     1      20.721  17.541  12.011  1.00  0.00    -0.507 OA
ATOM     21  H   UNL     1      20.787  17.936  12.943  1.00  0.00     0.293 HD
ENDBRANCH  17  20
ENDBRANCH   1  12
BRANCH   2  22
ATOM     22  O   UNL     1      17.717  18.244  11.231  1.00  0.00    -0.502 OA
ATOM     23  H   UNL     1      18.598  18.201  10.733  1.00  0.00     0.293 HD
ENDBRANCH   2  22
BRANCH   6  24
ATOM     24  O   UNL     1      15.689  20.795  15.446  1.00  0.00    -0.507 OA
ATOM     25  H   UNL     1      15.788  21.611  16.031  1.00  0.00     0.293 HD
ENDBRANCH   6  24
BRANCH   8  26
ATOM     26  O   UNL     1      16.432  17.501  18.860  1.00  0.00    -0.508 OA
ATOM     27  H   UNL     1      15.659  17.820  19.431  1.00  0.00     0.293 HD
ENDBRANCH   8  26
TORSDOF 6
ENDMDL
MODEL 6
REMARK VINA RESULT:    -6.755      2.588      4.981
REMARK INTER + INTRA:          -8.521
REMARK INTER:                  -8.284
REMARK INTRA:                  -0.237
REMARK UNBOUND:                -0.384
REMARK SMILES O=c1c(O)c(-c2ccc(O)cc2O)oc2cc(O)cc(O)c12
REMARK SMILES IDX 5 1 3 2 2 3 1 4 22 5 20 6 19 7 17 8 16 9 15 10 14 11 6 12
REMARK SMILES IDX 8 13 7 14 9 15 11 16 12 17 10 18 13 20 4 22 21 24 18 26
REMARK H PARENT 10 19 13 21 4 23 21 25 18 27
REMARK Flexibility Score: inf
ROOT
ATOM      1  C   UNL     1      19.029  15.265  11.144  1.00  0.00     0.184 A 
ATOM      2  C   UNL     1      18.007  15.371  12.101  1.00  0.00     0.208 A 
ATOM      3  C   UNL     1      17.463  14.198  12.651  1.00  0.00     0.238 A 
ATOM      4  O   UNL     1      16.509  14.298  13.465  1.00  0.00    -0.285 OA
ATOM      5  C   UNL     1      17.964  12.935  12.250  1.00  0.00     0.111 A 
ATOM      6  C   UNL     1      17.515  11.684  12.770  1.00  0.00     0.134 A 
ATOM      7  C   UNL     1      17.992  10.493  12.208  1.00  0.00     0.093 A 
ATOM      8  C   UNL     1      18.948  10.508  11.190  1.00  0.00     0.123 A 
ATOM      9  C   UNL     1      19.436  11.724  10.717  1.00  0.00     0.094 A 
ATOM     10  C   UNL     1      18.953  12.930  11.231  1.00  0.00     0.146 A 
ATOM     11  O   UNL     1      19.435  14.066  10.744  1.00  0.00    -0.451 OA
ENDROOT
BRANCH   1  12
ATOM     12  C   UNL     1      19.663  16.461  10.542  1.00  0.00     0.063 A 
ATOM     13  C   UNL     1      20.070  17.886   8.611  1.00  0.00     0.047 A 
ATOM     14  C   UNL     1      19.497  16.743   9.174  1.00  0.00     0.020 A 
ATOM     15  C   UNL     1      20.810  18.767   9.407  1.00  0.00     0.119 A 
ATOM     16  C   UNL     1      20.971  18.503  10.770  1.00  0.00     0.093 A 
ATOM     17  C   UNL     1      20.399  17.357  11.344  1.00  0.00     0.130 A 
BRANCH  15  18
ATOM     18  O   UNL     1      21.387  19.910   8.856  1.00  0.00    -0.508 OA
ATOM     19  H   UNL     1      21.073  20.838   9.115  1.00  0.00     0.293 HD
ENDBRANCH  15  18
BRANCH  17  20
ATOM     20  O   UNL     1      20.573  17.103  12.705  1.00  0.00    -0.507 OA
ATOM     21  H   UNL     1      20.242  17.749  13.413  1.00  0.00     0.293 HD
ENDBRANCH  17  20
ENDBRANCH   1  12
BRANCH   2  22
ATOM     22  O   UNL     1      17.520  16.627  12.471  1.00  0.00    -0.502 OA
ATOM     23  H   UNL     1      18.034  17.254  13.078  1.00  0.00     0.293 HD
ENDBRANCH   2  22
BRANCH   6  24
ATOM     24  O   UNL     1      16.633  11.557  13.846  1.00  0.00    -0.507 OA
ATOM     25  H   UNL     1      15.836  10.938  13.867  1.00  0.00     0.293 HD
ENDBRANCH   6  24
BRANCH   8  26
ATOM     26  O   UNL     1      19.429   9.318  10.648  1.00  0.00    -0.508 OA
ATOM     27  H   UNL     1      20.068   9.314   9.862  1.00  0.00     0.293 HD
ENDBRANCH   8  26
TORSDOF 6
ENDMDL
MODEL 7
REMARK VINA RESULT:    -6.720      3.963      7.169
REMARK INTER + INTRA:          -8.479
REMARK INTER:                  -7.992
REMARK INTRA:                  -0.487
REMARK UNBOUND:                -0.384
REMARK SMILES O=c1c(O)c(-c2ccc(O)cc2O)oc2cc(O)cc(O)c12
REMARK SMILES IDX 5 1 3 2 2 3 1 4 22 5 20 6 19 7 17 8 16 9 15 10 14 11 6 12
REMARK SMILES IDX 8 13 7 14 9 15 11 16 12 17 10 18 13 20 4 22 21 24 18 26
REMARK H PARENT 10 19 13 21 4 23 21 25 18 27
REMARK Flexibility Score: inf
ROOT
ATOM      1  C   UNL     1      17.522  16.743  14.961  1.00  0.00     0.184 A 
ATOM      2  C   UNL     1      16.684  15.616  14.965  1.00  0.00     0.208 A 
ATOM      3  C   UNL     1      16.981  14.543  14.109  1.00  0.00     0.238 A 
ATOM      4  O   UNL     1      16.194  13.561  14.076  1.00  0.00    -0.285 OA
ATOM      5  C   UNL     1      18.126  14.602  13.277  1.00  0.00     0.111 A 
ATOM      6  C   UNL     1      18.544  13.556  12.400  1.00  0.00     0.134 A 
ATOM      7  C   UNL     1      19.620  13.775  11.529  1.00  0.00     0.093 A 
ATOM      8  C   UNL     1      20.330  14.978  11.549  1.00  0.00     0.123 A 
ATOM      9  C   UNL     1      19.965  15.983  12.443  1.00  0.00     0.094 A 
ATOM     10  C   UNL     1      18.874  15.808  13.298  1.00  0.00     0.146 A 
ATOM     11  O   UNL     1      18.553  16.795  14.125  1.00  0.00    -0.451 OA
ENDROOT
BRANCH   1  12
ATOM     12  C   UNL     1      17.281  17.900  15.854  1.00  0.00     0.063 A 
ATOM     13  C   UNL     1      17.422  18.931  18.055  1.00  0.00     0.047 A 
ATOM     14  C   UNL     1      17.623  17.831  17.217  1.00  0.00     0.020 A 
ATOM     15  C   UNL     1      16.885  20.117  17.542  1.00  0.00     0.119 A 
ATOM     16  C   UNL     1      16.554  20.200  16.187  1.00  0.00     0.093 A 
ATOM     17  C   UNL     1      16.751  19.100  15.338  1.00  0.00     0.130 A 
BRANCH  15  18
ATOM     18  O   UNL     1      16.681  21.220  18.369  1.00  0.00    -0.508 OA
ATOM     19  H   UNL     1      17.225  22.068  18.264  1.00  0.00     0.293 HD
ENDBRANCH  15  18
BRANCH  17  20
ATOM     20  O   UNL     1      16.410  19.195  13.989  1.00  0.00    -0.507 OA
ATOM     21  H   UNL     1      15.460  19.044  13.669  1.00  0.00     0.293 HD
ENDBRANCH  17  20
ENDBRANCH   1  12
BRANCH   2  22
ATOM     22  O   UNL     1      15.553  15.586  15.785  1.00  0.00    -0.502 OA
ATOM     23  H   UNL     1      15.569  15.195  16.720  1.00  0.00     0.293 HD
ENDBRANCH   2  22
BRANCH   6  24
ATOM     24  O   UNL     1      17.963  12.286  12.366  1.00  0.00    -0.507 OA
ATOM     25  H   UNL     1      18.031  11.602  13.105  1.00  0.00     0.293 HD
ENDBRANCH   6  24
BRANCH   8  26
ATOM     26  O   UNL     1      21.408  15.181  10.690  1.00  0.00    -0.508 OA
ATOM     27  H   UNL     1      21.759  16.110  10.491  1.00  0.00     0.293 HD
ENDBRANCH   8  26
TORSDOF 6
ENDMDL
MODEL 8
REMARK VINA RESULT:    -6.661      3.894      5.785
REMARK INTER + INTRA:          -8.409
REMARK INTER:                  -8.009
REMARK INTRA:                  -0.400
REMARK UNBOUND:                -0.384
REMARK SMILES O=c1c(O)c(-c2ccc(O)cc2O)oc2cc(O)cc(O)c12
REMARK SMILES IDX 5 1 3 2 2 3 1 4 22 5 20 6 19 7 17 8 16 9 15 10 14 11 6 12
REMARK SMILES IDX 8 13 7 14 9 15 11 16 12 17 10 18 13 20 4 22 21 24 18 26
REMARK H PARENT 10 19 13 21 4 23 21 25 18 27
REMARK Flexibility Score: inf
ROOT
ATOM      1  C   UNL     1      18.986  16.084  10.874  1.00  0.00     0.184 A 
ATOM      2  C   UNL     1      19.339  14.741  10.662  1.00  0.00     0.208 A 
ATOM      3  C   UNL     1      18.889  13.768  11.568  1.00  0.00     0.238 A 
ATOM      4  O   UNL     1      19.256  12.574  11.405  1.00  0.00    -0.285 OA
ATOM      5  C   UNL     1      18.075  14.147  12.663  1.00  0.00     0.111 A 
ATOM      6  C   UNL     1      17.530  13.239  13.621  1.00  0.00     0.134 A 
ATOM      7  C   UNL     1      16.844  13.741  14.734  1.00  0.00     0.093 A 
ATOM      8  C   UNL     1      16.629  15.112  14.891  1.00  0.00     0.123 A 
ATOM      9  C   UNL     1      17.107  16.002  13.931  1.00  0.00     0.094 A 
ATOM     10  C   UNL     1      17.826  15.535  12.828  1.00  0.00     0.146 A 
ATOM     11  O   UNL     1      18.273  16.417  11.943  1.00  0.00    -0.451 OA
ENDROOT
BRANCH   1  12
ATOM     12  C   UNL     1      19.406  17.159   9.945  1.00  0.00     0.063 A 
ATOM     13  C   UNL     1      18.929  18.624   8.061  1.00  0.00     0.047 A 
ATOM     14  C   UNL     1      18.545  17.592   8.920  1.00  0.00     0.020 A 
ATOM     15  C   UNL     1      20.173  19.245   8.218  1.00  0.00     0.119 A 
ATOM     16  C   UNL     1      21.031  18.831   9.240  1.00  0.00     0.093 A 
ATOM     17  C   UNL     1      20.655  17.794  10.108  1.00  0.00     0.130 A 
BRANCH  15  18
ATOM     18  O   UNL     1      20.566  20.276   7.366  1.00  0.00    -0.508 OA
ATOM     19  H   UNL     1      21.544  20.489   7.210  1.00  0.00     0.293 HD
ENDBRANCH  15  18
BRANCH  17  20
ATOM     20  O   UNL     1      21.523  17.387  11.120  1.00  0.00    -0.507 OA
ATOM     21  H   UNL     1      22.530  17.444  11.012  1.00  0.00     0.293 HD
ENDBRANCH  17  20
ENDBRANCH   1  12
BRANCH   2  22
ATOM     22  O   UNL     1      20.154  14.393   9.582  1.00  0.00    -0.502 OA
ATOM     23  H   UNL     1      19.923  14.633   8.625  1.00  0.00     0.293 HD
ENDBRANCH   2  22
BRANCH   6  24
ATOM     24  O   UNL     1      17.608  11.849  13.510  1.00  0.00    -0.507 OA
ATOM     25  H   UNL     1      18.468  11.322  13.467  1.00  0.00     0.293 HD
ENDBRANCH   6  24
BRANCH   8  26
ATOM     26  O   UNL     1      15.933  15.601  15.994  1.00  0.00    -0.508 OA
ATOM     27  H   UNL     1      15.574  16.548  16.018  1.00  0.00     0.293 HD
ENDBRANCH   8  26
TORSDOF 6
ENDMDL
MODEL 9
REMARK VINA RESULT:    -6.648      5.196      9.722
REMARK INTER + INTRA:          -8.392
REMARK INTER:                  -7.931
REMARK INTRA:                  -0.461
REMARK UNBOUND:                -0.384
REMARK SMILES O=c1c(O)c(-c2ccc(O)cc2O)oc2cc(O)cc(O)c12
REMARK SMILES IDX 5 1 3 2 2 3 1 4 22 5 20 6 19 7 17 8 16 9 15 10 14 11 6 12
REMARK SMILES IDX 8 13 7 14 9 15 11 16 12 17 10 18 13 20 4 22 21 24 18 26
REMARK H PARENT 10 19 13 21 4 23 21 25 18 27
REMARK Flexibility Score: inf
ROOT
ATOM      1  C   UNL     1      18.738  18.093  10.062  1.00  0.00     0.184 A 
ATOM      2  C   UNL     1      17.348  18.292  10.075  1.00  0.00     0.208 A 
ATOM      3  C   UNL     1      16.844  19.591   9.897  1.00  0.00     0.238 A 
ATOM      4  O   UNL     1      15.600  19.771   9.967  1.00  0.00    -0.285 OA
ATOM      5  C   UNL     1      17.736  20.670   9.686  1.00  0.00     0.111 A 
ATOM      6  C   UNL     1      17.335  22.020   9.454  1.00  0.00     0.134 A 
ATOM      7  C   UNL     1      18.306  23.027   9.385  1.00  0.00     0.093 A 
ATOM      8  C   UNL     1      19.667  22.723   9.477  1.00  0.00     0.123 A 
ATOM      9  C   UNL     1      20.071  21.400   9.644  1.00  0.00     0.094 A 
ATOM     10  C   UNL     1      19.124  20.379   9.752  1.00  0.00     0.146 A 
ATOM     11  O   UNL     1      19.551  19.134   9.923  1.00  0.00    -0.451 OA
ENDROOT
BRANCH   1  12
ATOM     12  C   UNL     1      19.337  16.748  10.220  1.00  0.00     0.063 A 
ATOM     13  C   UNL     1      19.791  14.524   9.340  1.00  0.00     0.047 A 
ATOM     14  C   UNL     1      19.203  15.784   9.204  1.00  0.00     0.020 A 
ATOM     15  C   UNL     1      20.528  14.212  10.488  1.00  0.00     0.119 A 
ATOM     16  C   UNL     1      20.678  15.166  11.498  1.00  0.00     0.093 A 
ATOM     17  C   UNL     1      20.089  16.434  11.371  1.00  0.00     0.130 A 
BRANCH  15  18
ATOM     18  O   UNL     1      21.118  12.958  10.634  1.00  0.00    -0.508 OA
ATOM     19  H   UNL     1      21.250  12.339   9.841  1.00  0.00     0.293 HD
ENDBRANCH  15  18
BRANCH  17  20
ATOM     20  O   UNL     1      20.242  17.374  12.389  1.00  0.00    -0.507 OA
ATOM     21  H   UNL     1      20.051  18.358  12.237  1.00  0.00     0.293 HD
ENDBRANCH  17  20
ENDBRANCH   1  12
BRANCH   2  22
ATOM     22  O   UNL     1      16.488  17.214  10.298  1.00  0.00    -0.502 OA
ATOM     23  H   UNL     1      15.489  17.331  10.425  1.00  0.00     0.293 HD
ENDBRANCH   2  22
BRANCH   6  24
ATOM     24  O   UNL     1      16.010  22.418   9.257  1.00  0.00    -0.507 OA
ATOM     25  H   UNL     1      15.724  23.220   8.717  1.00  0.00     0.293 HD
ENDBRANCH   6  24
BRANCH   8  26
ATOM     26  O   UNL     1      20.627  23.729   9.392  1.00  0.00    -0.508 OA
ATOM     27  H   UNL     1      20.543  24.487   8.725  1.00  0.00     0.293 HD
ENDBRANCH   8  26
TORSDOF 6
ENDMDL
