MODEL 1
REMARK VINA RESULT:    -5.306      0.000      0.000
REMARK INTER + INTRA:          -6.716
REMARK INTER:                  -6.392
REMARK INTRA:                  -0.324
REMARK UNBOUND:                -0.324
REMARK SMILES O=c1c(O)c(-c2ccc(O)c(O)c2)oc2cc(O)cc(O)c12
REMARK SMILES IDX 5 1 3 2 2 3 1 4 22 5 20 6 19 7 17 8 16 9 15 10 14 11 6 12
REMARK SMILES IDX 7 13 8 14 9 15 13 16 11 17 10 18 12 20 4 22 21 24 18 26
REMARK H PARENT 10 19 12 21 4 23 21 25 18 27
REMARK Flexibility Score: inf
ROOT
ATOM      1  C   UNL     1      -6.077   7.908  -6.129  1.00  0.00     0.180 A 
ATOM      2  C   UNL     1      -6.641   8.565  -7.239  1.00  0.00     0.208 A 
ATOM      3  C   UNL     1      -7.777   8.011  -7.850  1.00  0.00     0.238 A 
ATOM      4  O   UNL     1      -8.286   8.586  -8.851  1.00  0.00    -0.285 OA
ATOM      5  C   UNL     1      -8.341   6.827  -7.331  1.00  0.00     0.111 A 
ATOM      6  C   UNL     1      -9.486   6.208  -7.884  1.00  0.00     0.134 A 
ATOM      7  C   UNL     1      -9.992   5.035  -7.305  1.00  0.00     0.093 A 
ATOM      8  C   UNL     1      -9.373   4.471  -6.182  1.00  0.00     0.123 A 
ATOM      9  C   UNL     1      -8.244   5.079  -5.633  1.00  0.00     0.094 A 
ATOM     10  C   UNL     1      -7.723   6.247  -6.198  1.00  0.00     0.146 A 
ATOM     11  O   UNL     1      -6.644   6.801  -5.659  1.00  0.00    -0.452 OA
ENDROOT
BRANCH   1  12
ATOM     12  C   UNL     1      -4.868   8.418  -5.443  1.00  0.00     0.025 A 
ATOM     13  C   UNL     1      -5.007   9.344  -4.398  1.00  0.00     0.016 A 
ATOM     14  C   UNL     1      -3.881   9.823  -3.722  1.00  0.00     0.051 A 
ATOM     15  C   UNL     1      -2.604   9.374  -4.069  1.00  0.00     0.157 A 
ATOM     16  C   UNL     1      -3.584   7.950  -5.776  1.00  0.00     0.062 A 
ATOM     17  C   UNL     1      -2.453   8.429  -5.098  1.00  0.00     0.158 A 
BRANCH  15  18
ATOM     18  O   UNL     1      -1.499   9.871  -3.379  1.00  0.00    -0.504 OA
ATOM     19  H   UNL     1      -0.567   9.496  -3.513  1.00  0.00     0.293 HD
ENDBRANCH  15  18
BRANCH  17  20
ATOM     20  O   UNL     1      -1.183   7.966  -5.440  1.00  0.00    -0.504 OA
ATOM     21  H   UNL     1      -0.557   7.575  -4.747  1.00  0.00     0.293 HD
ENDBRANCH  17  20
ENDBRANCH   1  12
BRANCH   2  22
ATOM     22  O   UNL     1      -6.093   9.764  -7.703  1.00  0.00    -0.502 OA
ATOM     23  H   UNL     1      -5.848  10.524  -7.080  1.00  0.00     0.293 HD
ENDBRANCH   2  22
BRANCH   6  24
ATOM     24  O   UNL     1     -10.125   6.747  -9.002  1.00  0.00    -0.507 OA
ATOM     25  H   UNL     1     -10.825   6.227  -9.519  1.00  0.00     0.293 HD
ENDBRANCH   6  24
BRANCH   8  26
ATOM     26  O   UNL     1      -9.876   3.306  -5.605  1.00  0.00    -0.508 OA
ATOM     27  H   UNL     1      -9.903   2.432  -6.116  1.00  0.00     0.293 HD
ENDBRANCH   8  26
TORSDOF 6
ENDMDL
MODEL 2
REMARK VINA RESULT:    -5.251      2.428      2.867
REMARK INTER + INTRA:          -6.650
REMARK INTER:                  -6.462
REMARK INTRA:                  -0.188
REMARK UNBOUND:                -0.324
REMARK SMILES O=c1c(O)c(-c2ccc(O)c(O)c2)oc2cc(O)cc(O)c12
REMARK SMILES IDX 5 1 3 2 2 3 1 4 22 5 20 6 19 7 17 8 16 9 15 10 14 11 6 12
REMARK SMILES IDX 7 13 8 14 9 15 13 16 11 17 10 18 12 20 4 22 21 24 18 26
REMARK H PARENT 10 19 12 21 4 23 21 25 18 27
REMARK Flexibility Score: inf
ROOT
ATOM      1  C   UNL     1      -4.488   7.298  -7.258  1.00  0.00     0.180 A 
ATOM      2  C   UNL     1      -4.647   6.362  -8.298  1.00  0.00     0.208 A 
ATOM      3  C   UNL     1      -5.885   5.717  -8.448  1.00  0.00     0.238 A 
ATOM      4  O   UNL     1      -6.035   4.869  -9.369  1.00  0.00    -0.285 OA
ATOM      5  C   UNL     1      -6.945   6.033  -7.574  1.00  0.00     0.111 A 
ATOM      6  C   UNL     1      -8.224   5.432  -7.659  1.00  0.00     0.134 A 
ATOM      7  C   UNL     1      -9.230   5.806  -6.758  1.00  0.00     0.093 A 
ATOM      8  C   UNL     1      -8.982   6.770  -5.773  1.00  0.00     0.123 A 
ATOM      9  C   UNL     1      -7.723   7.365  -5.685  1.00  0.00     0.094 A 
ATOM     10  C   UNL     1      -6.706   7.004  -6.573  1.00  0.00     0.146 A 
ATOM     11  O   UNL     1      -5.515   7.581  -6.462  1.00  0.00    -0.452 OA
ENDROOT
BRANCH   1  12
ATOM     12  C   UNL     1      -3.209   8.006  -7.024  1.00  0.00     0.025 A 
ATOM     13  C   UNL     1      -2.766   8.958  -7.954  1.00  0.00     0.016 A 
ATOM     14  C   UNL     1      -1.572   9.653  -7.743  1.00  0.00     0.051 A 
ATOM     15  C   UNL     1      -0.812   9.418  -6.593  1.00  0.00     0.157 A 
ATOM     16  C   UNL     1      -2.454   7.786  -5.857  1.00  0.00     0.062 A 
ATOM     17  C   UNL     1      -1.257   8.484  -5.642  1.00  0.00     0.158 A 
BRANCH  15  18
ATOM     18  O   UNL     1       0.376  10.124  -6.409  1.00  0.00    -0.504 OA
ATOM     19  H   UNL     1       0.985   9.958  -5.616  1.00  0.00     0.293 HD
ENDBRANCH  15  18
BRANCH  17  20
ATOM     20  O   UNL     1      -0.510   8.255  -4.487  1.00  0.00    -0.504 OA
ATOM     21  H   UNL     1       0.140   8.945  -4.130  1.00  0.00     0.293 HD
ENDBRANCH  17  20
ENDBRANCH   1  12
BRANCH   2  22
ATOM     22  O   UNL     1      -3.595   6.104  -9.181  1.00  0.00    -0.502 OA
ATOM     23  H   UNL     1      -3.342   6.744  -9.924  1.00  0.00     0.293 HD
ENDBRANCH   2  22
BRANCH   6  24
ATOM     24  O   UNL     1      -8.502   4.470  -8.631  1.00  0.00    -0.507 OA
ATOM     25  H   UNL     1      -9.431   4.354  -9.018  1.00  0.00     0.293 HD
ENDBRANCH   6  24
BRANCH   8  26
ATOM     26  O   UNL     1      -9.982   7.144  -4.877  1.00  0.00    -0.508 OA
ATOM     27  H   UNL     1     -10.957   7.172  -5.153  1.00  0.00     0.293 HD
ENDBRANCH   8  26
TORSDOF 6
ENDMDL
MODEL 3
REMARK VINA RESULT:    -4.994      1.362      2.959
REMARK INTER + INTRA:          -6.340
REMARK INTER:                  -6.015
REMARK INTRA:                  -0.325
REMARK UNBOUND:                -0.324
REMARK SMILES O=c1c(O)c(-c2ccc(O)c(O)c2)oc2cc(O)cc(O)c12
REMARK SMILES IDX 5 1 3 2 2 3 1 4 22 5 20 6 19 7 17 8 16 9 15 10 14 11 6 12
REMARK SMILES IDX 7 13 8 14 9 15 13 16 11 17 10 18 12 20 4 22 21 24 18 26
REMARK H PARENT 10 19 12 21 4 23 21 25 18 27
REMARK Flexibility Score: inf
ROOT
ATOM      1  C   UNL     1      -5.739   7.938  -5.931  1.00  0.00     0.180 A 
ATOM      2  C   UNL     1      -6.284   6.744  -5.422  1.00  0.00     0.208 A 
ATOM      3  C   UNL     1      -7.535   6.314  -5.893  1.00  0.00     0.238 A 
ATOM      4  O   UNL     1      -8.038   5.251  -5.437  1.00  0.00    -0.285 OA
ATOM      5  C   UNL     1      -8.206   7.069  -6.877  1.00  0.00     0.111 A 
ATOM      6  C   UNL     1      -9.466   6.703  -7.407  1.00  0.00     0.134 A 
ATOM      7  C   UNL     1     -10.066   7.503  -8.390  1.00  0.00     0.093 A 
ATOM      8  C   UNL     1      -9.430   8.662  -8.852  1.00  0.00     0.123 A 
ATOM      9  C   UNL     1      -8.187   9.026  -8.332  1.00  0.00     0.094 A 
ATOM     10  C   UNL     1      -7.574   8.243  -7.350  1.00  0.00     0.146 A 
ATOM     11  O   UNL     1      -6.394   8.616  -6.868  1.00  0.00    -0.452 OA
ENDROOT
BRANCH   1  12
ATOM     12  C   UNL     1      -4.435   8.467  -5.470  1.00  0.00     0.025 A 
ATOM     13  C   UNL     1      -4.390   9.319  -4.357  1.00  0.00     0.016 A 
ATOM     14  C   UNL     1      -3.168   9.813  -3.892  1.00  0.00     0.051 A 
ATOM     15  C   UNL     1      -1.973   9.451  -4.522  1.00  0.00     0.157 A 
ATOM     16  C   UNL     1      -3.230   8.086  -6.090  1.00  0.00     0.062 A 
ATOM     17  C   UNL     1      -2.003   8.579  -5.624  1.00  0.00     0.158 A 
BRANCH  15  18
ATOM     18  O   UNL     1      -0.769   9.961  -4.038  1.00  0.00    -0.504 OA
ATOM     19  H   UNL     1      -0.420   9.734  -3.114  1.00  0.00     0.293 HD
ENDBRANCH  15  18
BRANCH  17  20
ATOM     20  O   UNL     1      -0.814   8.204  -6.248  1.00  0.00    -0.504 OA
ATOM     21  H   UNL     1      -0.009   7.898  -5.715  1.00  0.00     0.293 HD
ENDBRANCH  17  20
ENDBRANCH   1  12
BRANCH   2  22
ATOM     22  O   UNL     1      -5.575   5.988  -4.485  1.00  0.00    -0.502 OA
ATOM     23  H   UNL     1      -6.027   5.313  -3.879  1.00  0.00     0.293 HD
ENDBRANCH   2  22
BRANCH   6  24
ATOM     24  O   UNL     1     -10.125   5.554  -6.967  1.00  0.00    -0.507 OA
ATOM     25  H   UNL     1     -10.157   4.710  -7.528  1.00  0.00     0.293 HD
ENDBRANCH   6  24
BRANCH   8  26
ATOM     26  O   UNL     1     -10.025   9.457  -9.830  1.00  0.00    -0.508 OA
ATOM     27  H   UNL     1      -9.556  10.272 -10.206  1.00  0.00     0.293 HD
ENDBRANCH   8  26
TORSDOF 6
ENDMDL
MODEL 4
REMARK VINA RESULT:    -4.956      2.074      2.894
REMARK INTER + INTRA:          -6.294
REMARK INTER:                  -6.077
REMARK INTRA:                  -0.218
REMARK UNBOUND:                -0.324
REMARK SMILES O=c1c(O)c(-c2ccc(O)c(O)c2)oc2cc(O)cc(O)c12
REMARK SMILES IDX 5 1 3 2 2 3 1 4 22 5 20 6 19 7 17 8 16 9 15 10 14 11 6 12
REMARK SMILES IDX 7 13 8 14 9 15 13 16 11 17 10 18 12 20 4 22 21 24 18 26
REMARK H PARENT 10 19 12 21 4 23 21 25 18 27
REMARK Flexibility Score: inf
ROOT
ATOM      1  C   UNL     1      -4.708   7.871  -6.364  1.00  0.00     0.180 A 
ATOM      2  C   UNL     1      -5.481   8.439  -5.334  1.00  0.00     0.208 A 
ATOM      3  C   UNL     1      -6.819   8.042  -5.192  1.00  0.00     0.238 A 
ATOM      4  O   UNL     1      -7.524   8.552  -4.278  1.00  0.00    -0.285 OA
ATOM      5  C   UNL     1      -7.356   7.073  -6.064  1.00  0.00     0.111 A 
ATOM      6  C   UNL     1      -8.692   6.615  -5.986  1.00  0.00     0.134 A 
ATOM      7  C   UNL     1      -9.149   5.642  -6.886  1.00  0.00     0.093 A 
ATOM      8  C   UNL     1      -8.293   5.117  -7.862  1.00  0.00     0.123 A 
ATOM      9  C   UNL     1      -6.974   5.565  -7.943  1.00  0.00     0.094 A 
ATOM     10  C   UNL     1      -6.501   6.537  -7.056  1.00  0.00     0.146 A 
ATOM     11  O   UNL     1      -5.243   6.949  -7.159  1.00  0.00    -0.452 OA
ENDROOT
BRANCH   1  12
ATOM     12  C   UNL     1      -3.295   8.252  -6.590  1.00  0.00     0.025 A 
ATOM     13  C   UNL     1      -2.961   9.038  -7.704  1.00  0.00     0.016 A 
ATOM     14  C   UNL     1      -1.637   9.427  -7.925  1.00  0.00     0.051 A 
ATOM     15  C   UNL     1      -0.631   9.049  -7.030  1.00  0.00     0.157 A 
ATOM     16  C   UNL     1      -2.285   7.891  -5.680  1.00  0.00     0.062 A 
ATOM     17  C   UNL     1      -0.956   8.282  -5.899  1.00  0.00     0.158 A 
BRANCH  15  18
ATOM     18  O   UNL     1       0.682   9.450  -7.278  1.00  0.00    -0.504 OA
ATOM     19  H   UNL     1       1.452   9.170  -6.681  1.00  0.00     0.293 HD
ENDBRANCH  15  18
BRANCH  17  20
ATOM     20  O   UNL     1       0.041   7.914  -4.996  1.00  0.00    -0.504 OA
ATOM     21  H   UNL     1       0.765   8.563  -4.712  1.00  0.00     0.293 HD
ENDBRANCH  17  20
ENDBRANCH   1  12
BRANCH   2  22
ATOM     22  O   UNL     1      -4.911   9.361  -4.451  1.00  0.00    -0.502 OA
ATOM     23  H   UNL     1      -4.793   9.164  -3.464  1.00  0.00     0.293 HD
ENDBRANCH   2  22
BRANCH   6  24
ATOM     24  O   UNL     1      -9.569   7.119  -5.023  1.00  0.00    -0.507 OA
ATOM     25  H   UNL     1     -10.141   7.937  -5.198  1.00  0.00     0.293 HD
ENDBRANCH   6  24
BRANCH   8  26
ATOM     26  O   UNL     1      -8.745   4.148  -8.756  1.00  0.00    -0.508 OA
ATOM     27  H   UNL     1      -8.856   4.350  -9.743  1.00  0.00     0.293 HD
ENDBRANCH   8  26
TORSDOF 6
ENDMDL
MODEL 5
REMARK VINA RESULT:    -4.900      3.710      6.499
REMARK INTER + INTRA:          -6.227
REMARK INTER:                  -6.381
REMARK INTRA:                   0.154
REMARK UNBOUND:                -0.324
REMARK SMILES O=c1c(O)c(-c2ccc(O)c(O)c2)oc2cc(O)cc(O)c12
REMARK SMILES IDX 5 1 3 2 2 3 1 4 22 5 20 6 19 7 17 8 16 9 15 10 14 11 6 12
REMARK SMILES IDX 7 13 8 14 9 15 13 16 11 17 10 18 12 20 4 22 21 24 18 26
REMARK H PARENT 10 19 12 21 4 23 21 25 18 27
REMARK Flexibility Score: inf
ROOT
ATOM      1  C   UNL     1      -1.082   9.011  -6.571  1.00  0.00     0.180 A 
ATOM      2  C   UNL     1      -1.155   8.901  -5.169  1.00  0.00     0.208 A 
ATOM      3  C   UNL     1      -2.395   9.087  -4.537  1.00  0.00     0.238 A 
ATOM      4  O   UNL     1      -2.470   9.001  -3.281  1.00  0.00    -0.285 OA
ATOM      5  C   UNL     1      -3.540   9.357  -5.314  1.00  0.00     0.111 A 
ATOM      6  C   UNL     1      -4.826   9.552  -4.757  1.00  0.00     0.134 A 
ATOM      7  C   UNL     1      -5.918   9.808  -5.598  1.00  0.00     0.093 A 
ATOM      8  C   UNL     1      -5.748   9.871  -6.987  1.00  0.00     0.123 A 
ATOM      9  C   UNL     1      -4.482   9.679  -7.541  1.00  0.00     0.094 A 
ATOM     10  C   UNL     1      -3.380   9.425  -6.719  1.00  0.00     0.146 A 
ATOM     11  O   UNL     1      -2.186   9.252  -7.272  1.00  0.00    -0.452 OA
ENDROOT
BRANCH   1  12
ATOM     12  C   UNL     1       0.191   8.847  -7.308  1.00  0.00     0.025 A 
ATOM     13  C   UNL     1       0.500   9.727  -8.357  1.00  0.00     0.016 A 
ATOM     14  C   UNL     1       1.705   9.604  -9.053  1.00  0.00     0.051 A 
ATOM     15  C   UNL     1       2.627   8.612  -8.701  1.00  0.00     0.157 A 
ATOM     16  C   UNL     1       1.129   7.864  -6.942  1.00  0.00     0.062 A 
ATOM     17  C   UNL     1       2.340   7.740  -7.637  1.00  0.00     0.158 A 
BRANCH  15  18
ATOM     18  O   UNL     1       3.820   8.512  -9.415  1.00  0.00    -0.504 OA
ATOM     19  H   UNL     1       4.024   7.721 -10.015  1.00  0.00     0.293 HD
ENDBRANCH  15  18
BRANCH  17  20
ATOM     20  O   UNL     1       3.260   6.758  -7.273  1.00  0.00    -0.504 OA
ATOM     21  H   UNL     1       3.878   6.332  -7.954  1.00  0.00     0.293 HD
ENDBRANCH  17  20
ENDBRANCH   1  12
BRANCH   2  22
ATOM     22  O   UNL     1      -0.015   8.584  -4.426  1.00  0.00    -0.502 OA
ATOM     23  H   UNL     1       0.896   8.974  -4.638  1.00  0.00     0.293 HD
ENDBRANCH   2  22
BRANCH   6  24
ATOM     24  O   UNL     1      -5.026   9.494  -3.377  1.00  0.00    -0.507 OA
ATOM     25  H   UNL     1      -5.934   9.669  -2.962  1.00  0.00     0.293 HD
ENDBRANCH   6  24
BRANCH   8  26
ATOM     26  O   UNL     1      -6.833  10.124  -7.824  1.00  0.00    -0.508 OA
ATOM     27  H   UNL     1      -7.295  11.026  -7.834  1.00  0.00     0.293 HD
ENDBRANCH   8  26
TORSDOF 6
ENDMDL
MODEL 6
REMARK VINA RESULT:    -4.797      1.758      7.256
REMARK INTER + INTRA:          -6.103
REMARK INTER:                  -5.778
REMARK INTRA:                  -0.325
REMARK UNBOUND:                -0.324
REMARK SMILES O=c1c(O)c(-c2ccc(O)c(O)c2)oc2cc(O)cc(O)c12
REMARK SMILES IDX 5 1 3 2 2 3 1 4 22 5 20 6 19 7 17 8 16 9 15 10 14 11 6 12
REMARK SMILES IDX 7 13 8 14 9 15 13 16 11 17 10 18 12 20 4 22 21 24 18 26
REMARK H PARENT 10 19 12 21 4 23 21 25 18 27
REMARK Flexibility Score: inf
ROOT
ATOM      1  C   UNL     1      -5.173   8.060  -6.463  1.00  0.00     0.180 A 
ATOM      2  C   UNL     1      -5.202   8.575  -5.153  1.00  0.00     0.208 A 
ATOM      3  C   UNL     1      -4.002   9.009  -4.568  1.00  0.00     0.238 A 
ATOM      4  O   UNL     1      -4.014   9.463  -3.391  1.00  0.00    -0.285 OA
ATOM      5  C   UNL     1      -2.802   8.941  -5.305  1.00  0.00     0.111 A 
ATOM      6  C   UNL     1      -1.552   9.360  -4.791  1.00  0.00     0.134 A 
ATOM      7  C   UNL     1      -0.404   9.269  -5.591  1.00  0.00     0.093 A 
ATOM      8  C   UNL     1      -0.483   8.766  -6.895  1.00  0.00     0.123 A 
ATOM      9  C   UNL     1      -1.713   8.351  -7.406  1.00  0.00     0.094 A 
ATOM     10  C   UNL     1      -2.868   8.432  -6.624  1.00  0.00     0.146 A 
ATOM     11  O   UNL     1      -4.025   8.025  -7.133  1.00  0.00    -0.452 OA
ENDROOT
BRANCH   1  12
ATOM     12  C   UNL     1      -6.392   7.566  -7.141  1.00  0.00     0.025 A 
ATOM     13  C   UNL     1      -7.184   8.461  -7.877  1.00  0.00     0.016 A 
ATOM     14  C   UNL     1      -8.328   8.012  -8.543  1.00  0.00     0.051 A 
ATOM     15  C   UNL     1      -8.689   6.662  -8.497  1.00  0.00     0.157 A 
ATOM     16  C   UNL     1      -6.745   6.204  -7.114  1.00  0.00     0.062 A 
ATOM     17  C   UNL     1      -7.891   5.751  -7.783  1.00  0.00     0.158 A 
BRANCH  15  18
ATOM     18  O   UNL     1      -9.836   6.243  -9.169  1.00  0.00    -0.504 OA
ATOM     19  H   UNL     1     -10.187   6.726  -9.988  1.00  0.00     0.293 HD
ENDBRANCH  15  18
BRANCH  17  20
ATOM     20  O   UNL     1      -8.238   4.402  -7.745  1.00  0.00    -0.504 OA
ATOM     21  H   UNL     1      -8.786   4.016  -6.985  1.00  0.00     0.293 HD
ENDBRANCH  17  20
ENDBRANCH   1  12
BRANCH   2  22
ATOM     22  O   UNL     1      -6.412   8.678  -4.462  1.00  0.00    -0.502 OA
ATOM     23  H   UNL     1      -7.132   7.968  -4.520  1.00  0.00     0.293 HD
ENDBRANCH   2  22
BRANCH   6  24
ATOM     24  O   UNL     1      -1.442   9.867  -3.495  1.00  0.00    -0.507 OA
ATOM     25  H   UNL     1      -0.796  10.614  -3.267  1.00  0.00     0.293 HD
ENDBRANCH   6  24
BRANCH   8  26
ATOM     26  O   UNL     1       0.657   8.676  -7.691  1.00  0.00    -0.508 OA
ATOM     27  H   UNL     1       1.555   8.413  -7.302  1.00  0.00     0.293 HD
ENDBRANCH   8  26
TORSDOF 6
ENDMDL
MODEL 7
REMARK VINA RESULT:    -4.776      4.501      7.184
REMARK INTER + INTRA:          -6.077
REMARK INTER:                  -6.211
REMARK INTRA:                   0.133
REMARK UNBOUND:                -0.324
REMARK SMILES O=c1c(O)c(-c2ccc(O)c(O)c2)oc2cc(O)cc(O)c12
REMARK SMILES IDX 5 1 3 2 2 3 1 4 22 5 20 6 19 7 17 8 16 9 15 10 14 11 6 12
REMARK SMILES IDX 7 13 8 14 9 15 13 16 11 17 10 18 12 20 4 22 21 24 18 26
REMARK H PARENT 10 19 12 21 4 23 21 25 18 27
REMARK Flexibility Score: inf
ROOT
ATOM      1  C   UNL     1      -0.160   9.117  -7.962  1.00  0.00     0.180 A 
ATOM      2  C   UNL     1      -1.266   9.468  -8.761  1.00  0.00     0.208 A 
ATOM      3  C   UNL     1      -2.529   9.579  -8.160  1.00  0.00     0.238 A 
ATOM      4  O   UNL     1      -3.528   9.883  -8.867  1.00  0.00    -0.285 OA
ATOM      5  C   UNL     1      -2.663   9.360  -6.773  1.00  0.00     0.111 A 
ATOM      6  C   UNL     1      -3.899   9.457  -6.090  1.00  0.00     0.134 A 
ATOM      7  C   UNL     1      -3.949   9.233  -4.707  1.00  0.00     0.093 A 
ATOM      8  C   UNL     1      -2.786   8.914  -3.994  1.00  0.00     0.123 A 
ATOM      9  C   UNL     1      -1.566   8.819  -4.664  1.00  0.00     0.094 A 
ATOM     10  C   UNL     1      -1.496   9.036  -6.042  1.00  0.00     0.146 A 
ATOM     11  O   UNL     1      -0.322   8.932  -6.655  1.00  0.00    -0.452 OA
ENDROOT
BRANCH   1  12
ATOM     12  C   UNL     1       1.200   8.962  -8.525  1.00  0.00     0.025 A 
ATOM     13  C   UNL     1       1.681   9.910  -9.440  1.00  0.00     0.016 A 
ATOM     14  C   UNL     1       2.970   9.795  -9.968  1.00  0.00     0.051 A 
ATOM     15  C   UNL     1       3.802   8.741  -9.578  1.00  0.00     0.157 A 
ATOM     16  C   UNL     1       2.046   7.914  -8.118  1.00  0.00     0.062 A 
ATOM     17  C   UNL     1       3.340   7.797  -8.645  1.00  0.00     0.158 A 
BRANCH  15  18
ATOM     18  O   UNL     1       5.082   8.650 -10.123  1.00  0.00    -0.504 OA
ATOM     19  H   UNL     1       5.295   8.032 -10.899  1.00  0.00     0.293 HD
ENDBRANCH  15  18
BRANCH  17  20
ATOM     20  O   UNL     1       4.169   6.751  -8.242  1.00  0.00    -0.504 OA
ATOM     21  H   UNL     1       4.041   5.808  -8.591  1.00  0.00     0.293 HD
ENDBRANCH  17  20
ENDBRANCH   1  12
BRANCH   2  22
ATOM     22  O   UNL     1      -1.097   9.728 -10.123  1.00  0.00    -0.502 OA
ATOM     23  H   UNL     1      -1.266  10.643 -10.525  1.00  0.00     0.293 HD
ENDBRANCH   2  22
BRANCH   6  24
ATOM     24  O   UNL     1      -5.074   9.773  -6.773  1.00  0.00    -0.507 OA
ATOM     25  H   UNL     1      -5.201  10.667  -7.232  1.00  0.00     0.293 HD
ENDBRANCH   6  24
BRANCH   8  26
ATOM     26  O   UNL     1      -2.835   8.693  -2.619  1.00  0.00    -0.508 OA
ATOM     27  H   UNL     1      -2.249   7.996  -2.175  1.00  0.00     0.293 HD
ENDBRANCH   8  26
TORSDOF 6
ENDMDL
MODEL 8
REMARK VINA RESULT:    -4.595      2.424      6.839
REMARK INTER + INTRA:          -5.859
REMARK INTER:                  -5.774
REMARK INTRA:                  -0.085
REMARK UNBOUND:                -0.324
REMARK SMILES O=c1c(O)c(-c2ccc(O)c(O)c2)oc2cc(O)cc(O)c12
REMARK SMILES IDX 5 1 3 2 2 3 1 4 22 5 20 6 19 7 17 8 16 9 15 10 14 11 6 12
REMARK SMILES IDX 7 13 8 14 9 15 13 16 11 17 10 18 12 20 4 22 21 24 18 26
REMARK H PARENT 10 19 12 21 4 23 21 25 18 27
REMARK Flexibility Score: inf
ROOT
ATOM      1  C   UNL     1      -4.869   8.500  -6.679  1.00  0.00     0.180 A 
ATOM      2  C   UNL     1      -4.595   9.122  -7.911  1.00  0.00     0.208 A 
ATOM      3  C   UNL     1      -3.262   9.405  -8.248  1.00  0.00     0.238 A 
ATOM      4  O   UNL     1      -3.006   9.972  -9.345  1.00  0.00    -0.285 OA
ATOM      5  C   UNL     1      -2.227   9.044  -7.360  1.00  0.00     0.111 A 
ATOM      6  C   UNL     1      -0.859   9.289  -7.625  1.00  0.00     0.134 A 
ATOM      7  C   UNL     1       0.112   8.891  -6.695  1.00  0.00     0.093 A 
ATOM      8  C   UNL     1      -0.260   8.252  -5.506  1.00  0.00     0.123 A 
ATOM      9  C   UNL     1      -1.608   8.008  -5.241  1.00  0.00     0.094 A 
ATOM     10  C   UNL     1      -2.591   8.399  -6.154  1.00  0.00     0.146 A 
ATOM     11  O   UNL     1      -3.867   8.160  -5.874  1.00  0.00    -0.452 OA
ENDROOT
BRANCH   1  12
ATOM     12  C   UNL     1      -6.249   8.186  -6.244  1.00  0.00     0.025 A 
ATOM     13  C   UNL     1      -6.564   6.882  -5.833  1.00  0.00     0.016 A 
ATOM     14  C   UNL     1      -7.855   6.568  -5.399  1.00  0.00     0.051 A 
ATOM     15  C   UNL     1      -8.845   7.555  -5.355  1.00  0.00     0.157 A 
ATOM     16  C   UNL     1      -7.241   9.182  -6.179  1.00  0.00     0.062 A 
ATOM     17  C   UNL     1      -8.536   8.870  -5.742  1.00  0.00     0.158 A 
BRANCH  15  18
ATOM     18  O   UNL     1     -10.125   7.212  -4.920  1.00  0.00    -0.504 OA
ATOM     19  H   UNL     1     -10.908   7.851  -4.996  1.00  0.00     0.293 HD
ENDBRANCH  15  18
BRANCH  17  20
ATOM     20  O   UNL     1      -9.515   9.861  -5.688  1.00  0.00    -0.504 OA
ATOM     21  H   UNL     1     -10.278   9.890  -6.354  1.00  0.00     0.293 HD
ENDBRANCH  17  20
ENDBRANCH   1  12
BRANCH   2  22
ATOM     22  O   UNL     1      -5.635   9.425  -8.795  1.00  0.00    -0.502 OA
ATOM     23  H   UNL     1      -5.552  10.145  -9.503  1.00  0.00     0.293 HD
ENDBRANCH   2  22
BRANCH   6  24
ATOM     24  O   UNL     1      -0.458   9.923  -8.802  1.00  0.00    -0.507 OA
ATOM     25  H   UNL     1       0.046  10.803  -8.789  1.00  0.00     0.293 HD
ENDBRANCH   6  24
BRANCH   8  26
ATOM     26  O   UNL     1       0.705   7.855  -4.582  1.00  0.00    -0.508 OA
ATOM     27  H   UNL     1       0.621   8.083  -3.599  1.00  0.00     0.293 HD
ENDBRANCH   8  26
TORSDOF 6
ENDMDL
MODEL 9
REMARK VINA RESULT:    -4.217      2.430      7.120
REMARK INTER + INTRA:          -5.404
REMARK INTER:                  -5.115
REMARK INTRA:                  -0.289
REMARK UNBOUND:                -0.324
REMARK SMILES O=c1c(O)c(-c2ccc(O)c(O)c2)oc2cc(O)cc(O)c12
REMARK SMILES IDX 5 1 3 2 2 3 1 4 22 5 20 6 19 7 17 8 16 9 15 10 14 11 6 12
REMARK SMILES IDX 7 13 8 14 9 15 13 16 11 17 10 18 12 20 4 22 21 24 18 26
REMARK H PARENT 10 19 12 21 4 23 21 25 18 27
REMARK Flexibility Score: inf
ROOT
ATOM      1  C   UNL     1      -4.625   8.507  -5.716  1.00  0.00     0.180 A 
ATOM      2  C   UNL     1      -3.864   9.032  -4.654  1.00  0.00     0.208 A 
ATOM      3  C   UNL     1      -2.519   9.363  -4.882  1.00  0.00     0.238 A 
ATOM      4  O   UNL     1      -1.825   9.825  -3.935  1.00  0.00    -0.285 OA
ATOM      5  C   UNL     1      -1.965   9.186  -6.166  1.00  0.00     0.111 A 
ATOM      6  C   UNL     1      -0.621   9.499  -6.480  1.00  0.00     0.134 A 
ATOM      7  C   UNL     1      -0.147   9.302  -7.784  1.00  0.00     0.093 A 
ATOM      8  C   UNL     1      -0.991   8.798  -8.781  1.00  0.00     0.123 A 
ATOM      9  C   UNL     1      -2.317   8.488  -8.476  1.00  0.00     0.094 A 
ATOM     10  C   UNL     1      -2.808   8.676  -7.181  1.00  0.00     0.146 A 
ATOM     11  O   UNL     1      -4.073   8.367  -6.918  1.00  0.00    -0.452 OA
ENDROOT
BRANCH   1  12
ATOM     12  C   UNL     1      -6.043   8.116  -5.551  1.00  0.00     0.025 A 
ATOM     13  C   UNL     1      -7.039   9.104  -5.575  1.00  0.00     0.016 A 
ATOM     14  C   UNL     1      -8.386   8.755  -5.442  1.00  0.00     0.051 A 
ATOM     15  C   UNL     1      -8.758   7.415  -5.298  1.00  0.00     0.157 A 
ATOM     16  C   UNL     1      -6.421   6.766  -5.428  1.00  0.00     0.062 A 
ATOM     17  C   UNL     1      -7.772   6.414  -5.296  1.00  0.00     0.158 A 
BRANCH  15  18
ATOM     18  O   UNL     1     -10.109   7.097  -5.165  1.00  0.00    -0.504 OA
ATOM     19  H   UNL     1     -10.679   7.469  -4.413  1.00  0.00     0.293 HD
ENDBRANCH  15  18
BRANCH  17  20
ATOM     20  O   UNL     1      -8.138   5.075  -5.166  1.00  0.00    -0.504 OA
ATOM     21  H   UNL     1      -9.092   4.769  -5.318  1.00  0.00     0.293 HD
ENDBRANCH  17  20
ENDBRANCH   1  12
BRANCH   2  22
ATOM     22  O   UNL     1      -4.451   9.245  -3.404  1.00  0.00    -0.502 OA
ATOM     23  H   UNL     1      -4.275   8.638  -2.612  1.00  0.00     0.293 HD
ENDBRANCH   2  22
BRANCH   6  24
ATOM     24  O   UNL     1       0.245  10.003  -5.508  1.00  0.00    -0.507 OA
ATOM     25  H   UNL     1       0.413  10.997  -5.407  1.00  0.00     0.293 HD
ENDBRANCH   6  24
BRANCH   8  26
ATOM     26  O   UNL     1      -0.521   8.603 -10.078  1.00  0.00    -0.508 OA
ATOM     27  H   UNL     1      -1.150   8.388 -10.842  1.00  0.00     0.293 HD
ENDBRANCH   8  26
TORSDOF 6
ENDMDL
