MODEL 1
REMARK VINA RESULT:    -6.209      0.000      0.000
REMARK INTER + INTRA:          -7.721
REMARK INTER:                  -7.479
REMARK INTRA:                  -0.242
REMARK UNBOUND:                -0.242
REMARK SMILES O=c1c(O)c(-c2ccc(O)c(O)c2)oc2cc(O)cc(O)c12
REMARK SMILES IDX 5 1 3 2 2 3 1 4 22 5 20 6 19 7 17 8 16 9 15 10 14 11 6 12
REMARK SMILES IDX 7 13 8 14 9 15 13 16 11 17 10 18 12 20 4 22 21 24 18 26
REMARK H PARENT 10 19 12 21 4 23 21 25 18 27
REMARK Flexibility Score: inf
ROOT
ATOM      1  C   UNL     1       6.900  -8.423  28.243  1.00  0.00     0.180 A 
ATOM      2  C   UNL     1       5.687  -9.030  28.613  1.00  0.00     0.208 A 
ATOM      3  C   UNL     1       5.047  -8.611  29.791  1.00  0.00     0.238 A 
ATOM      4  O   UNL     1       3.990  -9.195  30.145  1.00  0.00    -0.285 OA
ATOM      5  C   UNL     1       5.619  -7.580  30.574  1.00  0.00     0.111 A 
ATOM      6  C   UNL     1       5.037  -7.049  31.764  1.00  0.00     0.134 A 
ATOM      7  C   UNL     1       5.754  -6.122  32.530  1.00  0.00     0.093 A 
ATOM      8  C   UNL     1       7.003  -5.658  32.117  1.00  0.00     0.123 A 
ATOM      9  C   UNL     1       7.555  -6.127  30.923  1.00  0.00     0.094 A 
ATOM     10  C   UNL     1       6.879  -7.079  30.157  1.00  0.00     0.146 A 
ATOM     11  O   UNL     1       7.445  -7.506  29.033  1.00  0.00    -0.452 OA
ENDROOT
BRANCH   1  12
ATOM     12  C   UNL     1       7.620  -8.794  27.004  1.00  0.00     0.025 A 
ATOM     13  C   UNL     1       8.864  -9.439  27.094  1.00  0.00     0.016 A 
ATOM     14  C   UNL     1       9.571  -9.779  25.938  1.00  0.00     0.051 A 
ATOM     15  C   UNL     1       9.052  -9.465  24.675  1.00  0.00     0.157 A 
ATOM     16  C   UNL     1       7.113  -8.463  25.734  1.00  0.00     0.062 A 
ATOM     17  C   UNL     1       7.823  -8.802  24.574  1.00  0.00     0.158 A 
BRANCH  15  18
ATOM     18  O   UNL     1       9.754  -9.803  23.520  1.00  0.00    -0.504 OA
ATOM     19  H   UNL     1      10.662 -10.251  23.562  1.00  0.00     0.293 HD
ENDBRANCH  15  18
BRANCH  17  20
ATOM     20  O   UNL     1       7.315  -8.478  23.316  1.00  0.00    -0.504 OA
ATOM     21  H   UNL     1       7.559  -7.610  22.853  1.00  0.00     0.293 HD
ENDBRANCH  17  20
ENDBRANCH   1  12
BRANCH   2  22
ATOM     22  O   UNL     1       5.151 -10.061  27.836  1.00  0.00    -0.502 OA
ATOM     23  H   UNL     1       5.217 -10.071  26.825  1.00  0.00     0.293 HD
ENDBRANCH   2  22
BRANCH   6  24
ATOM     24  O   UNL     1       3.756  -7.376  32.220  1.00  0.00    -0.507 OA
ATOM     25  H   UNL     1       3.560  -7.883  33.069  1.00  0.00     0.293 HD
ENDBRANCH   6  24
BRANCH   8  26
ATOM     26  O   UNL     1       7.681  -4.724  32.895  1.00  0.00    -0.508 OA
ATOM     27  H   UNL     1       7.235  -3.868  33.205  1.00  0.00     0.293 HD
ENDBRANCH   8  26
TORSDOF 6
ENDMDL
MODEL 2
REMARK VINA RESULT:    -6.189      1.671      2.154
REMARK INTER + INTRA:          -7.698
REMARK INTER:                  -7.399
REMARK INTRA:                  -0.299
REMARK UNBOUND:                -0.242
REMARK SMILES O=c1c(O)c(-c2ccc(O)c(O)c2)oc2cc(O)cc(O)c12
REMARK SMILES IDX 5 1 3 2 2 3 1 4 22 5 20 6 19 7 17 8 16 9 15 10 14 11 6 12
REMARK SMILES IDX 7 13 8 14 9 15 13 16 11 17 10 18 12 20 4 22 21 24 18 26
REMARK H PARENT 10 19 12 21 4 23 21 25 18 27
REMARK Flexibility Score: inf
ROOT
ATOM      1  C   UNL     1       5.607  -7.318  27.831  1.00  0.00     0.180 A 
ATOM      2  C   UNL     1       4.607  -8.123  28.404  1.00  0.00     0.208 A 
ATOM      3  C   UNL     1       4.399  -8.066  29.792  1.00  0.00     0.238 A 
ATOM      4  O   UNL     1       3.540  -8.828  30.307  1.00  0.00    -0.285 OA
ATOM      5  C   UNL     1       5.180  -7.192  30.585  1.00  0.00     0.111 A 
ATOM      6  C   UNL     1       5.028  -7.022  31.995  1.00  0.00     0.134 A 
ATOM      7  C   UNL     1       5.942  -6.229  32.698  1.00  0.00     0.093 A 
ATOM      8  C   UNL     1       6.963  -5.548  32.037  1.00  0.00     0.123 A 
ATOM      9  C   UNL     1       7.085  -5.659  30.651  1.00  0.00     0.094 A 
ATOM     10  C   UNL     1       6.210  -6.472  29.926  1.00  0.00     0.146 A 
ATOM     11  O   UNL     1       6.368  -6.558  28.610  1.00  0.00    -0.452 OA
ENDROOT
BRANCH   1  12
ATOM     12  C   UNL     1       5.869  -7.306  26.374  1.00  0.00     0.025 A 
ATOM     13  C   UNL     1       6.684  -8.302  25.810  1.00  0.00     0.016 A 
ATOM     14  C   UNL     1       6.961  -8.297  24.441  1.00  0.00     0.051 A 
ATOM     15  C   UNL     1       6.443  -7.289  23.618  1.00  0.00     0.157 A 
ATOM     16  C   UNL     1       5.368  -6.284  25.547  1.00  0.00     0.062 A 
ATOM     17  C   UNL     1       5.648  -6.279  24.174  1.00  0.00     0.158 A 
BRANCH  15  18
ATOM     18  O   UNL     1       6.716  -7.283  22.252  1.00  0.00    -0.504 OA
ATOM     19  H   UNL     1       7.040  -8.114  21.771  1.00  0.00     0.293 HD
ENDBRANCH  15  18
BRANCH  17  20
ATOM     20  O   UNL     1       5.145  -5.269  23.354  1.00  0.00    -0.504 OA
ATOM     21  H   UNL     1       4.353  -5.428  22.742  1.00  0.00     0.293 HD
ENDBRANCH  17  20
ENDBRANCH   1  12
BRANCH   2  22
ATOM     22  O   UNL     1       3.863  -8.995  27.605  1.00  0.00    -0.502 OA
ATOM     23  H   UNL     1       2.856  -9.075  27.680  1.00  0.00     0.293 HD
ENDBRANCH   2  22
BRANCH   6  24
ATOM     24  O   UNL     1       3.987  -7.585  32.740  1.00  0.00    -0.507 OA
ATOM     25  H   UNL     1       3.885  -8.570  32.931  1.00  0.00     0.293 HD
ENDBRANCH   6  24
BRANCH   8  26
ATOM     26  O   UNL     1       7.845  -4.754  32.767  1.00  0.00    -0.508 OA
ATOM     27  H   UNL     1       8.414  -5.140  33.511  1.00  0.00     0.293 HD
ENDBRANCH   8  26
TORSDOF 6
ENDMDL
MODEL 3
REMARK VINA RESULT:    -6.179     10.312     14.410
REMARK INTER + INTRA:          -7.686
REMARK INTER:                  -7.400
REMARK INTRA:                  -0.287
REMARK UNBOUND:                -0.242
REMARK SMILES O=c1c(O)c(-c2ccc(O)c(O)c2)oc2cc(O)cc(O)c12
REMARK SMILES IDX 5 1 3 2 2 3 1 4 22 5 20 6 19 7 17 8 16 9 15 10 14 11 6 12
REMARK SMILES IDX 7 13 8 14 9 15 13 16 11 17 10 18 12 20 4 22 21 24 18 26
REMARK H PARENT 10 19 12 21 4 23 21 25 18 27
REMARK Flexibility Score: inf
ROOT
ATOM      1  C   UNL     1      14.954  -7.490  19.347  1.00  0.00     0.180 A 
ATOM      2  C   UNL     1      14.211  -6.381  18.905  1.00  0.00     0.208 A 
ATOM      3  C   UNL     1      13.936  -6.248  17.534  1.00  0.00     0.238 A 
ATOM      4  O   UNL     1      13.318  -5.225  17.138  1.00  0.00    -0.285 OA
ATOM      5  C   UNL     1      14.392  -7.233  16.626  1.00  0.00     0.111 A 
ATOM      6  C   UNL     1      14.137  -7.221  15.221  1.00  0.00     0.134 A 
ATOM      7  C   UNL     1      14.748  -8.176  14.399  1.00  0.00     0.093 A 
ATOM      8  C   UNL     1      15.551  -9.181  14.937  1.00  0.00     0.123 A 
ATOM      9  C   UNL     1      15.759  -9.238  16.316  1.00  0.00     0.094 A 
ATOM     10  C   UNL     1      15.192  -8.277  17.157  1.00  0.00     0.146 A 
ATOM     11  O   UNL     1      15.424  -8.362  18.462  1.00  0.00    -0.452 OA
ENDROOT
BRANCH   1  12
ATOM     12  C   UNL     1      15.262  -7.712  20.778  1.00  0.00     0.025 A 
ATOM     13  C   UNL     1      14.267  -8.220  21.628  1.00  0.00     0.016 A 
ATOM     14  C   UNL     1      14.530  -8.416  22.987  1.00  0.00     0.051 A 
ATOM     15  C   UNL     1      15.785  -8.092  23.517  1.00  0.00     0.157 A 
ATOM     16  C   UNL     1      16.514  -7.368  21.320  1.00  0.00     0.062 A 
ATOM     17  C   UNL     1      16.777  -7.563  22.683  1.00  0.00     0.158 A 
BRANCH  15  18
ATOM     18  O   UNL     1      16.051  -8.288  24.871  1.00  0.00    -0.504 OA
ATOM     19  H   UNL     1      15.885  -9.181  25.321  1.00  0.00     0.293 HD
ENDBRANCH  15  18
BRANCH  17  20
ATOM     20  O   UNL     1      18.021  -7.229  23.216  1.00  0.00    -0.504 OA
ATOM     21  H   UNL     1      18.784  -7.895  23.240  1.00  0.00     0.293 HD
ENDBRANCH  17  20
ENDBRANCH   1  12
BRANCH   2  22
ATOM     22  O   UNL     1      13.790  -5.410  19.816  1.00  0.00    -0.502 OA
ATOM     23  H   UNL     1      14.232  -4.500  19.885  1.00  0.00     0.293 HD
ENDBRANCH   2  22
BRANCH   6  24
ATOM     24  O   UNL     1      13.277  -6.315  14.593  1.00  0.00    -0.507 OA
ATOM     25  H   UNL     1      13.467  -5.332  14.471  1.00  0.00     0.293 HD
ENDBRANCH   6  24
BRANCH   8  26
ATOM     26  O   UNL     1      16.129 -10.124  14.091  1.00  0.00    -0.508 OA
ATOM     27  H   UNL     1      15.574 -10.841  13.637  1.00  0.00     0.293 HD
ENDBRANCH   8  26
TORSDOF 6
ENDMDL
MODEL 4
REMARK VINA RESULT:    -6.108      3.383      4.759
REMARK INTER + INTRA:          -7.600
REMARK INTER:                  -7.312
REMARK INTRA:                  -0.288
REMARK UNBOUND:                -0.242
REMARK SMILES O=c1c(O)c(-c2ccc(O)c(O)c2)oc2cc(O)cc(O)c12
REMARK SMILES IDX 5 1 3 2 2 3 1 4 22 5 20 6 19 7 17 8 16 9 15 10 14 11 6 12
REMARK SMILES IDX 7 13 8 14 9 15 13 16 11 17 10 18 12 20 4 22 21 24 18 26
REMARK H PARENT 10 19 12 21 4 23 21 25 18 27
REMARK Flexibility Score: inf
ROOT
ATOM      1  C   UNL     1       5.799  -5.902  26.013  1.00  0.00     0.180 A 
ATOM      2  C   UNL     1       6.713  -4.932  26.461  1.00  0.00     0.208 A 
ATOM      3  C   UNL     1       7.016  -4.862  27.830  1.00  0.00     0.238 A 
ATOM      4  O   UNL     1       7.793  -3.957  28.232  1.00  0.00    -0.285 OA
ATOM      5  C   UNL     1       6.415  -5.773  28.731  1.00  0.00     0.111 A 
ATOM      6  C   UNL     1       6.679  -5.820  30.133  1.00  0.00     0.134 A 
ATOM      7  C   UNL     1       5.929  -6.675  30.950  1.00  0.00     0.093 A 
ATOM      8  C   UNL     1       4.971  -7.532  30.409  1.00  0.00     0.123 A 
ATOM      9  C   UNL     1       4.747  -7.537  29.031  1.00  0.00     0.094 A 
ATOM     10  C   UNL     1       5.454  -6.669  28.195  1.00  0.00     0.146 A 
ATOM     11  O   UNL     1       5.201  -6.698  26.892  1.00  0.00    -0.452 OA
ENDROOT
BRANCH   1  12
ATOM     12  C   UNL     1       5.448  -6.052  24.582  1.00  0.00     0.025 A 
ATOM     13  C   UNL     1       6.339  -6.709  23.718  1.00  0.00     0.016 A 
ATOM     14  C   UNL     1       6.038  -6.843  22.360  1.00  0.00     0.051 A 
ATOM     15  C   UNL     1       4.852  -6.308  21.844  1.00  0.00     0.157 A 
ATOM     16  C   UNL     1       4.268  -5.498  24.055  1.00  0.00     0.062 A 
ATOM     17  C   UNL     1       3.967  -5.631  22.692  1.00  0.00     0.158 A 
BRANCH  15  18
ATOM     18  O   UNL     1       4.548  -6.441  20.490  1.00  0.00    -0.504 OA
ATOM     19  H   UNL     1       4.933  -5.812  19.796  1.00  0.00     0.293 HD
ENDBRANCH  15  18
BRANCH  17  20
ATOM     20  O   UNL     1       2.793  -5.087  22.172  1.00  0.00    -0.504 OA
ATOM     21  H   UNL     1       2.709  -4.097  21.976  1.00  0.00     0.293 HD
ENDBRANCH  17  20
ENDBRANCH   1  12
BRANCH   2  22
ATOM     22  O   UNL     1       7.278  -4.029  25.557  1.00  0.00    -0.502 OA
ATOM     23  H   UNL     1       8.222  -4.131  25.203  1.00  0.00     0.293 HD
ENDBRANCH   2  22
BRANCH   6  24
ATOM     24  O   UNL     1       7.678  -5.073  30.764  1.00  0.00    -0.507 OA
ATOM     25  H   UNL     1       7.538  -4.169  31.189  1.00  0.00     0.293 HD
ENDBRANCH   6  24
BRANCH   8  26
ATOM     26  O   UNL     1       4.255  -8.381  31.248  1.00  0.00    -0.508 OA
ATOM     27  H   UNL     1       4.568  -9.327  31.438  1.00  0.00     0.293 HD
ENDBRANCH   8  26
TORSDOF 6
ENDMDL
MODEL 5
REMARK VINA RESULT:    -6.028      9.939     12.641
REMARK INTER + INTRA:          -7.503
REMARK INTER:                  -7.183
REMARK INTRA:                  -0.320
REMARK UNBOUND:                -0.242
REMARK SMILES O=c1c(O)c(-c2ccc(O)c(O)c2)oc2cc(O)cc(O)c12
REMARK SMILES IDX 5 1 3 2 2 3 1 4 22 5 20 6 19 7 17 8 16 9 15 10 14 11 6 12
REMARK SMILES IDX 7 13 8 14 9 15 13 16 11 17 10 18 12 20 4 22 21 24 18 26
REMARK H PARENT 10 19 12 21 4 23 21 25 18 27
REMARK Flexibility Score: inf
ROOT
ATOM      1  C   UNL     1      14.348  -8.482  18.467  1.00  0.00     0.180 A 
ATOM      2  C   UNL     1      13.303  -9.223  19.046  1.00  0.00     0.208 A 
ATOM      3  C   UNL     1      13.293  -9.415  20.438  1.00  0.00     0.238 A 
ATOM      4  O   UNL     1      12.385 -10.125  20.944  1.00  0.00    -0.285 OA
ATOM      5  C   UNL     1      14.318  -8.849  21.233  1.00  0.00     0.111 A 
ATOM      6  C   UNL     1      14.386  -8.944  22.656  1.00  0.00     0.134 A 
ATOM      7  C   UNL     1      15.514  -8.459  23.328  1.00  0.00     0.093 A 
ATOM      8  C   UNL     1      16.546  -7.823  22.638  1.00  0.00     0.123 A 
ATOM      9  C   UNL     1      16.462  -7.671  21.253  1.00  0.00     0.094 A 
ATOM     10  C   UNL     1      15.365  -8.178  20.551  1.00  0.00     0.146 A 
ATOM     11  O   UNL     1      15.330  -8.021  19.232  1.00  0.00    -0.452 OA
ENDROOT
BRANCH   1  12
ATOM     12  C   UNL     1      14.413  -8.218  17.012  1.00  0.00     0.025 A 
ATOM     13  C   UNL     1      13.804  -7.065  16.491  1.00  0.00     0.016 A 
ATOM     14  C   UNL     1      13.834  -6.807  15.118  1.00  0.00     0.051 A 
ATOM     15  C   UNL     1      14.459  -7.705  14.245  1.00  0.00     0.157 A 
ATOM     16  C   UNL     1      15.020  -9.128  16.128  1.00  0.00     0.062 A 
ATOM     17  C   UNL     1      15.049  -8.870  14.750  1.00  0.00     0.158 A 
BRANCH  15  18
ATOM     18  O   UNL     1      14.493  -7.451  12.875  1.00  0.00    -0.504 OA
ATOM     19  H   UNL     1      14.860  -8.129  12.218  1.00  0.00     0.293 HD
ENDBRANCH  15  18
BRANCH  17  20
ATOM     20  O   UNL     1      15.659  -9.770  13.876  1.00  0.00    -0.504 OA
ATOM     21  H   UNL     1      16.575  -9.589  13.483  1.00  0.00     0.293 HD
ENDBRANCH  17  20
ENDBRANCH   1  12
BRANCH   2  22
ATOM     22  O   UNL     1      12.313  -9.792  18.240  1.00  0.00    -0.502 OA
ATOM     23  H   UNL     1      11.692 -10.520  18.572  1.00  0.00     0.293 HD
ENDBRANCH   2  22
BRANCH   6  24
ATOM     24  O   UNL     1      13.368  -9.479  23.451  1.00  0.00    -0.507 OA
ATOM     25  H   UNL     1      12.647  -8.938  23.903  1.00  0.00     0.293 HD
ENDBRANCH   6  24
BRANCH   8  26
ATOM     26  O   UNL     1      17.646  -7.338  23.341  1.00  0.00    -0.508 OA
ATOM     27  H   UNL     1      18.373  -7.956  23.682  1.00  0.00     0.293 HD
ENDBRANCH   8  26
TORSDOF 6
ENDMDL
MODEL 6
REMARK VINA RESULT:    -5.989      2.407      7.137
REMARK INTER + INTRA:          -7.457
REMARK INTER:                  -7.135
REMARK INTRA:                  -0.321
REMARK UNBOUND:                -0.242
REMARK SMILES O=c1c(O)c(-c2ccc(O)c(O)c2)oc2cc(O)cc(O)c12
REMARK SMILES IDX 5 1 3 2 2 3 1 4 22 5 20 6 19 7 17 8 16 9 15 10 14 11 6 12
REMARK SMILES IDX 7 13 8 14 9 15 13 16 11 17 10 18 12 20 4 22 21 24 18 26
REMARK H PARENT 10 19 12 21 4 23 21 25 18 27
REMARK Flexibility Score: inf
ROOT
ATOM      1  C   UNL     1       6.383  -7.064  27.318  1.00  0.00     0.180 A 
ATOM      2  C   UNL     1       7.265  -7.999  26.750  1.00  0.00     0.208 A 
ATOM      3  C   UNL     1       7.243  -8.198  25.360  1.00  0.00     0.238 A 
ATOM      4  O   UNL     1       7.997  -9.075  24.863  1.00  0.00    -0.285 OA
ATOM      5  C   UNL     1       6.352  -7.448  24.555  1.00  0.00     0.111 A 
ATOM      6  C   UNL     1       6.273  -7.539  23.133  1.00  0.00     0.134 A 
ATOM      7  C   UNL     1       5.264  -6.847  22.451  1.00  0.00     0.093 A 
ATOM      8  C   UNL     1       4.374  -6.017  23.131  1.00  0.00     0.123 A 
ATOM      9  C   UNL     1       4.480  -5.875  24.516  1.00  0.00     0.094 A 
ATOM     10  C   UNL     1       5.453  -6.581  25.227  1.00  0.00     0.146 A 
ATOM     11  O   UNL     1       5.513  -6.425  26.545  1.00  0.00    -0.452 OA
ENDROOT
BRANCH   1  12
ATOM     12  C   UNL     1       6.364  -6.781  28.772  1.00  0.00     0.025 A 
ATOM     13  C   UNL     1       7.244  -5.823  29.301  1.00  0.00     0.016 A 
ATOM     14  C   UNL     1       7.258  -5.556  30.672  1.00  0.00     0.051 A 
ATOM     15  C   UNL     1       6.406  -6.255  31.537  1.00  0.00     0.157 A 
ATOM     16  C   UNL     1       5.526  -7.495  29.647  1.00  0.00     0.062 A 
ATOM     17  C   UNL     1       5.542  -7.229  31.023  1.00  0.00     0.158 A 
BRANCH  15  18
ATOM     18  O   UNL     1       6.417  -5.991  32.904  1.00  0.00    -0.504 OA
ATOM     19  H   UNL     1       6.901  -6.596  33.558  1.00  0.00     0.293 HD
ENDBRANCH  15  18
BRANCH  17  20
ATOM     20  O   UNL     1       4.704  -7.934  31.888  1.00  0.00    -0.504 OA
ATOM     21  H   UNL     1       4.767  -8.941  31.983  1.00  0.00     0.293 HD
ENDBRANCH  17  20
ENDBRANCH   1  12
BRANCH   2  22
ATOM     22  O   UNL     1       8.121  -8.744  27.565  1.00  0.00    -0.502 OA
ATOM     23  H   UNL     1       7.779  -9.401  28.256  1.00  0.00     0.293 HD
ENDBRANCH   2  22
BRANCH   6  24
ATOM     24  O   UNL     1       7.170  -8.268  22.346  1.00  0.00    -0.507 OA
ATOM     25  H   UNL     1       7.655  -7.904  21.540  1.00  0.00     0.293 HD
ENDBRANCH   6  24
BRANCH   8  26
ATOM     26  O   UNL     1       3.393  -5.331  22.419  1.00  0.00    -0.508 OA
ATOM     27  H   UNL     1       2.448  -5.239  22.772  1.00  0.00     0.293 HD
ENDBRANCH   8  26
TORSDOF 6
ENDMDL
MODEL 7
REMARK VINA RESULT:    -5.912     10.506     13.401
REMARK INTER + INTRA:          -7.364
REMARK INTER:                  -7.216
REMARK INTRA:                  -0.148
REMARK UNBOUND:                -0.242
REMARK SMILES O=c1c(O)c(-c2ccc(O)c(O)c2)oc2cc(O)cc(O)c12
REMARK SMILES IDX 5 1 3 2 2 3 1 4 22 5 20 6 19 7 17 8 16 9 15 10 14 11 6 12
REMARK SMILES IDX 7 13 8 14 9 15 13 16 11 17 10 18 12 20 4 22 21 24 18 26
REMARK H PARENT 10 19 12 21 4 23 21 25 18 27
REMARK Flexibility Score: inf
ROOT
ATOM      1  C   UNL     1      13.793  -5.100  20.199  1.00  0.00     0.180 A 
ATOM      2  C   UNL     1      14.361  -6.224  20.825  1.00  0.00     0.208 A 
ATOM      3  C   UNL     1      14.546  -7.399  20.078  1.00  0.00     0.238 A 
ATOM      4  O   UNL     1      15.004  -8.417  20.658  1.00  0.00    -0.285 OA
ATOM      5  C   UNL     1      14.176  -7.430  18.712  1.00  0.00     0.111 A 
ATOM      6  C   UNL     1      14.356  -8.553  17.849  1.00  0.00     0.134 A 
ATOM      7  C   UNL     1      13.834  -8.518  16.551  1.00  0.00     0.093 A 
ATOM      8  C   UNL     1      13.197  -7.378  16.061  1.00  0.00     0.123 A 
ATOM      9  C   UNL     1      13.069  -6.252  16.877  1.00  0.00     0.094 A 
ATOM     10  C   UNL     1      13.548  -6.271  18.189  1.00  0.00     0.146 A 
ATOM     11  O   UNL     1      13.396  -5.182  18.934  1.00  0.00    -0.452 OA
ENDROOT
BRANCH   1  12
ATOM     12  C   UNL     1      13.590  -3.819  20.914  1.00  0.00     0.025 A 
ATOM     13  C   UNL     1      12.672  -3.759  21.974  1.00  0.00     0.016 A 
ATOM     14  C   UNL     1      12.448  -2.556  22.649  1.00  0.00     0.051 A 
ATOM     15  C   UNL     1      13.126  -1.393  22.262  1.00  0.00     0.157 A 
ATOM     16  C   UNL     1      14.253  -2.644  20.516  1.00  0.00     0.062 A 
ATOM     17  C   UNL     1      14.027  -1.437  21.191  1.00  0.00     0.158 A 
BRANCH  15  18
ATOM     18  O   UNL     1      12.907  -0.192  22.933  1.00  0.00    -0.504 OA
ATOM     19  H   UNL     1      11.973   0.121  23.170  1.00  0.00     0.293 HD
ENDBRANCH  15  18
BRANCH  17  20
ATOM     20  O   UNL     1      14.691  -0.275  20.799  1.00  0.00    -0.504 OA
ATOM     21  H   UNL     1      14.670   0.050  19.840  1.00  0.00     0.293 HD
ENDBRANCH  17  20
ENDBRANCH   1  12
BRANCH   2  22
ATOM     22  O   UNL     1      14.698  -6.177  22.180  1.00  0.00    -0.502 OA
ATOM     23  H   UNL     1      14.056  -5.845  22.890  1.00  0.00     0.293 HD
ENDBRANCH   2  22
BRANCH   6  24
ATOM     24  O   UNL     1      15.057  -9.708  18.209  1.00  0.00    -0.507 OA
ATOM     25  H   UNL     1      16.055  -9.825  18.121  1.00  0.00     0.293 HD
ENDBRANCH   6  24
BRANCH   8  26
ATOM     26  O   UNL     1      12.704  -7.372  14.759  1.00  0.00    -0.508 OA
ATOM     27  H   UNL     1      12.854  -8.154  14.131  1.00  0.00     0.293 HD
ENDBRANCH   8  26
TORSDOF 6
ENDMDL
MODEL 8
REMARK VINA RESULT:    -5.679     10.213     11.987
REMARK INTER + INTRA:          -7.083
REMARK INTER:                  -7.086
REMARK INTRA:                   0.003
REMARK UNBOUND:                -0.242
REMARK SMILES O=c1c(O)c(-c2ccc(O)c(O)c2)oc2cc(O)cc(O)c12
REMARK SMILES IDX 5 1 3 2 2 3 1 4 22 5 20 6 19 7 17 8 16 9 15 10 14 11 6 12
REMARK SMILES IDX 7 13 8 14 9 15 13 16 11 17 10 18 12 20 4 22 21 24 18 26
REMARK H PARENT 10 19 12 21 4 23 21 25 18 27
REMARK Flexibility Score: inf
ROOT
ATOM      1  C   UNL     1      14.575  -8.312  19.740  1.00  0.00     0.180 A 
ATOM      2  C   UNL     1      13.766  -9.129  20.548  1.00  0.00     0.208 A 
ATOM      3  C   UNL     1      14.138  -9.348  21.885  1.00  0.00     0.238 A 
ATOM      4  O   UNL     1      13.440 -10.124  22.588  1.00  0.00    -0.285 OA
ATOM      5  C   UNL     1      15.305  -8.733  22.399  1.00  0.00     0.111 A 
ATOM      6  C   UNL     1      15.755  -8.851  23.749  1.00  0.00     0.134 A 
ATOM      7  C   UNL     1      16.992  -8.308  24.115  1.00  0.00     0.093 A 
ATOM      8  C   UNL     1      17.765  -7.594  23.200  1.00  0.00     0.123 A 
ATOM      9  C   UNL     1      17.306  -7.421  21.893  1.00  0.00     0.094 A 
ATOM     10  C   UNL     1      16.092  -7.983  21.488  1.00  0.00     0.146 A 
ATOM     11  O   UNL     1      15.698  -7.803  20.233  1.00  0.00    -0.452 OA
ENDROOT
BRANCH   1  12
ATOM     12  C   UNL     1      14.235  -8.016  18.329  1.00  0.00     0.025 A 
ATOM     13  C   UNL     1      15.234  -8.098  17.346  1.00  0.00     0.016 A 
ATOM     14  C   UNL     1      14.939  -7.802  16.012  1.00  0.00     0.051 A 
ATOM     15  C   UNL     1      13.648  -7.404  15.645  1.00  0.00     0.157 A 
ATOM     16  C   UNL     1      12.944  -7.595  17.959  1.00  0.00     0.062 A 
ATOM     17  C   UNL     1      12.650  -7.297  16.622  1.00  0.00     0.158 A 
BRANCH  15  18
ATOM     18  O   UNL     1      13.351  -7.110  14.316  1.00  0.00    -0.504 OA
ATOM     19  H   UNL     1      12.418  -6.837  14.029  1.00  0.00     0.293 HD
ENDBRANCH  15  18
BRANCH  17  20
ATOM     20  O   UNL     1      11.368  -6.886  16.256  1.00  0.00    -0.504 OA
ATOM     21  H   UNL     1      11.189  -6.437  15.365  1.00  0.00     0.293 HD
ENDBRANCH  17  20
ENDBRANCH   1  12
BRANCH   2  22
ATOM     22  O   UNL     1      12.631  -9.744  20.013  1.00  0.00    -0.502 OA
ATOM     23  H   UNL     1      12.688 -10.502  19.342  1.00  0.00     0.293 HD
ENDBRANCH   2  22
BRANCH   6  24
ATOM     24  O   UNL     1      15.017  -9.465  24.766  1.00  0.00    -0.507 OA
ATOM     25  H   UNL     1      14.916  -9.103  25.702  1.00  0.00     0.293 HD
ENDBRANCH   6  24
BRANCH   8  26
ATOM     26  O   UNL     1      18.983  -7.052  23.603  1.00  0.00    -0.508 OA
ATOM     27  H   UNL     1      19.032  -6.321  24.303  1.00  0.00     0.293 HD
ENDBRANCH   8  26
TORSDOF 6
ENDMDL
MODEL 9
REMARK VINA RESULT:    -5.572      3.227      7.308
REMARK INTER + INTRA:          -6.955
REMARK INTER:                  -6.888
REMARK INTRA:                  -0.067
REMARK UNBOUND:                -0.242
REMARK SMILES O=c1c(O)c(-c2ccc(O)c(O)c2)oc2cc(O)cc(O)c12
REMARK SMILES IDX 5 1 3 2 2 3 1 4 22 5 20 6 19 7 17 8 16 9 15 10 14 11 6 12
REMARK SMILES IDX 7 13 8 14 9 15 13 16 11 17 10 18 12 20 4 22 21 24 18 26
REMARK H PARENT 10 19 12 21 4 23 21 25 18 27
REMARK Flexibility Score: inf
ROOT
ATOM      1  C   UNL     1       6.224  -7.148  25.886  1.00  0.00     0.180 A 
ATOM      2  C   UNL     1       6.750  -8.186  25.096  1.00  0.00     0.208 A 
ATOM      3  C   UNL     1       6.341  -8.297  23.757  1.00  0.00     0.238 A 
ATOM      4  O   UNL     1       6.774  -9.260  23.071  1.00  0.00    -0.285 OA
ATOM      5  C   UNL     1       5.426  -7.360  23.221  1.00  0.00     0.111 A 
ATOM      6  C   UNL     1       4.974  -7.352  21.867  1.00  0.00     0.134 A 
ATOM      7  C   UNL     1       3.968  -6.460  21.478  1.00  0.00     0.093 A 
ATOM      8  C   UNL     1       3.444  -5.531  22.376  1.00  0.00     0.123 A 
ATOM      9  C   UNL     1       3.921  -5.489  23.688  1.00  0.00     0.094 A 
ATOM     10  C   UNL     1       4.899  -6.392  24.114  1.00  0.00     0.146 A 
ATOM     11  O   UNL     1       5.317  -6.325  25.372  1.00  0.00    -0.452 OA
ENDROOT
BRANCH   1  12
ATOM     12  C   UNL     1       6.625  -6.952  27.298  1.00  0.00     0.025 A 
ATOM     13  C   UNL     1       5.636  -6.825  28.286  1.00  0.00     0.016 A 
ATOM     14  C   UNL     1       5.992  -6.618  29.621  1.00  0.00     0.051 A 
ATOM     15  C   UNL     1       7.340  -6.519  29.985  1.00  0.00     0.157 A 
ATOM     16  C   UNL     1       7.978  -6.831  27.665  1.00  0.00     0.062 A 
ATOM     17  C   UNL     1       8.334  -6.621  29.005  1.00  0.00     0.158 A 
BRANCH  15  18
ATOM     18  O   UNL     1       7.699  -6.314  31.316  1.00  0.00    -0.504 OA
ATOM     19  H   UNL     1       7.562  -7.031  32.019  1.00  0.00     0.293 HD
ENDBRANCH  15  18
BRANCH  17  20
ATOM     20  O   UNL     1       9.676  -6.508  29.368  1.00  0.00    -0.504 OA
ATOM     21  H   UNL     1      10.342  -7.247  29.174  1.00  0.00     0.293 HD
ENDBRANCH  17  20
ENDBRANCH   1  12
BRANCH   2  22
ATOM     22  O   UNL     1       7.635  -9.113  25.653  1.00  0.00    -0.502 OA
ATOM     23  H   UNL     1       8.491  -9.394  25.189  1.00  0.00     0.293 HD
ENDBRANCH   2  22
BRANCH   6  24
ATOM     24  O   UNL     1       5.497  -8.177  20.866  1.00  0.00    -0.507 OA
ATOM     25  H   UNL     1       5.434  -9.184  20.860  1.00  0.00     0.293 HD
ENDBRANCH   6  24
BRANCH   8  26
ATOM     26  O   UNL     1       2.456  -4.646  21.952  1.00  0.00    -0.508 OA
ATOM     27  H   UNL     1       1.566  -4.575  22.431  1.00  0.00     0.293 HD
ENDBRANCH   8  26
TORSDOF 6
ENDMDL
