MODEL 1
REMARK VINA RESULT:    -6.734      0.000      0.000
REMARK INTER + INTRA:         -12.364
REMARK INTER:                 -11.459
REMARK INTRA:                  -0.905
REMARK UNBOUND:                -0.905
REMARK SMILES CCCCCCCCCCCCCC(=O)[O-]
REMARK SMILES IDX 8 1 9 2 10 3 11 4 12 5 13 6 14 7 15 8 16 9 7 10 6 11 5 12
REMARK SMILES IDX 4 13 3 14 2 15 1 16
REMARK H PARENT
REMARK Flexibility Score: inf
ROOT
ATOM      1  C   UNL     1     -21.452 -21.723  31.983  1.00  0.00     0.000 C 
ENDROOT
BRANCH   1   2
ATOM      2  C   UNL     1     -21.261 -20.355  31.305  1.00  0.00     0.000 C 
BRANCH   2   3
ATOM      3  C   UNL     1     -22.047 -20.225  29.991  1.00  0.00     0.000 C 
BRANCH   3   4
ATOM      4  C   UNL     1     -21.214 -19.508  28.921  1.00  0.00     0.000 C 
BRANCH   4   5
ATOM      5  C   UNL     1     -20.847 -18.087  29.370  1.00  0.00     0.006 C 
BRANCH   5   6
ATOM      6  C   UNL     1     -19.330 -17.863  29.405  1.00  0.00     0.053 C 
BRANCH   6   7
ATOM      7  C   UNL     1     -18.913 -17.077  30.610  1.00  0.00     0.041 C 
ATOM      8  O   UNL     1     -18.324 -15.973  30.475  1.00  0.00    -0.550 OA
ATOM      9  O   UNL     1     -19.205 -17.550  31.883  1.00  0.00    -0.550 OA
ENDBRANCH   6   7
ENDBRANCH   5   6
ENDBRANCH   4   5
ENDBRANCH   3   4
ENDBRANCH   2   3
ENDBRANCH   1   2
BRANCH   1  10
ATOM     10  C   UNL     1     -22.742 -22.471  31.591  1.00  0.00     0.000 C 
BRANCH  10  11
ATOM     11  C   UNL     1     -22.524 -23.831  30.898  1.00  0.00    -0.000 C 
BRANCH  11  12
ATOM     12  C   UNL     1     -22.533 -23.783  29.357  1.00  0.00    -0.000 C 
BRANCH  12  13
ATOM     13  C   UNL     1     -23.255 -24.962  28.674  1.00  0.00    -0.000 C 
BRANCH  13  14
ATOM     14  C   UNL     1     -23.548 -26.167  29.591  1.00  0.00    -0.000 C 
BRANCH  14  15
ATOM     15  C   UNL     1     -25.039 -26.400  29.895  1.00  0.00    -0.003 C 
ATOM     16  C   UNL     1     -25.435 -25.965  31.305  1.00  0.00     0.004 C 
ENDBRANCH  14  15
ENDBRANCH  13  14
ENDBRANCH  12  13
ENDBRANCH  11  12
ENDBRANCH  10  11
ENDBRANCH   1  10
TORSDOF 12
ENDMDL
MODEL 2
REMARK VINA RESULT:    -6.681      0.940      1.738
REMARK INTER + INTRA:         -12.274
REMARK INTER:                 -11.396
REMARK INTRA:                  -0.878
REMARK UNBOUND:                -0.905
REMARK SMILES CCCCCCCCCCCCCC(=O)[O-]
REMARK SMILES IDX 8 1 9 2 10 3 11 4 12 5 13 6 14 7 15 8 16 9 7 10 6 11 5 12
REMARK SMILES IDX 4 13 3 14 2 15 1 16
REMARK H PARENT
REMARK Flexibility Score: inf
ROOT
ATOM      1  C   UNL     1     -22.345 -21.634  29.026  1.00  0.00     0.000 C 
ENDROOT
BRANCH   1   2
ATOM      2  C   UNL     1     -22.395 -20.674  30.227  1.00  0.00     0.000 C 
BRANCH   2   3
ATOM      3  C   UNL     1     -21.185 -19.730  30.288  1.00  0.00     0.000 C 
BRANCH   3   4
ATOM      4  C   UNL     1     -20.981 -19.010  28.949  1.00  0.00     0.000 C 
BRANCH   4   5
ATOM      5  C   UNL     1     -20.520 -17.562  29.168  1.00  0.00     0.006 C 
BRANCH   5   6
ATOM      6  C   UNL     1     -19.004 -17.461  29.376  1.00  0.00     0.053 C 
BRANCH   6   7
ATOM      7  C   UNL     1     -18.665 -16.822  30.687  1.00  0.00     0.041 C 
ATOM      8  O   UNL     1     -18.173 -15.664  30.720  1.00  0.00    -0.550 OA
ATOM      9  O   UNL     1     -18.925 -17.494  31.875  1.00  0.00    -0.550 OA
ENDBRANCH   6   7
ENDBRANCH   5   6
ENDBRANCH   4   5
ENDBRANCH   3   4
ENDBRANCH   2   3
ENDBRANCH   1   2
BRANCH   1  10
ATOM     10  C   UNL     1     -22.298 -23.132  29.389  1.00  0.00     0.000 C 
BRANCH  10  11
ATOM     11  C   UNL     1     -22.129 -23.434  30.892  1.00  0.00    -0.000 C 
BRANCH  11  12
ATOM     12  C   UNL     1     -23.419 -23.868  31.617  1.00  0.00    -0.000 C 
BRANCH  12  13
ATOM     13  C   UNL     1     -23.708 -25.382  31.578  1.00  0.00    -0.000 C 
BRANCH  13  14
ATOM     14  C   UNL     1     -25.117 -25.765  31.083  1.00  0.00    -0.000 C 
BRANCH  14  15
ATOM     15  C   UNL     1     -25.205 -26.100  29.583  1.00  0.00    -0.003 C 
ATOM     16  C   UNL     1     -23.858 -26.494  28.979  1.00  0.00     0.004 C 
ENDBRANCH  14  15
ENDBRANCH  13  14
ENDBRANCH  12  13
ENDBRANCH  11  12
ENDBRANCH  10  11
ENDBRANCH   1  10
TORSDOF 12
ENDMDL
MODEL 3
REMARK VINA RESULT:    -6.627      4.897      8.441
REMARK INTER + INTRA:         -12.181
REMARK INTER:                 -11.207
REMARK INTRA:                  -0.974
REMARK UNBOUND:                -0.905
REMARK SMILES CCCCCCCCCCCCCC(=O)[O-]
REMARK SMILES IDX 8 1 9 2 10 3 11 4 12 5 13 6 14 7 15 8 16 9 7 10 6 11 5 12
REMARK SMILES IDX 4 13 3 14 2 15 1 16
REMARK H PARENT
REMARK Flexibility Score: inf
ROOT
ATOM      1  C   UNL     1     -22.173 -21.909  28.728  1.00  0.00     0.000 C 
ENDROOT
BRANCH   1   2
ATOM      2  C   UNL     1     -21.748 -23.341  29.096  1.00  0.00     0.000 C 
BRANCH   2   3
ATOM      3  C   UNL     1     -22.898 -24.353  28.982  1.00  0.00     0.000 C 
BRANCH   3   4
ATOM      4  C   UNL     1     -23.400 -24.773  30.369  1.00  0.00     0.000 C 
BRANCH   4   5
ATOM      5  C   UNL     1     -24.702 -25.580  30.261  1.00  0.00     0.006 C 
BRANCH   5   6
ATOM      6  C   UNL     1     -24.670 -26.581  29.099  1.00  0.00     0.053 C 
BRANCH   6   7
ATOM      7  C   UNL     1     -25.725 -27.633  29.244  1.00  0.00     0.041 C 
ATOM      8  O   UNL     1     -26.257 -28.144  28.223  1.00  0.00    -0.550 OA
ATOM      9  O   UNL     1     -26.099 -28.073  30.508  1.00  0.00    -0.550 OA
ENDBRANCH   6   7
ENDBRANCH   5   6
ENDBRANCH   4   5
ENDBRANCH   3   4
ENDBRANCH   2   3
ENDBRANCH   1   2
BRANCH   1  10
ATOM     10  C   UNL     1     -22.433 -20.977  29.928  1.00  0.00     0.000 C 
BRANCH  10  11
ATOM     11  C   UNL     1     -21.944 -21.513  31.289  1.00  0.00    -0.000 C 
BRANCH  11  12
ATOM     12  C   UNL     1     -20.881 -20.641  31.987  1.00  0.00    -0.000 C 
BRANCH  12  13
ATOM     13  C   UNL     1     -20.811 -19.182  31.494  1.00  0.00    -0.000 C 
BRANCH  13  14
ATOM     14  C   UNL     1     -19.403 -18.694  31.097  1.00  0.00    -0.000 C 
BRANCH  14  15
ATOM     15  C   UNL     1     -19.300 -18.099  29.682  1.00  0.00    -0.003 C 
ATOM     16  C   UNL     1     -20.664 -17.832  29.047  1.00  0.00     0.004 C 
ENDBRANCH  14  15
ENDBRANCH  13  14
ENDBRANCH  12  13
ENDBRANCH  11  12
ENDBRANCH  10  11
ENDBRANCH   1  10
TORSDOF 12
ENDMDL
MODEL 4
REMARK VINA RESULT:    -6.597      4.317      8.349
REMARK INTER + INTRA:         -12.130
REMARK INTER:                 -11.384
REMARK INTRA:                  -0.745
REMARK UNBOUND:                -0.905
REMARK SMILES CCCCCCCCCCCCCC(=O)[O-]
REMARK SMILES IDX 8 1 9 2 10 3 11 4 12 5 13 6 14 7 15 8 16 9 7 10 6 11 5 12
REMARK SMILES IDX 4 13 3 14 2 15 1 16
REMARK H PARENT
REMARK Flexibility Score: inf
ROOT
ATOM      1  C   UNL     1     -22.399 -22.307  31.603  1.00  0.00     0.000 C 
ENDROOT
BRANCH   1   2
ATOM      2  C   UNL     1     -22.055 -23.451  30.634  1.00  0.00     0.000 C 
BRANCH   2   3
ATOM      3  C   UNL     1     -23.181 -24.489  30.511  1.00  0.00     0.000 C 
BRANCH   3   4
ATOM      4  C   UNL     1     -23.245 -25.064  29.091  1.00  0.00     0.000 C 
BRANCH   4   5
ATOM      5  C   UNL     1     -23.857 -26.472  29.095  1.00  0.00     0.006 C 
BRANCH   5   6
ATOM      6  C   UNL     1     -25.357 -26.451  29.414  1.00  0.00     0.053 C 
BRANCH   6   7
ATOM      7  C   UNL     1     -25.670 -27.221  30.660  1.00  0.00     0.041 C 
ATOM      8  O   UNL     1     -26.162 -28.377  30.585  1.00  0.00    -0.550 OA
ATOM      9  O   UNL     1     -25.387 -26.673  31.905  1.00  0.00    -0.550 OA
ENDBRANCH   6   7
ENDBRANCH   5   6
ENDBRANCH   4   5
ENDBRANCH   3   4
ENDBRANCH   2   3
ENDBRANCH   1   2
BRANCH   1  10
ATOM     10  C   UNL     1     -21.913 -20.911  31.164  1.00  0.00     0.000 C 
BRANCH  10  11
ATOM     11  C   UNL     1     -22.323 -20.496  29.736  1.00  0.00    -0.000 C 
BRANCH  11  12
ATOM     12  C   UNL     1     -21.200 -19.853  28.899  1.00  0.00    -0.000 C 
BRANCH  12  13
ATOM     13  C   UNL     1     -21.152 -18.313  28.949  1.00  0.00    -0.000 C 
BRANCH  13  14
ATOM     14  C   UNL     1     -19.739 -17.708  29.077  1.00  0.00    -0.000 C 
BRANCH  14  15
ATOM     15  C   UNL     1     -18.870 -18.324  30.187  1.00  0.00    -0.003 C 
ATOM     16  C   UNL     1     -19.323 -17.925  31.590  1.00  0.00     0.004 C 
ENDBRANCH  14  15
ENDBRANCH  13  14
ENDBRANCH  12  13
ENDBRANCH  11  12
ENDBRANCH  10  11
ENDBRANCH   1  10
TORSDOF 12
ENDMDL
MODEL 5
REMARK VINA RESULT:    -6.559      5.283      8.816
REMARK INTER + INTRA:         -12.065
REMARK INTER:                 -11.465
REMARK INTRA:                  -0.600
REMARK UNBOUND:                -0.905
REMARK SMILES CCCCCCCCCCCCCC(=O)[O-]
REMARK SMILES IDX 8 1 9 2 10 3 11 4 12 5 13 6 14 7 15 8 16 9 7 10 6 11 5 12
REMARK SMILES IDX 4 13 3 14 2 15 1 16
REMARK H PARENT
REMARK Flexibility Score: inf
ROOT
ATOM      1  C   UNL     1     -22.450 -23.385  30.897  1.00  0.00     0.000 C 
ENDROOT
BRANCH   1   2
ATOM      2  C   UNL     1     -23.076 -24.606  31.592  1.00  0.00     0.000 C 
BRANCH   2   3
ATOM      3  C   UNL     1     -24.248 -25.208  30.802  1.00  0.00     0.000 C 
BRANCH   3   4
ATOM      4  C   UNL     1     -23.845 -25.491  29.350  1.00  0.00     0.000 C 
BRANCH   4   5
ATOM      5  C   UNL     1     -24.433 -26.824  28.866  1.00  0.00     0.006 C 
BRANCH   5   6
ATOM      6  C   UNL     1     -25.953 -26.751  28.671  1.00  0.00     0.053 C 
BRANCH   6   7
ATOM      7  C   UNL     1     -26.533 -28.089  28.334  1.00  0.00     0.041 C 
ATOM      8  O   UNL     1     -26.808 -28.910  29.247  1.00  0.00    -0.550 OA
ATOM      9  O   UNL     1     -26.802 -28.416  27.011  1.00  0.00    -0.550 OA
ENDBRANCH   6   7
ENDBRANCH   5   6
ENDBRANCH   4   5
ENDBRANCH   3   4
ENDBRANCH   2   3
ENDBRANCH   1   2
BRANCH   1  10
ATOM     10  C   UNL     1     -22.356 -22.116  31.766  1.00  0.00     0.000 C 
BRANCH  10  11
ATOM     11  C   UNL     1     -21.945 -20.835  31.011  1.00  0.00    -0.000 C 
BRANCH  11  12
ATOM     12  C   UNL     1     -22.159 -20.884  29.486  1.00  0.00    -0.000 C 
BRANCH  12  13
ATOM     13  C   UNL     1     -21.435 -19.778  28.692  1.00  0.00    -0.000 C 
BRANCH  13  14
ATOM     14  C   UNL     1     -20.935 -18.589  29.536  1.00  0.00    -0.000 C 
BRANCH  14  15
ATOM     15  C   UNL     1     -19.409 -18.531  29.733  1.00  0.00    -0.003 C 
ATOM     16  C   UNL     1     -19.004 -18.320  31.191  1.00  0.00     0.004 C 
ENDBRANCH  14  15
ENDBRANCH  13  14
ENDBRANCH  12  13
ENDBRANCH  11  12
ENDBRANCH  10  11
ENDBRANCH   1  10
TORSDOF 12
ENDMDL
MODEL 6
REMARK VINA RESULT:    -6.558      0.989      1.498
REMARK INTER + INTRA:         -12.064
REMARK INTER:                 -11.522
REMARK INTRA:                  -0.542
REMARK UNBOUND:                -0.905
REMARK SMILES CCCCCCCCCCCCCC(=O)[O-]
REMARK SMILES IDX 8 1 9 2 10 3 11 4 12 5 13 6 14 7 15 8 16 9 7 10 6 11 5 12
REMARK SMILES IDX 4 13 3 14 2 15 1 16
REMARK H PARENT
REMARK Flexibility Score: inf
ROOT
ATOM      1  C   UNL     1     -21.909 -22.074  31.291  1.00  0.00     0.000 C 
ENDROOT
BRANCH   1   2
ATOM      2  C   UNL     1     -22.381 -20.889  30.431  1.00  0.00     0.000 C 
BRANCH   2   3
ATOM      3  C   UNL     1     -21.408 -19.701  30.466  1.00  0.00     0.000 C 
BRANCH   3   4
ATOM      4  C   UNL     1     -21.150 -19.160  29.054  1.00  0.00     0.000 C 
BRANCH   4   5
ATOM      5  C   UNL     1     -20.562 -17.743  29.107  1.00  0.00     0.006 C 
BRANCH   5   6
ATOM      6  C   UNL     1     -19.063 -17.749  29.431  1.00  0.00     0.053 C 
BRANCH   6   7
ATOM      7  C   UNL     1     -18.760 -16.964  30.670  1.00  0.00     0.041 C 
ATOM      8  O   UNL     1     -18.263 -15.811  30.585  1.00  0.00    -0.550 OA
ATOM      9  O   UNL     1     -19.057 -17.495  31.919  1.00  0.00    -0.550 OA
ENDBRANCH   6   7
ENDBRANCH   5   6
ENDBRANCH   4   5
ENDBRANCH   3   4
ENDBRANCH   2   3
ENDBRANCH   1   2
BRANCH   1  10
ATOM     10  C   UNL     1     -22.496 -23.443  30.894  1.00  0.00     0.000 C 
BRANCH  10  11
ATOM     11  C   UNL     1     -22.478 -23.747  29.382  1.00  0.00    -0.000 C 
BRANCH  11  12
ATOM     12  C   UNL     1     -23.286 -24.990  28.960  1.00  0.00    -0.000 C 
BRANCH  12  13
ATOM     13  C   UNL     1     -24.200 -25.574  30.055  1.00  0.00    -0.000 C 
BRANCH  13  14
ATOM     14  C   UNL     1     -25.490 -26.244  29.540  1.00  0.00    -0.000 C 
BRANCH  14  15
ATOM     15  C   UNL     1     -25.275 -27.303  28.443  1.00  0.00    -0.003 C 
ATOM     16  C   UNL     1     -26.457 -28.261  28.300  1.00  0.00     0.004 C 
ENDBRANCH  14  15
ENDBRANCH  13  14
ENDBRANCH  12  13
ENDBRANCH  11  12
ENDBRANCH  10  11
ENDBRANCH   1  10
TORSDOF 12
ENDMDL
MODEL 7
REMARK VINA RESULT:    -6.533      4.346      8.666
REMARK INTER + INTRA:         -12.021
REMARK INTER:                 -11.477
REMARK INTRA:                  -0.544
REMARK UNBOUND:                -0.905
REMARK SMILES CCCCCCCCCCCCCC(=O)[O-]
REMARK SMILES IDX 8 1 9 2 10 3 11 4 12 5 13 6 14 7 15 8 16 9 7 10 6 11 5 12
REMARK SMILES IDX 4 13 3 14 2 15 1 16
REMARK H PARENT
REMARK Flexibility Score: inf
ROOT
ATOM      1  C   UNL     1     -22.411 -22.298  31.539  1.00  0.00     0.000 C 
ENDROOT
BRANCH   1   2
ATOM      2  C   UNL     1     -22.047 -23.409  30.540  1.00  0.00     0.000 C 
BRANCH   2   3
ATOM      3  C   UNL     1     -23.088 -24.538  30.496  1.00  0.00     0.000 C 
BRANCH   3   4
ATOM      4  C   UNL     1     -23.308 -25.028  29.060  1.00  0.00     0.000 C 
BRANCH   4   5
ATOM      5  C   UNL     1     -23.890 -26.449  29.046  1.00  0.00     0.006 C 
BRANCH   5   6
ATOM      6  C   UNL     1     -25.401 -26.459  29.308  1.00  0.00     0.053 C 
BRANCH   6   7
ATOM      7  C   UNL     1     -25.739 -27.171  30.582  1.00  0.00     0.041 C 
ATOM      8  O   UNL     1     -26.139 -28.364  30.555  1.00  0.00    -0.550 OA
ATOM      9  O   UNL     1     -25.579 -26.526  31.802  1.00  0.00    -0.550 OA
ENDBRANCH   6   7
ENDBRANCH   5   6
ENDBRANCH   4   5
ENDBRANCH   3   4
ENDBRANCH   2   3
ENDBRANCH   1   2
BRANCH   1  10
ATOM     10  C   UNL     1     -21.910 -20.890  31.159  1.00  0.00     0.000 C 
BRANCH  10  11
ATOM     11  C   UNL     1     -21.964 -20.561  29.653  1.00  0.00    -0.000 C 
BRANCH  11  12
ATOM     12  C   UNL     1     -21.124 -19.343  29.224  1.00  0.00    -0.000 C 
BRANCH  12  13
ATOM     13  C   UNL     1     -20.400 -18.614  30.374  1.00  0.00    -0.000 C 
BRANCH  13  14
ATOM     14  C   UNL     1     -19.153 -17.809  29.955  1.00  0.00    -0.000 C 
BRANCH  14  15
ATOM     15  C   UNL     1     -19.327 -16.965  28.680  1.00  0.00    -0.003 C 
ATOM     16  C   UNL     1     -18.070 -16.181  28.307  1.00  0.00     0.004 C 
ENDBRANCH  14  15
ENDBRANCH  13  14
ENDBRANCH  12  13
ENDBRANCH  11  12
ENDBRANCH  10  11
ENDBRANCH   1  10
TORSDOF 12
ENDMDL
MODEL 8
REMARK VINA RESULT:    -6.482      1.230      1.862
REMARK INTER + INTRA:         -11.934
REMARK INTER:                 -11.237
REMARK INTRA:                  -0.697
REMARK UNBOUND:                -0.905
REMARK SMILES CCCCCCCCCCCCCC(=O)[O-]
REMARK SMILES IDX 8 1 9 2 10 3 11 4 12 5 13 6 14 7 15 8 16 9 7 10 6 11 5 12
REMARK SMILES IDX 4 13 3 14 2 15 1 16
REMARK H PARENT
REMARK Flexibility Score: inf
ROOT
ATOM      1  C   UNL     1     -22.306 -20.707  30.849  1.00  0.00     0.000 C 
ENDROOT
BRANCH   1   2
ATOM      2  C   UNL     1     -21.923 -20.690  29.359  1.00  0.00     0.000 C 
BRANCH   2   3
ATOM      3  C   UNL     1     -21.242 -19.381  28.932  1.00  0.00     0.000 C 
BRANCH   3   4
ATOM      4  C   UNL     1     -20.172 -18.962  29.948  1.00  0.00     0.000 C 
BRANCH   4   5
ATOM      5  C   UNL     1     -20.022 -17.434  29.989  1.00  0.00     0.006 C 
BRANCH   5   6
ATOM      6  C   UNL     1     -19.510 -16.866  28.659  1.00  0.00     0.053 C 
BRANCH   6   7
ATOM      7  C   UNL     1     -18.223 -16.120  28.834  1.00  0.00     0.041 C 
ATOM      8  O   UNL     1     -17.460 -15.932  27.850  1.00  0.00    -0.550 OA
ATOM      9  O   UNL     1     -17.882 -15.604  30.078  1.00  0.00    -0.550 OA
ENDBRANCH   6   7
ENDBRANCH   5   6
ENDBRANCH   4   5
ENDBRANCH   3   4
ENDBRANCH   2   3
ENDBRANCH   1   2
BRANCH   1  10
ATOM     10  C   UNL     1     -21.934 -21.999  31.603  1.00  0.00     0.000 C 
BRANCH  10  11
ATOM     11  C   UNL     1     -23.129 -22.880  32.019  1.00  0.00    -0.000 C 
BRANCH  11  12
ATOM     12  C   UNL     1     -23.226 -24.232  31.284  1.00  0.00    -0.000 C 
BRANCH  12  13
ATOM     13  C   UNL     1     -22.570 -24.263  29.890  1.00  0.00    -0.000 C 
BRANCH  13  14
ATOM     14  C   UNL     1     -23.282 -25.154  28.852  1.00  0.00    -0.000 C 
BRANCH  14  15
ATOM     15  C   UNL     1     -23.768 -26.511  29.391  1.00  0.00    -0.003 C 
ATOM     16  C   UNL     1     -25.256 -26.754  29.141  1.00  0.00     0.004 C 
ENDBRANCH  14  15
ENDBRANCH  13  14
ENDBRANCH  12  13
ENDBRANCH  11  12
ENDBRANCH  10  11
ENDBRANCH   1  10
TORSDOF 12
ENDMDL
MODEL 9
REMARK VINA RESULT:    -6.252      4.153      8.629
REMARK INTER + INTRA:         -11.543
REMARK INTER:                 -10.937
REMARK INTRA:                  -0.606
REMARK UNBOUND:                -0.905
REMARK SMILES CCCCCCCCCCCCCC(=O)[O-]
REMARK SMILES IDX 8 1 9 2 10 3 11 4 12 5 13 6 14 7 15 8 16 9 7 10 6 11 5 12
REMARK SMILES IDX 4 13 3 14 2 15 1 16
REMARK H PARENT
REMARK Flexibility Score: inf
ROOT
ATOM      1  C   UNL     1     -21.891 -20.618  29.462  1.00  0.00     0.000 C 
ENDROOT
BRANCH   1   2
ATOM      2  C   UNL     1     -21.867 -21.291  30.845  1.00  0.00     0.000 C 
BRANCH   2   3
ATOM      3  C   UNL     1     -22.382 -22.738  30.815  1.00  0.00     0.000 C 
BRANCH   3   4
ATOM      4  C   UNL     1     -22.376 -23.294  29.385  1.00  0.00     0.000 C 
BRANCH   4   5
ATOM      5  C   UNL     1     -23.151 -24.616  29.306  1.00  0.00     0.006 C 
BRANCH   5   6
ATOM      6  C   UNL     1     -23.524 -25.154  30.694  1.00  0.00     0.053 C 
BRANCH   6   7
ATOM      7  C   UNL     1     -24.771 -25.982  30.650  1.00  0.00     0.041 C 
ATOM      8  O   UNL     1     -25.711 -25.757  31.457  1.00  0.00    -0.550 OA
ATOM      9  O   UNL     1     -24.907 -26.983  29.697  1.00  0.00    -0.550 OA
ENDBRANCH   6   7
ENDBRANCH   5   6
ENDBRANCH   4   5
ENDBRANCH   3   4
ENDBRANCH   2   3
ENDBRANCH   1   2
BRANCH   1  10
ATOM     10  C   UNL     1     -21.058 -19.325  29.351  1.00  0.00     0.000 C 
BRANCH  10  11
ATOM     11  C   UNL     1     -20.466 -18.813  30.680  1.00  0.00    -0.000 C 
BRANCH  11  12
ATOM     12  C   UNL     1     -19.108 -18.096  30.553  1.00  0.00    -0.000 C 
BRANCH  12  13
ATOM     13  C   UNL     1     -18.632 -17.856  29.106  1.00  0.00    -0.000 C 
BRANCH  13  14
ATOM     14  C   UNL     1     -18.823 -16.416  28.587  1.00  0.00    -0.000 C 
BRANCH  14  15
ATOM     15  C   UNL     1     -17.545 -15.749  28.049  1.00  0.00    -0.003 C 
ATOM     16  C   UNL     1     -17.502 -15.685  26.523  1.00  0.00     0.004 C 
ENDBRANCH  14  15
ENDBRANCH  13  14
ENDBRANCH  12  13
ENDBRANCH  11  12
ENDBRANCH  10  11
ENDBRANCH   1  10
TORSDOF 12
ENDMDL
