MODEL 1
REMARK VINA RESULT:    -5.060      0.000      0.000
REMARK INTER + INTRA:         -15.078
REMARK INTER:                 -11.567
REMARK INTRA:                  -3.511
REMARK UNBOUND:                -3.511
REMARK SMILES CCCCCCCCCCCCCCCCCCCCCCCC(=O)[O-]
REMARK SMILES IDX 13 1 14 2 15 3 16 4 17 5 18 6 19 7 20 8 21 9 22 10 23 11
REMARK SMILES IDX 24 12 25 13 26 14 12 15 11 16 10 17 9 18 8 19 7 20 6 21 5 22
REMARK SMILES IDX 4 23 3 24 2 25 1 26
REMARK H PARENT
REMARK Flexibility Score: inf
ROOT
ATOM      1  C   UNL     1     -47.867  26.305 -17.318  1.00  0.00     0.000 C 
ENDROOT
BRANCH   1   2
ATOM      2  C   UNL     1     -48.401  24.925 -16.879  1.00  0.00     0.000 C 
BRANCH   2   3
ATOM      3  C   UNL     1     -48.337  24.645 -15.367  1.00  0.00     0.000 C 
BRANCH   3   4
ATOM      4  C   UNL     1     -47.985  25.891 -14.541  1.00  0.00     0.000 C 
BRANCH   4   5
ATOM      5  C   UNL     1     -46.616  25.730 -13.863  1.00  0.00     0.000 C 
BRANCH   5   6
ATOM      6  C   UNL     1     -46.038  27.062 -13.350  1.00  0.00     0.000 C 
BRANCH   6   7
ATOM      7  C   UNL     1     -46.555  28.321 -14.073  1.00  0.00     0.000 C 
BRANCH   7   8
ATOM      8  C   UNL     1     -45.752  28.740 -15.318  1.00  0.00     0.000 C 
BRANCH   8   9
ATOM      9  C   UNL     1     -44.473  27.905 -15.545  1.00  0.00     0.000 C 
BRANCH   9  10
ATOM     10  C   UNL     1     -44.596  26.949 -16.744  1.00  0.00     0.006 C 
BRANCH  10  11
ATOM     11  C   UNL     1     -44.396  27.668 -18.085  1.00  0.00     0.053 C 
BRANCH  11  12
ATOM     12  C   UNL     1     -44.483  26.725 -19.247  1.00  0.00     0.041 C 
ATOM     13  O   UNL     1     -44.158  27.107 -20.402  1.00  0.00    -0.550 OA
ATOM     14  O   UNL     1     -44.944  25.428 -19.056  1.00  0.00    -0.550 OA
ENDBRANCH  11  12
ENDBRANCH  10  11
ENDBRANCH   9  10
ENDBRANCH   8   9
ENDBRANCH   7   8
ENDBRANCH   6   7
ENDBRANCH   5   6
ENDBRANCH   4   5
ENDBRANCH   3   4
ENDBRANCH   2   3
ENDBRANCH   1   2
BRANCH   1  15
ATOM     15  C   UNL     1     -48.929  27.279 -17.861  1.00  0.00     0.000 C 
BRANCH  15  16
ATOM     16  C   UNL     1     -48.978  28.607 -17.085  1.00  0.00     0.000 C 
BRANCH  16  17
ATOM     17  C   UNL     1     -50.047  28.608 -15.980  1.00  0.00     0.000 C 
BRANCH  17  18
ATOM     18  C   UNL     1     -51.473  28.444 -16.533  1.00  0.00    -0.000 C 
BRANCH  18  19
ATOM     19  C   UNL     1     -52.336  27.511 -15.667  1.00  0.00    -0.000 C 
BRANCH  19  20
ATOM     20  C   UNL     1     -51.511  26.425 -14.960  1.00  0.00    -0.000 C 
BRANCH  20  21
ATOM     21  C   UNL     1     -52.144  25.041 -15.164  1.00  0.00    -0.000 C 
BRANCH  21  22
ATOM     22  C   UNL     1     -51.624  23.990 -14.169  1.00  0.00    -0.000 C 
BRANCH  22  23
ATOM     23  C   UNL     1     -52.742  23.338 -13.328  1.00  0.00    -0.000 C 
BRANCH  23  24
ATOM     24  C   UNL     1     -54.035  24.172 -13.340  1.00  0.00    -0.000 C 
BRANCH  24  25
ATOM     25  C   UNL     1     -54.699  24.257 -11.957  1.00  0.00    -0.003 C 
ATOM     26  C   UNL     1     -53.957  23.452 -10.892  1.00  0.00     0.004 C 
ENDBRANCH  24  25
ENDBRANCH  23  24
ENDBRANCH  22  23
ENDBRANCH  21  22
ENDBRANCH  20  21
ENDBRANCH  19  20
ENDBRANCH  18  19
ENDBRANCH  17  18
ENDBRANCH  16  17
ENDBRANCH  15  16
ENDBRANCH   1  15
TORSDOF 22
ENDMDL
MODEL 2
REMARK VINA RESULT:    -4.990      3.581      8.367
REMARK INTER + INTRA:         -14.919
REMARK INTER:                 -11.291
REMARK INTRA:                  -3.627
REMARK UNBOUND:                -3.511
REMARK SMILES CCCCCCCCCCCCCCCCCCCCCCCC(=O)[O-]
REMARK SMILES IDX 13 1 14 2 15 3 16 4 17 5 18 6 19 7 20 8 21 9 22 10 23 11
REMARK SMILES IDX 24 12 25 13 26 14 12 15 11 16 10 17 9 18 8 19 7 20 6 21 5 22
REMARK SMILES IDX 4 23 3 24 2 25 1 26
REMARK H PARENT
REMARK Flexibility Score: inf
ROOT
ATOM      1  C   UNL     1     -48.116  27.080 -17.081  1.00  0.00     0.000 C 
ENDROOT
BRANCH   1   2
ATOM      2  C   UNL     1     -49.013  28.064 -17.862  1.00  0.00     0.000 C 
BRANCH   2   3
ATOM      3  C   UNL     1     -49.731  29.122 -17.005  1.00  0.00     0.000 C 
BRANCH   3   4
ATOM      4  C   UNL     1     -49.424  28.988 -15.506  1.00  0.00     0.000 C 
BRANCH   4   5
ATOM      5  C   UNL     1     -50.628  28.406 -14.751  1.00  0.00     0.000 C 
BRANCH   5   6
ATOM      6  C   UNL     1     -51.755  27.934 -15.689  1.00  0.00     0.000 C 
BRANCH   6   7
ATOM      7  C   UNL     1     -51.826  26.410 -15.910  1.00  0.00     0.000 C 
BRANCH   7   8
ATOM      8  C   UNL     1     -51.983  25.567 -14.631  1.00  0.00     0.000 C 
BRANCH   8   9
ATOM      9  C   UNL     1     -51.608  24.081 -14.814  1.00  0.00     0.000 C 
BRANCH   9  10
ATOM     10  C   UNL     1     -52.566  23.133 -14.070  1.00  0.00     0.006 C 
BRANCH  10  11
ATOM     11  C   UNL     1     -52.595  23.402 -12.560  1.00  0.00     0.053 C 
BRANCH  11  12
ATOM     12  C   UNL     1     -53.980  23.696 -12.068  1.00  0.00     0.041 C 
ATOM     13  O   UNL     1     -54.407  23.158 -11.013  1.00  0.00    -0.550 OA
ATOM     14  O   UNL     1     -54.807  24.549 -12.789  1.00  0.00    -0.550 OA
ENDBRANCH  11  12
ENDBRANCH  10  11
ENDBRANCH   9  10
ENDBRANCH   8   9
ENDBRANCH   7   8
ENDBRANCH   6   7
ENDBRANCH   5   6
ENDBRANCH   4   5
ENDBRANCH   3   4
ENDBRANCH   2   3
ENDBRANCH   1   2
BRANCH   1  15
ATOM     15  C   UNL     1     -48.435  25.589 -17.291  1.00  0.00     0.000 C 
BRANCH  15  16
ATOM     16  C   UNL     1     -48.253  24.751 -16.014  1.00  0.00     0.000 C 
BRANCH  16  17
ATOM     17  C   UNL     1     -48.192  25.614 -14.743  1.00  0.00     0.000 C 
BRANCH  17  18
ATOM     18  C   UNL     1     -46.948  25.322 -13.885  1.00  0.00    -0.000 C 
BRANCH  18  19
ATOM     19  C   UNL     1     -46.380  26.588 -13.223  1.00  0.00    -0.000 C 
BRANCH  19  20
ATOM     20  C   UNL     1     -46.188  27.743 -14.218  1.00  0.00    -0.000 C 
BRANCH  20  21
ATOM     21  C   UNL     1     -44.985  27.478 -15.135  1.00  0.00    -0.000 C 
BRANCH  21  22
ATOM     22  C   UNL     1     -44.820  28.543 -16.231  1.00  0.00    -0.000 C 
BRANCH  22  23
ATOM     23  C   UNL     1     -44.265  27.978 -17.555  1.00  0.00    -0.000 C 
BRANCH  23  24
ATOM     24  C   UNL     1     -44.769  26.550 -17.830  1.00  0.00    -0.000 C 
BRANCH  24  25
ATOM     25  C   UNL     1     -44.446  26.070 -19.254  1.00  0.00    -0.003 C 
ATOM     26  C   UNL     1     -43.750  27.138 -20.096  1.00  0.00     0.004 C 
ENDBRANCH  24  25
ENDBRANCH  23  24
ENDBRANCH  22  23
ENDBRANCH  21  22
ENDBRANCH  20  21
ENDBRANCH  19  20
ENDBRANCH  18  19
ENDBRANCH  17  18
ENDBRANCH  16  17
ENDBRANCH  15  16
ENDBRANCH   1  15
TORSDOF 22
ENDMDL
MODEL 3
REMARK VINA RESULT:    -4.908      3.595      8.005
REMARK INTER + INTRA:         -14.730
REMARK INTER:                 -11.345
REMARK INTRA:                  -3.385
REMARK UNBOUND:                -3.511
REMARK SMILES CCCCCCCCCCCCCCCCCCCCCCCC(=O)[O-]
REMARK SMILES IDX 13 1 14 2 15 3 16 4 17 5 18 6 19 7 20 8 21 9 22 10 23 11
REMARK SMILES IDX 24 12 25 13 26 14 12 15 11 16 10 17 9 18 8 19 7 20 6 21 5 22
REMARK SMILES IDX 4 23 3 24 2 25 1 26
REMARK H PARENT
REMARK Flexibility Score: inf
ROOT
ATOM      1  C   UNL     1     -47.026  25.813 -13.993  1.00  0.00     0.000 C 
ENDROOT
BRANCH   1   2
ATOM      2  C   UNL     1     -48.182  26.667 -14.555  1.00  0.00     0.000 C 
BRANCH   2   3
ATOM      3  C   UNL     1     -48.404  28.018 -13.853  1.00  0.00     0.000 C 
BRANCH   3   4
ATOM      4  C   UNL     1     -49.413  28.916 -14.584  1.00  0.00     0.000 C 
BRANCH   4   5
ATOM      5  C   UNL     1     -50.676  29.123 -13.735  1.00  0.00     0.000 C 
BRANCH   5   6
ATOM      6  C   UNL     1     -51.954  28.607 -14.423  1.00  0.00     0.000 C 
BRANCH   6   7
ATOM      7  C   UNL     1     -51.777  28.174 -15.891  1.00  0.00     0.000 C 
BRANCH   7   8
ATOM      8  C   UNL     1     -51.963  26.669 -16.160  1.00  0.00     0.000 C 
BRANCH   8   9
ATOM      9  C   UNL     1     -51.549  25.769 -14.976  1.00  0.00     0.000 C 
BRANCH   9  10
ATOM     10  C   UNL     1     -52.397  24.488 -14.882  1.00  0.00     0.006 C 
BRANCH  10  11
ATOM     11  C   UNL     1     -52.063  23.660 -13.634  1.00  0.00     0.053 C 
BRANCH  11  12
ATOM     12  C   UNL     1     -53.269  23.427 -12.775  1.00  0.00     0.041 C 
ATOM     13  O   UNL     1     -53.294  22.467 -11.961  1.00  0.00    -0.550 OA
ATOM     14  O   UNL     1     -54.375  24.261 -12.889  1.00  0.00    -0.550 OA
ENDBRANCH  11  12
ENDBRANCH  10  11
ENDBRANCH   9  10
ENDBRANCH   8   9
ENDBRANCH   7   8
ENDBRANCH   6   7
ENDBRANCH   5   6
ENDBRANCH   4   5
ENDBRANCH   3   4
ENDBRANCH   2   3
ENDBRANCH   1   2
BRANCH   1  15
ATOM     15  C   UNL     1     -45.691  26.556 -13.799  1.00  0.00     0.000 C 
BRANCH  15  16
ATOM     16  C   UNL     1     -44.971  26.851 -15.127  1.00  0.00     0.000 C 
BRANCH  16  17
ATOM     17  C   UNL     1     -44.938  28.352 -15.461  1.00  0.00     0.000 C 
BRANCH  17  18
ATOM     18  C   UNL     1     -43.778  28.725 -16.401  1.00  0.00    -0.000 C 
BRANCH  18  19
ATOM     19  C   UNL     1     -44.147  28.560 -17.884  1.00  0.00    -0.000 C 
BRANCH  19  20
ATOM     20  C   UNL     1     -43.016  27.930 -18.712  1.00  0.00    -0.000 C 
BRANCH  20  21
ATOM     21  C   UNL     1     -43.542  26.754 -19.547  1.00  0.00    -0.000 C 
BRANCH  21  22
ATOM     22  C   UNL     1     -45.075  26.637 -19.521  1.00  0.00    -0.000 C 
BRANCH  22  23
ATOM     23  C   UNL     1     -45.581  25.390 -18.766  1.00  0.00    -0.000 C 
BRANCH  23  24
ATOM     24  C   UNL     1     -46.825  25.696 -17.913  1.00  0.00    -0.000 C 
BRANCH  24  25
ATOM     25  C   UNL     1     -47.341  27.129 -18.110  1.00  0.00    -0.003 C 
ATOM     26  C   UNL     1     -48.866  27.215 -18.121  1.00  0.00     0.004 C 
ENDBRANCH  24  25
ENDBRANCH  23  24
ENDBRANCH  22  23
ENDBRANCH  21  22
ENDBRANCH  20  21
ENDBRANCH  19  20
ENDBRANCH  18  19
ENDBRANCH  17  18
ENDBRANCH  16  17
ENDBRANCH  15  16
ENDBRANCH   1  15
TORSDOF 22
ENDMDL
MODEL 4
REMARK VINA RESULT:    -4.852      3.764      8.963
REMARK INTER + INTRA:         -14.604
REMARK INTER:                 -11.635
REMARK INTRA:                  -2.969
REMARK UNBOUND:                -3.511
REMARK SMILES CCCCCCCCCCCCCCCCCCCCCCCC(=O)[O-]
REMARK SMILES IDX 13 1 14 2 15 3 16 4 17 5 18 6 19 7 20 8 21 9 22 10 23 11
REMARK SMILES IDX 24 12 25 13 26 14 12 15 11 16 10 17 9 18 8 19 7 20 6 21 5 22
REMARK SMILES IDX 4 23 3 24 2 25 1 26
REMARK H PARENT
REMARK Flexibility Score: inf
ROOT
ATOM      1  C   UNL     1     -49.067  26.906 -17.155  1.00  0.00     0.000 C 
ENDROOT
BRANCH   1   2
ATOM      2  C   UNL     1     -50.435  27.448 -17.621  1.00  0.00     0.000 C 
BRANCH   2   3
ATOM      3  C   UNL     1     -51.019  28.583 -16.762  1.00  0.00     0.000 C 
BRANCH   3   4
ATOM      4  C   UNL     1     -51.957  28.078 -15.656  1.00  0.00     0.000 C 
BRANCH   4   5
ATOM      5  C   UNL     1     -52.384  26.626 -15.922  1.00  0.00     0.000 C 
BRANCH   5   6
ATOM      6  C   UNL     1     -52.070  25.682 -14.746  1.00  0.00     0.000 C 
BRANCH   6   7
ATOM      7  C   UNL     1     -51.321  24.390 -15.128  1.00  0.00     0.000 C 
BRANCH   7   8
ATOM      8  C   UNL     1     -51.760  23.126 -14.366  1.00  0.00     0.000 C 
BRANCH   8   9
ATOM      9  C   UNL     1     -52.055  23.370 -12.871  1.00  0.00     0.000 C 
BRANCH   9  10
ATOM     10  C   UNL     1     -53.417  22.800 -12.435  1.00  0.00     0.006 C 
BRANCH  10  11
ATOM     11  C   UNL     1     -54.008  23.555 -11.237  1.00  0.00     0.053 C 
BRANCH  11  12
ATOM     12  C   UNL     1     -55.163  24.422 -11.635  1.00  0.00     0.041 C 
ATOM     13  O   UNL     1     -55.023  25.300 -12.527  1.00  0.00    -0.550 OA
ATOM     14  O   UNL     1     -56.393  24.274 -11.004  1.00  0.00    -0.550 OA
ENDBRANCH  11  12
ENDBRANCH  10  11
ENDBRANCH   9  10
ENDBRANCH   8   9
ENDBRANCH   7   8
ENDBRANCH   6   7
ENDBRANCH   5   6
ENDBRANCH   4   5
ENDBRANCH   3   4
ENDBRANCH   2   3
ENDBRANCH   1   2
BRANCH   1  15
ATOM     15  C   UNL     1     -48.367  27.734 -16.062  1.00  0.00     0.000 C 
BRANCH  15  16
ATOM     16  C   UNL     1     -48.477  27.098 -14.665  1.00  0.00     0.000 C 
BRANCH  16  17
ATOM     17  C   UNL     1     -48.076  25.613 -14.657  1.00  0.00     0.000 C 
BRANCH  17  18
ATOM     18  C   UNL     1     -46.848  25.335 -13.773  1.00  0.00    -0.000 C 
BRANCH  18  19
ATOM     19  C   UNL     1     -45.896  26.540 -13.693  1.00  0.00    -0.000 C 
BRANCH  19  20
ATOM     20  C   UNL     1     -44.870  26.564 -14.836  1.00  0.00    -0.000 C 
BRANCH  20  21
ATOM     21  C   UNL     1     -44.715  27.983 -15.399  1.00  0.00    -0.000 C 
BRANCH  21  22
ATOM     22  C   UNL     1     -44.821  28.036 -16.932  1.00  0.00    -0.000 C 
BRANCH  22  23
ATOM     23  C   UNL     1     -45.046  26.653 -17.578  1.00  0.00    -0.000 C 
BRANCH  23  24
ATOM     24  C   UNL     1     -44.527  26.600 -19.026  1.00  0.00    -0.000 C 
BRANCH  24  25
ATOM     25  C   UNL     1     -43.183  27.324 -19.201  1.00  0.00    -0.003 C 
ATOM     26  C   UNL     1     -43.202  28.344 -20.338  1.00  0.00     0.004 C 
ENDBRANCH  24  25
ENDBRANCH  23  24
ENDBRANCH  22  23
ENDBRANCH  21  22
ENDBRANCH  20  21
ENDBRANCH  19  20
ENDBRANCH  18  19
ENDBRANCH  17  18
ENDBRANCH  16  17
ENDBRANCH  15  16
ENDBRANCH   1  15
TORSDOF 22
ENDMDL
MODEL 5
REMARK VINA RESULT:    -4.725      3.800      7.997
REMARK INTER + INTRA:         -14.313
REMARK INTER:                 -11.340
REMARK INTRA:                  -2.972
REMARK UNBOUND:                -3.511
REMARK SMILES CCCCCCCCCCCCCCCCCCCCCCCC(=O)[O-]
REMARK SMILES IDX 13 1 14 2 15 3 16 4 17 5 18 6 19 7 20 8 21 9 22 10 23 11
REMARK SMILES IDX 24 12 25 13 26 14 12 15 11 16 10 17 9 18 8 19 7 20 6 21 5 22
REMARK SMILES IDX 4 23 3 24 2 25 1 26
REMARK H PARENT
REMARK Flexibility Score: inf
ROOT
ATOM      1  C   UNL     1     -47.800  27.224 -17.689  1.00  0.00     0.000 C 
ENDROOT
BRANCH   1   2
ATOM      2  C   UNL     1     -49.246  26.900 -18.124  1.00  0.00     0.000 C 
BRANCH   2   3
ATOM      3  C   UNL     1     -50.344  27.706 -17.408  1.00  0.00     0.000 C 
BRANCH   3   4
ATOM      4  C   UNL     1     -49.932  28.163 -16.000  1.00  0.00     0.000 C 
BRANCH   4   5
ATOM      5  C   UNL     1     -50.934  27.664 -14.949  1.00  0.00     0.000 C 
BRANCH   5   6
ATOM      6  C   UNL     1     -51.973  26.684 -15.525  1.00  0.00     0.000 C 
BRANCH   6   7
ATOM      7  C   UNL     1     -52.539  25.664 -14.518  1.00  0.00     0.000 C 
BRANCH   7   8
ATOM      8  C   UNL     1     -52.038  24.219 -14.693  1.00  0.00     0.000 C 
BRANCH   8   9
ATOM      9  C   UNL     1     -51.846  23.460 -13.362  1.00  0.00     0.000 C 
BRANCH   9  10
ATOM     10  C   UNL     1     -53.161  22.871 -12.822  1.00  0.00     0.006 C 
BRANCH  10  11
ATOM     11  C   UNL     1     -53.499  23.392 -11.419  1.00  0.00     0.053 C 
BRANCH  11  12
ATOM     12  C   UNL     1     -54.868  24.000 -11.360  1.00  0.00     0.041 C 
ATOM     13  O   UNL     1     -55.176  24.947 -12.131  1.00  0.00    -0.550 OA
ATOM     14  O   UNL     1     -55.796  23.534 -10.438  1.00  0.00    -0.550 OA
ENDBRANCH  11  12
ENDBRANCH  10  11
ENDBRANCH   9  10
ENDBRANCH   8   9
ENDBRANCH   7   8
ENDBRANCH   6   7
ENDBRANCH   5   6
ENDBRANCH   4   5
ENDBRANCH   3   4
ENDBRANCH   2   3
ENDBRANCH   1   2
BRANCH   1  15
ATOM     15  C   UNL     1     -46.748  26.161 -18.054  1.00  0.00     0.000 C 
BRANCH  15  16
ATOM     16  C   UNL     1     -45.610  26.718 -18.927  1.00  0.00     0.000 C 
BRANCH  16  17
ATOM     17  C   UNL     1     -44.264  26.766 -18.186  1.00  0.00     0.000 C 
BRANCH  17  18
ATOM     18  C   UNL     1     -43.865  28.193 -17.771  1.00  0.00    -0.000 C 
BRANCH  18  19
ATOM     19  C   UNL     1     -44.729  28.734 -16.620  1.00  0.00    -0.000 C 
BRANCH  19  20
ATOM     20  C   UNL     1     -43.992  28.733 -15.273  1.00  0.00    -0.000 C 
BRANCH  20  21
ATOM     21  C   UNL     1     -44.927  28.287 -14.140  1.00  0.00    -0.000 C 
BRANCH  21  22
ATOM     22  C   UNL     1     -45.778  27.061 -14.511  1.00  0.00    -0.000 C 
BRANCH  22  23
ATOM     23  C   UNL     1     -45.868  26.014 -13.382  1.00  0.00    -0.000 C 
BRANCH  23  24
ATOM     24  C   UNL     1     -46.933  24.941 -13.673  1.00  0.00    -0.000 C 
BRANCH  24  25
ATOM     25  C   UNL     1     -48.059  25.455 -14.584  1.00  0.00    -0.003 C 
ATOM     26  C   UNL     1     -48.675  24.353 -15.445  1.00  0.00     0.004 C 
ENDBRANCH  24  25
ENDBRANCH  23  24
ENDBRANCH  22  23
ENDBRANCH  21  22
ENDBRANCH  20  21
ENDBRANCH  19  20
ENDBRANCH  18  19
ENDBRANCH  17  18
ENDBRANCH  16  17
ENDBRANCH  15  16
ENDBRANCH   1  15
TORSDOF 22
ENDMDL
MODEL 6
REMARK VINA RESULT:    -4.720      3.890      7.970
REMARK INTER + INTRA:         -14.301
REMARK INTER:                 -11.352
REMARK INTRA:                  -2.949
REMARK UNBOUND:                -3.511
REMARK SMILES CCCCCCCCCCCCCCCCCCCCCCCC(=O)[O-]
REMARK SMILES IDX 13 1 14 2 15 3 16 4 17 5 18 6 19 7 20 8 21 9 22 10 23 11
REMARK SMILES IDX 24 12 25 13 26 14 12 15 11 16 10 17 9 18 8 19 7 20 6 21 5 22
REMARK SMILES IDX 4 23 3 24 2 25 1 26
REMARK H PARENT
REMARK Flexibility Score: inf
ROOT
ATOM      1  C   UNL     1     -45.550  26.153 -13.805  1.00  0.00     0.000 C 
ENDROOT
BRANCH   1   2
ATOM      2  C   UNL     1     -46.866  25.357 -13.670  1.00  0.00     0.000 C 
BRANCH   2   3
ATOM      3  C   UNL     1     -47.971  25.739 -14.670  1.00  0.00     0.000 C 
BRANCH   3   4
ATOM      4  C   UNL     1     -48.718  24.520 -15.233  1.00  0.00     0.000 C 
BRANCH   4   5
ATOM      5  C   UNL     1     -50.235  24.758 -15.228  1.00  0.00     0.000 C 
BRANCH   5   6
ATOM      6  C   UNL     1     -51.038  23.505 -14.832  1.00  0.00     0.000 C 
BRANCH   6   7
ATOM      7  C   UNL     1     -52.359  23.783 -14.088  1.00  0.00     0.000 C 
BRANCH   7   8
ATOM      8  C   UNL     1     -52.475  23.142 -12.692  1.00  0.00     0.000 C 
BRANCH   8   9
ATOM      9  C   UNL     1     -53.851  23.349 -12.024  1.00  0.00     0.000 C 
BRANCH   9  10
ATOM     10  C   UNL     1     -54.650  24.500 -12.660  1.00  0.00     0.006 C 
BRANCH  10  11
ATOM     11  C   UNL     1     -55.868  24.899 -11.816  1.00  0.00     0.053 C 
BRANCH  11  12
ATOM     12  C   UNL     1     -56.254  26.331 -12.029  1.00  0.00     0.041 C 
ATOM     13  O   UNL     1     -57.435  26.710 -11.812  1.00  0.00    -0.550 OA
ATOM     14  O   UNL     1     -55.312  27.244 -12.487  1.00  0.00    -0.550 OA
ENDBRANCH  11  12
ENDBRANCH  10  11
ENDBRANCH   9  10
ENDBRANCH   8   9
ENDBRANCH   7   8
ENDBRANCH   6   7
ENDBRANCH   5   6
ENDBRANCH   4   5
ENDBRANCH   3   4
ENDBRANCH   2   3
ENDBRANCH   1   2
BRANCH   1  15
ATOM     15  C   UNL     1     -45.661  27.484 -14.570  1.00  0.00     0.000 C 
BRANCH  15  16
ATOM     16  C   UNL     1     -44.406  27.805 -15.401  1.00  0.00     0.000 C 
BRANCH  16  17
ATOM     17  C   UNL     1     -44.660  27.713 -16.915  1.00  0.00     0.000 C 
BRANCH  17  18
ATOM     18  C   UNL     1     -45.020  26.288 -17.372  1.00  0.00    -0.000 C 
BRANCH  18  19
ATOM     19  C   UNL     1     -46.429  26.205 -17.982  1.00  0.00    -0.000 C 
BRANCH  19  20
ATOM     20  C   UNL     1     -47.065  27.586 -18.199  1.00  0.00    -0.000 C 
BRANCH  20  21
ATOM     21  C   UNL     1     -48.535  27.584 -17.757  1.00  0.00    -0.000 C 
BRANCH  21  22
ATOM     22  C   UNL     1     -48.866  28.713 -16.767  1.00  0.00    -0.000 C 
BRANCH  22  23
ATOM     23  C   UNL     1     -50.288  28.611 -16.175  1.00  0.00    -0.000 C 
BRANCH  23  24
ATOM     24  C   UNL     1     -51.228  27.783 -17.070  1.00  0.00    -0.000 C 
BRANCH  24  25
ATOM     25  C   UNL     1     -52.253  26.972 -16.263  1.00  0.00    -0.003 C 
ATOM     26  C   UNL     1     -52.598  27.617 -14.922  1.00  0.00     0.004 C 
ENDBRANCH  24  25
ENDBRANCH  23  24
ENDBRANCH  22  23
ENDBRANCH  21  22
ENDBRANCH  20  21
ENDBRANCH  19  20
ENDBRANCH  18  19
ENDBRANCH  17  18
ENDBRANCH  16  17
ENDBRANCH  15  16
ENDBRANCH   1  15
TORSDOF 22
ENDMDL
MODEL 7
REMARK VINA RESULT:    -4.653      1.510      2.518
REMARK INTER + INTRA:         -14.148
REMARK INTER:                 -11.445
REMARK INTRA:                  -2.703
REMARK UNBOUND:                -3.511
REMARK SMILES CCCCCCCCCCCCCCCCCCCCCCCC(=O)[O-]
REMARK SMILES IDX 13 1 14 2 15 3 16 4 17 5 18 6 19 7 20 8 21 9 22 10 23 11
REMARK SMILES IDX 24 12 25 13 26 14 12 15 11 16 10 17 9 18 8 19 7 20 6 21 5 22
REMARK SMILES IDX 4 23 3 24 2 25 1 26
REMARK H PARENT
REMARK Flexibility Score: inf
ROOT
ATOM      1  C   UNL     1     -48.076  25.065 -15.602  1.00  0.00     0.000 C 
ENDROOT
BRANCH   1   2
ATOM      2  C   UNL     1     -47.627  25.291 -14.142  1.00  0.00     0.000 C 
BRANCH   2   3
ATOM      3  C   UNL     1     -46.187  25.802 -13.969  1.00  0.00     0.000 C 
BRANCH   3   4
ATOM      4  C   UNL     1     -46.115  27.170 -13.273  1.00  0.00     0.000 C 
BRANCH   4   5
ATOM      5  C   UNL     1     -45.236  28.145 -14.071  1.00  0.00     0.000 C 
BRANCH   5   6
ATOM      6  C   UNL     1     -45.940  28.699 -15.324  1.00  0.00     0.000 C 
BRANCH   6   7
ATOM      7  C   UNL     1     -45.320  28.268 -16.668  1.00  0.00     0.000 C 
BRANCH   7   8
ATOM      8  C   UNL     1     -46.305  27.655 -17.681  1.00  0.00     0.000 C 
BRANCH   8   9
ATOM      9  C   UNL     1     -45.770  26.390 -18.383  1.00  0.00     0.000 C 
BRANCH   9  10
ATOM     10  C   UNL     1     -44.247  26.433 -18.602  1.00  0.00     0.006 C 
BRANCH  10  11
ATOM     11  C   UNL     1     -43.875  26.932 -20.005  1.00  0.00     0.053 C 
BRANCH  11  12
ATOM     12  C   UNL     1     -42.882  28.054 -19.957  1.00  0.00     0.041 C 
ATOM     13  O   UNL     1     -42.071  28.225 -20.905  1.00  0.00    -0.550 OA
ATOM     14  O   UNL     1     -42.840  28.898 -18.855  1.00  0.00    -0.550 OA
ENDBRANCH  11  12
ENDBRANCH  10  11
ENDBRANCH   9  10
ENDBRANCH   8   9
ENDBRANCH   7   8
ENDBRANCH   6   7
ENDBRANCH   5   6
ENDBRANCH   4   5
ENDBRANCH   3   4
ENDBRANCH   2   3
ENDBRANCH   1   2
BRANCH   1  15
ATOM     15  C   UNL     1     -49.020  26.138 -16.174  1.00  0.00     0.000 C 
BRANCH  15  16
ATOM     16  C   UNL     1     -49.322  27.268 -15.174  1.00  0.00     0.000 C 
BRANCH  16  17
ATOM     17  C   UNL     1     -50.826  27.437 -14.908  1.00  0.00     0.000 C 
BRANCH  17  18
ATOM     18  C   UNL     1     -51.683  26.405 -15.662  1.00  0.00    -0.000 C 
BRANCH  18  19
ATOM     19  C   UNL     1     -52.345  25.389 -14.718  1.00  0.00    -0.000 C 
BRANCH  19  20
ATOM     20  C   UNL     1     -51.494  24.126 -14.512  1.00  0.00    -0.000 C 
BRANCH  20  21
ATOM     21  C   UNL     1     -52.323  23.011 -13.858  1.00  0.00    -0.000 C 
BRANCH  21  22
ATOM     22  C   UNL     1     -52.520  23.218 -12.347  1.00  0.00    -0.000 C 
BRANCH  22  23
ATOM     23  C   UNL     1     -54.002  23.209 -11.916  1.00  0.00    -0.000 C 
BRANCH  23  24
ATOM     24  C   UNL     1     -54.775  24.415 -12.480  1.00  0.00    -0.000 C 
BRANCH  24  25
ATOM     25  C   UNL     1     -55.662  25.096 -11.427  1.00  0.00    -0.003 C 
ATOM     26  C   UNL     1     -55.853  26.589 -11.687  1.00  0.00     0.004 C 
ENDBRANCH  24  25
ENDBRANCH  23  24
ENDBRANCH  22  23
ENDBRANCH  21  22
ENDBRANCH  20  21
ENDBRANCH  19  20
ENDBRANCH  18  19
ENDBRANCH  17  18
ENDBRANCH  16  17
ENDBRANCH  15  16
ENDBRANCH   1  15
TORSDOF 22
ENDMDL
MODEL 8
REMARK VINA RESULT:    -4.608      1.713      2.962
REMARK INTER + INTRA:         -14.045
REMARK INTER:                 -11.021
REMARK INTRA:                  -3.024
REMARK UNBOUND:                -3.511
REMARK SMILES CCCCCCCCCCCCCCCCCCCCCCCC(=O)[O-]
REMARK SMILES IDX 13 1 14 2 15 3 16 4 17 5 18 6 19 7 20 8 21 9 22 10 23 11
REMARK SMILES IDX 24 12 25 13 26 14 12 15 11 16 10 17 9 18 8 19 7 20 6 21 5 22
REMARK SMILES IDX 4 23 3 24 2 25 1 26
REMARK H PARENT
REMARK Flexibility Score: inf
ROOT
ATOM      1  C   UNL     1     -49.953  29.125 -14.845  1.00  0.00     0.000 C 
ENDROOT
BRANCH   1   2
ATOM      2  C   UNL     1     -48.516  28.589 -15.022  1.00  0.00     0.000 C 
BRANCH   2   3
ATOM      3  C   UNL     1     -48.163  27.360 -14.166  1.00  0.00     0.000 C 
BRANCH   3   4
ATOM      4  C   UNL     1     -46.812  27.497 -13.449  1.00  0.00     0.000 C 
BRANCH   4   5
ATOM      5  C   UNL     1     -45.968  26.226 -13.625  1.00  0.00     0.000 C 
BRANCH   5   6
ATOM      6  C   UNL     1     -44.990  26.313 -14.812  1.00  0.00     0.000 C 
BRANCH   6   7
ATOM      7  C   UNL     1     -44.595  27.743 -15.230  1.00  0.00     0.000 C 
BRANCH   7   8
ATOM      8  C   UNL     1     -44.869  28.097 -16.703  1.00  0.00     0.000 C 
BRANCH   8   9
ATOM      9  C   UNL     1     -44.501  26.972 -17.693  1.00  0.00     0.000 C 
BRANCH   9  10
ATOM     10  C   UNL     1     -45.725  26.424 -18.448  1.00  0.00     0.006 C 
BRANCH  10  11
ATOM     11  C   UNL     1     -46.999  27.224 -18.148  1.00  0.00     0.053 C 
BRANCH  11  12
ATOM     12  C   UNL     1     -48.155  26.332 -17.808  1.00  0.00     0.041 C 
ATOM     13  O   UNL     1     -47.965  25.254 -17.186  1.00  0.00    -0.550 OA
ATOM     14  O   UNL     1     -49.442  26.683 -18.199  1.00  0.00    -0.550 OA
ENDBRANCH  11  12
ENDBRANCH  10  11
ENDBRANCH   9  10
ENDBRANCH   8   9
ENDBRANCH   7   8
ENDBRANCH   6   7
ENDBRANCH   5   6
ENDBRANCH   4   5
ENDBRANCH   3   4
ENDBRANCH   2   3
ENDBRANCH   1   2
BRANCH   1  15
ATOM     15  C   UNL     1     -50.948  28.718 -15.948  1.00  0.00     0.000 C 
BRANCH  15  16
ATOM     16  C   UNL     1     -52.352  28.400 -15.402  1.00  0.00     0.000 C 
BRANCH  16  17
ATOM     17  C   UNL     1     -52.442  26.996 -14.783  1.00  0.00     0.000 C 
BRANCH  17  18
ATOM     18  C   UNL     1     -51.770  25.919 -15.653  1.00  0.00    -0.000 C 
BRANCH  18  19
ATOM     19  C   UNL     1     -50.724  25.104 -14.875  1.00  0.00    -0.000 C 
BRANCH  19  20
ATOM     20  C   UNL     1     -51.028  23.598 -14.869  1.00  0.00    -0.000 C 
BRANCH  20  21
ATOM     21  C   UNL     1     -52.421  23.326 -14.282  1.00  0.00    -0.000 C 
BRANCH  21  22
ATOM     22  C   UNL     1     -52.398  23.100 -12.762  1.00  0.00    -0.000 C 
BRANCH  22  23
ATOM     23  C   UNL     1     -53.735  23.441 -12.072  1.00  0.00    -0.000 C 
BRANCH  23  24
ATOM     24  C   UNL     1     -54.559  24.458 -12.881  1.00  0.00    -0.000 C 
BRANCH  24  25
ATOM     25  C   UNL     1     -55.343  25.432 -11.987  1.00  0.00    -0.003 C 
ATOM     26  C   UNL     1     -56.820  25.064 -11.862  1.00  0.00     0.004 C 
ENDBRANCH  24  25
ENDBRANCH  23  24
ENDBRANCH  22  23
ENDBRANCH  21  22
ENDBRANCH  20  21
ENDBRANCH  19  20
ENDBRANCH  18  19
ENDBRANCH  17  18
ENDBRANCH  16  17
ENDBRANCH  15  16
ENDBRANCH   1  15
TORSDOF 22
ENDMDL
MODEL 9
REMARK VINA RESULT:    -4.543      4.027      8.489
REMARK INTER + INTRA:         -13.896
REMARK INTER:                 -10.931
REMARK INTRA:                  -2.965
REMARK UNBOUND:                -3.511
REMARK SMILES CCCCCCCCCCCCCCCCCCCCCCCC(=O)[O-]
REMARK SMILES IDX 13 1 14 2 15 3 16 4 17 5 18 6 19 7 20 8 21 9 22 10 23 11
REMARK SMILES IDX 24 12 25 13 26 14 12 15 11 16 10 17 9 18 8 19 7 20 6 21 5 22
REMARK SMILES IDX 4 23 3 24 2 25 1 26
REMARK H PARENT
REMARK Flexibility Score: inf
ROOT
ATOM      1  C   UNL     1     -48.082  27.644 -17.888  1.00  0.00     0.000 C 
ENDROOT
BRANCH   1   2
ATOM      2  C   UNL     1     -49.066  28.329 -16.915  1.00  0.00     0.000 C 
BRANCH   2   3
ATOM      3  C   UNL     1     -50.395  27.588 -16.693  1.00  0.00     0.000 C 
BRANCH   3   4
ATOM      4  C   UNL     1     -50.588  27.121 -15.242  1.00  0.00     0.000 C 
BRANCH   4   5
ATOM      5  C   UNL     1     -51.643  26.008 -15.161  1.00  0.00     0.000 C 
BRANCH   5   6
ATOM      6  C   UNL     1     -51.038  24.627 -14.845  1.00  0.00     0.000 C 
BRANCH   6   7
ATOM      7  C   UNL     1     -52.040  23.576 -14.331  1.00  0.00     0.000 C 
BRANCH   7   8
ATOM      8  C   UNL     1     -51.858  23.158 -12.860  1.00  0.00     0.000 C 
BRANCH   8   9
ATOM      9  C   UNL     1     -53.185  22.876 -12.124  1.00  0.00     0.000 C 
BRANCH   9  10
ATOM     10  C   UNL     1     -54.287  23.889 -12.482  1.00  0.00     0.006 C 
BRANCH  10  11
ATOM     11  C   UNL     1     -54.969  24.472 -11.237  1.00  0.00     0.053 C 
BRANCH  11  12
ATOM     12  C   UNL     1     -55.951  25.548 -11.586  1.00  0.00     0.041 C 
ATOM     13  O   UNL     1     -57.047  25.256 -12.134  1.00  0.00    -0.550 OA
ATOM     14  O   UNL     1     -55.647  26.878 -11.325  1.00  0.00    -0.550 OA
ENDBRANCH  11  12
ENDBRANCH  10  11
ENDBRANCH   9  10
ENDBRANCH   8   9
ENDBRANCH   7   8
ENDBRANCH   6   7
ENDBRANCH   5   6
ENDBRANCH   4   5
ENDBRANCH   3   4
ENDBRANCH   2   3
ENDBRANCH   1   2
BRANCH   1  15
ATOM     15  C   UNL     1     -47.901  26.129 -17.682  1.00  0.00     0.000 C 
BRANCH  15  16
ATOM     16  C   UNL     1     -46.536  25.617 -18.175  1.00  0.00     0.000 C 
BRANCH  16  17
ATOM     17  C   UNL     1     -45.357  26.261 -17.428  1.00  0.00     0.000 C 
BRANCH  17  18
ATOM     18  C   UNL     1     -44.499  27.161 -18.335  1.00  0.00    -0.000 C 
BRANCH  18  19
ATOM     19  C   UNL     1     -43.929  28.377 -17.587  1.00  0.00    -0.000 C 
BRANCH  19  20
ATOM     20  C   UNL     1     -44.819  28.827 -16.418  1.00  0.00    -0.000 C 
BRANCH  20  21
ATOM     21  C   UNL     1     -44.065  28.714 -15.085  1.00  0.00    -0.000 C 
BRANCH  21  22
ATOM     22  C   UNL     1     -45.001  28.710 -13.865  1.00  0.00    -0.000 C 
BRANCH  22  23
ATOM     23  C   UNL     1     -46.496  28.642 -14.241  1.00  0.00    -0.000 C 
BRANCH  23  24
ATOM     24  C   UNL     1     -47.241  27.549 -13.453  1.00  0.00    -0.000 C 
BRANCH  24  25
ATOM     25  C   UNL     1     -47.150  26.169 -14.123  1.00  0.00    -0.003 C 
ATOM     26  C   UNL     1     -46.004  25.319 -13.580  1.00  0.00     0.004 C 
ENDBRANCH  24  25
ENDBRANCH  23  24
ENDBRANCH  22  23
ENDBRANCH  21  22
ENDBRANCH  20  21
ENDBRANCH  19  20
ENDBRANCH  18  19
ENDBRANCH  17  18
ENDBRANCH  16  17
ENDBRANCH  15  16
ENDBRANCH   1  15
TORSDOF 22
ENDMDL
