MODEL 1
REMARK VINA RESULT:    -5.531      0.000      0.000
REMARK INTER + INTRA:          -6.640
REMARK INTER:                  -6.501
REMARK INTRA:                  -0.138
REMARK UNBOUND:                -0.138
REMARK SMILES O=C([O-])C=Cc1ccc(O)c(O)c1
REMARK SMILES IDX 6 1 13 2 7 3 11 4 8 5 9 6 5 7 4 8 2 9 1 10 3 11 12 12 10 14
REMARK H PARENT 12 13 10 15
REMARK Flexibility Score: inf
ROOT
ATOM      1  C   UNL     1       6.433  27.533  57.609  1.00  0.00    -0.022 A 
ATOM      2  C   UNL     1       5.151  27.115  57.208  1.00  0.00     0.058 A 
ATOM      3  C   UNL     1       6.920  28.771  57.145  1.00  0.00     0.012 A 
ATOM      4  C   UNL     1       4.360  27.926  56.382  1.00  0.00     0.157 A 
ATOM      5  C   UNL     1       6.130  29.578  56.321  1.00  0.00     0.051 A 
ATOM      6  C   UNL     1       4.849  29.160  55.940  1.00  0.00     0.157 A 
ENDROOT
BRANCH   1   7
ATOM      7  C   UNL     1       7.233  26.633  58.476  1.00  0.00     0.010 C 
ATOM      8  C   UNL     1       8.572  26.553  58.433  1.00  0.00     0.025 C 
BRANCH   8   9
ATOM      9  C   UNL     1       9.334  25.656  59.316  1.00  0.00     0.064 C 
ATOM     10  O   UNL     1       8.866  25.275  60.421  1.00  0.00    -0.545 OA
ATOM     11  O   UNL     1      10.593  25.221  58.923  1.00  0.00    -0.545 OA
ENDBRANCH   8   9
ENDBRANCH   1   7
BRANCH   4  12
ATOM     12  O   UNL     1       3.087  27.510  55.997  1.00  0.00    -0.504 OA
ATOM     13  H   UNL     1       2.566  27.996  55.277  1.00  0.00     0.293 HD
ENDBRANCH   4  12
BRANCH   6  14
ATOM     14  O   UNL     1       4.059  29.963  55.119  1.00  0.00    -0.504 OA
ATOM     15  H   UNL     1       3.732  29.639  54.217  1.00  0.00     0.293 HD
ENDBRANCH   6  14
TORSDOF 4
ENDMDL
MODEL 2
REMARK VINA RESULT:    -5.327      0.891      1.127
REMARK INTER + INTRA:          -6.399
REMARK INTER:                  -6.267
REMARK INTRA:                  -0.132
REMARK UNBOUND:                -0.138
REMARK SMILES O=C([O-])C=Cc1ccc(O)c(O)c1
REMARK SMILES IDX 6 1 13 2 7 3 11 4 8 5 9 6 5 7 4 8 2 9 1 10 3 11 12 12 10 14
REMARK H PARENT 12 13 10 15
REMARK Flexibility Score: inf
ROOT
ATOM      1  C   UNL     1       6.519  27.543  57.553  1.00  0.00    -0.022 A 
ATOM      2  C   UNL     1       5.228  27.120  57.191  1.00  0.00     0.058 A 
ATOM      3  C   UNL     1       6.986  28.785  57.078  1.00  0.00     0.012 A 
ATOM      4  C   UNL     1       4.408  27.929  56.392  1.00  0.00     0.157 A 
ATOM      5  C   UNL     1       6.167  29.590  56.281  1.00  0.00     0.051 A 
ATOM      6  C   UNL     1       4.877  29.167  55.938  1.00  0.00     0.157 A 
ENDROOT
BRANCH   1   7
ATOM      7  C   UNL     1       7.350  26.645  58.392  1.00  0.00     0.010 C 
ATOM      8  C   UNL     1       6.844  25.744  59.248  1.00  0.00     0.025 C 
BRANCH   8   9
ATOM      9  C   UNL     1       7.699  24.862  60.057  1.00  0.00     0.064 C 
ATOM     10  O   UNL     1       7.209  23.929  60.747  1.00  0.00    -0.545 OA
ATOM     11  O   UNL     1       9.074  25.060  60.060  1.00  0.00    -0.545 OA
ENDBRANCH   8   9
ENDBRANCH   1   7
BRANCH   4  12
ATOM     12  O   UNL     1       3.126  27.508  56.044  1.00  0.00    -0.504 OA
ATOM     13  H   UNL     1       2.372  28.168  55.897  1.00  0.00     0.293 HD
ENDBRANCH   4  12
BRANCH   6  14
ATOM     14  O   UNL     1       4.059  29.969  55.144  1.00  0.00    -0.504 OA
ATOM     15  H   UNL     1       3.617  30.803  55.511  1.00  0.00     0.293 HD
ENDBRANCH   6  14
TORSDOF 4
ENDMDL
MODEL 3
REMARK VINA RESULT:    -5.241      1.074      1.962
REMARK INTER + INTRA:          -6.299
REMARK INTER:                  -6.164
REMARK INTRA:                  -0.135
REMARK UNBOUND:                -0.138
REMARK SMILES O=C([O-])C=Cc1ccc(O)c(O)c1
REMARK SMILES IDX 6 1 13 2 7 3 11 4 8 5 9 6 5 7 4 8 2 9 1 10 3 11 12 12 10 14
REMARK H PARENT 12 13 10 15
REMARK Flexibility Score: inf
ROOT
ATOM      1  C   UNL     1       6.233  27.227  57.910  1.00  0.00    -0.022 A 
ATOM      2  C   UNL     1       6.987  28.191  57.217  1.00  0.00     0.058 A 
ATOM      3  C   UNL     1       4.838  27.189  57.718  1.00  0.00     0.012 A 
ATOM      4  C   UNL     1       6.367  29.082  56.330  1.00  0.00     0.157 A 
ATOM      5  C   UNL     1       4.221  28.079  56.833  1.00  0.00     0.051 A 
ATOM      6  C   UNL     1       4.983  29.024  56.136  1.00  0.00     0.157 A 
ENDROOT
BRANCH   1   7
ATOM      7  C   UNL     1       6.937  26.314  58.845  1.00  0.00     0.010 C 
ATOM      8  C   UNL     1       8.272  26.208  58.919  1.00  0.00     0.025 C 
BRANCH   8   9
ATOM      9  C   UNL     1       8.936  25.298  59.866  1.00  0.00     0.064 C 
ATOM     10  O   UNL     1       8.277  24.465  60.542  1.00  0.00    -0.545 OA
ATOM     11  O   UNL     1      10.315  25.360  60.018  1.00  0.00    -0.545 OA
ENDBRANCH   8   9
ENDBRANCH   1   7
BRANCH   4  12
ATOM     12  O   UNL     1       7.122  30.028  55.639  1.00  0.00    -0.504 OA
ATOM     13  H   UNL     1       7.048  30.134  54.634  1.00  0.00     0.293 HD
ENDBRANCH   4  12
BRANCH   6  14
ATOM     14  O   UNL     1       4.370  29.912  55.253  1.00  0.00    -0.504 OA
ATOM     15  H   UNL     1       4.764  30.825  55.060  1.00  0.00     0.293 HD
ENDBRANCH   6  14
TORSDOF 4
ENDMDL
MODEL 4
REMARK VINA RESULT:    -4.942      2.071      2.980
REMARK INTER + INTRA:          -5.947
REMARK INTER:                  -5.810
REMARK INTRA:                  -0.137
REMARK UNBOUND:                -0.138
REMARK SMILES O=C([O-])C=Cc1ccc(O)c(O)c1
REMARK SMILES IDX 6 1 13 2 7 3 11 4 8 5 9 6 5 7 4 8 2 9 1 10 3 11 12 12 10 14
REMARK H PARENT 12 13 10 15
REMARK Flexibility Score: inf
ROOT
ATOM      1  C   UNL     1       6.046  26.805  58.045  1.00  0.00    -0.022 A 
ATOM      2  C   UNL     1       6.991  27.693  57.501  1.00  0.00     0.058 A 
ATOM      3  C   UNL     1       4.682  27.000  57.751  1.00  0.00     0.012 A 
ATOM      4  C   UNL     1       6.588  28.740  56.660  1.00  0.00     0.157 A 
ATOM      5  C   UNL     1       4.281  28.045  56.912  1.00  0.00     0.051 A 
ATOM      6  C   UNL     1       5.231  28.914  56.363  1.00  0.00     0.157 A 
ENDROOT
BRANCH   1   7
ATOM      7  C   UNL     1       6.524  25.720  58.937  1.00  0.00     0.010 C 
ATOM      8  C   UNL     1       5.913  25.371  60.079  1.00  0.00     0.025 C 
BRANCH   8   9
ATOM      9  C   UNL     1       6.410  24.281  60.934  1.00  0.00     0.064 C 
ATOM     10  O   UNL     1       7.643  24.115  61.130  1.00  0.00    -0.545 OA
ATOM     11  O   UNL     1       5.503  23.420  61.538  1.00  0.00    -0.545 OA
ENDBRANCH   8   9
ENDBRANCH   1   7
BRANCH   4  12
ATOM     12  O   UNL     1       7.530  29.611  56.117  1.00  0.00    -0.504 OA
ATOM     13  H   UNL     1       7.369  30.085  55.236  1.00  0.00     0.293 HD
ENDBRANCH   4  12
BRANCH   6  14
ATOM     14  O   UNL     1       4.834  29.956  55.527  1.00  0.00    -0.504 OA
ATOM     15  H   UNL     1       4.758  30.908  55.865  1.00  0.00     0.293 HD
ENDBRANCH   6  14
TORSDOF 4
ENDMDL
MODEL 5
REMARK VINA RESULT:    -4.918      2.852      3.844
REMARK INTER + INTRA:          -5.918
REMARK INTER:                  -5.780
REMARK INTRA:                  -0.138
REMARK UNBOUND:                -0.138
REMARK SMILES O=C([O-])C=Cc1ccc(O)c(O)c1
REMARK SMILES IDX 6 1 13 2 7 3 11 4 8 5 9 6 5 7 4 8 2 9 1 10 3 11 12 12 10 14
REMARK H PARENT 12 13 10 15
REMARK Flexibility Score: inf
ROOT
ATOM      1  C   UNL     1       4.876  27.347  57.942  1.00  0.00    -0.022 A 
ATOM      2  C   UNL     1       4.276  28.207  57.005  1.00  0.00     0.058 A 
ATOM      3  C   UNL     1       6.280  27.350  58.066  1.00  0.00     0.012 A 
ATOM      4  C   UNL     1       5.057  29.071  56.224  1.00  0.00     0.157 A 
ATOM      5  C   UNL     1       7.057  28.213  57.287  1.00  0.00     0.051 A 
ATOM      6  C   UNL     1       6.449  29.076  56.368  1.00  0.00     0.157 A 
ENDROOT
BRANCH   1   7
ATOM      7  C   UNL     1       4.006  26.445  58.736  1.00  0.00     0.010 C 
ATOM      8  C   UNL     1       4.451  25.668  59.734  1.00  0.00     0.025 C 
BRANCH   8   9
ATOM      9  C   UNL     1       3.556  24.793  60.508  1.00  0.00     0.064 C 
ATOM     10  O   UNL     1       2.564  25.258  61.129  1.00  0.00    -0.545 OA
ATOM     11  O   UNL     1       3.809  23.428  60.554  1.00  0.00    -0.545 OA
ENDBRANCH   8   9
ENDBRANCH   1   7
BRANCH   4  12
ATOM     12  O   UNL     1       4.455  29.927  55.304  1.00  0.00    -0.504 OA
ATOM     13  H   UNL     1       3.809  29.582  54.604  1.00  0.00     0.293 HD
ENDBRANCH   4  12
BRANCH   6  14
ATOM     14  O   UNL     1       7.222  29.937  55.590  1.00  0.00    -0.504 OA
ATOM     15  H   UNL     1       8.231  29.854  55.551  1.00  0.00     0.293 HD
ENDBRANCH   6  14
TORSDOF 4
ENDMDL
MODEL 6
REMARK VINA RESULT:    -4.876      2.057      3.159
REMARK INTER + INTRA:          -5.869
REMARK INTER:                  -5.734
REMARK INTRA:                  -0.135
REMARK UNBOUND:                -0.138
REMARK SMILES O=C([O-])C=Cc1ccc(O)c(O)c1
REMARK SMILES IDX 6 1 13 2 7 3 11 4 8 5 9 6 5 7 4 8 2 9 1 10 3 11 12 12 10 14
REMARK H PARENT 12 13 10 15
REMARK Flexibility Score: inf
ROOT
ATOM      1  C   UNL     1       7.062  26.355  58.681  1.00  0.00    -0.022 A 
ATOM      2  C   UNL     1       6.161  26.855  57.724  1.00  0.00     0.058 A 
ATOM      3  C   UNL     1       6.550  25.746  59.844  1.00  0.00     0.012 A 
ATOM      4  C   UNL     1       4.777  26.729  57.909  1.00  0.00     0.157 A 
ATOM      5  C   UNL     1       5.169  25.622  60.028  1.00  0.00     0.051 A 
ATOM      6  C   UNL     1       4.281  26.109  59.062  1.00  0.00     0.157 A 
ENDROOT
BRANCH   1   7
ATOM      7  C   UNL     1       8.517  26.522  58.441  1.00  0.00     0.010 C 
ATOM      8  C   UNL     1       9.459  25.760  59.015  1.00  0.00     0.025 C 
BRANCH   8   9
ATOM      9  C   UNL     1      10.894  25.948  58.746  1.00  0.00     0.064 C 
ATOM     10  O   UNL     1      11.528  26.920  59.235  1.00  0.00    -0.545 OA
ATOM     11  O   UNL     1      11.561  25.038  57.937  1.00  0.00    -0.545 OA
ENDBRANCH   8   9
ENDBRANCH   1   7
BRANCH   4  12
ATOM     12  O   UNL     1       3.890  27.218  56.953  1.00  0.00    -0.504 OA
ATOM     13  H   UNL     1       3.111  27.813  57.207  1.00  0.00     0.293 HD
ENDBRANCH   4  12
BRANCH   6  14
ATOM     14  O   UNL     1       2.904  25.986  59.243  1.00  0.00    -0.504 OA
ATOM     15  H   UNL     1       2.332  26.777  59.514  1.00  0.00     0.293 HD
ENDBRANCH   6  14
TORSDOF 4
ENDMDL
MODEL 7
REMARK VINA RESULT:    -4.476      3.460      4.506
REMARK INTER + INTRA:          -5.400
REMARK INTER:                  -5.267
REMARK INTRA:                  -0.133
REMARK UNBOUND:                -0.138
REMARK SMILES O=C([O-])C=Cc1ccc(O)c(O)c1
REMARK SMILES IDX 6 1 13 2 7 3 11 4 8 5 9 6 5 7 4 8 2 9 1 10 3 11 12 12 10 14
REMARK H PARENT 12 13 10 15
REMARK Flexibility Score: inf
ROOT
ATOM      1  C   UNL     1       4.828  27.008  58.643  1.00  0.00    -0.022 A 
ATOM      2  C   UNL     1       6.200  26.702  58.635  1.00  0.00     0.058 A 
ATOM      3  C   UNL     1       4.379  28.138  57.930  1.00  0.00     0.012 A 
ATOM      4  C   UNL     1       7.105  27.490  57.910  1.00  0.00     0.157 A 
ATOM      5  C   UNL     1       5.283  28.922  57.207  1.00  0.00     0.051 A 
ATOM      6  C   UNL     1       6.645  28.600  57.193  1.00  0.00     0.157 A 
ENDROOT
BRANCH   1   7
ATOM      7  C   UNL     1       3.914  26.148  59.435  1.00  0.00     0.010 C 
ATOM      8  C   UNL     1       4.282  24.985  59.993  1.00  0.00     0.025 C 
BRANCH   8   9
ATOM      9  C   UNL     1       3.350  24.163  60.781  1.00  0.00     0.064 C 
ATOM     10  O   UNL     1       3.172  22.944  60.518  1.00  0.00    -0.545 OA
ATOM     11  O   UNL     1       2.655  24.741  61.836  1.00  0.00    -0.545 OA
ENDBRANCH   8   9
ENDBRANCH   1   7
BRANCH   4  12
ATOM     12  O   UNL     1       8.462  27.175  57.898  1.00  0.00    -0.504 OA
ATOM     13  H   UNL     1       8.784  26.215  57.869  1.00  0.00     0.293 HD
ENDBRANCH   4  12
BRANCH   6  14
ATOM     14  O   UNL     1       7.548  29.381  56.473  1.00  0.00    -0.504 OA
ATOM     15  H   UNL     1       8.343  29.821  56.921  1.00  0.00     0.293 HD
ENDBRANCH   6  14
TORSDOF 4
ENDMDL
MODEL 8
REMARK VINA RESULT:    -4.401      1.420      5.924
REMARK INTER + INTRA:          -5.312
REMARK INTER:                  -5.173
REMARK INTRA:                  -0.139
REMARK UNBOUND:                -0.138
REMARK SMILES O=C([O-])C=Cc1ccc(O)c(O)c1
REMARK SMILES IDX 6 1 13 2 7 3 11 4 8 5 9 6 5 7 4 8 2 9 1 10 3 11 12 12 10 14
REMARK H PARENT 12 13 10 15
REMARK Flexibility Score: inf
ROOT
ATOM      1  C   UNL     1       6.820  26.190  58.446  1.00  0.00    -0.022 A 
ATOM      2  C   UNL     1       6.349  25.238  59.367  1.00  0.00     0.058 A 
ATOM      3  C   UNL     1       8.186  26.538  58.467  1.00  0.00     0.012 A 
ATOM      4  C   UNL     1       7.225  24.625  60.274  1.00  0.00     0.157 A 
ATOM      5  C   UNL     1       9.058  25.927  59.372  1.00  0.00     0.051 A 
ATOM      6  C   UNL     1       8.582  24.969  60.275  1.00  0.00     0.157 A 
ENDROOT
BRANCH   1   7
ATOM      7  C   UNL     1       5.850  26.815  57.514  1.00  0.00     0.010 C 
ATOM      8  C   UNL     1       5.891  28.106  57.151  1.00  0.00     0.025 C 
BRANCH   8   9
ATOM      9  C   UNL     1       4.917  28.690  56.215  1.00  0.00     0.064 C 
ATOM     10  O   UNL     1       3.821  28.120  55.973  1.00  0.00    -0.545 OA
ATOM     11  O   UNL     1       5.212  29.894  55.588  1.00  0.00    -0.545 OA
ENDBRANCH   8   9
ENDBRANCH   1   7
BRANCH   4  12
ATOM     12  O   UNL     1       6.753  23.676  61.179  1.00  0.00    -0.504 OA
ATOM     13  H   UNL     1       5.775  23.633  61.441  1.00  0.00     0.293 HD
ENDBRANCH   4  12
BRANCH   6  14
ATOM     14  O   UNL     1       9.450  24.357  61.179  1.00  0.00    -0.504 OA
ATOM     15  H   UNL     1       9.108  23.744  61.910  1.00  0.00     0.293 HD
ENDBRANCH   6  14
TORSDOF 4
ENDMDL
MODEL 9
REMARK VINA RESULT:    -4.374      2.623      3.512
REMARK INTER + INTRA:          -5.280
REMARK INTER:                  -5.147
REMARK INTRA:                  -0.132
REMARK UNBOUND:                -0.138
REMARK SMILES O=C([O-])C=Cc1ccc(O)c(O)c1
REMARK SMILES IDX 6 1 13 2 7 3 11 4 8 5 9 6 5 7 4 8 2 9 1 10 3 11 12 12 10 14
REMARK H PARENT 12 13 10 15
REMARK Flexibility Score: inf
ROOT
ATOM      1  C   UNL     1       6.952  26.407  58.600  1.00  0.00    -0.022 A 
ATOM      2  C   UNL     1       6.504  25.445  59.523  1.00  0.00     0.058 A 
ATOM      3  C   UNL     1       5.999  27.180  57.908  1.00  0.00     0.012 A 
ATOM      4  C   UNL     1       5.135  25.273  59.770  1.00  0.00     0.157 A 
ATOM      5  C   UNL     1       4.634  27.007  58.155  1.00  0.00     0.051 A 
ATOM      6  C   UNL     1       4.199  26.057  59.086  1.00  0.00     0.157 A 
ENDROOT
BRANCH   1   7
ATOM      7  C   UNL     1       8.411  26.542  58.369  1.00  0.00     0.010 C 
ATOM      8  C   UNL     1       9.337  25.804  58.998  1.00  0.00     0.025 C 
BRANCH   8   9
ATOM      9  C   UNL     1      10.777  25.958  58.735  1.00  0.00     0.064 C 
ATOM     10  O   UNL     1      11.380  25.194  57.936  1.00  0.00    -0.545 OA
ATOM     11  O   UNL     1      11.484  26.964  59.380  1.00  0.00    -0.545 OA
ENDBRANCH   8   9
ENDBRANCH   1   7
BRANCH   4  12
ATOM     12  O   UNL     1       4.698  24.324  60.692  1.00  0.00    -0.504 OA
ATOM     13  H   UNL     1       5.210  24.140  61.547  1.00  0.00     0.293 HD
ENDBRANCH   4  12
BRANCH   6  14
ATOM     14  O   UNL     1       2.838  25.883  59.334  1.00  0.00    -0.504 OA
ATOM     15  H   UNL     1       2.254  25.326  58.721  1.00  0.00     0.293 HD
ENDBRANCH   6  14
TORSDOF 4
ENDMDL
