MODEL 1
REMARK VINA RESULT:    -4.635      0.000      0.000
REMARK INTER + INTRA:         -13.017
REMARK INTER:                 -10.053
REMARK INTRA:                  -2.963
REMARK UNBOUND:                -2.963
REMARK SMILES CCCCCCCCCCCCCCCCCCCCCC(=O)[O-]
REMARK SMILES IDX 12 1 11 2 10 3 9 4 8 5 7 6 6 7 5 8 4 9 3 10 2 11 1 12 13 13
REMARK SMILES IDX 14 14 15 15 16 16 17 17 18 18 19 19 20 20 21 21 22 22 23 23
REMARK SMILES IDX 24 24
REMARK H PARENT
REMARK Flexibility Score: inf
ROOT
ATOM      1  C   UNL     1      16.791  63.369  34.251  1.00  0.00     0.000 C 
ENDROOT
BRANCH   1   2
ATOM      2  C   UNL     1      15.698  62.493  33.615  1.00  0.00     0.000 C 
BRANCH   2   3
ATOM      3  C   UNL     1      16.260  61.487  32.592  1.00  0.00     0.000 C 
BRANCH   3   4
ATOM      4  C   UNL     1      15.788  61.703  31.142  1.00  0.00    -0.000 C 
BRANCH   4   5
ATOM      5  C   UNL     1      14.795  60.633  30.669  1.00  0.00    -0.000 C 
BRANCH   5   6
ATOM      6  C   UNL     1      13.593  61.271  29.958  1.00  0.00    -0.000 C 
BRANCH   6   7
ATOM      7  C   UNL     1      13.365  62.738  30.369  1.00  0.00    -0.000 C 
BRANCH   7   8
ATOM      8  C   UNL     1      12.077  62.991  31.179  1.00  0.00    -0.000 C 
BRANCH   8   9
ATOM      9  C   UNL     1      12.302  63.417  32.643  1.00  0.00    -0.000 C 
BRANCH   9  10
ATOM     10  C   UNL     1      12.023  62.322  33.692  1.00  0.00    -0.000 C 
BRANCH  10  11
ATOM     11  C   UNL     1      11.529  60.984  33.115  1.00  0.00    -0.003 C 
ATOM     12  C   UNL     1      12.541  59.851  33.283  1.00  0.00     0.004 C 
ENDBRANCH  10  11
ENDBRANCH   9  10
ENDBRANCH   8   9
ENDBRANCH   7   8
ENDBRANCH   6   7
ENDBRANCH   5   6
ENDBRANCH   4   5
ENDBRANCH   3   4
ENDBRANCH   2   3
ENDBRANCH   1   2
BRANCH   1  13
ATOM     13  C   UNL     1      16.915  64.738  33.558  1.00  0.00     0.000 C 
BRANCH  13  14
ATOM     14  C   UNL     1      16.534  65.924  34.472  1.00  0.00     0.000 C 
BRANCH  14  15
ATOM     15  C   UNL     1      15.198  66.592  34.090  1.00  0.00     0.000 C 
BRANCH  15  16
ATOM     16  C   UNL     1      14.835  66.489  32.599  1.00  0.00     0.000 C 
BRANCH  16  17
ATOM     17  C   UNL     1      14.858  67.849  31.887  1.00  0.00     0.000 C 
BRANCH  17  18
ATOM     18  C   UNL     1      15.240  68.970  32.864  1.00  0.00     0.000 C 
BRANCH  18  19
ATOM     19  C   UNL     1      16.601  69.613  32.539  1.00  0.00     0.000 C 
BRANCH  19  20
ATOM     20  C   UNL     1      17.737  69.263  33.517  1.00  0.00     0.006 C 
BRANCH  20  21
ATOM     21  C   UNL     1      17.659  70.050  34.832  1.00  0.00     0.053 C 
BRANCH  21  22
ATOM     22  C   UNL     1      18.247  69.256  35.955  1.00  0.00     0.041 C 
ATOM     23  O   UNL     1      19.468  69.376  36.243  1.00  0.00    -0.550 OA
ATOM     24  O   UNL     1      17.441  68.412  36.709  1.00  0.00    -0.550 OA
ENDBRANCH  21  22
ENDBRANCH  20  21
ENDBRANCH  19  20
ENDBRANCH  18  19
ENDBRANCH  17  18
ENDBRANCH  16  17
ENDBRANCH  15  16
ENDBRANCH  14  15
ENDBRANCH  13  14
ENDBRANCH   1  13
TORSDOF 20
ENDMDL
MODEL 2
REMARK VINA RESULT:    -4.475      2.579      6.053
REMARK INTER + INTRA:         -12.671
REMARK INTER:                 -10.273
REMARK INTRA:                  -2.399
REMARK UNBOUND:                -2.963
REMARK SMILES CCCCCCCCCCCCCCCCCCCCCC(=O)[O-]
REMARK SMILES IDX 12 1 11 2 10 3 9 4 8 5 7 6 6 7 5 8 4 9 3 10 2 11 1 12 13 13
REMARK SMILES IDX 14 14 15 15 16 16 17 17 18 18 19 19 20 20 21 21 22 22 23 23
REMARK SMILES IDX 24 24
REMARK H PARENT
REMARK Flexibility Score: inf
ROOT
ATOM      1  C   UNL     1      18.222  69.027  36.131  1.00  0.00     0.000 C 
ENDROOT
BRANCH   1   2
ATOM      2  C   UNL     1      18.094  69.873  34.853  1.00  0.00     0.000 C 
BRANCH   2   3
ATOM      3  C   UNL     1      17.507  69.082  33.669  1.00  0.00     0.000 C 
BRANCH   3   4
ATOM      4  C   UNL     1      16.438  69.832  32.852  1.00  0.00    -0.000 C 
BRANCH   4   5
ATOM      5  C   UNL     1      15.299  68.921  32.376  1.00  0.00    -0.000 C 
BRANCH   5   6
ATOM      6  C   UNL     1      15.272  67.608  33.172  1.00  0.00    -0.000 C 
BRANCH   6   7
ATOM      7  C   UNL     1      14.874  66.395  32.311  1.00  0.00    -0.000 C 
BRANCH   7   8
ATOM      8  C   UNL     1      14.772  65.061  33.078  1.00  0.00    -0.000 C 
BRANCH   8   9
ATOM      9  C   UNL     1      14.949  63.798  32.214  1.00  0.00    -0.000 C 
BRANCH   9  10
ATOM     10  C   UNL     1      13.685  62.929  32.060  1.00  0.00    -0.000 C 
BRANCH  10  11
ATOM     11  C   UNL     1      12.356  63.679  32.257  1.00  0.00    -0.003 C 
ATOM     12  C   UNL     1      11.518  63.119  33.405  1.00  0.00     0.004 C 
ENDBRANCH  10  11
ENDBRANCH   9  10
ENDBRANCH   8   9
ENDBRANCH   7   8
ENDBRANCH   6   7
ENDBRANCH   5   6
ENDBRANCH   4   5
ENDBRANCH   3   4
ENDBRANCH   2   3
ENDBRANCH   1   2
BRANCH   1  13
ATOM     13  C   UNL     1      19.615  69.152  36.773  1.00  0.00     0.000 C 
BRANCH  13  14
ATOM     14  C   UNL     1      19.596  68.997  38.311  1.00  0.00     0.000 C 
BRANCH  14  15
ATOM     15  C   UNL     1      18.177  68.928  38.907  1.00  0.00     0.000 C 
BRANCH  15  16
ATOM     16  C   UNL     1      17.844  67.602  39.614  1.00  0.00     0.000 C 
BRANCH  16  17
ATOM     17  C   UNL     1      18.308  66.373  38.819  1.00  0.00     0.000 C 
BRANCH  17  18
ATOM     18  C   UNL     1      17.108  65.626  38.219  1.00  0.00     0.000 C 
BRANCH  18  19
ATOM     19  C   UNL     1      16.666  66.194  36.858  1.00  0.00     0.000 C 
BRANCH  19  20
ATOM     20  C   UNL     1      17.316  65.528  35.632  1.00  0.00     0.006 C 
BRANCH  20  21
ATOM     21  C   UNL     1      17.595  64.034  35.840  1.00  0.00     0.053 C 
BRANCH  21  22
ATOM     22  C   UNL     1      19.056  63.747  35.692  1.00  0.00     0.041 C 
ATOM     23  O   UNL     1      19.816  63.802  36.696  1.00  0.00    -0.550 OA
ATOM     24  O   UNL     1      19.573  63.382  34.456  1.00  0.00    -0.550 OA
ENDBRANCH  21  22
ENDBRANCH  20  21
ENDBRANCH  19  20
ENDBRANCH  18  19
ENDBRANCH  17  18
ENDBRANCH  16  17
ENDBRANCH  15  16
ENDBRANCH  14  15
ENDBRANCH  13  14
ENDBRANCH   1  13
TORSDOF 20
ENDMDL
MODEL 3
REMARK VINA RESULT:    -4.436      1.795      3.114
REMARK INTER + INTRA:         -12.587
REMARK INTER:                 -10.561
REMARK INTRA:                  -2.025
REMARK UNBOUND:                -2.963
REMARK SMILES CCCCCCCCCCCCCCCCCCCCCC(=O)[O-]
REMARK SMILES IDX 12 1 11 2 10 3 9 4 8 5 7 6 6 7 5 8 4 9 3 10 2 11 1 12 13 13
REMARK SMILES IDX 14 14 15 15 16 16 17 17 18 18 19 19 20 20 21 21 22 22 23 23
REMARK SMILES IDX 24 24
REMARK H PARENT
REMARK Flexibility Score: inf
ROOT
ATOM      1  C   UNL     1      15.761  64.998  32.891  1.00  0.00     0.000 C 
ENDROOT
BRANCH   1   2
ATOM      2  C   UNL     1      15.881  64.070  31.670  1.00  0.00     0.000 C 
BRANCH   2   3
ATOM      3  C   UNL     1      15.116  62.745  31.850  1.00  0.00     0.000 C 
BRANCH   3   4
ATOM      4  C   UNL     1      14.082  62.439  30.751  1.00  0.00    -0.000 C 
BRANCH   4   5
ATOM      5  C   UNL     1      12.825  63.315  30.848  1.00  0.00    -0.000 C 
BRANCH   5   6
ATOM      6  C   UNL     1      12.363  63.457  32.306  1.00  0.00    -0.000 C 
BRANCH   6   7
ATOM      7  C   UNL     1      11.042  62.717  32.589  1.00  0.00    -0.000 C 
BRANCH   7   8
ATOM      8  C   UNL     1      10.704  61.589  31.594  1.00  0.00    -0.000 C 
BRANCH   8   9
ATOM      9  C   UNL     1      11.198  60.189  32.006  1.00  0.00    -0.000 C 
BRANCH   9  10
ATOM     10  C   UNL     1      11.860  60.112  33.397  1.00  0.00    -0.000 C 
BRANCH  10  11
ATOM     11  C   UNL     1      13.366  59.799  33.380  1.00  0.00    -0.003 C 
ATOM     12  C   UNL     1      14.130  60.475  34.517  1.00  0.00     0.004 C 
ENDBRANCH  10  11
ENDBRANCH   9  10
ENDBRANCH   8   9
ENDBRANCH   7   8
ENDBRANCH   6   7
ENDBRANCH   5   6
ENDBRANCH   4   5
ENDBRANCH   3   4
ENDBRANCH   2   3
ENDBRANCH   1   2
BRANCH   1  13
ATOM     13  C   UNL     1      14.861  66.215  32.609  1.00  0.00     0.000 C 
BRANCH  13  14
ATOM     14  C   UNL     1      15.294  67.487  33.373  1.00  0.00     0.000 C 
BRANCH  14  15
ATOM     15  C   UNL     1      15.324  68.753  32.496  1.00  0.00     0.000 C 
BRANCH  15  16
ATOM     16  C   UNL     1      16.457  69.738  32.833  1.00  0.00     0.000 C 
BRANCH  16  17
ATOM     17  C   UNL     1      17.589  69.086  33.640  1.00  0.00     0.000 C 
BRANCH  17  18
ATOM     18  C   UNL     1      17.784  69.802  34.985  1.00  0.00     0.000 C 
BRANCH  18  19
ATOM     19  C   UNL     1      18.776  69.078  35.914  1.00  0.00     0.000 C 
BRANCH  19  20
ATOM     20  C   UNL     1      18.602  69.380  37.413  1.00  0.00     0.006 C 
BRANCH  20  21
ATOM     21  C   UNL     1      19.510  68.523  38.306  1.00  0.00     0.053 C 
BRANCH  21  22
ATOM     22  C   UNL     1      18.769  68.067  39.523  1.00  0.00     0.041 C 
ATOM     23  O   UNL     1      19.258  68.255  40.669  1.00  0.00    -0.550 OA
ATOM     24  O   UNL     1      17.521  67.470  39.396  1.00  0.00    -0.550 OA
ENDBRANCH  21  22
ENDBRANCH  20  21
ENDBRANCH  19  20
ENDBRANCH  18  19
ENDBRANCH  17  18
ENDBRANCH  16  17
ENDBRANCH  15  16
ENDBRANCH  14  15
ENDBRANCH  13  14
ENDBRANCH   1  13
TORSDOF 20
ENDMDL
MODEL 4
REMARK VINA RESULT:    -4.406      4.074      8.664
REMARK INTER + INTRA:         -12.520
REMARK INTER:                 -10.397
REMARK INTRA:                  -2.123
REMARK UNBOUND:                -2.963
REMARK SMILES CCCCCCCCCCCCCCCCCCCCCC(=O)[O-]
REMARK SMILES IDX 12 1 11 2 10 3 9 4 8 5 7 6 6 7 5 8 4 9 3 10 2 11 1 12 13 13
REMARK SMILES IDX 14 14 15 15 16 16 17 17 18 18 19 19 20 20 21 21 22 22 23 23
REMARK SMILES IDX 24 24
REMARK H PARENT
REMARK Flexibility Score: inf
ROOT
ATOM      1  C   UNL     1      17.868  69.915  35.195  1.00  0.00     0.000 C 
ENDROOT
BRANCH   1   2
ATOM      2  C   UNL     1      17.772  68.381  35.265  1.00  0.00     0.000 C 
BRANCH   2   3
ATOM      3  C   UNL     1      17.098  67.884  36.558  1.00  0.00     0.000 C 
BRANCH   3   4
ATOM      4  C   UNL     1      16.610  66.424  36.514  1.00  0.00    -0.000 C 
BRANCH   4   5
ATOM      5  C   UNL     1      17.381  65.505  37.472  1.00  0.00    -0.000 C 
BRANCH   5   6
ATOM      6  C   UNL     1      18.868  65.887  37.525  1.00  0.00    -0.000 C 
BRANCH   6   7
ATOM      7  C   UNL     1      19.681  64.993  38.480  1.00  0.00    -0.000 C 
BRANCH   7   8
ATOM      8  C   UNL     1      20.568  65.756  39.485  1.00  0.00    -0.000 C 
BRANCH   8   9
ATOM      9  C   UNL     1      19.813  66.391  40.668  1.00  0.00    -0.000 C 
BRANCH   9  10
ATOM     10  C   UNL     1      19.920  67.927  40.762  1.00  0.00    -0.000 C 
BRANCH  10  11
ATOM     11  C   UNL     1      19.284  68.693  39.588  1.00  0.00    -0.003 C 
ATOM     12  C   UNL     1      17.814  69.034  39.824  1.00  0.00     0.004 C 
ENDBRANCH  10  11
ENDBRANCH   9  10
ENDBRANCH   8   9
ENDBRANCH   7   8
ENDBRANCH   6   7
ENDBRANCH   5   6
ENDBRANCH   4   5
ENDBRANCH   3   4
ENDBRANCH   2   3
ENDBRANCH   1   2
BRANCH   1  13
ATOM     13  C   UNL     1      17.095  70.492  33.996  1.00  0.00     0.000 C 
BRANCH  13  14
ATOM     14  C   UNL     1      16.821  69.452  32.886  1.00  0.00     0.000 C 
BRANCH  14  15
ATOM     15  C   UNL     1      15.326  69.134  32.693  1.00  0.00     0.000 C 
BRANCH  15  16
ATOM     16  C   UNL     1      15.034  67.707  32.199  1.00  0.00     0.000 C 
BRANCH  16  17
ATOM     17  C   UNL     1      14.955  66.686  33.343  1.00  0.00     0.000 C 
BRANCH  17  18
ATOM     18  C   UNL     1      15.664  65.379  32.960  1.00  0.00     0.000 C 
BRANCH  18  19
ATOM     19  C   UNL     1      14.710  64.172  32.904  1.00  0.00     0.000 C 
BRANCH  19  20
ATOM     20  C   UNL     1      13.285  64.491  32.420  1.00  0.00     0.006 C 
BRANCH  20  21
ATOM     21  C   UNL     1      12.291  63.355  32.694  1.00  0.00     0.053 C 
BRANCH  21  22
ATOM     22  C   UNL     1      12.164  62.468  31.496  1.00  0.00     0.041 C 
ATOM     23  O   UNL     1      12.640  61.301  31.519  1.00  0.00    -0.550 OA
ATOM     24  O   UNL     1      11.486  62.913  30.368  1.00  0.00    -0.550 OA
ENDBRANCH  21  22
ENDBRANCH  20  21
ENDBRANCH  19  20
ENDBRANCH  18  19
ENDBRANCH  17  18
ENDBRANCH  16  17
ENDBRANCH  15  16
ENDBRANCH  14  15
ENDBRANCH  13  14
ENDBRANCH   1  13
TORSDOF 20
ENDMDL
MODEL 5
REMARK VINA RESULT:    -4.330      4.493      9.085
REMARK INTER + INTRA:         -12.357
REMARK INTER:                 -10.584
REMARK INTRA:                  -1.773
REMARK UNBOUND:                -2.963
REMARK SMILES CCCCCCCCCCCCCCCCCCCCCC(=O)[O-]
REMARK SMILES IDX 12 1 11 2 10 3 9 4 8 5 7 6 6 7 5 8 4 9 3 10 2 11 1 12 13 13
REMARK SMILES IDX 14 14 15 15 16 16 17 17 18 18 19 19 20 20 21 21 22 22 23 23
REMARK SMILES IDX 24 24
REMARK H PARENT
REMARK Flexibility Score: inf
ROOT
ATOM      1  C   UNL     1      17.633  64.990  35.737  1.00  0.00     0.000 C 
ENDROOT
BRANCH   1   2
ATOM      2  C   UNL     1      17.495  64.989  37.269  1.00  0.00     0.000 C 
BRANCH   2   3
ATOM      3  C   UNL     1      16.965  66.325  37.822  1.00  0.00     0.000 C 
BRANCH   3   4
ATOM      4  C   UNL     1      17.855  66.984  38.892  1.00  0.00    -0.000 C 
BRANCH   4   5
ATOM      5  C   UNL     1      18.344  68.382  38.487  1.00  0.00    -0.000 C 
BRANCH   5   6
ATOM      6  C   UNL     1      19.055  68.344  37.126  1.00  0.00    -0.000 C 
BRANCH   6   7
ATOM      7  C   UNL     1      18.580  69.456  36.172  1.00  0.00    -0.000 C 
BRANCH   7   8
ATOM      8  C   UNL     1      17.633  68.986  35.049  1.00  0.00    -0.000 C 
BRANCH   8   9
ATOM      9  C   UNL     1      17.075  70.109  34.155  1.00  0.00    -0.000 C 
BRANCH   9  10
ATOM     10  C   UNL     1      16.647  69.667  32.741  1.00  0.00    -0.000 C 
BRANCH  10  11
ATOM     11  C   UNL     1      15.218  69.104  32.644  1.00  0.00    -0.003 C 
ATOM     12  C   UNL     1      14.721  68.982  31.204  1.00  0.00     0.004 C 
ENDBRANCH  10  11
ENDBRANCH   9  10
ENDBRANCH   8   9
ENDBRANCH   7   8
ENDBRANCH   6   7
ENDBRANCH   5   6
ENDBRANCH   4   5
ENDBRANCH   3   4
ENDBRANCH   2   3
ENDBRANCH   1   2
BRANCH   1  13
ATOM     13  C   UNL     1      16.512  65.794  35.053  1.00  0.00     0.000 C 
BRANCH  13  14
ATOM     14  C   UNL     1      16.358  65.472  33.549  1.00  0.00     0.000 C 
BRANCH  14  15
ATOM     15  C   UNL     1      14.894  65.458  33.069  1.00  0.00     0.000 C 
BRANCH  15  16
ATOM     16  C   UNL     1      14.290  64.052  32.902  1.00  0.00     0.000 C 
BRANCH  16  17
ATOM     17  C   UNL     1      12.786  64.086  32.592  1.00  0.00     0.000 C 
BRANCH  17  18
ATOM     18  C   UNL     1      12.039  63.009  33.394  1.00  0.00     0.000 C 
BRANCH  18  19
ATOM     19  C   UNL     1      11.172  62.095  32.509  1.00  0.00     0.000 C 
BRANCH  19  20
ATOM     20  C   UNL     1      11.742  60.685  32.274  1.00  0.00     0.006 C 
BRANCH  20  21
ATOM     21  C   UNL     1      10.762  59.570  32.662  1.00  0.00     0.053 C 
BRANCH  21  22
ATOM     22  C   UNL     1       9.696  59.423  31.623  1.00  0.00     0.041 C 
ATOM     23  O   UNL     1       9.941  58.819  30.545  1.00  0.00    -0.550 OA
ATOM     24  O   UNL     1       8.420  59.918  31.860  1.00  0.00    -0.550 OA
ENDBRANCH  21  22
ENDBRANCH  20  21
ENDBRANCH  19  20
ENDBRANCH  18  19
ENDBRANCH  17  18
ENDBRANCH  16  17
ENDBRANCH  15  16
ENDBRANCH  14  15
ENDBRANCH  13  14
ENDBRANCH   1  13
TORSDOF 20
ENDMDL
MODEL 6
REMARK VINA RESULT:    -4.325      3.604      8.625
REMARK INTER + INTRA:         -12.344
REMARK INTER:                 -10.386
REMARK INTRA:                  -1.959
REMARK UNBOUND:                -2.963
REMARK SMILES CCCCCCCCCCCCCCCCCCCCCC(=O)[O-]
REMARK SMILES IDX 12 1 11 2 10 3 9 4 8 5 7 6 6 7 5 8 4 9 3 10 2 11 1 12 13 13
REMARK SMILES IDX 14 14 15 15 16 16 17 17 18 18 19 19 20 20 21 21 22 22 23 23
REMARK SMILES IDX 24 24
REMARK H PARENT
REMARK Flexibility Score: inf
ROOT
ATOM      1  C   UNL     1      15.158  67.531  32.266  1.00  0.00     0.000 C 
ENDROOT
BRANCH   1   2
ATOM      2  C   UNL     1      15.091  69.046  32.523  1.00  0.00     0.000 C 
BRANCH   2   3
ATOM      3  C   UNL     1      16.479  69.714  32.523  1.00  0.00     0.000 C 
BRANCH   3   4
ATOM      4  C   UNL     1      17.020  70.089  33.916  1.00  0.00    -0.000 C 
BRANCH   4   5
ATOM      5  C   UNL     1      17.951  69.020  34.505  1.00  0.00    -0.000 C 
BRANCH   5   6
ATOM      6  C   UNL     1      17.782  68.922  36.029  1.00  0.00    -0.000 C 
BRANCH   6   7
ATOM      7  C   UNL     1      19.124  68.967  36.783  1.00  0.00    -0.000 C 
BRANCH   7   8
ATOM      8  C   UNL     1      19.009  68.885  38.318  1.00  0.00    -0.000 C 
BRANCH   8   9
ATOM      9  C   UNL     1      19.102  67.463  38.904  1.00  0.00    -0.000 C 
BRANCH   9  10
ATOM     10  C   UNL     1      17.753  66.835  39.310  1.00  0.00    -0.000 C 
BRANCH  10  11
ATOM     11  C   UNL     1      17.038  66.058  38.191  1.00  0.00    -0.003 C 
ATOM     12  C   UNL     1      18.005  65.330  37.258  1.00  0.00     0.004 C 
ENDBRANCH  10  11
ENDBRANCH   9  10
ENDBRANCH   8   9
ENDBRANCH   7   8
ENDBRANCH   6   7
ENDBRANCH   5   6
ENDBRANCH   4   5
ENDBRANCH   3   4
ENDBRANCH   2   3
ENDBRANCH   1   2
BRANCH   1  13
ATOM     13  C   UNL     1      15.026  66.715  33.565  1.00  0.00     0.000 C 
BRANCH  13  14
ATOM     14  C   UNL     1      14.389  65.323  33.351  1.00  0.00     0.000 C 
BRANCH  14  15
ATOM     15  C   UNL     1      15.403  64.237  32.940  1.00  0.00     0.000 C 
BRANCH  15  16
ATOM     16  C   UNL     1      15.264  63.750  31.487  1.00  0.00     0.000 C 
BRANCH  16  17
ATOM     17  C   UNL     1      14.451  62.452  31.372  1.00  0.00     0.000 C 
BRANCH  17  18
ATOM     18  C   UNL     1      13.289  62.621  30.382  1.00  0.00     0.000 C 
BRANCH  18  19
ATOM     19  C   UNL     1      12.073  63.337  30.998  1.00  0.00     0.000 C 
BRANCH  19  20
ATOM     20  C   UNL     1      11.728  62.912  32.437  1.00  0.00     0.006 C 
BRANCH  20  21
ATOM     21  C   UNL     1      10.876  61.637  32.497  1.00  0.00     0.053 C 
BRANCH  21  22
ATOM     22  C   UNL     1      11.710  60.468  32.916  1.00  0.00     0.041 C 
ATOM     23  O   UNL     1      12.456  60.554  33.928  1.00  0.00    -0.550 OA
ATOM     24  O   UNL     1      11.635  59.271  32.215  1.00  0.00    -0.550 OA
ENDBRANCH  21  22
ENDBRANCH  20  21
ENDBRANCH  19  20
ENDBRANCH  18  19
ENDBRANCH  17  18
ENDBRANCH  16  17
ENDBRANCH  15  16
ENDBRANCH  14  15
ENDBRANCH  13  14
ENDBRANCH   1  13
TORSDOF 20
ENDMDL
MODEL 7
REMARK VINA RESULT:    -4.309      3.364      6.579
REMARK INTER + INTRA:         -12.311
REMARK INTER:                  -9.221
REMARK INTRA:                  -3.090
REMARK UNBOUND:                -2.963
REMARK SMILES CCCCCCCCCCCCCCCCCCCCCC(=O)[O-]
REMARK SMILES IDX 12 1 11 2 10 3 9 4 8 5 7 6 6 7 5 8 4 9 3 10 2 11 1 12 13 13
REMARK SMILES IDX 14 14 15 15 16 16 17 17 18 18 19 19 20 20 21 21 22 22 23 23
REMARK SMILES IDX 24 24
REMARK H PARENT
REMARK Flexibility Score: inf
ROOT
ATOM      1  C   UNL     1      18.489  69.308  37.143  1.00  0.00     0.000 C 
ENDROOT
BRANCH   1   2
ATOM      2  C   UNL     1      18.464  69.504  35.618  1.00  0.00     0.000 C 
BRANCH   2   3
ATOM      3  C   UNL     1      17.141  69.042  34.978  1.00  0.00     0.000 C 
BRANCH   3   4
ATOM      4  C   UNL     1      16.862  69.617  33.577  1.00  0.00    -0.000 C 
BRANCH   4   5
ATOM      5  C   UNL     1      15.681  68.933  32.873  1.00  0.00    -0.000 C 
BRANCH   5   6
ATOM      6  C   UNL     1      15.367  67.575  33.516  1.00  0.00    -0.000 C 
BRANCH   6   7
ATOM      7  C   UNL     1      14.926  66.514  32.490  1.00  0.00    -0.000 C 
BRANCH   7   8
ATOM      8  C   UNL     1      14.384  65.206  33.100  1.00  0.00    -0.000 C 
BRANCH   8   9
ATOM      9  C   UNL     1      14.989  63.916  32.514  1.00  0.00    -0.000 C 
BRANCH   9  10
ATOM     10  C   UNL     1      16.031  64.130  31.398  1.00  0.00    -0.000 C 
BRANCH  10  11
ATOM     11  C   UNL     1      17.331  63.324  31.562  1.00  0.00    -0.003 C 
ATOM     12  C   UNL     1      17.169  62.109  32.474  1.00  0.00     0.004 C 
ENDBRANCH  10  11
ENDBRANCH   9  10
ENDBRANCH   8   9
ENDBRANCH   7   8
ENDBRANCH   6   7
ENDBRANCH   5   6
ENDBRANCH   4   5
ENDBRANCH   3   4
ENDBRANCH   2   3
ENDBRANCH   1   2
BRANCH   1  13
ATOM     13  C   UNL     1      19.677  68.442  37.599  1.00  0.00     0.000 C 
BRANCH  13  14
ATOM     14  C   UNL     1      19.393  66.924  37.520  1.00  0.00     0.000 C 
BRANCH  14  15
ATOM     15  C   UNL     1      18.097  66.501  38.239  1.00  0.00     0.000 C 
BRANCH  15  16
ATOM     16  C   UNL     1      16.988  65.984  37.306  1.00  0.00     0.000 C 
BRANCH  16  17
ATOM     17  C   UNL     1      17.494  65.696  35.885  1.00  0.00     0.000 C 
BRANCH  17  18
ATOM     18  C   UNL     1      17.183  64.249  35.477  1.00  0.00     0.000 C 
BRANCH  18  19
ATOM     19  C   UNL     1      18.223  63.240  35.997  1.00  0.00     0.000 C 
BRANCH  19  20
ATOM     20  C   UNL     1      19.691  63.644  35.770  1.00  0.00     0.006 C 
BRANCH  20  21
ATOM     21  C   UNL     1      20.293  63.025  34.501  1.00  0.00     0.053 C 
BRANCH  21  22
ATOM     22  C   UNL     1      20.752  61.626  34.767  1.00  0.00     0.041 C 
ATOM     23  O   UNL     1      21.571  61.394  35.696  1.00  0.00    -0.550 OA
ATOM     24  O   UNL     1      20.248  60.573  34.014  1.00  0.00    -0.550 OA
ENDBRANCH  21  22
ENDBRANCH  20  21
ENDBRANCH  19  20
ENDBRANCH  18  19
ENDBRANCH  17  18
ENDBRANCH  16  17
ENDBRANCH  15  16
ENDBRANCH  14  15
ENDBRANCH  13  14
ENDBRANCH   1  13
TORSDOF 20
ENDMDL
MODEL 8
REMARK VINA RESULT:    -4.301      3.591      7.930
REMARK INTER + INTRA:         -12.293
REMARK INTER:                  -9.696
REMARK INTRA:                  -2.597
REMARK UNBOUND:                -2.963
REMARK SMILES CCCCCCCCCCCCCCCCCCCCCC(=O)[O-]
REMARK SMILES IDX 12 1 11 2 10 3 9 4 8 5 7 6 6 7 5 8 4 9 3 10 2 11 1 12 13 13
REMARK SMILES IDX 14 14 15 15 16 16 17 17 18 18 19 19 20 20 21 21 22 22 23 23
REMARK SMILES IDX 24 24
REMARK H PARENT
REMARK Flexibility Score: inf
ROOT
ATOM      1  C   UNL     1      19.726  64.632  38.517  1.00  0.00     0.000 C 
ENDROOT
BRANCH   1   2
ATOM      2  C   UNL     1      20.384  66.020  38.449  1.00  0.00     0.000 C 
BRANCH   2   3
ATOM      3  C   UNL     1      19.850  66.988  39.523  1.00  0.00     0.000 C 
BRANCH   3   4
ATOM      4  C   UNL     1      19.483  68.391  39.006  1.00  0.00    -0.000 C 
BRANCH   4   5
ATOM      5  C   UNL     1      19.519  68.495  37.475  1.00  0.00    -0.000 C 
BRANCH   5   6
ATOM      6  C   UNL     1      18.154  68.926  36.919  1.00  0.00    -0.000 C 
BRANCH   6   7
ATOM      7  C   UNL     1      17.156  67.758  36.812  1.00  0.00    -0.000 C 
BRANCH   7   8
ATOM      8  C   UNL     1      16.158  67.862  35.641  1.00  0.00    -0.000 C 
BRANCH   8   9
ATOM      9  C   UNL     1      16.799  67.909  34.241  1.00  0.00    -0.000 C 
BRANCH   9  10
ATOM     10  C   UNL     1      16.473  69.170  33.415  1.00  0.00    -0.000 C 
BRANCH  10  11
ATOM     11  C   UNL     1      15.342  68.996  32.387  1.00  0.00    -0.003 C 
ATOM     12  C   UNL     1      14.907  67.541  32.219  1.00  0.00     0.004 C 
ENDBRANCH  10  11
ENDBRANCH   9  10
ENDBRANCH   8   9
ENDBRANCH   7   8
ENDBRANCH   6   7
ENDBRANCH   5   6
ENDBRANCH   4   5
ENDBRANCH   3   4
ENDBRANCH   2   3
ENDBRANCH   1   2
BRANCH   1  13
ATOM     13  C   UNL     1      18.190  64.713  38.445  1.00  0.00     0.000 C 
BRANCH  13  14
ATOM     14  C   UNL     1      17.601  64.059  37.174  1.00  0.00     0.000 C 
BRANCH  14  15
ATOM     15  C   UNL     1      18.297  64.504  35.873  1.00  0.00     0.000 C 
BRANCH  15  16
ATOM     16  C   UNL     1      17.960  63.644  34.642  1.00  0.00     0.000 C 
BRANCH  16  17
ATOM     17  C   UNL     1      17.328  64.459  33.504  1.00  0.00     0.000 C 
BRANCH  17  18
ATOM     18  C   UNL     1      15.878  64.019  33.258  1.00  0.00     0.000 C 
BRANCH  18  19
ATOM     19  C   UNL     1      15.644  63.491  31.830  1.00  0.00     0.000 C 
BRANCH  19  20
ATOM     20  C   UNL     1      14.170  63.245  31.461  1.00  0.00     0.006 C 
BRANCH  20  21
ATOM     21  C   UNL     1      13.198  64.128  32.253  1.00  0.00     0.053 C 
BRANCH  21  22
ATOM     22  C   UNL     1      12.028  63.325  32.728  1.00  0.00     0.041 C 
ATOM     23  O   UNL     1      11.887  63.077  33.955  1.00  0.00    -0.550 OA
ATOM     24  O   UNL     1      11.072  62.884  31.822  1.00  0.00    -0.550 OA
ENDBRANCH  21  22
ENDBRANCH  20  21
ENDBRANCH  19  20
ENDBRANCH  18  19
ENDBRANCH  17  18
ENDBRANCH  16  17
ENDBRANCH  15  16
ENDBRANCH  14  15
ENDBRANCH  13  14
ENDBRANCH   1  13
TORSDOF 20
ENDMDL
MODEL 9
REMARK VINA RESULT:    -4.262      3.432      8.168
REMARK INTER + INTRA:         -12.208
REMARK INTER:                  -9.510
REMARK INTRA:                  -2.698
REMARK UNBOUND:                -2.963
REMARK SMILES CCCCCCCCCCCCCCCCCCCCCC(=O)[O-]
REMARK SMILES IDX 12 1 11 2 10 3 9 4 8 5 7 6 6 7 5 8 4 9 3 10 2 11 1 12 13 13
REMARK SMILES IDX 14 14 15 15 16 16 17 17 18 18 19 19 20 20 21 21 22 22 23 23
REMARK SMILES IDX 24 24
REMARK H PARENT
REMARK Flexibility Score: inf
ROOT
ATOM      1  C   UNL     1      16.724  67.668  34.321  1.00  0.00     0.000 C 
ENDROOT
BRANCH   1   2
ATOM      2  C   UNL     1      16.857  68.624  35.518  1.00  0.00     0.000 C 
BRANCH   2   3
ATOM      3  C   UNL     1      18.212  69.355  35.551  1.00  0.00     0.000 C 
BRANCH   3   4
ATOM      4  C   UNL     1      19.087  69.047  36.781  1.00  0.00    -0.000 C 
BRANCH   4   5
ATOM      5  C   UNL     1      18.265  68.811  38.056  1.00  0.00    -0.000 C 
BRANCH   5   6
ATOM      6  C   UNL     1      18.535  67.415  38.636  1.00  0.00    -0.000 C 
BRANCH   6   7
ATOM      7  C   UNL     1      19.872  66.817  38.158  1.00  0.00    -0.000 C 
BRANCH   7   8
ATOM      8  C   UNL     1      19.743  65.536  37.310  1.00  0.00    -0.000 C 
BRANCH   8   9
ATOM      9  C   UNL     1      18.423  64.764  37.493  1.00  0.00    -0.000 C 
BRANCH   9  10
ATOM     10  C   UNL     1      17.430  64.880  36.318  1.00  0.00    -0.000 C 
BRANCH  10  11
ATOM     11  C   UNL     1      17.302  63.615  35.452  1.00  0.00    -0.003 C 
ATOM     12  C   UNL     1      18.274  63.598  34.272  1.00  0.00     0.004 C 
ENDBRANCH  10  11
ENDBRANCH   9  10
ENDBRANCH   8   9
ENDBRANCH   7   8
ENDBRANCH   6   7
ENDBRANCH   5   6
ENDBRANCH   4   5
ENDBRANCH   3   4
ENDBRANCH   2   3
ENDBRANCH   1   2
BRANCH   1  13
ATOM     13  C   UNL     1      15.284  67.151  34.146  1.00  0.00     0.000 C 
BRANCH  13  14
ATOM     14  C   UNL     1      14.990  66.630  32.721  1.00  0.00     0.000 C 
BRANCH  14  15
ATOM     15  C   UNL     1      14.588  65.143  32.679  1.00  0.00     0.000 C 
BRANCH  15  16
ATOM     16  C   UNL     1      15.591  64.231  31.951  1.00  0.00     0.000 C 
BRANCH  16  17
ATOM     17  C   UNL     1      14.904  63.129  31.132  1.00  0.00     0.000 C 
BRANCH  17  18
ATOM     18  C   UNL     1      15.213  61.742  31.714  1.00  0.00     0.000 C 
BRANCH  18  19
ATOM     19  C   UNL     1      14.884  61.633  33.215  1.00  0.00     0.000 C 
BRANCH  19  20
ATOM     20  C   UNL     1      13.483  61.082  33.535  1.00  0.00     0.006 C 
BRANCH  20  21
ATOM     21  C   UNL     1      12.470  62.182  33.880  1.00  0.00     0.053 C 
BRANCH  21  22
ATOM     22  C   UNL     1      11.552  62.431  32.726  1.00  0.00     0.041 C 
ATOM     23  O   UNL     1      10.753  61.533  32.348  1.00  0.00    -0.550 OA
ATOM     24  O   UNL     1      11.550  63.666  32.091  1.00  0.00    -0.550 OA
ENDBRANCH  21  22
ENDBRANCH  20  21
ENDBRANCH  19  20
ENDBRANCH  18  19
ENDBRANCH  17  18
ENDBRANCH  16  17
ENDBRANCH  15  16
ENDBRANCH  14  15
ENDBRANCH  13  14
ENDBRANCH   1  13
TORSDOF 20
ENDMDL
