MODEL 1
REMARK VINA RESULT:    -1.658      0.000      0.000
REMARK INTER + INTRA:          -5.245
REMARK INTER:                  -4.371
REMARK INTRA:                  -0.874
REMARK UNBOUND:                -0.874
REMARK SMILES CCCCCCCCCCCCCCCCCCCCCCCCCCCCCC(=O)[O-]
REMARK SMILES IDX 16 1 17 2 18 3 19 4 20 5 21 6 22 7 23 8 24 9 25 10 26 11
REMARK SMILES IDX 27 12 28 13 29 14 30 15 31 16 32 17 15 18 14 19 13 20 12 21
REMARK SMILES IDX 11 22 10 23 9 24 8 25 7 26 6 27 5 28 4 29 3 30 2 31 1 32
REMARK H PARENT
REMARK Flexibility Score: inf
ROOT
ATOM      1  C   UNL     1      13.639 -12.591  12.899  1.00  0.00     0.000 C 
ENDROOT
BRANCH   1   2
ATOM      2  C   UNL     1      14.999 -13.169  12.478  1.00  0.00     0.000 C 
BRANCH   2   3
ATOM      3  C   UNL     1      16.124 -12.144  12.694  1.00  0.00     0.000 C 
BRANCH   3   4
ATOM      4  C   UNL     1      15.870 -10.817  11.957  1.00  0.00     0.000 C 
BRANCH   4   5
ATOM      5  C   UNL     1      16.728  -9.636  12.446  1.00  0.00     0.000 C 
BRANCH   5   6
ATOM      6  C   UNL     1      15.957  -8.304  12.456  1.00  0.00     0.000 C 
BRANCH   6   7
ATOM      7  C   UNL     1      14.431  -8.517  12.515  1.00  0.00     0.000 C 
BRANCH   7   8
ATOM      8  C   UNL     1      13.628  -7.224  12.755  1.00  0.00     0.000 C 
BRANCH   8   9
ATOM      9  C   UNL     1      14.403  -5.956  12.364  1.00  0.00     0.000 C 
BRANCH   9  10
ATOM     10  C   UNL     1      14.720  -5.047  13.566  1.00  0.00     0.000 C 
BRANCH  10  11
ATOM     11  C   UNL     1      14.150  -5.518  14.922  1.00  0.00     0.000 C 
BRANCH  11  12
ATOM     12  C   UNL     1      15.053  -5.258  16.142  1.00  0.00     0.000 C 
BRANCH  12  13
ATOM     13  C   UNL     1      16.526  -5.601  15.876  1.00  0.00     0.006 C 
BRANCH  13  14
ATOM     14  C   UNL     1      17.318  -5.669  17.187  1.00  0.00     0.053 C 
BRANCH  14  15
ATOM     15  C   UNL     1      16.407  -5.946  18.341  1.00  0.00     0.041 C 
ATOM     16  O   UNL     1      15.718  -7.000  18.366  1.00  0.00    -0.550 OA
ATOM     17  O   UNL     1      16.288  -5.020  19.371  1.00  0.00    -0.550 OA
ENDBRANCH  14  15
ENDBRANCH  13  14
ENDBRANCH  12  13
ENDBRANCH  11  12
ENDBRANCH  10  11
ENDBRANCH   9  10
ENDBRANCH   8   9
ENDBRANCH   7   8
ENDBRANCH   6   7
ENDBRANCH   5   6
ENDBRANCH   4   5
ENDBRANCH   3   4
ENDBRANCH   2   3
ENDBRANCH   1   2
BRANCH   1  18
ATOM     18  C   UNL     1      12.461 -13.242  12.155  1.00  0.00     0.000 C 
BRANCH  18  19
ATOM     19  C   UNL     1      11.258 -12.292  12.011  1.00  0.00     0.000 C 
BRANCH  19  20
ATOM     20  C   UNL     1       9.917 -13.041  11.901  1.00  0.00     0.000 C 
BRANCH  20  21
ATOM     21  C   UNL     1       8.658 -12.155  12.010  1.00  0.00     0.000 C 
BRANCH  21  22
ATOM     22  C   UNL     1       7.335 -12.913  12.222  1.00  0.00     0.000 C 
BRANCH  22  23
ATOM     23  C   UNL     1       7.035 -13.179  13.706  1.00  0.00     0.000 C 
BRANCH  23  24
ATOM     24  C   UNL     1       5.965 -14.266  13.915  1.00  0.00    -0.000 C 
BRANCH  24  25
ATOM     25  C   UNL     1       4.601 -13.986  13.249  1.00  0.00    -0.000 C 
BRANCH  25  26
ATOM     26  C   UNL     1       4.393 -14.649  11.875  1.00  0.00    -0.000 C 
BRANCH  26  27
ATOM     27  C   UNL     1       4.332 -16.181  11.952  1.00  0.00    -0.000 C 
BRANCH  27  28
ATOM     28  C   UNL     1       5.653 -16.759  12.483  1.00  0.00    -0.000 C 
BRANCH  28  29
ATOM     29  C   UNL     1       5.511 -18.205  12.990  1.00  0.00    -0.000 C 
BRANCH  29  30
ATOM     30  C   UNL     1       5.443 -19.279  11.884  1.00  0.00    -0.000 C 
BRANCH  30  31
ATOM     31  C   UNL     1       6.425 -20.451  12.057  1.00  0.00    -0.003 C 
ATOM     32  C   UNL     1       7.718 -20.043  12.763  1.00  0.00     0.004 C 
ENDBRANCH  30  31
ENDBRANCH  29  30
ENDBRANCH  28  29
ENDBRANCH  27  28
ENDBRANCH  26  27
ENDBRANCH  25  26
ENDBRANCH  24  25
ENDBRANCH  23  24
ENDBRANCH  22  23
ENDBRANCH  21  22
ENDBRANCH  20  21
ENDBRANCH  19  20
ENDBRANCH  18  19
ENDBRANCH   1  18
TORSDOF 28
ENDMDL
MODEL 2
REMARK VINA RESULT:    -1.268      4.243     12.371
REMARK INTER + INTRA:          -4.218
REMARK INTER:                  -3.628
REMARK INTRA:                  -0.590
REMARK UNBOUND:                -0.874
REMARK SMILES CCCCCCCCCCCCCCCCCCCCCCCCCCCCCC(=O)[O-]
REMARK SMILES IDX 16 1 17 2 18 3 19 4 20 5 21 6 22 7 23 8 24 9 25 10 26 11
REMARK SMILES IDX 27 12 28 13 29 14 30 15 31 16 32 17 15 18 14 19 13 20 12 21
REMARK SMILES IDX 11 22 10 23 9 24 8 25 7 26 6 27 5 28 4 29 3 30 2 31 1 32
REMARK H PARENT
REMARK Flexibility Score: inf
ROOT
ATOM      1  C   UNL     1      16.478 -11.134  13.366  1.00  0.00     0.000 C 
ENDROOT
BRANCH   1   2
ATOM      2  C   UNL     1      15.963 -12.003  12.209  1.00  0.00     0.000 C 
BRANCH   2   3
ATOM      3  C   UNL     1      14.482 -11.708  11.915  1.00  0.00     0.000 C 
BRANCH   3   4
ATOM      4  C   UNL     1      13.977 -10.438  12.622  1.00  0.00     0.000 C 
BRANCH   4   5
ATOM      5  C   UNL     1      12.517 -10.512  13.108  1.00  0.00     0.000 C 
BRANCH   5   6
ATOM      6  C   UNL     1      11.530 -10.846  11.976  1.00  0.00     0.000 C 
BRANCH   6   7
ATOM      7  C   UNL     1      11.222 -12.355  11.899  1.00  0.00     0.000 C 
BRANCH   7   8
ATOM      8  C   UNL     1       9.976 -12.781  12.699  1.00  0.00     0.000 C 
BRANCH   8   9
ATOM      9  C   UNL     1       8.681 -12.703  11.875  1.00  0.00     0.000 C 
BRANCH   9  10
ATOM     10  C   UNL     1       7.416 -12.592  12.749  1.00  0.00     0.000 C 
BRANCH  10  11
ATOM     11  C   UNL     1       6.314 -13.633  12.453  1.00  0.00     0.000 C 
BRANCH  11  12
ATOM     12  C   UNL     1       5.721 -14.333  13.690  1.00  0.00     0.000 C 
BRANCH  12  13
ATOM     13  C   UNL     1       4.662 -15.385  13.328  1.00  0.00     0.006 C 
BRANCH  13  14
ATOM     14  C   UNL     1       5.068 -16.162  12.071  1.00  0.00     0.053 C 
BRANCH  14  15
ATOM     15  C   UNL     1       5.703 -17.466  12.439  1.00  0.00     0.041 C 
ATOM     16  O   UNL     1       6.954 -17.549  12.566  1.00  0.00    -0.550 OA
ATOM     17  O   UNL     1       4.916 -18.601  12.601  1.00  0.00    -0.550 OA
ENDBRANCH  14  15
ENDBRANCH  13  14
ENDBRANCH  12  13
ENDBRANCH  11  12
ENDBRANCH  10  11
ENDBRANCH   9  10
ENDBRANCH   8   9
ENDBRANCH   7   8
ENDBRANCH   6   7
ENDBRANCH   5   6
ENDBRANCH   4   5
ENDBRANCH   3   4
ENDBRANCH   2   3
ENDBRANCH   1   2
BRANCH   1  18
ATOM     18  C   UNL     1      17.652 -10.231  12.954  1.00  0.00     0.000 C 
BRANCH  18  19
ATOM     19  C   UNL     1      17.209  -8.787  12.655  1.00  0.00     0.000 C 
BRANCH  19  20
ATOM     20  C   UNL     1      18.387  -7.796  12.624  1.00  0.00     0.000 C 
BRANCH  20  21
ATOM     21  C   UNL     1      17.993  -6.305  12.670  1.00  0.00     0.000 C 
BRANCH  21  22
ATOM     22  C   UNL     1      16.680  -5.949  11.947  1.00  0.00     0.000 C 
BRANCH  22  23
ATOM     23  C   UNL     1      15.501  -5.764  12.915  1.00  0.00     0.000 C 
BRANCH  23  24
ATOM     24  C   UNL     1      15.166  -4.284  13.175  1.00  0.00    -0.000 C 
BRANCH  24  25
ATOM     25  C   UNL     1      13.678  -3.905  13.012  1.00  0.00    -0.000 C 
BRANCH  25  26
ATOM     26  C   UNL     1      12.814  -4.080  14.274  1.00  0.00    -0.000 C 
BRANCH  26  27
ATOM     27  C   UNL     1      13.343  -5.171  15.216  1.00  0.00    -0.000 C 
BRANCH  27  28
ATOM     28  C   UNL     1      14.541  -4.660  16.032  1.00  0.00    -0.000 C 
BRANCH  28  29
ATOM     29  C   UNL     1      14.303  -4.735  17.551  1.00  0.00    -0.000 C 
BRANCH  29  30
ATOM     30  C   UNL     1      15.582  -4.687  18.413  1.00  0.00    -0.000 C 
BRANCH  30  31
ATOM     31  C   UNL     1      16.844  -5.244  17.730  1.00  0.00    -0.003 C 
ATOM     32  C   UNL     1      16.851  -6.771  17.648  1.00  0.00     0.004 C 
ENDBRANCH  30  31
ENDBRANCH  29  30
ENDBRANCH  28  29
ENDBRANCH  27  28
ENDBRANCH  26  27
ENDBRANCH  25  26
ENDBRANCH  24  25
ENDBRANCH  23  24
ENDBRANCH  22  23
ENDBRANCH  21  22
ENDBRANCH  20  21
ENDBRANCH  19  20
ENDBRANCH  18  19
ENDBRANCH   1  18
TORSDOF 28
ENDMDL
MODEL 3
REMARK VINA RESULT:    -0.962      2.800      4.511
REMARK INTER + INTRA:          -3.410
REMARK INTER:                  -2.056
REMARK INTRA:                  -1.353
REMARK UNBOUND:                -0.874
REMARK SMILES CCCCCCCCCCCCCCCCCCCCCCCCCCCCCC(=O)[O-]
REMARK SMILES IDX 16 1 17 2 18 3 19 4 20 5 21 6 22 7 23 8 24 9 25 10 26 11
REMARK SMILES IDX 27 12 28 13 29 14 30 15 31 16 32 17 15 18 14 19 13 20 12 21
REMARK SMILES IDX 11 22 10 23 9 24 8 25 7 26 6 27 5 28 4 29 3 30 2 31 1 32
REMARK H PARENT
REMARK Flexibility Score: inf
ROOT
ATOM      1  C   UNL     1      11.086 -11.350  12.742  1.00  0.00     0.000 C 
ENDROOT
BRANCH   1   2
ATOM      2  C   UNL     1      11.661 -10.187  11.920  1.00  0.00     0.000 C 
BRANCH   2   3
ATOM      3  C   UNL     1      12.716  -9.410  12.726  1.00  0.00     0.000 C 
BRANCH   3   4
ATOM      4  C   UNL     1      13.932  -9.002  11.875  1.00  0.00     0.000 C 
BRANCH   4   5
ATOM      5  C   UNL     1      14.439  -7.570  12.126  1.00  0.00     0.000 C 
BRANCH   5   6
ATOM      6  C   UNL     1      14.159  -7.082  13.558  1.00  0.00     0.000 C 
BRANCH   6   7
ATOM      7  C   UNL     1      15.366  -6.340  14.167  1.00  0.00     0.000 C 
BRANCH   7   8
ATOM      8  C   UNL     1      16.585  -6.254  13.229  1.00  0.00     0.000 C 
BRANCH   8   9
ATOM      9  C   UNL     1      17.919  -6.474  13.960  1.00  0.00     0.000 C 
BRANCH   9  10
ATOM     10  C   UNL     1      18.239  -7.962  14.200  1.00  0.00     0.000 C 
BRANCH  10  11
ATOM     11  C   UNL     1      18.337  -8.832  12.927  1.00  0.00     0.000 C 
BRANCH  11  12
ATOM     12  C   UNL     1      17.008  -9.438  12.440  1.00  0.00     0.000 C 
BRANCH  12  13
ATOM     13  C   UNL     1      16.987 -10.971  12.520  1.00  0.00     0.006 C 
BRANCH  13  14
ATOM     14  C   UNL     1      15.631 -11.526  12.070  1.00  0.00     0.053 C 
BRANCH  14  15
ATOM     15  C   UNL     1      15.355 -12.843  12.725  1.00  0.00     0.041 C 
ATOM     16  O   UNL     1      16.265 -13.437  13.363  1.00  0.00    -0.550 OA
ATOM     17  O   UNL     1      14.104 -13.435  12.597  1.00  0.00    -0.550 OA
ENDBRANCH  14  15
ENDBRANCH  13  14
ENDBRANCH  12  13
ENDBRANCH  11  12
ENDBRANCH  10  11
ENDBRANCH   9  10
ENDBRANCH   8   9
ENDBRANCH   7   8
ENDBRANCH   6   7
ENDBRANCH   5   6
ENDBRANCH   4   5
ENDBRANCH   3   4
ENDBRANCH   2   3
ENDBRANCH   1   2
BRANCH   1  18
ATOM     18  C   UNL     1      10.184 -12.276  11.911  1.00  0.00     0.000 C 
BRANCH  18  19
ATOM     19  C   UNL     1       8.718 -11.805  11.884  1.00  0.00     0.000 C 
BRANCH  19  20
ATOM     20  C   UNL     1       7.931 -12.230  13.137  1.00  0.00     0.000 C 
BRANCH  20  21
ATOM     21  C   UNL     1       7.222 -13.597  13.034  1.00  0.00     0.000 C 
BRANCH  21  22
ATOM     22  C   UNL     1       6.217 -13.732  11.875  1.00  0.00     0.000 C 
BRANCH  22  23
ATOM     23  C   UNL     1       4.882 -14.353  12.316  1.00  0.00     0.000 C 
BRANCH  23  24
ATOM     24  C   UNL     1       4.853 -14.707  13.815  1.00  0.00    -0.000 C 
BRANCH  24  25
ATOM     25  C   UNL     1       4.954 -16.212  14.140  1.00  0.00    -0.000 C 
BRANCH  25  26
ATOM     26  C   UNL     1       5.701 -17.061  13.095  1.00  0.00    -0.000 C 
BRANCH  26  27
ATOM     27  C   UNL     1       4.807 -18.117  12.430  1.00  0.00    -0.000 C 
BRANCH  27  28
ATOM     28  C   UNL     1       5.612 -19.377  12.078  1.00  0.00    -0.000 C 
BRANCH  28  29
ATOM     29  C   UNL     1       7.013 -19.388  12.714  1.00  0.00    -0.000 C 
BRANCH  29  30
ATOM     30  C   UNL     1       7.707 -20.766  12.737  1.00  0.00    -0.000 C 
BRANCH  30  31
ATOM     31  C   UNL     1       6.805 -21.938  13.165  1.00  0.00    -0.003 C 
ATOM     32  C   UNL     1       7.188 -22.517  14.527  1.00  0.00     0.004 C 
ENDBRANCH  30  31
ENDBRANCH  29  30
ENDBRANCH  28  29
ENDBRANCH  27  28
ENDBRANCH  26  27
ENDBRANCH  25  26
ENDBRANCH  24  25
ENDBRANCH  23  24
ENDBRANCH  22  23
ENDBRANCH  21  22
ENDBRANCH  20  21
ENDBRANCH  19  20
ENDBRANCH  18  19
ENDBRANCH   1  18
TORSDOF 28
ENDMDL
MODEL 4
REMARK VINA RESULT:    -0.745      4.449     12.522
REMARK INTER + INTRA:          -2.839
REMARK INTER:                  -3.667
REMARK INTRA:                   0.828
REMARK UNBOUND:                -0.874
REMARK SMILES CCCCCCCCCCCCCCCCCCCCCCCCCCCCCC(=O)[O-]
REMARK SMILES IDX 16 1 17 2 18 3 19 4 20 5 21 6 22 7 23 8 24 9 25 10 26 11
REMARK SMILES IDX 27 12 28 13 29 14 30 15 31 16 32 17 15 18 14 19 13 20 12 21
REMARK SMILES IDX 11 22 10 23 9 24 8 25 7 26 6 27 5 28 4 29 3 30 2 31 1 32
REMARK H PARENT
REMARK Flexibility Score: inf
ROOT
ATOM      1  C   UNL     1      14.155  -7.976  12.042  1.00  0.00     0.000 C 
ENDROOT
BRANCH   1   2
ATOM      2  C   UNL     1      13.423  -9.319  11.900  1.00  0.00     0.000 C 
BRANCH   2   3
ATOM      3  C   UNL     1      12.374  -9.496  13.011  1.00  0.00     0.000 C 
BRANCH   3   4
ATOM      4  C   UNL     1      12.412 -10.897  13.646  1.00  0.00     0.000 C 
BRANCH   4   5
ATOM      5  C   UNL     1      13.277 -11.922  12.891  1.00  0.00     0.000 C 
BRANCH   5   6
ATOM      6  C   UNL     1      12.438 -12.993  12.172  1.00  0.00     0.000 C 
BRANCH   6   7
ATOM      7  C   UNL     1      10.949 -12.928  12.568  1.00  0.00     0.000 C 
BRANCH   7   8
ATOM      8  C   UNL     1      10.236 -11.641  12.114  1.00  0.00     0.000 C 
BRANCH   8   9
ATOM      9  C   UNL     1       8.731 -11.842  11.878  1.00  0.00     0.000 C 
BRANCH   9  10
ATOM     10  C   UNL     1       7.995 -12.401  13.110  1.00  0.00     0.000 C 
BRANCH  10  11
ATOM     11  C   UNL     1       6.698 -13.184  12.809  1.00  0.00     0.000 C 
BRANCH  11  12
ATOM     12  C   UNL     1       6.329 -14.268  13.838  1.00  0.00     0.000 C 
BRANCH  12  13
ATOM     13  C   UNL     1       5.417 -15.357  13.255  1.00  0.00     0.006 C 
BRANCH  13  14
ATOM     14  C   UNL     1       4.511 -14.784  12.160  1.00  0.00     0.053 C 
BRANCH  14  15
ATOM     15  C   UNL     1       3.297 -14.146  12.759  1.00  0.00     0.041 C 
ATOM     16  O   UNL     1       2.398 -13.670  12.015  1.00  0.00    -0.550 OA
ATOM     17  O   UNL     1       3.177 -14.040  14.140  1.00  0.00    -0.550 OA
ENDBRANCH  14  15
ENDBRANCH  13  14
ENDBRANCH  12  13
ENDBRANCH  11  12
ENDBRANCH  10  11
ENDBRANCH   9  10
ENDBRANCH   8   9
ENDBRANCH   7   8
ENDBRANCH   6   7
ENDBRANCH   5   6
ENDBRANCH   4   5
ENDBRANCH   3   4
ENDBRANCH   2   3
ENDBRANCH   1   2
BRANCH   1  18
ATOM     18  C   UNL     1      13.498  -7.047  13.076  1.00  0.00     0.000 C 
BRANCH  18  19
ATOM     19  C   UNL     1      14.292  -5.746  13.290  1.00  0.00     0.000 C 
BRANCH  19  20
ATOM     20  C   UNL     1      15.348  -5.505  12.195  1.00  0.00     0.000 C 
BRANCH  20  21
ATOM     21  C   UNL     1      16.638  -4.804  12.669  1.00  0.00     0.000 C 
BRANCH  21  22
ATOM     22  C   UNL     1      17.911  -5.164  11.880  1.00  0.00     0.000 C 
BRANCH  22  23
ATOM     23  C   UNL     1      18.278  -6.652  11.992  1.00  0.00     0.000 C 
BRANCH  23  24
ATOM     24  C   UNL     1      17.320  -7.438  12.908  1.00  0.00    -0.000 C 
BRANCH  24  25
ATOM     25  C   UNL     1      17.546  -8.964  12.944  1.00  0.00    -0.000 C 
BRANCH  25  26
ATOM     26  C   UNL     1      18.098  -9.514  14.272  1.00  0.00    -0.000 C 
BRANCH  26  27
ATOM     27  C   UNL     1      18.525  -8.409  15.247  1.00  0.00    -0.000 C 
BRANCH  27  28
ATOM     28  C   UNL     1      17.429  -7.341  15.384  1.00  0.00    -0.000 C 
BRANCH  28  29
ATOM     29  C   UNL     1      17.329  -6.766  16.809  1.00  0.00    -0.000 C 
BRANCH  29  30
ATOM     30  C   UNL     1      16.187  -5.752  17.023  1.00  0.00    -0.000 C 
BRANCH  30  31
ATOM     31  C   UNL     1      15.820  -5.490  18.494  1.00  0.00    -0.003 C 
ATOM     32  C   UNL     1      16.773  -4.509  19.178  1.00  0.00     0.004 C 
ENDBRANCH  30  31
ENDBRANCH  29  30
ENDBRANCH  28  29
ENDBRANCH  27  28
ENDBRANCH  26  27
ENDBRANCH  25  26
ENDBRANCH  24  25
ENDBRANCH  23  24
ENDBRANCH  22  23
ENDBRANCH  21  22
ENDBRANCH  20  21
ENDBRANCH  19  20
ENDBRANCH  18  19
ENDBRANCH   1  18
TORSDOF 28
ENDMDL
MODEL 5
REMARK VINA RESULT:    -0.359      4.358     11.702
REMARK INTER + INTRA:          -1.821
REMARK INTER:                  -1.094
REMARK INTRA:                  -0.727
REMARK UNBOUND:                -0.874
REMARK SMILES CCCCCCCCCCCCCCCCCCCCCCCCCCCCCC(=O)[O-]
REMARK SMILES IDX 16 1 17 2 18 3 19 4 20 5 21 6 22 7 23 8 24 9 25 10 26 11
REMARK SMILES IDX 27 12 28 13 29 14 30 15 31 16 32 17 15 18 14 19 13 20 12 21
REMARK SMILES IDX 11 22 10 23 9 24 8 25 7 26 6 27 5 28 4 29 3 30 2 31 1 32
REMARK H PARENT
REMARK Flexibility Score: inf
ROOT
ATOM      1  C   UNL     1      17.749 -10.571  15.612  1.00  0.00     0.000 C 
ENDROOT
BRANCH   1   2
ATOM      2  C   UNL     1      17.469 -11.572  14.481  1.00  0.00     0.000 C 
BRANCH   2   3
ATOM      3  C   UNL     1      16.732 -10.895  13.314  1.00  0.00     0.000 C 
BRANCH   3   4
ATOM      4  C   UNL     1      16.377 -11.878  12.184  1.00  0.00     0.000 C 
BRANCH   4   5
ATOM      5  C   UNL     1      16.038 -13.304  12.657  1.00  0.00     0.000 C 
BRANCH   5   6
ATOM      6  C   UNL     1      14.535 -13.619  12.565  1.00  0.00     0.000 C 
BRANCH   6   7
ATOM      7  C   UNL     1      13.729 -12.443  11.977  1.00  0.00     0.000 C 
BRANCH   7   8
ATOM      8  C   UNL     1      12.753 -11.792  12.975  1.00  0.00     0.000 C 
BRANCH   8   9
ATOM      9  C   UNL     1      11.439 -12.575  13.126  1.00  0.00     0.000 C 
BRANCH   9  10
ATOM     10  C   UNL     1      10.543 -12.497  11.875  1.00  0.00     0.000 C 
BRANCH  10  11
ATOM     11  C   UNL     1       9.133 -11.911  12.106  1.00  0.00     0.000 C 
BRANCH  11  12
ATOM     12  C   UNL     1       7.994 -12.944  12.178  1.00  0.00     0.000 C 
BRANCH  12  13
ATOM     13  C   UNL     1       6.994 -12.652  13.306  1.00  0.00     0.006 C 
BRANCH  13  14
ATOM     14  C   UNL     1       6.666 -13.927  14.092  1.00  0.00     0.053 C 
BRANCH  14  15
ATOM     15  C   UNL     1       5.593 -14.710  13.403  1.00  0.00     0.041 C 
ATOM     16  O   UNL     1       4.533 -14.140  13.029  1.00  0.00    -0.550 OA
ATOM     17  O   UNL     1       5.745 -16.078  13.209  1.00  0.00    -0.550 OA
ENDBRANCH  14  15
ENDBRANCH  13  14
ENDBRANCH  12  13
ENDBRANCH  11  12
ENDBRANCH  10  11
ENDBRANCH   9  10
ENDBRANCH   8   9
ENDBRANCH   7   8
ENDBRANCH   6   7
ENDBRANCH   5   6
ENDBRANCH   4   5
ENDBRANCH   3   4
ENDBRANCH   2   3
ENDBRANCH   1   2
BRANCH   1  18
ATOM     18  C   UNL     1      19.120  -9.887  15.474  1.00  0.00     0.000 C 
BRANCH  18  19
ATOM     19  C   UNL     1      19.059  -8.613  14.612  1.00  0.00     0.000 C 
BRANCH  19  20
ATOM     20  C   UNL     1      18.292  -8.820  13.294  1.00  0.00     0.000 C 
BRANCH  20  21
ATOM     21  C   UNL     1      17.445  -7.616  12.831  1.00  0.00     0.000 C 
BRANCH  21  22
ATOM     22  C   UNL     1      15.936  -7.721  13.121  1.00  0.00     0.000 C 
BRANCH  22  23
ATOM     23  C   UNL     1      15.073  -7.092  12.016  1.00  0.00     0.000 C 
BRANCH  23  24
ATOM     24  C   UNL     1      13.987  -6.150  12.568  1.00  0.00    -0.000 C 
BRANCH  24  25
ATOM     25  C   UNL     1      13.843  -6.137  14.105  1.00  0.00    -0.000 C 
BRANCH  25  26
ATOM     26  C   UNL     1      13.936  -4.747  14.760  1.00  0.00    -0.000 C 
BRANCH  26  27
ATOM     27  C   UNL     1      15.019  -4.667  15.845  1.00  0.00    -0.000 C 
BRANCH  27  28
ATOM     28  C   UNL     1      16.180  -5.624  15.536  1.00  0.00    -0.000 C 
BRANCH  28  29
ATOM     29  C   UNL     1      16.588  -6.479  16.749  1.00  0.00    -0.000 C 
BRANCH  29  30
ATOM     30  C   UNL     1      16.027  -5.997  18.103  1.00  0.00    -0.000 C 
BRANCH  30  31
ATOM     31  C   UNL     1      16.831  -4.869  18.773  1.00  0.00    -0.003 C 
ATOM     32  C   UNL     1      16.107  -4.254  19.971  1.00  0.00     0.004 C 
ENDBRANCH  30  31
ENDBRANCH  29  30
ENDBRANCH  28  29
ENDBRANCH  27  28
ENDBRANCH  26  27
ENDBRANCH  25  26
ENDBRANCH  24  25
ENDBRANCH  23  24
ENDBRANCH  22  23
ENDBRANCH  21  22
ENDBRANCH  20  21
ENDBRANCH  19  20
ENDBRANCH  18  19
ENDBRANCH   1  18
TORSDOF 28
ENDMDL
MODEL 6
REMARK VINA RESULT:    -0.339      4.584     13.378
REMARK INTER + INTRA:          -1.767
REMARK INTER:                   0.164
REMARK INTRA:                  -1.931
REMARK UNBOUND:                -0.874
REMARK SMILES CCCCCCCCCCCCCCCCCCCCCCCCCCCCCC(=O)[O-]
REMARK SMILES IDX 16 1 17 2 18 3 19 4 20 5 21 6 22 7 23 8 24 9 25 10 26 11
REMARK SMILES IDX 27 12 28 13 29 14 30 15 31 16 32 17 15 18 14 19 13 20 12 21
REMARK SMILES IDX 11 22 10 23 9 24 8 25 7 26 6 27 5 28 4 29 3 30 2 31 1 32
REMARK H PARENT
REMARK Flexibility Score: inf
ROOT
ATOM      1  C   UNL     1      11.839 -12.798  13.016  1.00  0.00     0.000 C 
ENDROOT
BRANCH   1   2
ATOM      2  C   UNL     1      10.672 -12.772  12.018  1.00  0.00     0.000 C 
BRANCH   2   3
ATOM      3  C   UNL     1       9.709 -11.613  12.325  1.00  0.00     0.000 C 
BRANCH   3   4
ATOM      4  C   UNL     1       8.257 -11.923  11.920  1.00  0.00     0.000 C 
BRANCH   4   5
ATOM      5  C   UNL     1       7.482 -12.794  12.925  1.00  0.00     0.000 C 
BRANCH   5   6
ATOM      6  C   UNL     1       6.555 -13.812  12.238  1.00  0.00     0.000 C 
BRANCH   6   7
ATOM      7  C   UNL     1       5.071 -13.576  12.589  1.00  0.00     0.000 C 
BRANCH   7   8
ATOM      8  C   UNL     1       4.232 -14.866  12.656  1.00  0.00     0.000 C 
BRANCH   8   9
ATOM      9  C   UNL     1       4.940 -16.075  12.025  1.00  0.00     0.000 C 
BRANCH   9  10
ATOM     10  C   UNL     1       5.602 -16.998  13.067  1.00  0.00     0.000 C 
BRANCH  10  11
ATOM     11  C   UNL     1       6.238 -18.286  12.501  1.00  0.00     0.000 C 
BRANCH  11  12
ATOM     12  C   UNL     1       5.249 -19.298  11.895  1.00  0.00     0.000 C 
BRANCH  12  13
ATOM     13  C   UNL     1       5.079 -20.556  12.759  1.00  0.00     0.006 C 
BRANCH  13  14
ATOM     14  C   UNL     1       6.176 -21.583  12.455  1.00  0.00     0.053 C 
BRANCH  14  15
ATOM     15  C   UNL     1       7.149 -21.667  13.588  1.00  0.00     0.041 C 
ATOM     16  O   UNL     1       6.922 -22.431  14.564  1.00  0.00    -0.550 OA
ATOM     17  O   UNL     1       8.289 -20.872  13.585  1.00  0.00    -0.550 OA
ENDBRANCH  14  15
ENDBRANCH  13  14
ENDBRANCH  12  13
ENDBRANCH  11  12
ENDBRANCH  10  11
ENDBRANCH   9  10
ENDBRANCH   8   9
ENDBRANCH   7   8
ENDBRANCH   6   7
ENDBRANCH   5   6
ENDBRANCH   4   5
ENDBRANCH   3   4
ENDBRANCH   2   3
ENDBRANCH   1   2
BRANCH   1  18
ATOM     18  C   UNL     1      13.150 -12.269  12.411  1.00  0.00     0.000 C 
BRANCH  18  19
ATOM     19  C   UNL     1      13.020 -10.826  11.891  1.00  0.00     0.000 C 
BRANCH  19  20
ATOM     20  C   UNL     1      13.472  -9.777  12.923  1.00  0.00     0.000 C 
BRANCH  20  21
ATOM     21  C   UNL     1      13.628  -8.342  12.377  1.00  0.00     0.000 C 
BRANCH  21  22
ATOM     22  C   UNL     1      14.595  -7.439  13.165  1.00  0.00     0.000 C 
BRANCH  22  23
ATOM     23  C   UNL     1      13.945  -6.120  13.611  1.00  0.00     0.000 C 
BRANCH  23  24
ATOM     24  C   UNL     1      14.747  -5.399  14.710  1.00  0.00    -0.000 C 
BRANCH  24  25
ATOM     25  C   UNL     1      15.943  -6.189  15.282  1.00  0.00    -0.000 C 
BRANCH  25  26
ATOM     26  C   UNL     1      17.332  -5.653  14.891  1.00  0.00    -0.000 C 
BRANCH  26  27
ATOM     27  C   UNL     1      17.456  -5.347  13.392  1.00  0.00    -0.000 C 
BRANCH  27  28
ATOM     28  C   UNL     1      17.693  -6.633  12.585  1.00  0.00    -0.000 C 
BRANCH  28  29
ATOM     29  C   UNL     1      18.757  -7.547  13.218  1.00  0.00    -0.000 C 
BRANCH  29  30
ATOM     30  C   UNL     1      18.223  -8.891  13.756  1.00  0.00    -0.000 C 
BRANCH  30  31
ATOM     31  C   UNL     1      17.837  -9.914  12.674  1.00  0.00    -0.003 C 
ATOM     32  C   UNL     1      16.936 -11.030  13.204  1.00  0.00     0.004 C 
ENDBRANCH  30  31
ENDBRANCH  29  30
ENDBRANCH  28  29
ENDBRANCH  27  28
ENDBRANCH  26  27
ENDBRANCH  25  26
ENDBRANCH  24  25
ENDBRANCH  23  24
ENDBRANCH  22  23
ENDBRANCH  21  22
ENDBRANCH  20  21
ENDBRANCH  19  20
ENDBRANCH  18  19
ENDBRANCH   1  18
TORSDOF 28
ENDMDL
MODEL 7
REMARK VINA RESULT:     0.074      4.973      8.265
REMARK INTER + INTRA:          -0.679
REMARK INTER:                  -0.613
REMARK INTRA:                  -0.065
REMARK UNBOUND:                -0.874
REMARK SMILES CCCCCCCCCCCCCCCCCCCCCCCCCCCCCC(=O)[O-]
REMARK SMILES IDX 16 1 17 2 18 3 19 4 20 5 21 6 22 7 23 8 24 9 25 10 26 11
REMARK SMILES IDX 27 12 28 13 29 14 30 15 31 16 32 17 15 18 14 19 13 20 12 21
REMARK SMILES IDX 11 22 10 23 9 24 8 25 7 26 6 27 5 28 4 29 3 30 2 31 1 32
REMARK H PARENT
REMARK Flexibility Score: inf
ROOT
ATOM      1  C   UNL     1      14.959  -4.995  16.300  1.00  0.00     0.000 C 
ENDROOT
BRANCH   1   2
ATOM      2  C   UNL     1      15.257  -4.950  17.806  1.00  0.00     0.000 C 
BRANCH   2   3
ATOM      3  C   UNL     1      16.120  -6.149  18.233  1.00  0.00     0.000 C 
BRANCH   3   4
ATOM      4  C   UNL     1      16.555  -7.023  17.043  1.00  0.00     0.000 C 
BRANCH   4   5
ATOM      5  C   UNL     1      17.777  -6.494  16.270  1.00  0.00     0.000 C 
BRANCH   5   6
ATOM      6  C   UNL     1      17.458  -6.173  14.800  1.00  0.00     0.000 C 
BRANCH   6   7
ATOM      7  C   UNL     1      18.071  -4.831  14.351  1.00  0.00     0.000 C 
BRANCH   7   8
ATOM      8  C   UNL     1      17.955  -4.564  12.839  1.00  0.00     0.000 C 
BRANCH   8   9
ATOM      9  C   UNL     1      18.565  -5.686  11.984  1.00  0.00     0.000 C 
BRANCH   9  10
ATOM     10  C   UNL     1      18.666  -7.029  12.732  1.00  0.00     0.000 C 
BRANCH  10  11
ATOM     11  C   UNL     1      18.378  -8.285  11.881  1.00  0.00     0.000 C 
BRANCH  11  12
ATOM     12  C   UNL     1      17.332  -9.251  12.466  1.00  0.00     0.000 C 
BRANCH  12  13
ATOM     13  C   UNL     1      17.384  -9.327  13.999  1.00  0.00     0.006 C 
BRANCH  13  14
ATOM     14  C   UNL     1      18.798  -9.037  14.515  1.00  0.00     0.053 C 
BRANCH  14  15
ATOM     15  C   UNL     1      19.193 -10.032  15.561  1.00  0.00     0.041 C 
ATOM     16  O   UNL     1      20.312  -9.939  16.134  1.00  0.00    -0.550 OA
ATOM     17  O   UNL     1      18.342 -11.085  15.876  1.00  0.00    -0.550 OA
ENDBRANCH  14  15
ENDBRANCH  13  14
ENDBRANCH  12  13
ENDBRANCH  11  12
ENDBRANCH  10  11
ENDBRANCH   9  10
ENDBRANCH   8   9
ENDBRANCH   7   8
ENDBRANCH   6   7
ENDBRANCH   5   6
ENDBRANCH   4   5
ENDBRANCH   3   4
ENDBRANCH   2   3
ENDBRANCH   1   2
BRANCH   1  18
ATOM     18  C   UNL     1      13.980  -3.895  15.855  1.00  0.00     0.000 C 
BRANCH  18  19
ATOM     19  C   UNL     1      12.593  -4.452  15.488  1.00  0.00     0.000 C 
BRANCH  19  20
ATOM     20  C   UNL     1      12.175  -4.110  14.046  1.00  0.00     0.000 C 
BRANCH  20  21
ATOM     21  C   UNL     1      13.337  -3.961  13.043  1.00  0.00     0.000 C 
BRANCH  21  22
ATOM     22  C   UNL     1      13.479  -5.107  12.024  1.00  0.00     0.000 C 
BRANCH  22  23
ATOM     23  C   UNL     1      14.858  -5.784  12.080  1.00  0.00     0.000 C 
BRANCH  23  24
ATOM     24  C   UNL     1      14.810  -7.189  12.709  1.00  0.00    -0.000 C 
BRANCH  24  25
ATOM     25  C   UNL     1      13.966  -8.228  11.940  1.00  0.00    -0.000 C 
BRANCH  25  26
ATOM     26  C   UNL     1      12.897  -8.953  12.776  1.00  0.00    -0.000 C 
BRANCH  26  27
ATOM     27  C   UNL     1      12.167 -10.052  11.992  1.00  0.00    -0.000 C 
BRANCH  27  28
ATOM     28  C   UNL     1      11.721 -11.190  12.923  1.00  0.00    -0.000 C 
BRANCH  28  29
ATOM     29  C   UNL     1      12.031 -12.585  12.351  1.00  0.00    -0.000 C 
BRANCH  29  30
ATOM     30  C   UNL     1      13.493 -12.798  11.908  1.00  0.00    -0.000 C 
BRANCH  30  31
ATOM     31  C   UNL     1      14.518 -11.876  12.592  1.00  0.00    -0.003 C 
ATOM     32  C   UNL     1      15.956 -12.156  12.155  1.00  0.00     0.004 C 
ENDBRANCH  30  31
ENDBRANCH  29  30
ENDBRANCH  28  29
ENDBRANCH  27  28
ENDBRANCH  26  27
ENDBRANCH  25  26
ENDBRANCH  24  25
ENDBRANCH  23  24
ENDBRANCH  22  23
ENDBRANCH  21  22
ENDBRANCH  20  21
ENDBRANCH  19  20
ENDBRANCH  18  19
ENDBRANCH   1  18
TORSDOF 28
ENDMDL
