MODEL 1
REMARK VINA RESULT:    -3.263      0.000      0.000
REMARK INTER + INTRA:          -6.265
REMARK INTER:                  -5.170
REMARK INTRA:                  -1.094
REMARK UNBOUND:                -1.094
REMARK SMILES CCCCCCCCCCCC(=O)[O-]
REMARK SMILES IDX 7 1 8 2 9 3 10 4 11 5 12 6 13 7 14 8 6 9 5 10 4 11 3 12 2 13
REMARK SMILES IDX 1 14
REMARK H PARENT
REMARK Flexibility Score: inf
ROOT
ATOM      1  C   UNL     1      32.898  40.639  24.420  1.00  0.00     0.000 C 
ENDROOT
BRANCH   1   2
ATOM      2  C   UNL     1      33.405  42.090  24.463  1.00  0.00     0.000 C 
BRANCH   2   3
ATOM      3  C   UNL     1      33.732  42.634  23.055  1.00  0.00     0.000 C 
BRANCH   3   4
ATOM      4  C   UNL     1      32.514  43.228  22.327  1.00  0.00     0.006 C 
BRANCH   4   5
ATOM      5  C   UNL     1      32.053  42.376  21.140  1.00  0.00     0.053 C 
BRANCH   5   6
ATOM      6  C   UNL     1      30.807  41.626  21.487  1.00  0.00     0.041 C 
ATOM      7  O   UNL     1      30.156  41.923  22.522  1.00  0.00    -0.550 OA
ATOM      8  O   UNL     1      30.390  40.564  20.694  1.00  0.00    -0.550 OA
ENDBRANCH   5   6
ENDBRANCH   4   5
ENDBRANCH   3   4
ENDBRANCH   2   3
ENDBRANCH   1   2
BRANCH   1   9
ATOM      9  C   UNL     1      31.849  40.345  25.504  1.00  0.00     0.000 C 
BRANCH   9  10
ATOM     10  C   UNL     1      32.362  39.372  26.577  1.00  0.00    -0.000 C 
BRANCH  10  11
ATOM     11  C   UNL     1      33.057  38.165  25.936  1.00  0.00    -0.000 C 
BRANCH  11  12
ATOM     12  C   UNL     1      34.431  37.918  26.576  1.00  0.00    -0.000 C 
BRANCH  12  13
ATOM     13  C   UNL     1      35.099  39.216  27.058  1.00  0.00    -0.003 C 
ATOM     14  C   UNL     1      36.166  39.726  26.091  1.00  0.00     0.004 C 
ENDBRANCH  12  13
ENDBRANCH  11  12
ENDBRANCH  10  11
ENDBRANCH   9  10
ENDBRANCH   1   9
TORSDOF 10
ENDMDL
MODEL 2
REMARK VINA RESULT:    -3.259      1.393      3.296
REMARK INTER + INTRA:          -6.259
REMARK INTER:                  -5.186
REMARK INTRA:                  -1.073
REMARK UNBOUND:                -1.094
REMARK SMILES CCCCCCCCCCCC(=O)[O-]
REMARK SMILES IDX 7 1 8 2 9 3 10 4 11 5 12 6 13 7 14 8 6 9 5 10 4 11 3 12 2 13
REMARK SMILES IDX 1 14
REMARK H PARENT
REMARK Flexibility Score: inf
ROOT
ATOM      1  C   UNL     1      32.919  37.890  26.225  1.00  0.00     0.000 C 
ENDROOT
BRANCH   1   2
ATOM      2  C   UNL     1      32.103  38.992  26.921  1.00  0.00     0.000 C 
BRANCH   2   3
ATOM      3  C   UNL     1      31.910  40.230  26.020  1.00  0.00     0.000 C 
BRANCH   3   4
ATOM      4  C   UNL     1      32.679  40.149  24.690  1.00  0.00     0.006 C 
BRANCH   4   5
ATOM      5  C   UNL     1      33.345  41.474  24.303  1.00  0.00     0.053 C 
BRANCH   5   6
ATOM      6  C   UNL     1      32.707  42.041  23.075  1.00  0.00     0.041 C 
ATOM      7  O   UNL     1      31.506  41.778  22.806  1.00  0.00    -0.550 OA
ATOM      8  O   UNL     1      33.453  42.820  22.199  1.00  0.00    -0.550 OA
ENDBRANCH   5   6
ENDBRANCH   4   5
ENDBRANCH   3   4
ENDBRANCH   2   3
ENDBRANCH   1   2
BRANCH   1   9
ATOM      9  C   UNL     1      34.339  37.753  26.798  1.00  0.00     0.000 C 
BRANCH   9  10
ATOM     10  C   UNL     1      34.558  38.613  28.052  1.00  0.00    -0.000 C 
BRANCH  10  11
ATOM     11  C   UNL     1      35.569  39.733  27.780  1.00  0.00    -0.000 C 
BRANCH  11  12
ATOM     12  C   UNL     1      36.109  39.650  26.345  1.00  0.00    -0.000 C 
BRANCH  12  13
ATOM     13  C   UNL     1      37.468  40.351  26.184  1.00  0.00    -0.003 C 
ATOM     14  C   UNL     1      38.227  39.889  24.941  1.00  0.00     0.004 C 
ENDBRANCH  12  13
ENDBRANCH  11  12
ENDBRANCH  10  11
ENDBRANCH   9  10
ENDBRANCH   1   9
TORSDOF 10
ENDMDL
MODEL 3
REMARK VINA RESULT:    -3.244      0.997      1.623
REMARK INTER + INTRA:          -6.234
REMARK INTER:                  -5.080
REMARK INTRA:                  -1.154
REMARK UNBOUND:                -1.094
REMARK SMILES CCCCCCCCCCCC(=O)[O-]
REMARK SMILES IDX 7 1 8 2 9 3 10 4 11 5 12 6 13 7 14 8 6 9 5 10 4 11 3 12 2 13
REMARK SMILES IDX 1 14
REMARK H PARENT
REMARK Flexibility Score: inf
ROOT
ATOM      1  C   UNL     1      31.932  40.403  25.820  1.00  0.00     0.000 C 
ENDROOT
BRANCH   1   2
ATOM      2  C   UNL     1      32.491  40.270  24.393  1.00  0.00     0.000 C 
BRANCH   2   3
ATOM      3  C   UNL     1      32.822  41.641  23.768  1.00  0.00     0.000 C 
BRANCH   3   4
ATOM      4  C   UNL     1      31.601  42.568  23.636  1.00  0.00     0.006 C 
BRANCH   4   5
ATOM      5  C   UNL     1      30.419  41.901  22.923  1.00  0.00     0.053 C 
BRANCH   5   6
ATOM      6  C   UNL     1      30.640  41.888  21.444  1.00  0.00     0.041 C 
ATOM      7  O   UNL     1      30.953  42.948  20.841  1.00  0.00    -0.550 OA
ATOM      8  O   UNL     1      30.452  40.716  20.722  1.00  0.00    -0.550 OA
ENDBRANCH   5   6
ENDBRANCH   4   5
ENDBRANCH   3   4
ENDBRANCH   2   3
ENDBRANCH   1   2
BRANCH   1   9
ATOM      9  C   UNL     1      32.260  39.188  26.701  1.00  0.00     0.000 C 
BRANCH   9  10
ATOM     10  C   UNL     1      33.060  38.111  25.952  1.00  0.00    -0.000 C 
BRANCH  10  11
ATOM     11  C   UNL     1      34.341  37.748  26.714  1.00  0.00    -0.000 C 
BRANCH  11  12
ATOM     12  C   UNL     1      35.085  39.012  27.172  1.00  0.00    -0.000 C 
BRANCH  12  13
ATOM     13  C   UNL     1      35.976  39.604  26.069  1.00  0.00    -0.003 C 
ATOM     14  C   UNL     1      35.848  41.122  25.957  1.00  0.00     0.004 C 
ENDBRANCH  12  13
ENDBRANCH  11  12
ENDBRANCH  10  11
ENDBRANCH   9  10
ENDBRANCH   1   9
TORSDOF 10
ENDMDL
MODEL 4
REMARK VINA RESULT:    -3.220      3.509      5.731
REMARK INTER + INTRA:          -6.197
REMARK INTER:                  -5.013
REMARK INTRA:                  -1.184
REMARK UNBOUND:                -1.094
REMARK SMILES CCCCCCCCCCCC(=O)[O-]
REMARK SMILES IDX 7 1 8 2 9 3 10 4 11 5 12 6 13 7 14 8 6 9 5 10 4 11 3 12 2 13
REMARK SMILES IDX 1 14
REMARK H PARENT
REMARK Flexibility Score: inf
ROOT
ATOM      1  C   UNL     1      34.736  38.093  26.250  1.00  0.00     0.000 C 
ENDROOT
BRANCH   1   2
ATOM      2  C   UNL     1      34.988  39.012  27.457  1.00  0.00     0.000 C 
BRANCH   2   3
ATOM      3  C   UNL     1      36.006  40.127  27.137  1.00  0.00     0.000 C 
BRANCH   3   4
ATOM      4  C   UNL     1      36.743  39.922  25.801  1.00  0.00     0.006 C 
BRANCH   4   5
ATOM      5  C   UNL     1      38.225  40.310  25.871  1.00  0.00     0.053 C 
BRANCH   5   6
ATOM      6  C   UNL     1      38.567  41.266  24.772  1.00  0.00     0.041 C 
ATOM      7  O   UNL     1      39.676  41.860  24.773  1.00  0.00    -0.550 OA
ATOM      8  O   UNL     1      37.640  41.539  23.774  1.00  0.00    -0.550 OA
ENDBRANCH   5   6
ENDBRANCH   4   5
ENDBRANCH   3   4
ENDBRANCH   2   3
ENDBRANCH   1   2
BRANCH   1   9
ATOM      9  C   UNL     1      33.308  38.219  25.696  1.00  0.00     0.000 C 
BRANCH   9  10
ATOM     10  C   UNL     1      32.419  39.133  26.554  1.00  0.00    -0.000 C 
BRANCH  10  11
ATOM     11  C   UNL     1      31.895  40.318  25.734  1.00  0.00    -0.000 C 
BRANCH  11  12
ATOM     12  C   UNL     1      32.438  40.275  24.298  1.00  0.00    -0.000 C 
BRANCH  12  13
ATOM     13  C   UNL     1      32.842  41.665  23.779  1.00  0.00    -0.003 C 
ATOM     14  C   UNL     1      34.223  42.099  24.265  1.00  0.00     0.004 C 
ENDBRANCH  12  13
ENDBRANCH  11  12
ENDBRANCH  10  11
ENDBRANCH   9  10
ENDBRANCH   1   9
TORSDOF 10
ENDMDL
MODEL 5
REMARK VINA RESULT:    -3.148      2.847      6.212
REMARK INTER + INTRA:          -6.082
REMARK INTER:                  -5.350
REMARK INTRA:                  -0.733
REMARK UNBOUND:                -1.094
REMARK SMILES CCCCCCCCCCCC(=O)[O-]
REMARK SMILES IDX 7 1 8 2 9 3 10 4 11 5 12 6 13 7 14 8 6 9 5 10 4 11 3 12 2 13
REMARK SMILES IDX 1 14
REMARK H PARENT
REMARK Flexibility Score: inf
ROOT
ATOM      1  C   UNL     1      34.059  42.200  23.931  1.00  0.00     0.000 C 
ENDROOT
BRANCH   1   2
ATOM      2  C   UNL     1      32.781  41.348  24.009  1.00  0.00     0.000 C 
BRANCH   2   3
ATOM      3  C   UNL     1      32.958  40.117  24.923  1.00  0.00     0.000 C 
BRANCH   3   4
ATOM      4  C   UNL     1      34.053  40.294  25.989  1.00  0.00     0.006 C 
BRANCH   4   5
ATOM      5  C   UNL     1      34.999  39.092  26.079  1.00  0.00     0.053 C 
BRANCH   5   6
ATOM      6  C   UNL     1      34.221  37.815  26.118  1.00  0.00     0.041 C 
ATOM      7  O   UNL     1      33.659  37.449  27.183  1.00  0.00    -0.550 OA
ATOM      8  O   UNL     1      34.158  37.004  24.992  1.00  0.00    -0.550 OA
ENDBRANCH   5   6
ENDBRANCH   4   5
ENDBRANCH   3   4
ENDBRANCH   2   3
ENDBRANCH   1   2
BRANCH   1   9
ATOM      9  C   UNL     1      33.972  43.304  22.865  1.00  0.00     0.000 C 
BRANCH   9  10
ATOM     10  C   UNL     1      33.072  42.915  21.682  1.00  0.00    -0.000 C 
BRANCH  10  11
ATOM     11  C   UNL     1      31.855  43.843  21.589  1.00  0.00    -0.000 C 
BRANCH  11  12
ATOM     12  C   UNL     1      30.696  43.158  20.850  1.00  0.00    -0.000 C 
BRANCH  12  13
ATOM     13  C   UNL     1      30.181  41.911  21.587  1.00  0.00    -0.003 C 
ATOM     14  C   UNL     1      30.279  40.642  20.742  1.00  0.00     0.004 C 
ENDBRANCH  12  13
ENDBRANCH  11  12
ENDBRANCH  10  11
ENDBRANCH   9  10
ENDBRANCH   1   9
TORSDOF 10
ENDMDL
MODEL 6
REMARK VINA RESULT:    -3.124      3.445      6.263
REMARK INTER + INTRA:          -6.044
REMARK INTER:                  -5.369
REMARK INTRA:                  -0.675
REMARK UNBOUND:                -1.094
REMARK SMILES CCCCCCCCCCCC(=O)[O-]
REMARK SMILES IDX 7 1 8 2 9 3 10 4 11 5 12 6 13 7 14 8 6 9 5 10 4 11 3 12 2 13
REMARK SMILES IDX 1 14
REMARK H PARENT
REMARK Flexibility Score: inf
ROOT
ATOM      1  C   UNL     1      33.076  39.244  25.139  1.00  0.00     0.000 C 
ENDROOT
BRANCH   1   2
ATOM      2  C   UNL     1      33.633  38.267  26.190  1.00  0.00     0.000 C 
BRANCH   2   3
ATOM      3  C   UNL     1      34.965  38.761  26.794  1.00  0.00     0.000 C 
BRANCH   3   4
ATOM      4  C   UNL     1      35.606  39.917  26.008  1.00  0.00     0.006 C 
BRANCH   4   5
ATOM      5  C   UNL     1      37.012  40.271  26.506  1.00  0.00     0.053 C 
BRANCH   5   6
ATOM      6  C   UNL     1      37.951  40.429  25.352  1.00  0.00     0.041 C 
ATOM      7  O   UNL     1      38.692  39.473  25.003  1.00  0.00    -0.550 OA
ATOM      8  O   UNL     1      38.044  41.649  24.693  1.00  0.00    -0.550 OA
ENDBRANCH   5   6
ENDBRANCH   4   5
ENDBRANCH   3   4
ENDBRANCH   2   3
ENDBRANCH   1   2
BRANCH   1   9
ATOM      9  C   UNL     1      31.959  40.140  25.696  1.00  0.00     0.000 C 
BRANCH   9  10
ATOM     10  C   UNL     1      31.484  41.193  24.684  1.00  0.00    -0.000 C 
BRANCH  10  11
ATOM     11  C   UNL     1      32.595  41.532  23.682  1.00  0.00    -0.000 C 
BRANCH  11  12
ATOM     12  C   UNL     1      32.020  42.221  22.436  1.00  0.00    -0.000 C 
BRANCH  12  13
ATOM     13  C   UNL     1      30.557  41.833  22.169  1.00  0.00    -0.003 C 
ATOM     14  C   UNL     1      30.400  40.926  20.949  1.00  0.00     0.004 C 
ENDBRANCH  12  13
ENDBRANCH  11  12
ENDBRANCH  10  11
ENDBRANCH   9  10
ENDBRANCH   1   9
TORSDOF 10
ENDMDL
MODEL 7
REMARK VINA RESULT:    -3.093      2.794      5.396
REMARK INTER + INTRA:          -5.996
REMARK INTER:                  -4.892
REMARK INTRA:                  -1.104
REMARK UNBOUND:                -1.094
REMARK SMILES CCCCCCCCCCCC(=O)[O-]
REMARK SMILES IDX 7 1 8 2 9 3 10 4 11 5 12 6 13 7 14 8 6 9 5 10 4 11 3 12 2 13
REMARK SMILES IDX 1 14
REMARK H PARENT
REMARK Flexibility Score: inf
ROOT
ATOM      1  C   UNL     1      33.121  38.247  25.904  1.00  0.00     0.000 C 
ENDROOT
BRANCH   1   2
ATOM      2  C   UNL     1      34.387  37.955  26.729  1.00  0.00     0.000 C 
BRANCH   2   3
ATOM      3  C   UNL     1      35.162  39.243  27.078  1.00  0.00     0.000 C 
BRANCH   3   4
ATOM      4  C   UNL     1      35.959  39.821  25.895  1.00  0.00     0.006 C 
BRANCH   4   5
ATOM      5  C   UNL     1      35.744  41.328  25.709  1.00  0.00     0.053 C 
BRANCH   5   6
ATOM      6  C   UNL     1      36.435  41.806  24.472  1.00  0.00     0.041 C 
ATOM      7  O   UNL     1      35.810  42.494  23.623  1.00  0.00    -0.550 OA
ATOM      8  O   UNL     1      37.755  41.449  24.230  1.00  0.00    -0.550 OA
ENDBRANCH   5   6
ENDBRANCH   4   5
ENDBRANCH   3   4
ENDBRANCH   2   3
ENDBRANCH   1   2
BRANCH   1   9
ATOM      9  C   UNL     1      32.185  39.253  26.591  1.00  0.00     0.000 C 
BRANCH   9  10
ATOM     10  C   UNL     1      31.866  40.466  25.704  1.00  0.00    -0.000 C 
BRANCH  10  11
ATOM     11  C   UNL     1      32.468  40.296  24.304  1.00  0.00    -0.000 C 
BRANCH  11  12
ATOM     12  C   UNL     1      32.361  41.599  23.497  1.00  0.00    -0.000 C 
BRANCH  12  13
ATOM     13  C   UNL     1      30.937  41.858  22.981  1.00  0.00    -0.003 C 
ATOM     14  C   UNL     1      30.717  41.332  21.564  1.00  0.00     0.004 C 
ENDBRANCH  12  13
ENDBRANCH  11  12
ENDBRANCH  10  11
ENDBRANCH   9  10
ENDBRANCH   1   9
TORSDOF 10
ENDMDL
MODEL 8
REMARK VINA RESULT:    -3.040      3.691      5.490
REMARK INTER + INTRA:          -5.911
REMARK INTER:                  -4.597
REMARK INTRA:                  -1.314
REMARK UNBOUND:                -1.094
REMARK SMILES CCCCCCCCCCCC(=O)[O-]
REMARK SMILES IDX 7 1 8 2 9 3 10 4 11 5 12 6 13 7 14 8 6 9 5 10 4 11 3 12 2 13
REMARK SMILES IDX 1 14
REMARK H PARENT
REMARK Flexibility Score: inf
ROOT
ATOM      1  C   UNL     1      35.279  41.371  26.875  1.00  0.00     0.000 C 
ENDROOT
BRANCH   1   2
ATOM      2  C   UNL     1      36.594  40.592  27.047  1.00  0.00     0.000 C 
BRANCH   2   3
ATOM      3  C   UNL     1      36.896  39.686  25.835  1.00  0.00     0.000 C 
BRANCH   3   4
ATOM      4  C   UNL     1      38.209  40.040  25.115  1.00  0.00     0.006 C 
BRANCH   4   5
ATOM      5  C   UNL     1      38.651  41.488  25.356  1.00  0.00     0.053 C 
BRANCH   5   6
ATOM      6  C   UNL     1      38.364  42.330  24.153  1.00  0.00     0.041 C 
ATOM      7  O   UNL     1      37.551  41.929  23.280  1.00  0.00    -0.550 OA
ATOM      8  O   UNL     1      39.032  43.534  23.971  1.00  0.00    -0.550 OA
ENDBRANCH   5   6
ENDBRANCH   4   5
ENDBRANCH   3   4
ENDBRANCH   2   3
ENDBRANCH   1   2
BRANCH   1   9
ATOM      9  C   UNL     1      34.746  41.324  25.434  1.00  0.00     0.000 C 
BRANCH   9  10
ATOM     10  C   UNL     1      33.234  41.059  25.371  1.00  0.00    -0.000 C 
BRANCH  10  11
ATOM     11  C   UNL     1      32.946  39.610  24.958  1.00  0.00    -0.000 C 
BRANCH  11  12
ATOM     12  C   UNL     1      32.730  38.721  26.191  1.00  0.00    -0.000 C 
BRANCH  12  13
ATOM     13  C   UNL     1      33.885  37.731  26.414  1.00  0.00    -0.003 C 
ATOM     14  C   UNL     1      34.171  37.481  27.894  1.00  0.00     0.004 C 
ENDBRANCH  12  13
ENDBRANCH  11  12
ENDBRANCH  10  11
ENDBRANCH   9  10
ENDBRANCH   1   9
TORSDOF 10
ENDMDL
MODEL 9
REMARK VINA RESULT:    -3.014      1.978      3.955
REMARK INTER + INTRA:          -5.870
REMARK INTER:                  -5.116
REMARK INTRA:                  -0.755
REMARK UNBOUND:                -1.094
REMARK SMILES CCCCCCCCCCCC(=O)[O-]
REMARK SMILES IDX 7 1 8 2 9 3 10 4 11 5 12 6 13 7 14 8 6 9 5 10 4 11 3 12 2 13
REMARK SMILES IDX 1 14
REMARK H PARENT
REMARK Flexibility Score: inf
ROOT
ATOM      1  C   UNL     1      34.413  38.033  26.701  1.00  0.00     0.000 C 
ENDROOT
BRANCH   1   2
ATOM      2  C   UNL     1      32.887  37.992  26.510  1.00  0.00     0.000 C 
BRANCH   2   3
ATOM      3  C   UNL     1      32.314  39.369  26.111  1.00  0.00     0.000 C 
BRANCH   3   4
ATOM      4  C   UNL     1      32.834  39.884  24.758  1.00  0.00     0.006 C 
BRANCH   4   5
ATOM      5  C   UNL     1      31.987  41.027  24.187  1.00  0.00     0.053 C 
BRANCH   5   6
ATOM      6  C   UNL     1      32.825  41.921  23.329  1.00  0.00     0.041 C 
ATOM      7  O   UNL     1      32.383  42.335  22.226  1.00  0.00    -0.550 OA
ATOM      8  O   UNL     1      34.114  42.256  23.724  1.00  0.00    -0.550 OA
ENDBRANCH   5   6
ENDBRANCH   4   5
ENDBRANCH   3   4
ENDBRANCH   2   3
ENDBRANCH   1   2
BRANCH   1   9
ATOM      9  C   UNL     1      34.843  38.974  27.837  1.00  0.00     0.000 C 
BRANCH   9  10
ATOM     10  C   UNL     1      36.014  39.886  27.440  1.00  0.00    -0.000 C 
BRANCH  10  11
ATOM     11  C   UNL     1      36.315  39.772  25.941  1.00  0.00    -0.000 C 
BRANCH  11  12
ATOM     12  C   UNL     1      37.813  39.971  25.664  1.00  0.00    -0.000 C 
BRANCH  12  13
ATOM     13  C   UNL     1      38.076  41.019  24.571  1.00  0.00    -0.003 C 
ATOM     14  C   UNL     1      39.246  41.943  24.908  1.00  0.00     0.004 C 
ENDBRANCH  12  13
ENDBRANCH  11  12
ENDBRANCH  10  11
ENDBRANCH   9  10
ENDBRANCH   1   9
TORSDOF 10
ENDMDL
