MODEL 1
REMARK VINA RESULT:    52.067      0.000      0.000
REMARK INTER + INTRA:          76.535
REMARK INTER:                  74.895
REMARK INTRA:                   1.639
REMARK UNBOUND:                 1.639
REMARK SMILES O=c1c(O[C@@H]2O[C@@H](CO)[C@H](O)[C@H](O)[C@@H]2O)c(-c2ccc(O)cc2)oc2cc(O)cc(O)c12
REMARK SMILES IDX 4 1 3 2 16 3 24 4 2 5 25 6 1 7 32 8 26 9 30 10 27 11 29 12
REMARK SMILES IDX 17 13 18 14 19 15 20 16 23 17 22 18 21 19 31 21 28 23 5 25
REMARK SMILES IDX 14 26 6 27 12 28 7 29 10 30 15 31 13 33 8 35 9 36 11 38
REMARK H PARENT 21 20 31 22 28 24 15 32 13 34 9 37 11 39
REMARK Flexibility Score: inf
ROOT
ATOM      1  O   UNL     1       1.061  22.972  42.011  1.00  0.00    -0.454 OA
ENDROOT
BRANCH   1   2
ATOM      2  C   UNL     1       2.375  23.287  42.428  1.00  0.00     0.214 A 
ATOM      3  C   UNL     1       2.886  24.549  42.064  1.00  0.00     0.180 A 
ATOM      4  O   UNL     1       4.115  24.906  42.412  1.00  0.00    -0.452 OA
ATOM      5  C   UNL     1       3.218  22.418  43.163  1.00  0.00     0.239 A 
ATOM      6  C   UNL     1       4.937  24.120  43.092  1.00  0.00     0.146 A 
ATOM      7  O   UNL     1       2.775  21.321  43.580  1.00  0.00    -0.285 OA
ATOM      8  C   UNL     1       4.548  22.808  43.459  1.00  0.00     0.111 A 
ATOM      9  C   UNL     1       6.194  24.617  43.450  1.00  0.00     0.094 A 
ATOM     10  C   UNL     1       5.497  21.983  44.136  1.00  0.00     0.134 A 
ATOM     11  C   UNL     1       7.086  23.829  44.171  1.00  0.00     0.123 A 
ATOM     12  C   UNL     1       6.736  22.520  44.511  1.00  0.00     0.093 A 
BRANCH   3  13
ATOM     13  C   UNL     1       2.091  25.506  41.272  1.00  0.00     0.021 A 
ATOM     14  C   UNL     1       1.930  25.304  39.892  1.00  0.00     0.016 A 
ATOM     15  C   UNL     1       1.180  26.206  39.129  1.00  0.00     0.047 A 
ATOM     16  C   UNL     1       0.597  27.324  39.735  1.00  0.00     0.115 A 
ATOM     17  C   UNL     1       1.527  26.644  41.871  1.00  0.00     0.016 A 
ATOM     18  C   UNL     1       0.778  27.545  41.108  1.00  0.00     0.047 A 
BRANCH  16  19
ATOM     19  O   UNL     1      -0.149  28.212  38.964  1.00  0.00    -0.508 OA
ATOM     20  H   UNL     1      -1.151  28.308  39.090  1.00  0.00     0.293 HD
ENDBRANCH  16  19
ENDBRANCH   3  13
BRANCH  10  21
ATOM     21  O   UNL     1       5.286  20.631  44.424  1.00  0.00    -0.507 OA
ATOM     22  H   UNL     1       6.027  19.950  44.506  1.00  0.00     0.293 HD
ENDBRANCH  10  21
BRANCH  11  23
ATOM     23  O   UNL     1       8.327  24.349  44.535  1.00  0.00    -0.508 OA
ATOM     24  H   UNL     1       8.758  24.121  45.424  1.00  0.00     0.293 HD
ENDBRANCH  11  23
ENDBRANCH   1   2
BRANCH   1  25
ATOM     25  C   UNL     1       0.129  23.774  41.267  1.00  0.00     0.339 C 
ATOM     26  C   UNL     1      -0.379  23.044  40.000  1.00  0.00     0.214 C 
ATOM     27  O   UNL     1      -0.961  24.148  42.093  1.00  0.00    -0.332 OA
ATOM     28  C   UNL     1      -1.256  21.828  40.381  1.00  0.00     0.180 C 
ATOM     29  C   UNL     1      -1.679  23.019  42.570  1.00  0.00     0.179 C 
ATOM     30  C   UNL     1      -2.333  22.259  41.396  1.00  0.00     0.177 C 
BRANCH  26  31
ATOM     31  O   UNL     1       0.701  22.708  39.159  1.00  0.00    -0.384 OA
ATOM     32  H   UNL     1       0.596  23.147  38.279  1.00  0.00     0.211 HD
ENDBRANCH  26  31
BRANCH  28  33
ATOM     33  O   UNL     1      -0.451  20.810  40.915  1.00  0.00    -0.387 OA
ATOM     34  H   UNL     1       0.382  20.780  40.375  1.00  0.00     0.211 HD
ENDBRANCH  28  33
BRANCH  29  35
ATOM     35  C   UNL     1      -2.732  23.505  43.574  1.00  0.00     0.191 C 
BRANCH  35  36
ATOM     36  O   UNL     1      -4.023  23.362  43.044  1.00  0.00    -0.394 OA
ATOM     37  H   UNL     1      -4.639  23.759  43.713  1.00  0.00     0.210 HD
ENDBRANCH  35  36
ENDBRANCH  29  35
BRANCH  30  38
ATOM     38  O   UNL     1      -3.030  21.134  41.870  1.00  0.00    -0.387 OA
ATOM     39  H   UNL     1      -2.889  20.407  41.209  1.00  0.00     0.211 HD
ENDBRANCH  30  38
ENDBRANCH   1  25
TORSDOF 11
ENDMDL
MODEL 2
REMARK VINA RESULT:    52.624      2.619      5.834
REMARK INTER + INTRA:          77.337
REMARK INTER:                  76.669
REMARK INTRA:                   0.668
REMARK UNBOUND:                 1.639
REMARK SMILES O=c1c(O[C@@H]2O[C@@H](CO)[C@H](O)[C@H](O)[C@@H]2O)c(-c2ccc(O)cc2)oc2cc(O)cc(O)c12
REMARK SMILES IDX 4 1 3 2 16 3 24 4 2 5 25 6 1 7 32 8 26 9 30 10 27 11 29 12
REMARK SMILES IDX 17 13 18 14 19 15 20 16 23 17 22 18 21 19 31 21 28 23 5 25
REMARK SMILES IDX 14 26 6 27 12 28 7 29 10 30 15 31 13 33 8 35 9 36 11 38
REMARK H PARENT 21 20 31 22 28 24 15 32 13 34 9 37 11 39
REMARK Flexibility Score: inf
ROOT
ATOM      1  O   UNL     1       0.265  21.989  40.402  1.00  0.00    -0.454 OA
ENDROOT
BRANCH   1   2
ATOM      2  C   UNL     1       0.803  23.242  40.776  1.00  0.00     0.214 A 
ATOM      3  C   UNL     1       1.646  23.274  41.905  1.00  0.00     0.180 A 
ATOM      4  O   UNL     1       2.178  24.417  42.319  1.00  0.00    -0.452 OA
ATOM      5  C   UNL     1       0.537  24.464  40.113  1.00  0.00     0.239 A 
ATOM      6  C   UNL     1       1.948  25.582  41.732  1.00  0.00     0.146 A 
ATOM      7  O   UNL     1      -0.138  24.470  39.056  1.00  0.00    -0.285 OA
ATOM      8  C   UNL     1       1.069  25.675  40.624  1.00  0.00     0.111 A 
ATOM      9  C   UNL     1       2.600  26.717  42.221  1.00  0.00     0.094 A 
ATOM     10  C   UNL     1       0.810  26.965  40.070  1.00  0.00     0.134 A 
ATOM     11  C   UNL     1       2.394  27.960  41.630  1.00  0.00     0.123 A 
ATOM     12  C   UNL     1       1.503  28.080  40.559  1.00  0.00     0.093 A 
BRANCH   3  13
ATOM     13  C   UNL     1       1.954  22.055  42.676  1.00  0.00     0.021 A 
ATOM     14  C   UNL     1       0.919  21.173  43.026  1.00  0.00     0.016 A 
ATOM     15  C   UNL     1       1.197  20.014  43.758  1.00  0.00     0.047 A 
ATOM     16  C   UNL     1       2.507  19.734  44.161  1.00  0.00     0.115 A 
ATOM     17  C   UNL     1       3.263  21.783  43.105  1.00  0.00     0.016 A 
ATOM     18  C   UNL     1       3.540  20.625  43.838  1.00  0.00     0.047 A 
BRANCH  16  19
ATOM     19  O   UNL     1       2.770  18.575  44.888  1.00  0.00    -0.508 OA
ATOM     20  H   UNL     1       3.234  18.610  45.789  1.00  0.00     0.293 HD
ENDBRANCH  16  19
ENDBRANCH   3  13
BRANCH  10  21
ATOM     21  O   UNL     1      -0.142  27.206  39.073  1.00  0.00    -0.507 OA
ATOM     22  H   UNL     1      -0.247  28.090  38.597  1.00  0.00     0.293 HD
ENDBRANCH  10  21
BRANCH  11  23
ATOM     23  O   UNL     1       3.069  29.078  42.120  1.00  0.00    -0.508 OA
ATOM     24  H   UNL     1       3.901  28.986  42.690  1.00  0.00     0.293 HD
ENDBRANCH  11  23
ENDBRANCH   1   2
BRANCH   1  25
ATOM     25  C   UNL     1      -1.104  21.625  40.159  1.00  0.00     0.339 C 
ATOM     26  C   UNL     1      -1.452  21.657  38.651  1.00  0.00     0.214 C 
ATOM     27  O   UNL     1      -1.371  20.342  40.702  1.00  0.00    -0.332 OA
ATOM     28  C   UNL     1      -0.698  20.541  37.890  1.00  0.00     0.180 C 
ATOM     29  C   UNL     1      -0.566  19.335  40.107  1.00  0.00     0.179 C 
ATOM     30  C   UNL     1      -0.901  19.192  38.606  1.00  0.00     0.177 C 
BRANCH  26  31
ATOM     31  O   UNL     1      -1.225  22.943  38.121  1.00  0.00    -0.384 OA
ATOM     32  H   UNL     1      -0.253  23.119  38.061  1.00  0.00     0.211 HD
ENDBRANCH  26  31
BRANCH  28  33
ATOM     33  O   UNL     1       0.666  20.860  37.809  1.00  0.00    -0.387 OA
ATOM     34  H   UNL     1       0.775  21.493  37.050  1.00  0.00     0.211 HD
ENDBRANCH  28  33
BRANCH  29  35
ATOM     35  C   UNL     1      -0.805  18.019  40.857  1.00  0.00     0.191 C 
BRANCH  35  36
ATOM     36  O   UNL     1      -2.158  17.884  41.201  1.00  0.00    -0.394 OA
ATOM     37  H   UNL     1      -2.213  18.064  42.176  1.00  0.00     0.210 HD
ENDBRANCH  35  36
ENDBRANCH  29  35
BRANCH  30  38
ATOM     38  O   UNL     1      -0.092  18.205  38.017  1.00  0.00    -0.387 OA
ATOM     39  H   UNL     1      -0.325  17.343  38.451  1.00  0.00     0.211 HD
ENDBRANCH  30  38
ENDBRANCH   1  25
TORSDOF 11
ENDMDL
MODEL 3
REMARK VINA RESULT:    53.247      1.461      2.588
REMARK INTER + INTRA:          78.233
REMARK INTER:                  78.276
REMARK INTRA:                  -0.043
REMARK UNBOUND:                 1.639
REMARK SMILES O=c1c(O[C@@H]2O[C@@H](CO)[C@H](O)[C@H](O)[C@@H]2O)c(-c2ccc(O)cc2)oc2cc(O)cc(O)c12
REMARK SMILES IDX 4 1 3 2 16 3 24 4 2 5 25 6 1 7 32 8 26 9 30 10 27 11 29 12
REMARK SMILES IDX 17 13 18 14 19 15 20 16 23 17 22 18 21 19 31 21 28 23 5 25
REMARK SMILES IDX 14 26 6 27 12 28 7 29 10 30 15 31 13 33 8 35 9 36 11 38
REMARK H PARENT 21 20 31 22 28 24 15 32 13 34 9 37 11 39
REMARK Flexibility Score: inf
ROOT
ATOM      1  O   UNL     1       2.633  23.267  42.864  1.00  0.00    -0.454 OA
ENDROOT
BRANCH   1   2
ATOM      2  C   UNL     1       3.908  23.873  42.952  1.00  0.00     0.214 A 
ATOM      3  C   UNL     1       4.080  25.117  42.312  1.00  0.00     0.180 A 
ATOM      4  O   UNL     1       5.251  25.738  42.344  1.00  0.00    -0.452 OA
ATOM      5  C   UNL     1       5.025  23.310  43.615  1.00  0.00     0.239 A 
ATOM      6  C   UNL     1       6.322  25.242  42.947  1.00  0.00     0.146 A 
ATOM      7  O   UNL     1       4.895  22.247  44.269  1.00  0.00    -0.285 OA
ATOM      8  C   UNL     1       6.279  23.971  43.573  1.00  0.00     0.111 A 
ATOM      9  C   UNL     1       7.493  26.004  42.963  1.00  0.00     0.094 A 
ATOM     10  C   UNL     1       7.479  23.458  44.152  1.00  0.00     0.134 A 
ATOM     11  C   UNL     1       8.639  25.525  43.592  1.00  0.00     0.123 A 
ATOM     12  C   UNL     1       8.628  24.259  44.183  1.00  0.00     0.093 A 
BRANCH   3  13
ATOM     13  C   UNL     1       2.981  25.763  41.570  1.00  0.00     0.021 A 
ATOM     14  C   UNL     1       2.760  25.433  40.223  1.00  0.00     0.016 A 
ATOM     15  C   UNL     1       1.723  26.040  39.508  1.00  0.00     0.047 A 
ATOM     16  C   UNL     1       0.906  26.992  40.127  1.00  0.00     0.115 A 
ATOM     17  C   UNL     1       2.175  26.739  42.179  1.00  0.00     0.016 A 
ATOM     18  C   UNL     1       1.139  27.347  41.463  1.00  0.00     0.047 A 
BRANCH  16  19
ATOM     19  O   UNL     1      -0.125  27.587  39.403  1.00  0.00    -0.508 OA
ATOM     20  H   UNL     1      -1.088  27.541  39.720  1.00  0.00     0.293 HD
ENDBRANCH  16  19
ENDBRANCH   3  13
BRANCH  10  21
ATOM     21  O   UNL     1       7.601  22.165  44.670  1.00  0.00    -0.507 OA
ATOM     22  H   UNL     1       8.041  21.401  44.177  1.00  0.00     0.293 HD
ENDBRANCH  10  21
BRANCH  11  23
ATOM     23  O   UNL     1       9.792  26.309  43.614  1.00  0.00    -0.508 OA
ATOM     24  H   UNL     1       9.752  27.307  43.785  1.00  0.00     0.293 HD
ENDBRANCH  11  23
ENDBRANCH   1   2
BRANCH   1  25
ATOM     25  C   UNL     1       2.212  22.152  42.060  1.00  0.00     0.339 C 
ATOM     26  C   UNL     1       1.308  21.177  42.852  1.00  0.00     0.214 C 
ATOM     27  O   UNL     1       1.543  22.614  40.898  1.00  0.00    -0.332 OA
ATOM     28  C   UNL     1      -0.048  21.839  43.193  1.00  0.00     0.180 C 
ATOM     29  C   UNL     1       0.375  23.357  41.216  1.00  0.00     0.179 C 
ATOM     30  C   UNL     1      -0.662  22.456  41.921  1.00  0.00     0.177 C 
BRANCH  26  31
ATOM     31  O   UNL     1       1.987  20.686  43.985  1.00  0.00    -0.384 OA
ATOM     32  H   UNL     1       1.962  19.697  43.995  1.00  0.00     0.211 HD
ENDBRANCH  26  31
BRANCH  28  33
ATOM     33  O   UNL     1       0.138  22.820  44.180  1.00  0.00    -0.387 OA
ATOM     34  H   UNL     1      -0.696  22.855  44.719  1.00  0.00     0.211 HD
ENDBRANCH  28  33
BRANCH  29  35
ATOM     35  C   UNL     1      -0.191  23.947  39.919  1.00  0.00     0.191 C 
BRANCH  35  36
ATOM     36  O   UNL     1      -0.863  22.962  39.180  1.00  0.00    -0.394 OA
ATOM     37  H   UNL     1      -1.061  23.369  38.297  1.00  0.00     0.210 HD
ENDBRANCH  35  36
ENDBRANCH  29  35
BRANCH  30  38
ATOM     38  O   UNL     1      -1.811  23.197  42.249  1.00  0.00    -0.387 OA
ATOM     39  H   UNL     1      -2.294  23.371  41.400  1.00  0.00     0.211 HD
ENDBRANCH  30  38
ENDBRANCH   1  25
TORSDOF 11
ENDMDL
MODEL 4
REMARK VINA RESULT:    53.546      2.082      3.473
REMARK INTER + INTRA:          78.663
REMARK INTER:                  73.448
REMARK INTRA:                   5.215
REMARK UNBOUND:                 1.639
REMARK SMILES O=c1c(O[C@@H]2O[C@@H](CO)[C@H](O)[C@H](O)[C@@H]2O)c(-c2ccc(O)cc2)oc2cc(O)cc(O)c12
REMARK SMILES IDX 4 1 3 2 16 3 24 4 2 5 25 6 1 7 32 8 26 9 30 10 27 11 29 12
REMARK SMILES IDX 17 13 18 14 19 15 20 16 23 17 22 18 21 19 31 21 28 23 5 25
REMARK SMILES IDX 14 26 6 27 12 28 7 29 10 30 15 31 13 33 8 35 9 36 11 38
REMARK H PARENT 21 20 31 22 28 24 15 32 13 34 9 37 11 39
REMARK Flexibility Score: inf
ROOT
ATOM      1  O   UNL     1       2.796  23.822  42.814  1.00  0.00    -0.454 OA
ENDROOT
BRANCH   1   2
ATOM      2  C   UNL     1       4.109  24.312  43.001  1.00  0.00     0.214 A 
ATOM      3  C   UNL     1       4.351  25.661  42.669  1.00  0.00     0.180 A 
ATOM      4  O   UNL     1       5.561  26.185  42.810  1.00  0.00    -0.452 OA
ATOM      5  C   UNL     1       5.198  23.542  43.475  1.00  0.00     0.239 A 
ATOM      6  C   UNL     1       6.607  25.496  43.242  1.00  0.00     0.146 A 
ATOM      7  O   UNL     1       5.010  22.363  43.862  1.00  0.00    -0.285 OA
ATOM      8  C   UNL     1       6.491  24.118  43.549  1.00  0.00     0.111 A 
ATOM      9  C   UNL     1       7.826  26.161  43.401  1.00  0.00     0.094 A 
ATOM     10  C   UNL     1       7.665  23.411  43.950  1.00  0.00     0.134 A 
ATOM     11  C   UNL     1       8.949  25.478  43.859  1.00  0.00     0.123 A 
ATOM     12  C   UNL     1       8.865  24.110  44.133  1.00  0.00     0.093 A 
BRANCH   3  13
ATOM     13  C   UNL     1       3.284  26.530  42.139  1.00  0.00     0.021 A 
ATOM     14  C   UNL     1       3.610  27.583  41.270  1.00  0.00     0.016 A 
ATOM     15  C   UNL     1       2.608  28.416  40.761  1.00  0.00     0.047 A 
ATOM     16  C   UNL     1       1.274  28.214  41.128  1.00  0.00     0.115 A 
ATOM     17  C   UNL     1       1.946  26.348  42.526  1.00  0.00     0.016 A 
ATOM     18  C   UNL     1       0.944  27.182  42.018  1.00  0.00     0.047 A 
BRANCH  16  19
ATOM     19  O   UNL     1       0.285  29.050  40.612  1.00  0.00    -0.508 OA
ATOM     20  H   UNL     1       0.510  29.967  40.240  1.00  0.00     0.293 HD
ENDBRANCH  16  19
ENDBRANCH   3  13
BRANCH  10  21
ATOM     21  O   UNL     1       7.711  22.026  44.142  1.00  0.00    -0.507 OA
ATOM     22  H   UNL     1       8.275  21.399  43.586  1.00  0.00     0.293 HD
ENDBRANCH  10  21
BRANCH  11  23
ATOM     23  O   UNL     1      10.152  26.164  44.029  1.00  0.00    -0.508 OA
ATOM     24  H   UNL     1      10.617  26.203  44.928  1.00  0.00     0.293 HD
ENDBRANCH  11  23
ENDBRANCH   1   2
BRANCH   1  25
ATOM     25  C   UNL     1       2.311  22.871  41.851  1.00  0.00     0.339 C 
ATOM     26  C   UNL     1       0.770  22.738  41.895  1.00  0.00     0.214 C 
ATOM     27  O   UNL     1       2.740  23.234  40.549  1.00  0.00    -0.332 OA
ATOM     28  C   UNL     1       0.092  24.041  41.408  1.00  0.00     0.180 C 
ATOM     29  C   UNL     1       2.241  24.505  40.159  1.00  0.00     0.179 C 
ATOM     30  C   UNL     1       0.700  24.472  40.059  1.00  0.00     0.177 C 
BRANCH  26  31
ATOM     31  O   UNL     1       0.346  22.338  43.178  1.00  0.00    -0.384 OA
ATOM     32  H   UNL     1      -0.052  23.106  43.660  1.00  0.00     0.211 HD
ENDBRANCH  26  31
BRANCH  28  33
ATOM     33  O   UNL     1       0.255  25.049  42.370  1.00  0.00    -0.387 OA
ATOM     34  H   UNL     1       0.597  24.616  43.195  1.00  0.00     0.211 HD
ENDBRANCH  28  33
BRANCH  29  35
ATOM     35  C   UNL     1       2.877  24.884  38.816  1.00  0.00     0.191 C 
BRANCH  35  36
ATOM     36  O   UNL     1       2.572  26.210  38.481  1.00  0.00    -0.394 OA
ATOM     37  H   UNL     1       2.511  26.236  37.491  1.00  0.00     0.210 HD
ENDBRANCH  35  36
ENDBRANCH  29  35
BRANCH  30  38
ATOM     38  O   UNL     1       0.207  25.736  39.688  1.00  0.00    -0.387 OA
ATOM     39  H   UNL     1       0.155  26.280  40.517  1.00  0.00     0.211 HD
ENDBRANCH  30  38
ENDBRANCH   1  25
TORSDOF 11
ENDMDL
MODEL 5
REMARK VINA RESULT:    54.517      1.759      4.947
REMARK INTER + INTRA:          80.060
REMARK INTER:                  79.617
REMARK INTRA:                   0.443
REMARK UNBOUND:                 1.639
REMARK SMILES O=c1c(O[C@@H]2O[C@@H](CO)[C@H](O)[C@H](O)[C@@H]2O)c(-c2ccc(O)cc2)oc2cc(O)cc(O)c12
REMARK SMILES IDX 4 1 3 2 16 3 24 4 2 5 25 6 1 7 32 8 26 9 30 10 27 11 29 12
REMARK SMILES IDX 17 13 18 14 19 15 20 16 23 17 22 18 21 19 31 21 28 23 5 25
REMARK SMILES IDX 14 26 6 27 12 28 7 29 10 30 15 31 13 33 8 35 9 36 11 38
REMARK H PARENT 21 20 31 22 28 24 15 32 13 34 9 37 11 39
REMARK Flexibility Score: inf
ROOT
ATOM      1  O   UNL     1       2.247  25.861  40.660  1.00  0.00    -0.454 OA
ENDROOT
BRANCH   1   2
ATOM      2  C   UNL     1       3.144  25.147  41.488  1.00  0.00     0.214 A 
ATOM      3  C   UNL     1       2.723  23.890  41.966  1.00  0.00     0.180 A 
ATOM      4  O   UNL     1       3.508  23.170  42.756  1.00  0.00    -0.452 OA
ATOM      5  C   UNL     1       4.419  25.614  41.887  1.00  0.00     0.239 A 
ATOM      6  C   UNL     1       4.704  23.574  43.158  1.00  0.00     0.146 A 
ATOM      7  O   UNL     1       4.868  26.688  41.418  1.00  0.00    -0.285 OA
ATOM      8  C   UNL     1       5.203  24.847  42.786  1.00  0.00     0.111 A 
ATOM      9  C   UNL     1       5.470  22.713  43.950  1.00  0.00     0.094 A 
ATOM     10  C   UNL     1       6.471  25.257  43.300  1.00  0.00     0.134 A 
ATOM     11  C   UNL     1       6.735  23.094  44.389  1.00  0.00     0.123 A 
ATOM     12  C   UNL     1       7.230  24.360  44.063  1.00  0.00     0.093 A 
BRANCH   3  13
ATOM     13  C   UNL     1       1.398  23.337  41.627  1.00  0.00     0.021 A 
ATOM     14  C   UNL     1       1.077  23.069  40.287  1.00  0.00     0.016 A 
ATOM     15  C   UNL     1      -0.176  22.547  39.952  1.00  0.00     0.047 A 
ATOM     16  C   UNL     1      -1.125  22.302  40.950  1.00  0.00     0.115 A 
ATOM     17  C   UNL     1       0.433  23.115  42.623  1.00  0.00     0.016 A 
ATOM     18  C   UNL     1      -0.820  22.594  42.287  1.00  0.00     0.047 A 
BRANCH  16  19
ATOM     19  O   UNL     1      -2.369  21.779  40.603  1.00  0.00    -0.508 OA
ATOM     20  H   UNL     1      -3.088  22.360  40.183  1.00  0.00     0.293 HD
ENDBRANCH  16  19
ENDBRANCH   3  13
BRANCH  10  21
ATOM     21  O   UNL     1       7.004  26.538  43.123  1.00  0.00    -0.507 OA
ATOM     22  H   UNL     1       6.522  27.288  42.648  1.00  0.00     0.293 HD
ENDBRANCH  10  21
BRANCH  11  23
ATOM     23  O   UNL     1       7.491  22.214  45.161  1.00  0.00    -0.508 OA
ATOM     24  H   UNL     1       8.042  21.476  44.738  1.00  0.00     0.293 HD
ENDBRANCH  11  23
ENDBRANCH   1   2
BRANCH   1  25
ATOM     25  C   UNL     1       0.813  25.934  40.725  1.00  0.00     0.339 C 
ATOM     26  C   UNL     1       0.333  26.891  41.843  1.00  0.00     0.214 C 
ATOM     27  O   UNL     1       0.287  26.335  39.471  1.00  0.00    -0.332 OA
ATOM     28  C   UNL     1       0.700  28.356  41.507  1.00  0.00     0.180 C 
ATOM     29  C   UNL     1       0.748  27.622  39.088  1.00  0.00     0.179 C 
ATOM     30  C   UNL     1       0.237  28.694  40.076  1.00  0.00     0.177 C 
BRANCH  26  31
ATOM     31  O   UNL     1       0.822  26.469  43.096  1.00  0.00    -0.384 OA
ATOM     32  H   UNL     1       0.101  26.506  43.772  1.00  0.00     0.211 HD
ENDBRANCH  26  31
BRANCH  28  33
ATOM     33  O   UNL     1       2.084  28.541  41.637  1.00  0.00    -0.387 OA
ATOM     34  H   UNL     1       2.312  29.390  41.174  1.00  0.00     0.211 HD
ENDBRANCH  28  33
BRANCH  29  35
ATOM     35  C   UNL     1       0.261  27.905  37.661  1.00  0.00     0.191 C 
BRANCH  35  36
ATOM     36  O   UNL     1      -1.110  28.199  37.655  1.00  0.00    -0.394 OA
ATOM     37  H   UNL     1      -1.217  28.999  37.078  1.00  0.00     0.210 HD
ENDBRANCH  35  36
ENDBRANCH  29  35
BRANCH  30  38
ATOM     38  O   UNL     1       0.706  29.965  39.704  1.00  0.00    -0.387 OA
ATOM     39  H   UNL     1       1.326  30.265  40.419  1.00  0.00     0.211 HD
ENDBRANCH  30  38
ENDBRANCH   1  25
TORSDOF 11
ENDMDL
