MODEL 1
REMARK VINA RESULT:    -7.834      0.000      0.000
REMARK INTER + INTRA:          -9.748
REMARK INTER:                  -9.437
REMARK INTRA:                  -0.312
REMARK UNBOUND:                -0.312
REMARK SMILES O=c1c(O)c(-c2ccc(O)c(O)c2)oc2cc(O)cc(O)c12
REMARK SMILES IDX 5 1 3 2 2 3 1 4 22 5 20 6 19 7 17 8 16 9 15 10 14 11 6 12
REMARK SMILES IDX 7 13 8 14 9 15 13 16 11 17 10 18 12 20 4 22 21 24 18 26
REMARK H PARENT 10 19 12 21 4 23 21 25 18 27
REMARK Flexibility Score: inf
ROOT
ATOM      1  C   UNL     1      15.386 -47.592  69.879  1.00  0.00     0.180 A 
ATOM      2  C   UNL     1      15.380 -48.359  68.701  1.00  0.00     0.208 A 
ATOM      3  C   UNL     1      16.582 -48.536  67.998  1.00  0.00     0.238 A 
ATOM      4  O   UNL     1      16.560 -49.178  66.915  1.00  0.00    -0.285 OA
ATOM      5  C   UNL     1      17.777 -47.958  68.489  1.00  0.00     0.111 A 
ATOM      6  C   UNL     1      19.060 -48.107  67.878  1.00  0.00     0.134 A 
ATOM      7  C   UNL     1      20.150 -47.383  68.379  1.00  0.00     0.093 A 
ATOM      8  C   UNL     1      20.019 -46.569  69.503  1.00  0.00     0.123 A 
ATOM      9  C   UNL     1      18.784 -46.464  70.143  1.00  0.00     0.094 A 
ATOM     10  C   UNL     1      17.670 -47.145  69.647  1.00  0.00     0.146 A 
ATOM     11  O   UNL     1      16.510 -47.010  70.279  1.00  0.00    -0.452 OA
ENDROOT
BRANCH   1  12
ATOM     12  C   UNL     1      14.164 -47.382  70.689  1.00  0.00     0.025 A 
ATOM     13  C   UNL     1      13.700 -48.364  71.582  1.00  0.00     0.016 A 
ATOM     14  C   UNL     1      12.557 -48.134  72.353  1.00  0.00     0.051 A 
ATOM     15  C   UNL     1      11.871 -46.920  72.256  1.00  0.00     0.157 A 
ATOM     16  C   UNL     1      13.484 -46.156  70.609  1.00  0.00     0.062 A 
ATOM     17  C   UNL     1      12.337 -45.924  71.382  1.00  0.00     0.158 A 
BRANCH  15  18
ATOM     18  O   UNL     1      10.733 -46.720  73.037  1.00  0.00    -0.504 OA
ATOM     19  H   UNL     1       9.925 -46.217  72.692  1.00  0.00     0.293 HD
ENDBRANCH  15  18
BRANCH  17  20
ATOM     20  O   UNL     1      11.662 -44.708  71.286  1.00  0.00    -0.504 OA
ATOM     21  H   UNL     1      11.763 -43.988  71.991  1.00  0.00     0.293 HD
ENDBRANCH  17  20
ENDBRANCH   1  12
BRANCH   2  22
ATOM     22  O   UNL     1      14.185 -48.903  68.222  1.00  0.00    -0.502 OA
ATOM     23  H   UNL     1      13.488 -49.310  68.834  1.00  0.00     0.293 HD
ENDBRANCH   2  22
BRANCH   6  24
ATOM     24  O   UNL     1      19.320 -48.965  66.807  1.00  0.00    -0.507 OA
ATOM     25  H   UNL     1      19.472 -48.666  65.855  1.00  0.00     0.293 HD
ENDBRANCH   6  24
BRANCH   8  26
ATOM     26  O   UNL     1      21.129 -45.877  69.983  1.00  0.00    -0.508 OA
ATOM     27  H   UNL     1      21.035 -45.129  70.660  1.00  0.00     0.293 HD
ENDBRANCH   8  26
TORSDOF 6
ENDMDL
MODEL 2
REMARK VINA RESULT:    -7.747      1.311      2.897
REMARK INTER + INTRA:          -9.643
REMARK INTER:                  -9.339
REMARK INTRA:                  -0.305
REMARK UNBOUND:                -0.312
REMARK SMILES O=c1c(O)c(-c2ccc(O)c(O)c2)oc2cc(O)cc(O)c12
REMARK SMILES IDX 5 1 3 2 2 3 1 4 22 5 20 6 19 7 17 8 16 9 15 10 14 11 6 12
REMARK SMILES IDX 7 13 8 14 9 15 13 16 11 17 10 18 12 20 4 22 21 24 18 26
REMARK H PARENT 10 19 12 21 4 23 21 25 18 27
REMARK Flexibility Score: inf
ROOT
ATOM      1  C   UNL     1      15.669 -47.645  69.928  1.00  0.00     0.180 A 
ATOM      2  C   UNL     1      16.929 -47.520  70.539  1.00  0.00     0.208 A 
ATOM      3  C   UNL     1      18.083 -47.707  69.763  1.00  0.00     0.238 A 
ATOM      4  O   UNL     1      19.208 -47.649  70.328  1.00  0.00    -0.285 OA
ATOM      5  C   UNL     1      17.965 -48.001  68.384  1.00  0.00     0.111 A 
ATOM      6  C   UNL     1      19.069 -48.171  67.494  1.00  0.00     0.134 A 
ATOM      7  C   UNL     1      18.835 -48.587  66.177  1.00  0.00     0.093 A 
ATOM      8  C   UNL     1      17.539 -48.777  65.700  1.00  0.00     0.123 A 
ATOM      9  C   UNL     1      16.451 -48.556  66.545  1.00  0.00     0.094 A 
ATOM     10  C   UNL     1      16.653 -48.174  67.874  1.00  0.00     0.146 A 
ATOM     11  O   UNL     1      15.591 -47.985  68.647  1.00  0.00    -0.452 OA
ENDROOT
BRANCH   1  12
ATOM     12  C   UNL     1      14.407 -47.437  70.675  1.00  0.00     0.025 A 
ATOM     13  C   UNL     1      13.845 -48.458  71.461  1.00  0.00     0.016 A 
ATOM     14  C   UNL     1      12.666 -48.230  72.176  1.00  0.00     0.051 A 
ATOM     15  C   UNL     1      12.039 -46.981  72.128  1.00  0.00     0.157 A 
ATOM     16  C   UNL     1      13.786 -46.177  70.645  1.00  0.00     0.062 A 
ATOM     17  C   UNL     1      12.602 -45.947  71.361  1.00  0.00     0.158 A 
BRANCH  15  18
ATOM     18  O   UNL     1      10.862 -46.785  72.850  1.00  0.00    -0.504 OA
ATOM     19  H   UNL     1      10.685 -47.258  73.728  1.00  0.00     0.293 HD
ENDBRANCH  15  18
BRANCH  17  20
ATOM     20  O   UNL     1      11.987 -44.697  71.315  1.00  0.00    -0.504 OA
ATOM     21  H   UNL     1      12.001 -44.069  72.110  1.00  0.00     0.293 HD
ENDBRANCH  17  20
ENDBRANCH   1  12
BRANCH   2  22
ATOM     22  O   UNL     1      17.023 -47.251  71.908  1.00  0.00    -0.502 OA
ATOM     23  H   UNL     1      17.908 -47.074  72.368  1.00  0.00     0.293 HD
ENDBRANCH   2  22
BRANCH   6  24
ATOM     24  O   UNL     1      20.399 -47.918  67.841  1.00  0.00    -0.507 OA
ATOM     25  H   UNL     1      21.058 -48.622  68.140  1.00  0.00     0.293 HD
ENDBRANCH   6  24
BRANCH   8  26
ATOM     26  O   UNL     1      17.344 -49.176  64.379  1.00  0.00    -0.508 OA
ATOM     27  H   UNL     1      18.038 -49.723  63.883  1.00  0.00     0.293 HD
ENDBRANCH   8  26
TORSDOF 6
ENDMDL
MODEL 3
REMARK VINA RESULT:    -7.502      1.893      7.053
REMARK INTER + INTRA:          -9.348
REMARK INTER:                  -9.038
REMARK INTRA:                  -0.311
REMARK UNBOUND:                -0.312
REMARK SMILES O=c1c(O)c(-c2ccc(O)c(O)c2)oc2cc(O)cc(O)c12
REMARK SMILES IDX 5 1 3 2 2 3 1 4 22 5 20 6 19 7 17 8 16 9 15 10 14 11 6 12
REMARK SMILES IDX 7 13 8 14 9 15 13 16 11 17 10 18 12 20 4 22 21 24 18 26
REMARK H PARENT 10 19 12 21 4 23 21 25 18 27
REMARK Flexibility Score: inf
ROOT
ATOM      1  C   UNL     1      17.387 -47.426  69.093  1.00  0.00     0.180 A 
ATOM      2  C   UNL     1      17.432 -48.380  70.124  1.00  0.00     0.208 A 
ATOM      3  C   UNL     1      16.333 -48.501  70.988  1.00  0.00     0.238 A 
ATOM      4  O   UNL     1      16.402 -49.319  71.944  1.00  0.00    -0.285 OA
ATOM      5  C   UNL     1      15.196 -47.677  70.803  1.00  0.00     0.111 A 
ATOM      6  C   UNL     1      14.010 -47.742  71.596  1.00  0.00     0.134 A 
ATOM      7  C   UNL     1      13.000 -46.791  71.405  1.00  0.00     0.093 A 
ATOM      8  C   UNL     1      13.104 -45.820  70.410  1.00  0.00     0.123 A 
ATOM      9  C   UNL     1      14.232 -45.785  69.590  1.00  0.00     0.094 A 
ATOM     10  C   UNL     1      15.272 -46.698  69.779  1.00  0.00     0.146 A 
ATOM     11  O   UNL     1      16.333 -46.625  68.985  1.00  0.00    -0.452 OA
ENDROOT
BRANCH   1  12
ATOM     12  C   UNL     1      18.495 -47.257  68.126  1.00  0.00     0.025 A 
ATOM     13  C   UNL     1      18.457 -47.861  66.856  1.00  0.00     0.016 A 
ATOM     14  C   UNL     1      19.505 -47.667  65.952  1.00  0.00     0.051 A 
ATOM     15  C   UNL     1      20.595 -46.862  66.292  1.00  0.00     0.157 A 
ATOM     16  C   UNL     1      19.582 -46.432  68.457  1.00  0.00     0.062 A 
ATOM     17  C   UNL     1      20.634 -46.237  67.550  1.00  0.00     0.158 A 
BRANCH  15  18
ATOM     18  O   UNL     1      21.626 -46.690  65.369  1.00  0.00    -0.504 OA
ATOM     19  H   UNL     1      21.622 -45.936  64.693  1.00  0.00     0.293 HD
ENDBRANCH  15  18
BRANCH  17  20
ATOM     20  O   UNL     1      21.714 -45.426  67.894  1.00  0.00    -0.504 OA
ATOM     21  H   UNL     1      21.734 -44.910  68.765  1.00  0.00     0.293 HD
ENDBRANCH  17  20
ENDBRANCH   1  12
BRANCH   2  22
ATOM     22  O   UNL     1      18.572 -49.168  70.303  1.00  0.00    -0.502 OA
ATOM     23  H   UNL     1      19.118 -49.150  71.156  1.00  0.00     0.293 HD
ENDBRANCH   2  22
BRANCH   6  24
ATOM     24  O   UNL     1      13.765 -48.728  72.555  1.00  0.00    -0.507 OA
ATOM     25  H   UNL     1      14.035 -49.697  72.466  1.00  0.00     0.293 HD
ENDBRANCH   6  24
BRANCH   8  26
ATOM     26  O   UNL     1      12.071 -44.900  70.238  1.00  0.00    -0.508 OA
ATOM     27  H   UNL     1      12.163 -44.113  69.606  1.00  0.00     0.293 HD
ENDBRANCH   8  26
TORSDOF 6
ENDMDL
MODEL 4
REMARK VINA RESULT:    -7.189      1.259      1.334
REMARK INTER + INTRA:          -8.972
REMARK INTER:                  -8.950
REMARK INTRA:                  -0.021
REMARK UNBOUND:                -0.312
REMARK SMILES O=c1c(O)c(-c2ccc(O)c(O)c2)oc2cc(O)cc(O)c12
REMARK SMILES IDX 5 1 3 2 2 3 1 4 22 5 20 6 19 7 17 8 16 9 15 10 14 11 6 12
REMARK SMILES IDX 7 13 8 14 9 15 13 16 11 17 10 18 12 20 4 22 21 24 18 26
REMARK H PARENT 10 19 12 21 4 23 21 25 18 27
REMARK Flexibility Score: inf
ROOT
ATOM      1  C   UNL     1      16.084 -47.061  69.621  1.00  0.00     0.180 A 
ATOM      2  C   UNL     1      16.459 -48.120  68.776  1.00  0.00     0.208 A 
ATOM      3  C   UNL     1      17.718 -48.083  68.156  1.00  0.00     0.238 A 
ATOM      4  O   UNL     1      18.025 -49.007  67.357  1.00  0.00    -0.285 OA
ATOM      5  C   UNL     1      18.592 -46.997  68.399  1.00  0.00     0.111 A 
ATOM      6  C   UNL     1      19.906 -46.876  67.855  1.00  0.00     0.134 A 
ATOM      7  C   UNL     1      20.632 -45.696  68.059  1.00  0.00     0.093 A 
ATOM      8  C   UNL     1      20.119 -44.661  68.840  1.00  0.00     0.123 A 
ATOM      9  C   UNL     1      18.860 -44.793  69.427  1.00  0.00     0.094 A 
ATOM     10  C   UNL     1      18.097 -45.944  69.211  1.00  0.00     0.146 A 
ATOM     11  O   UNL     1      16.900 -46.026  69.778  1.00  0.00    -0.452 OA
ENDROOT
BRANCH   1  12
ATOM     12  C   UNL     1      14.785 -47.042  70.331  1.00  0.00     0.025 A 
ATOM     13  C   UNL     1      14.343 -48.147  71.079  1.00  0.00     0.016 A 
ATOM     14  C   UNL     1      13.123 -48.096  71.760  1.00  0.00     0.051 A 
ATOM     15  C   UNL     1      12.336 -46.942  71.717  1.00  0.00     0.157 A 
ATOM     16  C   UNL     1      14.001 -45.877  70.306  1.00  0.00     0.062 A 
ATOM     17  C   UNL     1      12.777 -45.824  70.989  1.00  0.00     0.158 A 
BRANCH  15  18
ATOM     18  O   UNL     1      11.123 -46.922  72.405  1.00  0.00    -0.504 OA
ATOM     19  H   UNL     1      10.569 -47.759  72.543  1.00  0.00     0.293 HD
ENDBRANCH  15  18
BRANCH  17  20
ATOM     20  O   UNL     1      12.000 -44.667  70.948  1.00  0.00    -0.504 OA
ATOM     21  H   UNL     1      12.411 -43.759  70.766  1.00  0.00     0.293 HD
ENDBRANCH  17  20
ENDBRANCH   1  12
BRANCH   2  22
ATOM     22  O   UNL     1      15.573 -49.173  68.532  1.00  0.00    -0.502 OA
ATOM     23  H   UNL     1      15.599 -49.720  67.681  1.00  0.00     0.293 HD
ENDBRANCH   2  22
BRANCH   6  24
ATOM     24  O   UNL     1      20.550 -47.887  67.136  1.00  0.00    -0.507 OA
ATOM     25  H   UNL     1      21.357 -47.749  66.546  1.00  0.00     0.293 HD
ENDBRANCH   6  24
BRANCH   8  26
ATOM     26  O   UNL     1      20.877 -43.507  69.035  1.00  0.00    -0.508 OA
ATOM     27  H   UNL     1      21.099 -42.883  68.268  1.00  0.00     0.293 HD
ENDBRANCH   8  26
TORSDOF 6
ENDMDL
MODEL 5
REMARK VINA RESULT:    -7.163      3.199      7.596
REMARK INTER + INTRA:          -8.940
REMARK INTER:                  -8.653
REMARK INTRA:                  -0.287
REMARK UNBOUND:                -0.312
REMARK SMILES O=c1c(O)c(-c2ccc(O)c(O)c2)oc2cc(O)cc(O)c12
REMARK SMILES IDX 5 1 3 2 2 3 1 4 22 5 20 6 19 7 17 8 16 9 15 10 14 11 6 12
REMARK SMILES IDX 7 13 8 14 9 15 13 16 11 17 10 18 12 20 4 22 21 24 18 26
REMARK H PARENT 10 19 12 21 4 23 21 25 18 27
REMARK Flexibility Score: inf
ROOT
ATOM      1  C   UNL     1      19.955 -45.253  68.548  1.00  0.00     0.180 A 
ATOM      2  C   UNL     1      19.502 -45.938  67.407  1.00  0.00     0.208 A 
ATOM      3  C   UNL     1      18.530 -46.939  67.556  1.00  0.00     0.238 A 
ATOM      4  O   UNL     1      18.169 -47.587  66.538  1.00  0.00    -0.285 OA
ATOM      5  C   UNL     1      18.012 -47.233  68.839  1.00  0.00     0.111 A 
ATOM      6  C   UNL     1      16.995 -48.201  69.100  1.00  0.00     0.134 A 
ATOM      7  C   UNL     1      16.651 -48.500  70.425  1.00  0.00     0.093 A 
ATOM      8  C   UNL     1      17.239 -47.823  71.492  1.00  0.00     0.123 A 
ATOM      9  C   UNL     1      18.191 -46.833  71.246  1.00  0.00     0.094 A 
ATOM     10  C   UNL     1      18.580 -46.537  69.937  1.00  0.00     0.146 A 
ATOM     11  O   UNL     1      19.496 -45.596  69.746  1.00  0.00    -0.452 OA
ENDROOT
BRANCH   1  12
ATOM     12  C   UNL     1      20.959 -44.167  68.468  1.00  0.00     0.025 A 
ATOM     13  C   UNL     1      20.615 -42.884  68.009  1.00  0.00     0.016 A 
ATOM     14  C   UNL     1      21.574 -41.868  67.966  1.00  0.00     0.051 A 
ATOM     15  C   UNL     1      22.883 -42.113  68.390  1.00  0.00     0.157 A 
ATOM     16  C   UNL     1      22.270 -44.404  68.913  1.00  0.00     0.062 A 
ATOM     17  C   UNL     1      23.234 -43.386  68.870  1.00  0.00     0.158 A 
BRANCH  15  18
ATOM     18  O   UNL     1      23.818 -41.080  68.333  1.00  0.00    -0.504 OA
ATOM     19  H   UNL     1      24.343 -40.876  67.492  1.00  0.00     0.293 HD
ENDBRANCH  15  18
BRANCH  17  20
ATOM     20  O   UNL     1      24.535 -43.634  69.303  1.00  0.00    -0.504 OA
ATOM     21  H   UNL     1      25.293 -43.783  68.648  1.00  0.00     0.293 HD
ENDBRANCH  17  20
ENDBRANCH   1  12
BRANCH   2  22
ATOM     22  O   UNL     1      20.043 -45.647  66.151  1.00  0.00    -0.502 OA
ATOM     23  H   UNL     1      19.629 -44.969  65.524  1.00  0.00     0.293 HD
ENDBRANCH   2  22
BRANCH   6  24
ATOM     24  O   UNL     1      16.278 -48.870  68.104  1.00  0.00    -0.507 OA
ATOM     25  H   UNL     1      16.253 -48.597  67.133  1.00  0.00     0.293 HD
ENDBRANCH   6  24
BRANCH   8  26
ATOM     26  O   UNL     1      16.861 -48.135  72.797  1.00  0.00    -0.508 OA
ATOM     27  H   UNL     1      17.483 -47.977  73.581  1.00  0.00     0.293 HD
ENDBRANCH   8  26
TORSDOF 6
ENDMDL
MODEL 6
REMARK VINA RESULT:    -7.085      2.484      6.628
REMARK INTER + INTRA:          -8.846
REMARK INTER:                  -8.526
REMARK INTRA:                  -0.320
REMARK UNBOUND:                -0.312
REMARK SMILES O=c1c(O)c(-c2ccc(O)c(O)c2)oc2cc(O)cc(O)c12
REMARK SMILES IDX 5 1 3 2 2 3 1 4 22 5 20 6 19 7 17 8 16 9 15 10 14 11 6 12
REMARK SMILES IDX 7 13 8 14 9 15 13 16 11 17 10 18 12 20 4 22 21 24 18 26
REMARK H PARENT 10 19 12 21 4 23 21 25 18 27
REMARK Flexibility Score: inf
ROOT
ATOM      1  C   UNL     1      16.583 -46.784  69.860  1.00  0.00     0.180 A 
ATOM      2  C   UNL     1      17.229 -47.790  70.599  1.00  0.00     0.208 A 
ATOM      3  C   UNL     1      16.474 -48.577  71.483  1.00  0.00     0.238 A 
ATOM      4  O   UNL     1      17.068 -49.440  72.183  1.00  0.00    -0.285 OA
ATOM      5  C   UNL     1      15.081 -48.360  71.605  1.00  0.00     0.111 A 
ATOM      6  C   UNL     1      14.211 -49.126  72.441  1.00  0.00     0.134 A 
ATOM      7  C   UNL     1      12.873 -48.738  72.581  1.00  0.00     0.093 A 
ATOM      8  C   UNL     1      12.357 -47.656  71.870  1.00  0.00     0.123 A 
ATOM      9  C   UNL     1      13.183 -46.937  71.005  1.00  0.00     0.094 A 
ATOM     10  C   UNL     1      14.532 -47.278  70.871  1.00  0.00     0.146 A 
ATOM     11  O   UNL     1      15.287 -46.562  70.046  1.00  0.00    -0.452 OA
ENDROOT
BRANCH   1  12
ATOM     12  C   UNL     1      17.306 -45.930  68.890  1.00  0.00     0.025 A 
ATOM     13  C   UNL     1      17.338 -46.245  67.520  1.00  0.00     0.016 A 
ATOM     14  C   UNL     1      18.008 -45.411  66.620  1.00  0.00     0.051 A 
ATOM     15  C   UNL     1      18.641 -44.249  67.069  1.00  0.00     0.157 A 
ATOM     16  C   UNL     1      17.926 -44.751  69.335  1.00  0.00     0.062 A 
ATOM     17  C   UNL     1      18.599 -43.914  68.433  1.00  0.00     0.158 A 
BRANCH  15  18
ATOM     18  O   UNL     1      19.303 -43.438  66.147  1.00  0.00    -0.504 OA
ATOM     19  H   UNL     1      19.799 -42.600  66.426  1.00  0.00     0.293 HD
ENDBRANCH  15  18
BRANCH  17  20
ATOM     20  O   UNL     1      19.221 -42.752  68.886  1.00  0.00    -0.504 OA
ATOM     21  H   UNL     1      19.402 -42.596  69.871  1.00  0.00     0.293 HD
ENDBRANCH  17  20
ENDBRANCH   1  12
BRANCH   2  22
ATOM     22  O   UNL     1      18.609 -47.974  70.480  1.00  0.00    -0.502 OA
ATOM     23  H   UNL     1      19.019 -48.857  70.200  1.00  0.00     0.293 HD
ENDBRANCH   2  22
BRANCH   6  24
ATOM     24  O   UNL     1      14.602 -50.280  73.124  1.00  0.00    -0.507 OA
ATOM     25  H   UNL     1      14.422 -51.223  72.810  1.00  0.00     0.293 HD
ENDBRANCH   6  24
BRANCH   8  26
ATOM     26  O   UNL     1      11.016 -47.309  72.023  1.00  0.00    -0.508 OA
ATOM     27  H   UNL     1      10.647 -47.001  72.916  1.00  0.00     0.293 HD
ENDBRANCH   8  26
TORSDOF 6
ENDMDL
MODEL 7
REMARK VINA RESULT:    -6.911      2.194      7.104
REMARK INTER + INTRA:          -8.636
REMARK INTER:                  -8.324
REMARK INTRA:                  -0.313
REMARK UNBOUND:                -0.312
REMARK SMILES O=c1c(O)c(-c2ccc(O)c(O)c2)oc2cc(O)cc(O)c12
REMARK SMILES IDX 5 1 3 2 2 3 1 4 22 5 20 6 19 7 17 8 16 9 15 10 14 11 6 12
REMARK SMILES IDX 7 13 8 14 9 15 13 16 11 17 10 18 12 20 4 22 21 24 18 26
REMARK H PARENT 10 19 12 21 4 23 21 25 18 27
REMARK Flexibility Score: inf
ROOT
ATOM      1  C   UNL     1      16.647 -46.312  68.360  1.00  0.00     0.180 A 
ATOM      2  C   UNL     1      15.759 -45.278  68.017  1.00  0.00     0.208 A 
ATOM      3  C   UNL     1      14.541 -45.169  68.707  1.00  0.00     0.238 A 
ATOM      4  O   UNL     1      13.726 -44.275  68.358  1.00  0.00    -0.285 OA
ATOM      5  C   UNL     1      14.233 -46.084  69.741  1.00  0.00     0.111 A 
ATOM      6  C   UNL     1      13.046 -46.043  70.534  1.00  0.00     0.134 A 
ATOM      7  C   UNL     1      12.786 -47.077  71.442  1.00  0.00     0.093 A 
ATOM      8  C   UNL     1      13.698 -48.114  71.633  1.00  0.00     0.123 A 
ATOM      9  C   UNL     1      14.890 -48.132  70.907  1.00  0.00     0.094 A 
ATOM     10  C   UNL     1      15.161 -47.134  69.968  1.00  0.00     0.146 A 
ATOM     11  O   UNL     1      16.301 -47.193  69.291  1.00  0.00    -0.452 OA
ENDROOT
BRANCH   1  12
ATOM     12  C   UNL     1      17.960 -46.476  67.696  1.00  0.00     0.025 A 
ATOM     13  C   UNL     1      18.123 -47.342  66.600  1.00  0.00     0.016 A 
ATOM     14  C   UNL     1      19.367 -47.462  65.974  1.00  0.00     0.051 A 
ATOM     15  C   UNL     1      20.459 -46.713  66.421  1.00  0.00     0.157 A 
ATOM     16  C   UNL     1      19.054 -45.709  68.129  1.00  0.00     0.062 A 
ATOM     17  C   UNL     1      20.303 -45.829  67.502  1.00  0.00     0.158 A 
BRANCH  15  18
ATOM     18  O   UNL     1      21.688 -46.856  65.777  1.00  0.00    -0.504 OA
ATOM     19  H   UNL     1      21.771 -46.843  64.768  1.00  0.00     0.293 HD
ENDBRANCH  15  18
BRANCH  17  20
ATOM     20  O   UNL     1      21.386 -45.073  67.947  1.00  0.00    -0.504 OA
ATOM     21  H   UNL     1      22.341 -45.347  67.753  1.00  0.00     0.293 HD
ENDBRANCH  17  20
ENDBRANCH   1  12
BRANCH   2  22
ATOM     22  O   UNL     1      16.072 -44.397  66.978  1.00  0.00    -0.502 OA
ATOM     23  H   UNL     1      15.798 -43.422  66.989  1.00  0.00     0.293 HD
ENDBRANCH   2  22
BRANCH   6  24
ATOM     24  O   UNL     1      12.112 -45.004  70.488  1.00  0.00    -0.507 OA
ATOM     25  H   UNL     1      11.698 -44.641  69.642  1.00  0.00     0.293 HD
ENDBRANCH   6  24
BRANCH   8  26
ATOM     26  O   UNL     1      13.414 -49.118  72.558  1.00  0.00    -0.508 OA
ATOM     27  H   UNL     1      14.149 -49.682  72.970  1.00  0.00     0.293 HD
ENDBRANCH   8  26
TORSDOF 6
ENDMDL
MODEL 8
REMARK VINA RESULT:    -6.835      4.872      7.486
REMARK INTER + INTRA:          -8.545
REMARK INTER:                  -8.234
REMARK INTRA:                  -0.310
REMARK UNBOUND:                -0.312
REMARK SMILES O=c1c(O)c(-c2ccc(O)c(O)c2)oc2cc(O)cc(O)c12
REMARK SMILES IDX 5 1 3 2 2 3 1 4 22 5 20 6 19 7 17 8 16 9 15 10 14 11 6 12
REMARK SMILES IDX 7 13 8 14 9 15 13 16 11 17 10 18 12 20 4 22 21 24 18 26
REMARK H PARENT 10 19 12 21 4 23 21 25 18 27
REMARK Flexibility Score: inf
ROOT
ATOM      1  C   UNL     1      20.027 -44.326  68.568  1.00  0.00     0.180 A 
ATOM      2  C   UNL     1      18.899 -43.487  68.547  1.00  0.00     0.208 A 
ATOM      3  C   UNL     1      19.078 -42.110  68.342  1.00  0.00     0.238 A 
ATOM      4  O   UNL     1      18.070 -41.356  68.379  1.00  0.00    -0.285 OA
ATOM      5  C   UNL     1      20.380 -41.591  68.144  1.00  0.00     0.111 A 
ATOM      6  C   UNL     1      20.674 -40.217  67.887  1.00  0.00     0.134 A 
ATOM      7  C   UNL     1      22.009 -39.796  67.837  1.00  0.00     0.093 A 
ATOM      8  C   UNL     1      23.058 -40.705  67.969  1.00  0.00     0.123 A 
ATOM      9  C   UNL     1      22.781 -42.059  68.161  1.00  0.00     0.094 A 
ATOM     10  C   UNL     1      21.460 -42.505  68.251  1.00  0.00     0.146 A 
ATOM     11  O   UNL     1      21.239 -43.799  68.444  1.00  0.00    -0.452 OA
ENDROOT
BRANCH   1  12
ATOM     12  C   UNL     1      19.916 -45.791  68.754  1.00  0.00     0.025 A 
ATOM     13  C   UNL     1      19.810 -46.360  70.035  1.00  0.00     0.016 A 
ATOM     14  C   UNL     1      19.683 -47.744  70.184  1.00  0.00     0.051 A 
ATOM     15  C   UNL     1      19.645 -48.576  69.062  1.00  0.00     0.157 A 
ATOM     16  C   UNL     1      19.856 -46.628  67.628  1.00  0.00     0.062 A 
ATOM     17  C   UNL     1      19.729 -48.017  67.776  1.00  0.00     0.158 A 
BRANCH  15  18
ATOM     18  O   UNL     1      19.518 -49.953  69.242  1.00  0.00    -0.504 OA
ATOM     19  H   UNL     1      18.708 -50.365  69.689  1.00  0.00     0.293 HD
ENDBRANCH  15  18
BRANCH  17  20
ATOM     20  O   UNL     1      19.683 -48.840  66.651  1.00  0.00    -0.504 OA
ATOM     21  H   UNL     1      19.390 -49.807  66.714  1.00  0.00     0.293 HD
ENDBRANCH  17  20
ENDBRANCH   1  12
BRANCH   2  22
ATOM     22  O   UNL     1      17.624 -44.017  68.766  1.00  0.00    -0.502 OA
ATOM     23  H   UNL     1      16.866 -43.468  69.154  1.00  0.00     0.293 HD
ENDBRANCH   2  22
BRANCH   6  24
ATOM     24  O   UNL     1      19.703 -39.242  67.649  1.00  0.00    -0.507 OA
ATOM     25  H   UNL     1      18.709 -39.382  67.754  1.00  0.00     0.293 HD
ENDBRANCH   6  24
BRANCH   8  26
ATOM     26  O   UNL     1      24.374 -40.252  67.898  1.00  0.00    -0.508 OA
ATOM     27  H   UNL     1      24.996 -40.547  67.154  1.00  0.00     0.293 HD
ENDBRANCH   8  26
TORSDOF 6
ENDMDL
MODEL 9
REMARK VINA RESULT:    -6.752      4.733      6.076
REMARK INTER + INTRA:          -8.446
REMARK INTER:                  -8.129
REMARK INTRA:                  -0.317
REMARK UNBOUND:                -0.312
REMARK SMILES O=c1c(O)c(-c2ccc(O)c(O)c2)oc2cc(O)cc(O)c12
REMARK SMILES IDX 5 1 3 2 2 3 1 4 22 5 20 6 19 7 17 8 16 9 15 10 14 11 6 12
REMARK SMILES IDX 7 13 8 14 9 15 13 16 11 17 10 18 12 20 4 22 21 24 18 26
REMARK H PARENT 10 19 12 21 4 23 21 25 18 27
REMARK Flexibility Score: inf
ROOT
ATOM      1  C   UNL     1      17.805 -43.685  67.333  1.00  0.00     0.180 A 
ATOM      2  C   UNL     1      18.702 -44.223  66.393  1.00  0.00     0.208 A 
ATOM      3  C   UNL     1      19.374 -45.417  66.700  1.00  0.00     0.238 A 
ATOM      4  O   UNL     1      20.217 -45.864  65.878  1.00  0.00    -0.285 OA
ATOM      5  C   UNL     1      19.131 -46.066  67.934  1.00  0.00     0.111 A 
ATOM      6  C   UNL     1      19.728 -47.301  68.332  1.00  0.00     0.134 A 
ATOM      7  C   UNL     1      19.513 -47.784  69.629  1.00  0.00     0.093 A 
ATOM      8  C   UNL     1      18.675 -47.113  70.519  1.00  0.00     0.123 A 
ATOM      9  C   UNL     1      18.040 -45.937  70.120  1.00  0.00     0.094 A 
ATOM     10  C   UNL     1      18.262 -45.411  68.844  1.00  0.00     0.146 A 
ATOM     11  O   UNL     1      17.647 -44.284  68.508  1.00  0.00    -0.452 OA
ENDROOT
BRANCH   1  12
ATOM     12  C   UNL     1      17.039 -42.445  67.071  1.00  0.00     0.025 A 
ATOM     13  C   UNL     1      17.518 -41.189  67.482  1.00  0.00     0.016 A 
ATOM     14  C   UNL     1      16.789 -40.030  67.203  1.00  0.00     0.051 A 
ATOM     15  C   UNL     1      15.584 -40.104  66.500  1.00  0.00     0.157 A 
ATOM     16  C   UNL     1      15.838 -42.514  66.347  1.00  0.00     0.062 A 
ATOM     17  C   UNL     1      15.105 -41.352  66.066  1.00  0.00     0.158 A 
BRANCH  15  18
ATOM     18  O   UNL     1      14.878 -38.930  66.238  1.00  0.00    -0.504 OA
ATOM     19  H   UNL     1      15.340 -38.032  66.155  1.00  0.00     0.293 HD
ENDBRANCH  15  18
BRANCH  17  20
ATOM     20  O   UNL     1      13.908 -41.432  65.357  1.00  0.00    -0.504 OA
ATOM     21  H   UNL     1      13.016 -41.521  65.830  1.00  0.00     0.293 HD
ENDBRANCH  17  20
ENDBRANCH   1  12
BRANCH   2  22
ATOM     22  O   UNL     1      18.944 -43.555  65.190  1.00  0.00    -0.502 OA
ATOM     23  H   UNL     1      18.204 -43.133  64.643  1.00  0.00     0.293 HD
ENDBRANCH   2  22
BRANCH   6  24
ATOM     24  O   UNL     1      20.507 -48.098  67.490  1.00  0.00    -0.507 OA
ATOM     25  H   UNL     1      20.325 -49.070  67.287  1.00  0.00     0.293 HD
ENDBRANCH   6  24
BRANCH   8  26
ATOM     26  O   UNL     1      18.473 -47.632  71.796  1.00  0.00    -0.508 OA
ATOM     27  H   UNL     1      17.541 -47.768  72.171  1.00  0.00     0.293 HD
ENDBRANCH   8  26
TORSDOF 6
ENDMDL
