MODEL 1
REMARK VINA RESULT:    -7.102      0.000      0.000
REMARK INTER + INTRA:          -8.856
REMARK INTER:                  -8.556
REMARK INTRA:                  -0.300
REMARK UNBOUND:                -0.300
REMARK SMILES O=c1c(O)c(-c2ccc(O)c(O)c2)oc2cc(O)cc(O)c12
REMARK SMILES IDX 5 1 3 2 2 3 1 4 22 5 20 6 19 7 17 8 16 9 15 10 14 11 6 12
REMARK SMILES IDX 7 13 8 14 9 15 13 16 11 17 10 18 12 20 4 22 21 24 18 26
REMARK H PARENT 10 19 12 21 4 23 21 25 18 27
REMARK Flexibility Score: inf
ROOT
ATOM      1  C   UNL     1       8.181   8.562  32.814  1.00  0.00     0.180 A 
ATOM      2  C   UNL     1       8.943   8.564  31.634  1.00  0.00     0.208 A 
ATOM      3  C   UNL     1       9.049   9.753  30.895  1.00  0.00     0.238 A 
ATOM      4  O   UNL     1       9.688   9.735  29.810  1.00  0.00    -0.285 OA
ATOM      5  C   UNL     1       8.407  10.928  31.354  1.00  0.00     0.111 A 
ATOM      6  C   UNL     1       8.481  12.198  30.706  1.00  0.00     0.134 A 
ATOM      7  C   UNL     1       7.698  13.259  31.177  1.00  0.00     0.093 A 
ATOM      8  C   UNL     1       6.896  13.115  32.311  1.00  0.00     0.123 A 
ATOM      9  C   UNL     1       6.863  11.897  32.985  1.00  0.00     0.094 A 
ATOM     10  C   UNL     1       7.604  10.809  32.518  1.00  0.00     0.146 A 
ATOM     11  O   UNL     1       7.536   9.662  33.184  1.00  0.00    -0.452 OA
ENDROOT
BRANCH   1  12
ATOM     12  C   UNL     1       8.042   7.354  33.660  1.00  0.00     0.025 A 
ATOM     13  C   UNL     1       8.810   7.183  34.825  1.00  0.00     0.016 A 
ATOM     14  C   UNL     1       8.645   6.046  35.620  1.00  0.00     0.051 A 
ATOM     15  C   UNL     1       7.702   5.070  35.271  1.00  0.00     0.157 A 
ATOM     16  C   UNL     1       7.084   6.382  33.326  1.00  0.00     0.062 A 
ATOM     17  C   UNL     1       6.915   5.241  34.120  1.00  0.00     0.158 A 
BRANCH  15  18
ATOM     18  O   UNL     1       7.541   3.936  36.066  1.00  0.00    -0.504 OA
ATOM     19  H   UNL     1       8.322   3.333  36.294  1.00  0.00     0.293 HD
ENDBRANCH  15  18
BRANCH  17  20
ATOM     20  O   UNL     1       5.964   4.292  33.749  1.00  0.00    -0.504 OA
ATOM     21  H   UNL     1       5.658   4.185  32.790  1.00  0.00     0.293 HD
ENDBRANCH  17  20
ENDBRANCH   1  12
BRANCH   2  22
ATOM     22  O   UNL     1       9.551   7.387  31.187  1.00  0.00    -0.502 OA
ATOM     23  H   UNL     1       9.579   6.544  31.747  1.00  0.00     0.293 HD
ENDBRANCH   2  22
BRANCH   6  24
ATOM     24  O   UNL     1       9.320  12.473  29.623  1.00  0.00    -0.507 OA
ATOM     25  H   UNL     1       9.024  12.908  28.762  1.00  0.00     0.293 HD
ENDBRANCH   6  24
BRANCH   8  26
ATOM     26  O   UNL     1       6.133  14.181  32.783  1.00  0.00    -0.508 OA
ATOM     27  H   UNL     1       5.171  14.056  33.079  1.00  0.00     0.293 HD
ENDBRANCH   8  26
TORSDOF 6
ENDMDL
MODEL 2
REMARK VINA RESULT:    -7.092      4.963      7.239
REMARK INTER + INTRA:          -8.844
REMARK INTER:                  -8.551
REMARK INTRA:                  -0.293
REMARK UNBOUND:                -0.300
REMARK SMILES O=c1c(O)c(-c2ccc(O)c(O)c2)oc2cc(O)cc(O)c12
REMARK SMILES IDX 5 1 3 2 2 3 1 4 22 5 20 6 19 7 17 8 16 9 15 10 14 11 6 12
REMARK SMILES IDX 7 13 8 14 9 15 13 16 11 17 10 18 12 20 4 22 21 24 18 26
REMARK H PARENT 10 19 12 21 4 23 21 25 18 27
REMARK Flexibility Score: inf
ROOT
ATOM      1  C   UNL     1      11.679  10.643  34.288  1.00  0.00     0.180 A 
ATOM      2  C   UNL     1      10.426  11.272  34.400  1.00  0.00     0.208 A 
ATOM      3  C   UNL     1       9.317  10.695  33.762  1.00  0.00     0.238 A 
ATOM      4  O   UNL     1       8.209  11.291  33.820  1.00  0.00    -0.285 OA
ATOM      5  C   UNL     1       9.469   9.490  33.034  1.00  0.00     0.111 A 
ATOM      6  C   UNL     1       8.405   8.798  32.381  1.00  0.00     0.134 A 
ATOM      7  C   UNL     1       8.695   7.686  31.581  1.00  0.00     0.093 A 
ATOM      8  C   UNL     1      10.000   7.203  31.463  1.00  0.00     0.123 A 
ATOM      9  C   UNL     1      11.036   7.837  32.144  1.00  0.00     0.094 A 
ATOM     10  C   UNL     1      10.784   8.970  32.920  1.00  0.00     0.146 A 
ATOM     11  O   UNL     1      11.803   9.551  33.545  1.00  0.00    -0.452 OA
ENDROOT
BRANCH   1  12
ATOM     12  C   UNL     1      12.889  11.177  34.954  1.00  0.00     0.025 A 
ATOM     13  C   UNL     1      13.105  11.002  36.332  1.00  0.00     0.016 A 
ATOM     14  C   UNL     1      14.266  11.494  36.933  1.00  0.00     0.051 A 
ATOM     15  C   UNL     1      15.236  12.154  36.166  1.00  0.00     0.157 A 
ATOM     16  C   UNL     1      13.873  11.821  34.185  1.00  0.00     0.062 A 
ATOM     17  C   UNL     1      15.039  12.315  34.784  1.00  0.00     0.158 A 
BRANCH  15  18
ATOM     18  O   UNL     1      16.392  12.644  36.769  1.00  0.00    -0.504 OA
ATOM     19  H   UNL     1      17.267  12.134  36.733  1.00  0.00     0.293 HD
ENDBRANCH  15  18
BRANCH  17  20
ATOM     20  O   UNL     1      15.987  12.961  33.991  1.00  0.00    -0.504 OA
ATOM     21  H   UNL     1      16.976  12.759  34.065  1.00  0.00     0.293 HD
ENDBRANCH  17  20
ENDBRANCH   1  12
BRANCH   2  22
ATOM     22  O   UNL     1      10.302  12.472  35.106  1.00  0.00    -0.502 OA
ATOM     23  H   UNL     1      10.531  13.369  34.696  1.00  0.00     0.293 HD
ENDBRANCH   2  22
BRANCH   6  24
ATOM     24  O   UNL     1       7.056   9.142  32.508  1.00  0.00    -0.507 OA
ATOM     25  H   UNL     1       6.311   8.764  31.944  1.00  0.00     0.293 HD
ENDBRANCH   6  24
BRANCH   8  26
ATOM     26  O   UNL     1      10.276   6.086  30.677  1.00  0.00    -0.508 OA
ATOM     27  H   UNL     1      11.156   5.589  30.753  1.00  0.00     0.293 HD
ENDBRANCH   8  26
TORSDOF 6
ENDMDL
MODEL 3
REMARK VINA RESULT:    -6.886      2.429      6.976
REMARK INTER + INTRA:          -8.595
REMARK INTER:                  -8.278
REMARK INTRA:                  -0.317
REMARK UNBOUND:                -0.300
REMARK SMILES O=c1c(O)c(-c2ccc(O)c(O)c2)oc2cc(O)cc(O)c12
REMARK SMILES IDX 5 1 3 2 2 3 1 4 22 5 20 6 19 7 17 8 16 9 15 10 14 11 6 12
REMARK SMILES IDX 7 13 8 14 9 15 13 16 11 17 10 18 12 20 4 22 21 24 18 26
REMARK H PARENT 10 19 12 21 4 23 21 25 18 27
REMARK Flexibility Score: inf
ROOT
ATOM      1  C   UNL     1       8.587   8.103  32.922  1.00  0.00     0.180 A 
ATOM      2  C   UNL     1       7.654   7.814  33.933  1.00  0.00     0.208 A 
ATOM      3  C   UNL     1       6.932   6.612  33.869  1.00  0.00     0.238 A 
ATOM      4  O   UNL     1       6.059   6.384  34.748  1.00  0.00    -0.285 OA
ATOM      5  C   UNL     1       7.164   5.706  32.806  1.00  0.00     0.111 A 
ATOM      6  C   UNL     1       6.518   4.441  32.664  1.00  0.00     0.134 A 
ATOM      7  C   UNL     1       6.727   3.685  31.504  1.00  0.00     0.093 A 
ATOM      8  C   UNL     1       7.609   4.119  30.511  1.00  0.00     0.123 A 
ATOM      9  C   UNL     1       8.289   5.324  30.669  1.00  0.00     0.094 A 
ATOM     10  C   UNL     1       8.074   6.117  31.798  1.00  0.00     0.146 A 
ATOM     11  O   UNL     1       8.735   7.264  31.903  1.00  0.00    -0.452 OA
ENDROOT
BRANCH   1  12
ATOM     12  C   UNL     1       9.404   9.338  32.933  1.00  0.00     0.025 A 
ATOM     13  C   UNL     1      10.571   9.437  33.711  1.00  0.00     0.016 A 
ATOM     14  C   UNL     1      11.339  10.604  33.687  1.00  0.00     0.051 A 
ATOM     15  C   UNL     1      10.961  11.683  32.877  1.00  0.00     0.157 A 
ATOM     16  C   UNL     1       9.041  10.414  32.107  1.00  0.00     0.062 A 
ATOM     17  C   UNL     1       9.808  11.586  32.081  1.00  0.00     0.158 A 
BRANCH  15  18
ATOM     18  O   UNL     1      11.728  12.847  32.857  1.00  0.00    -0.504 OA
ATOM     19  H   UNL     1      12.630  12.896  33.317  1.00  0.00     0.293 HD
ENDBRANCH  15  18
BRANCH  17  20
ATOM     20  O   UNL     1       9.407  12.639  31.259  1.00  0.00    -0.504 OA
ATOM     21  H   UNL     1       9.770  13.577  31.374  1.00  0.00     0.293 HD
ENDBRANCH  17  20
ENDBRANCH   1  12
BRANCH   2  22
ATOM     22  O   UNL     1       7.426   8.732  34.962  1.00  0.00    -0.502 OA
ATOM     23  H   UNL     1       7.072   9.665  34.788  1.00  0.00     0.293 HD
ENDBRANCH   2  22
BRANCH   6  24
ATOM     24  O   UNL     1       5.690   3.874  33.638  1.00  0.00    -0.507 OA
ATOM     25  H   UNL     1       5.935   3.771  34.611  1.00  0.00     0.293 HD
ENDBRANCH   6  24
BRANCH   8  26
ATOM     26  O   UNL     1       7.824   3.353  29.367  1.00  0.00    -0.508 OA
ATOM     27  H   UNL     1       7.249   2.545  29.154  1.00  0.00     0.293 HD
ENDBRANCH   8  26
TORSDOF 6
ENDMDL
MODEL 4
REMARK VINA RESULT:    -6.803     10.075     11.530
REMARK INTER + INTRA:          -8.496
REMARK INTER:                  -8.202
REMARK INTRA:                  -0.293
REMARK UNBOUND:                -0.300
REMARK SMILES O=c1c(O)c(-c2ccc(O)c(O)c2)oc2cc(O)cc(O)c12
REMARK SMILES IDX 5 1 3 2 2 3 1 4 22 5 20 6 19 7 17 8 16 9 15 10 14 11 6 12
REMARK SMILES IDX 7 13 8 14 9 15 13 16 11 17 10 18 12 20 4 22 21 24 18 26
REMARK H PARENT 10 19 12 21 4 23 21 25 18 27
REMARK Flexibility Score: inf
ROOT
ATOM      1  C   UNL     1       9.581   1.704  24.215  1.00  0.00     0.180 A 
ATOM      2  C   UNL     1       9.920   2.320  25.432  1.00  0.00     0.208 A 
ATOM      3  C   UNL     1      10.126   3.709  25.457  1.00  0.00     0.238 A 
ATOM      4  O   UNL     1      10.482   4.248  26.538  1.00  0.00    -0.285 OA
ATOM      5  C   UNL     1       9.974   4.465  24.270  1.00  0.00     0.111 A 
ATOM      6  C   UNL     1      10.120   5.883  24.188  1.00  0.00     0.134 A 
ATOM      7  C   UNL     1      10.076   6.510  22.937  1.00  0.00     0.093 A 
ATOM      8  C   UNL     1       9.828   5.779  21.773  1.00  0.00     0.123 A 
ATOM      9  C   UNL     1       9.626   4.404  21.850  1.00  0.00     0.094 A 
ATOM     10  C   UNL     1       9.699   3.744  23.079  1.00  0.00     0.146 A 
ATOM     11  O   UNL     1       9.511   2.430  23.107  1.00  0.00    -0.452 OA
ENDROOT
BRANCH   1  12
ATOM     12  C   UNL     1       9.324   0.249  24.115  1.00  0.00     0.025 A 
ATOM     13  C   UNL     1      10.317  -0.642  23.671  1.00  0.00     0.016 A 
ATOM     14  C   UNL     1      10.059  -2.013  23.607  1.00  0.00     0.051 A 
ATOM     15  C   UNL     1       8.812  -2.517  24.000  1.00  0.00     0.157 A 
ATOM     16  C   UNL     1       8.083  -0.264  24.527  1.00  0.00     0.062 A 
ATOM     17  C   UNL     1       7.820  -1.638  24.465  1.00  0.00     0.158 A 
BRANCH  15  18
ATOM     18  O   UNL     1       8.557  -3.886  23.934  1.00  0.00    -0.504 OA
ATOM     19  H   UNL     1       7.773  -4.304  24.422  1.00  0.00     0.293 HD
ENDBRANCH  15  18
BRANCH  17  20
ATOM     20  O   UNL     1       6.571  -2.108  24.869  1.00  0.00    -0.504 OA
ATOM     21  H   UNL     1       5.987  -1.592  25.515  1.00  0.00     0.293 HD
ENDBRANCH  17  20
ENDBRANCH   1  12
BRANCH   2  22
ATOM     22  O   UNL     1      10.086   1.552  26.588  1.00  0.00    -0.502 OA
ATOM     23  H   UNL     1      10.095   0.539  26.570  1.00  0.00     0.293 HD
ENDBRANCH   2  22
BRANCH   6  24
ATOM     24  O   UNL     1      10.279   6.716  25.299  1.00  0.00    -0.507 OA
ATOM     25  H   UNL     1       9.585   7.366  25.635  1.00  0.00     0.293 HD
ENDBRANCH   6  24
BRANCH   8  26
ATOM     26  O   UNL     1       9.771   6.414  20.534  1.00  0.00    -0.508 OA
ATOM     27  H   UNL     1      10.039   7.385  20.422  1.00  0.00     0.293 HD
ENDBRANCH   8  26
TORSDOF 6
ENDMDL
MODEL 5
REMARK VINA RESULT:    -6.762      7.775      9.950
REMARK INTER + INTRA:          -8.446
REMARK INTER:                  -8.321
REMARK INTRA:                  -0.125
REMARK UNBOUND:                -0.300
REMARK SMILES O=c1c(O)c(-c2ccc(O)c(O)c2)oc2cc(O)cc(O)c12
REMARK SMILES IDX 5 1 3 2 2 3 1 4 22 5 20 6 19 7 17 8 16 9 15 10 14 11 6 12
REMARK SMILES IDX 7 13 8 14 9 15 13 16 11 17 10 18 12 20 4 22 21 24 18 26
REMARK H PARENT 10 19 12 21 4 23 21 25 18 27
REMARK Flexibility Score: inf
ROOT
ATOM      1  C   UNL     1      11.218   5.544  25.668  1.00  0.00     0.180 A 
ATOM      2  C   UNL     1      10.181   4.602  25.558  1.00  0.00     0.208 A 
ATOM      3  C   UNL     1       9.646   4.322  24.291  1.00  0.00     0.238 A 
ATOM      4  O   UNL     1       8.681   3.518  24.206  1.00  0.00    -0.285 OA
ATOM      5  C   UNL     1      10.167   4.975  23.147  1.00  0.00     0.111 A 
ATOM      6  C   UNL     1       9.728   4.738  21.809  1.00  0.00     0.134 A 
ATOM      7  C   UNL     1      10.222   5.536  20.770  1.00  0.00     0.093 A 
ATOM      8  C   UNL     1      11.187   6.516  21.010  1.00  0.00     0.123 A 
ATOM      9  C   UNL     1      11.665   6.714  22.303  1.00  0.00     0.094 A 
ATOM     10  C   UNL     1      11.164   5.959  23.367  1.00  0.00     0.146 A 
ATOM     11  O   UNL     1      11.640   6.187  24.586  1.00  0.00    -0.452 OA
ENDROOT
BRANCH   1  12
ATOM     12  C   UNL     1      11.849   5.873  26.966  1.00  0.00     0.025 A 
ATOM     13  C   UNL     1      13.219   5.655  27.191  1.00  0.00     0.016 A 
ATOM     14  C   UNL     1      13.797   5.996  28.417  1.00  0.00     0.051 A 
ATOM     15  C   UNL     1      13.019   6.572  29.430  1.00  0.00     0.157 A 
ATOM     16  C   UNL     1      11.078   6.470  27.978  1.00  0.00     0.062 A 
ATOM     17  C   UNL     1      11.653   6.813  29.207  1.00  0.00     0.158 A 
BRANCH  15  18
ATOM     18  O   UNL     1      13.599   6.909  30.652  1.00  0.00    -0.504 OA
ATOM     19  H   UNL     1      13.970   6.203  31.276  1.00  0.00     0.293 HD
ENDBRANCH  15  18
BRANCH  17  20
ATOM     20  O   UNL     1      10.853   7.391  30.192  1.00  0.00    -0.504 OA
ATOM     21  H   UNL     1      10.243   8.175  29.997  1.00  0.00     0.293 HD
ENDBRANCH  17  20
ENDBRANCH   1  12
BRANCH   2  22
ATOM     22  O   UNL     1       9.667   3.985  26.703  1.00  0.00    -0.502 OA
ATOM     23  H   UNL     1       9.977   4.228  27.636  1.00  0.00     0.293 HD
ENDBRANCH   2  22
BRANCH   6  24
ATOM     24  O   UNL     1       8.837   3.723  21.448  1.00  0.00    -0.507 OA
ATOM     25  H   UNL     1       7.929   3.580  21.865  1.00  0.00     0.293 HD
ENDBRANCH   6  24
BRANCH   8  26
ATOM     26  O   UNL     1      11.685   7.295  19.967  1.00  0.00    -0.508 OA
ATOM     27  H   UNL     1      11.277   7.262  19.040  1.00  0.00     0.293 HD
ENDBRANCH   8  26
TORSDOF 6
ENDMDL
MODEL 6
REMARK VINA RESULT:    -6.751      2.286      7.222
REMARK INTER + INTRA:          -8.433
REMARK INTER:                  -8.227
REMARK INTRA:                  -0.206
REMARK UNBOUND:                -0.300
REMARK SMILES O=c1c(O)c(-c2ccc(O)c(O)c2)oc2cc(O)cc(O)c12
REMARK SMILES IDX 5 1 3 2 2 3 1 4 22 5 20 6 19 7 17 8 16 9 15 10 14 11 6 12
REMARK SMILES IDX 7 13 8 14 9 15 13 16 11 17 10 18 12 20 4 22 21 24 18 26
REMARK H PARENT 10 19 12 21 4 23 21 25 18 27
REMARK Flexibility Score: inf
ROOT
ATOM      1  C   UNL     1       7.392   7.564  32.980  1.00  0.00     0.180 A 
ATOM      2  C   UNL     1       7.499   6.913  34.221  1.00  0.00     0.208 A 
ATOM      3  C   UNL     1       7.645   5.517  34.246  1.00  0.00     0.238 A 
ATOM      4  O   UNL     1       7.685   4.933  35.361  1.00  0.00    -0.285 OA
ATOM      5  C   UNL     1       7.699   4.792  33.031  1.00  0.00     0.111 A 
ATOM      6  C   UNL     1       7.885   3.379  32.937  1.00  0.00     0.134 A 
ATOM      7  C   UNL     1       7.791   2.752  31.689  1.00  0.00     0.093 A 
ATOM      8  C   UNL     1       7.584   3.494  30.524  1.00  0.00     0.123 A 
ATOM      9  C   UNL     1       7.461   4.879  30.598  1.00  0.00     0.094 A 
ATOM     10  C   UNL     1       7.513   5.530  31.833  1.00  0.00     0.146 A 
ATOM     11  O   UNL     1       7.381   6.851  31.860  1.00  0.00    -0.452 OA
ENDROOT
BRANCH   1  12
ATOM     12  C   UNL     1       7.261   9.035  32.872  1.00  0.00     0.025 A 
ATOM     13  C   UNL     1       6.097   9.701  33.294  1.00  0.00     0.016 A 
ATOM     14  C   UNL     1       6.006  11.092  33.205  1.00  0.00     0.051 A 
ATOM     15  C   UNL     1       7.081  11.840  32.706  1.00  0.00     0.157 A 
ATOM     16  C   UNL     1       8.344   9.792  32.392  1.00  0.00     0.062 A 
ATOM     17  C   UNL     1       8.256  11.187  32.301  1.00  0.00     0.158 A 
BRANCH  15  18
ATOM     18  O   UNL     1       6.986  13.228  32.617  1.00  0.00    -0.504 OA
ATOM     19  H   UNL     1       6.496  13.773  33.317  1.00  0.00     0.293 HD
ENDBRANCH  15  18
BRANCH  17  20
ATOM     20  O   UNL     1       9.346  11.903  31.806  1.00  0.00    -0.504 OA
ATOM     21  H   UNL     1       9.355  12.915  31.778  1.00  0.00     0.293 HD
ENDBRANCH  17  20
ENDBRANCH   1  12
BRANCH   2  22
ATOM     22  O   UNL     1       7.421   7.646  35.409  1.00  0.00    -0.502 OA
ATOM     23  H   UNL     1       7.312   8.652  35.420  1.00  0.00     0.293 HD
ENDBRANCH   2  22
BRANCH   6  24
ATOM     24  O   UNL     1       8.189   2.559  34.028  1.00  0.00    -0.507 OA
ATOM     25  H   UNL     1       7.906   2.739  34.979  1.00  0.00     0.293 HD
ENDBRANCH   6  24
BRANCH   8  26
ATOM     26  O   UNL     1       7.508   2.863  29.284  1.00  0.00    -0.508 OA
ATOM     27  H   UNL     1       6.804   3.119  28.600  1.00  0.00     0.293 HD
ENDBRANCH   8  26
TORSDOF 6
ENDMDL
MODEL 7
REMARK VINA RESULT:    -6.734      7.979     10.521
REMARK INTER + INTRA:          -8.413
REMARK INTER:                  -8.111
REMARK INTRA:                  -0.302
REMARK UNBOUND:                -0.300
REMARK SMILES O=c1c(O)c(-c2ccc(O)c(O)c2)oc2cc(O)cc(O)c12
REMARK SMILES IDX 5 1 3 2 2 3 1 4 22 5 20 6 19 7 17 8 16 9 15 10 14 11 6 12
REMARK SMILES IDX 7 13 8 14 9 15 13 16 11 17 10 18 12 20 4 22 21 24 18 26
REMARK H PARENT 10 19 12 21 4 23 21 25 18 27
REMARK Flexibility Score: inf
ROOT
ATOM      1  C   UNL     1      10.842   5.141  25.751  1.00  0.00     0.180 A 
ATOM      2  C   UNL     1      10.465   5.916  24.641  1.00  0.00     0.208 A 
ATOM      3  C   UNL     1       9.970   5.269  23.497  1.00  0.00     0.238 A 
ATOM      4  O   UNL     1       9.686   5.964  22.486  1.00  0.00    -0.285 OA
ATOM      5  C   UNL     1       9.843   3.859  23.484  1.00  0.00     0.111 A 
ATOM      6  C   UNL     1       9.316   3.104  22.393  1.00  0.00     0.134 A 
ATOM      7  C   UNL     1       9.360   1.705  22.439  1.00  0.00     0.093 A 
ATOM      8  C   UNL     1       9.850   1.035  23.563  1.00  0.00     0.123 A 
ATOM      9  C   UNL     1      10.310   1.765  24.656  1.00  0.00     0.094 A 
ATOM     10  C   UNL     1      10.315   3.161  24.625  1.00  0.00     0.146 A 
ATOM     11  O   UNL     1      10.773   3.817  25.685  1.00  0.00    -0.452 OA
ENDROOT
BRANCH   1  12
ATOM     12  C   UNL     1      11.349   5.752  27.002  1.00  0.00     0.025 A 
ATOM     13  C   UNL     1      10.515   5.932  28.119  1.00  0.00     0.016 A 
ATOM     14  C   UNL     1      11.022   6.489  29.296  1.00  0.00     0.051 A 
ATOM     15  C   UNL     1      12.370   6.861  29.380  1.00  0.00     0.157 A 
ATOM     16  C   UNL     1      12.705   6.108  27.097  1.00  0.00     0.062 A 
ATOM     17  C   UNL     1      13.216   6.666  28.276  1.00  0.00     0.158 A 
BRANCH  15  18
ATOM     18  O   UNL     1      12.872   7.417  30.555  1.00  0.00    -0.504 OA
ATOM     19  H   UNL     1      13.016   8.416  30.650  1.00  0.00     0.293 HD
ENDBRANCH  15  18
BRANCH  17  20
ATOM     20  O   UNL     1      14.564   7.019  28.328  1.00  0.00    -0.504 OA
ATOM     21  H   UNL     1      15.112   7.170  27.491  1.00  0.00     0.293 HD
ENDBRANCH  17  20
ENDBRANCH   1  12
BRANCH   2  22
ATOM     22  O   UNL     1      10.619   7.305  24.667  1.00  0.00    -0.502 OA
ATOM     23  H   UNL     1      10.105   7.896  25.309  1.00  0.00     0.293 HD
ENDBRANCH   2  22
BRANCH   6  24
ATOM     24  O   UNL     1       8.720   3.674  21.264  1.00  0.00    -0.507 OA
ATOM     25  H   UNL     1       9.223   4.117  20.511  1.00  0.00     0.293 HD
ENDBRANCH   6  24
BRANCH   8  26
ATOM     26  O   UNL     1       9.874  -0.357  23.606  1.00  0.00    -0.508 OA
ATOM     27  H   UNL     1      10.312  -0.903  22.873  1.00  0.00     0.293 HD
ENDBRANCH   8  26
TORSDOF 6
ENDMDL
MODEL 8
REMARK VINA RESULT:    -6.734      3.109      6.541
REMARK INTER + INTRA:          -8.412
REMARK INTER:                  -8.085
REMARK INTRA:                  -0.327
REMARK UNBOUND:                -0.300
REMARK SMILES O=c1c(O)c(-c2ccc(O)c(O)c2)oc2cc(O)cc(O)c12
REMARK SMILES IDX 5 1 3 2 2 3 1 4 22 5 20 6 19 7 17 8 16 9 15 10 14 11 6 12
REMARK SMILES IDX 7 13 8 14 9 15 13 16 11 17 10 18 12 20 4 22 21 24 18 26
REMARK H PARENT 10 19 12 21 4 23 21 25 18 27
REMARK Flexibility Score: inf
ROOT
ATOM      1  C   UNL     1      10.127   7.197  31.272  1.00  0.00     0.180 A 
ATOM      2  C   UNL     1       9.777   8.501  31.665  1.00  0.00     0.208 A 
ATOM      3  C   UNL     1       8.741   8.675  32.597  1.00  0.00     0.238 A 
ATOM      4  O   UNL     1       8.395   9.847  32.903  1.00  0.00    -0.285 OA
ATOM      5  C   UNL     1       8.081   7.545  33.137  1.00  0.00     0.111 A 
ATOM      6  C   UNL     1       7.045   7.604  34.117  1.00  0.00     0.134 A 
ATOM      7  C   UNL     1       6.373   6.430  34.482  1.00  0.00     0.093 A 
ATOM      8  C   UNL     1       6.744   5.193  33.951  1.00  0.00     0.123 A 
ATOM      9  C   UNL     1       7.793   5.119  33.038  1.00  0.00     0.094 A 
ATOM     10  C   UNL     1       8.458   6.276  32.627  1.00  0.00     0.146 A 
ATOM     11  O   UNL     1       9.446   6.161  31.747  1.00  0.00    -0.452 OA
ENDROOT
BRANCH   1  12
ATOM     12  C   UNL     1      11.225   6.932  30.314  1.00  0.00     0.025 A 
ATOM     13  C   UNL     1      12.536   6.681  30.753  1.00  0.00     0.016 A 
ATOM     14  C   UNL     1      13.550   6.409  29.832  1.00  0.00     0.051 A 
ATOM     15  C   UNL     1      13.268   6.371  28.460  1.00  0.00     0.157 A 
ATOM     16  C   UNL     1      10.942   6.872  28.939  1.00  0.00     0.062 A 
ATOM     17  C   UNL     1      11.956   6.600  28.012  1.00  0.00     0.158 A 
BRANCH  15  18
ATOM     18  O   UNL     1      14.282   6.101  27.543  1.00  0.00    -0.504 OA
ATOM     19  H   UNL     1      14.601   5.156  27.367  1.00  0.00     0.293 HD
ENDBRANCH  15  18
BRANCH  17  20
ATOM     20  O   UNL     1      11.640   6.562  26.655  1.00  0.00    -0.504 OA
ATOM     21  H   UNL     1      11.724   7.378  26.061  1.00  0.00     0.293 HD
ENDBRANCH  17  20
ENDBRANCH   1  12
BRANCH   2  22
ATOM     22  O   UNL     1      10.427   9.603  31.103  1.00  0.00    -0.502 OA
ATOM     23  H   UNL     1      10.041  10.538  31.140  1.00  0.00     0.293 HD
ENDBRANCH   2  22
BRANCH   6  24
ATOM     24  O   UNL     1       6.660   8.775  34.777  1.00  0.00    -0.507 OA
ATOM     25  H   UNL     1       6.571   9.679  34.338  1.00  0.00     0.293 HD
ENDBRANCH   6  24
BRANCH   8  26
ATOM     26  O   UNL     1       6.081   4.028  34.332  1.00  0.00    -0.508 OA
ATOM     27  H   UNL     1       6.578   3.244  34.739  1.00  0.00     0.293 HD
ENDBRANCH   8  26
TORSDOF 6
ENDMDL
MODEL 9
REMARK VINA RESULT:    -6.705      2.910      4.134
REMARK INTER + INTRA:          -8.377
REMARK INTER:                  -8.177
REMARK INTRA:                  -0.200
REMARK UNBOUND:                -0.300
REMARK SMILES O=c1c(O)c(-c2ccc(O)c(O)c2)oc2cc(O)cc(O)c12
REMARK SMILES IDX 5 1 3 2 2 3 1 4 22 5 20 6 19 7 17 8 16 9 15 10 14 11 6 12
REMARK SMILES IDX 7 13 8 14 9 15 13 16 11 17 10 18 12 20 4 22 21 24 18 26
REMARK H PARENT 10 19 12 21 4 23 21 25 18 27
REMARK Flexibility Score: inf
ROOT
ATOM      1  C   UNL     1       8.112   7.991  32.833  1.00  0.00     0.180 A 
ATOM      2  C   UNL     1       6.994   8.802  33.091  1.00  0.00     0.208 A 
ATOM      3  C   UNL     1       7.192  10.082  33.633  1.00  0.00     0.238 A 
ATOM      4  O   UNL     1       6.184  10.782  33.913  1.00  0.00    -0.285 OA
ATOM      5  C   UNL     1       8.506  10.541  33.894  1.00  0.00     0.111 A 
ATOM      6  C   UNL     1       8.825  11.835  34.405  1.00  0.00     0.134 A 
ATOM      7  C   UNL     1      10.149  12.134  34.748  1.00  0.00     0.093 A 
ATOM      8  C   UNL     1      11.174  11.209  34.537  1.00  0.00     0.123 A 
ATOM      9  C   UNL     1      10.881   9.965  33.984  1.00  0.00     0.094 A 
ATOM     10  C   UNL     1       9.564   9.625  33.665  1.00  0.00     0.146 A 
ATOM     11  O   UNL     1       9.327   8.424  33.149  1.00  0.00    -0.452 OA
ENDROOT
BRANCH   1  12
ATOM     12  C   UNL     1       7.985   6.641  32.239  1.00  0.00     0.025 A 
ATOM     13  C   UNL     1       7.402   5.579  32.951  1.00  0.00     0.016 A 
ATOM     14  C   UNL     1       7.271   4.319  32.362  1.00  0.00     0.051 A 
ATOM     15  C   UNL     1       7.707   4.105  31.047  1.00  0.00     0.157 A 
ATOM     16  C   UNL     1       8.401   6.426  30.914  1.00  0.00     0.062 A 
ATOM     17  C   UNL     1       8.272   5.165  30.319  1.00  0.00     0.158 A 
BRANCH  15  18
ATOM     18  O   UNL     1       7.576   2.847  30.462  1.00  0.00    -0.504 OA
ATOM     19  H   UNL     1       6.961   2.690  29.672  1.00  0.00     0.293 HD
ENDBRANCH  15  18
BRANCH  17  20
ATOM     20  O   UNL     1       8.710   4.987  29.007  1.00  0.00    -0.504 OA
ATOM     21  H   UNL     1       9.380   4.270  28.757  1.00  0.00     0.293 HD
ENDBRANCH  17  20
ENDBRANCH   1  12
BRANCH   2  22
ATOM     22  O   UNL     1       5.704   8.321  32.846  1.00  0.00    -0.502 OA
ATOM     23  H   UNL     1       5.441   7.359  33.021  1.00  0.00     0.293 HD
ENDBRANCH   2  22
BRANCH   6  24
ATOM     24  O   UNL     1       7.891  12.863  34.567  1.00  0.00    -0.507 OA
ATOM     25  H   UNL     1       6.919  12.724  34.798  1.00  0.00     0.293 HD
ENDBRANCH   6  24
BRANCH   8  26
ATOM     26  O   UNL     1      12.492  11.521  34.867  1.00  0.00    -0.508 OA
ATOM     27  H   UNL     1      12.796  11.588  35.832  1.00  0.00     0.293 HD
ENDBRANCH   8  26
TORSDOF 6
ENDMDL
