MODEL 1
REMARK VINA RESULT:    -5.348      0.000      0.000
REMARK INTER + INTRA:         -14.676
REMARK INTER:                 -11.600
REMARK INTRA:                  -3.075
REMARK UNBOUND:                -3.075
REMARK SMILES CCCCCCCCCCCCCCCCCCCCCC(=O)[O-]
REMARK SMILES IDX 12 1 11 2 10 3 9 4 8 5 7 6 6 7 5 8 4 9 3 10 2 11 1 12 13 13
REMARK SMILES IDX 14 14 15 15 16 16 17 17 18 18 19 19 20 20 21 21 22 22 23 23
REMARK SMILES IDX 24 24
REMARK H PARENT
REMARK Flexibility Score: inf
ROOT
ATOM      1  C   UNL     1     -99.746 -63.153 -68.752  1.00  0.00     0.000 C 
ENDROOT
BRANCH   1   2
ATOM      2  C   UNL     1    -100.011 -62.535 -67.367  1.00  0.00     0.000 C 
BRANCH   2   3
ATOM      3  C   UNL     1    -101.049 -61.395 -67.341  1.00  0.00     0.000 C 
BRANCH   3   4
ATOM      4  C   UNL     1    -101.056 -60.548 -66.057  1.00  0.00    -0.000 C 
BRANCH   4   5
ATOM      5  C   UNL     1    -100.580 -59.107 -66.293  1.00  0.00    -0.000 C 
BRANCH   5   6
ATOM      6  C   UNL     1     -99.364 -59.079 -67.230  1.00  0.00    -0.000 C 
BRANCH   6   7
ATOM      7  C   UNL     1     -98.305 -58.050 -66.801  1.00  0.00    -0.000 C 
BRANCH   7   8
ATOM      8  C   UNL     1     -96.944 -58.651 -66.399  1.00  0.00    -0.000 C 
BRANCH   8   9
ATOM      9  C   UNL     1     -97.004 -59.546 -65.142  1.00  0.00    -0.000 C 
BRANCH   9  10
ATOM     10  C   UNL     1     -96.209 -60.849 -65.315  1.00  0.00    -0.000 C 
BRANCH  10  11
ATOM     11  C   UNL     1     -96.836 -61.988 -64.502  1.00  0.00    -0.003 C 
ATOM     12  C   UNL     1     -98.277 -61.662 -64.116  1.00  0.00     0.004 C 
ENDBRANCH  10  11
ENDBRANCH   9  10
ENDBRANCH   8   9
ENDBRANCH   7   8
ENDBRANCH   6   7
ENDBRANCH   5   6
ENDBRANCH   4   5
ENDBRANCH   3   4
ENDBRANCH   2   3
ENDBRANCH   1   2
BRANCH   1  13
ATOM     13  C   UNL     1     -98.514 -62.550 -69.449  1.00  0.00     0.000 C 
BRANCH  13  14
ATOM     14  C   UNL     1     -97.656 -61.687 -68.506  1.00  0.00     0.000 C 
BRANCH  14  15
ATOM     15  C   UNL     1     -96.291 -61.250 -69.076  1.00  0.00     0.000 C 
BRANCH  15  16
ATOM     16  C   UNL     1     -96.268 -60.987 -70.594  1.00  0.00     0.000 C 
BRANCH  16  17
ATOM     17  C   UNL     1     -95.164 -61.737 -71.369  1.00  0.00     0.000 C 
BRANCH  17  18
ATOM     18  C   UNL     1     -95.268 -63.272 -71.327  1.00  0.00     0.000 C 
BRANCH  18  19
ATOM     19  C   UNL     1     -94.001 -63.995 -70.832  1.00  0.00     0.000 C 
BRANCH  19  20
ATOM     20  C   UNL     1     -93.180 -63.181 -69.809  1.00  0.00     0.006 C 
BRANCH  20  21
ATOM     21  C   UNL     1     -93.202 -63.806 -68.409  1.00  0.00     0.053 C 
BRANCH  21  22
ATOM     22  C   UNL     1     -93.343 -62.744 -67.364  1.00  0.00     0.041 C 
ATOM     23  O   UNL     1     -93.896 -63.007 -66.263  1.00  0.00    -0.550 OA
ATOM     24  O   UNL     1     -92.906 -61.451 -67.623  1.00  0.00    -0.550 OA
ENDBRANCH  21  22
ENDBRANCH  20  21
ENDBRANCH  19  20
ENDBRANCH  18  19
ENDBRANCH  17  18
ENDBRANCH  16  17
ENDBRANCH  15  16
ENDBRANCH  14  15
ENDBRANCH  13  14
ENDBRANCH   1  13
TORSDOF 20
ENDMDL
MODEL 2
REMARK VINA RESULT:    -5.215      2.753      6.202
REMARK INTER + INTRA:         -14.388
REMARK INTER:                 -11.196
REMARK INTRA:                  -3.192
REMARK UNBOUND:                -3.075
REMARK SMILES CCCCCCCCCCCCCCCCCCCCCC(=O)[O-]
REMARK SMILES IDX 12 1 11 2 10 3 9 4 8 5 7 6 6 7 5 8 4 9 3 10 2 11 1 12 13 13
REMARK SMILES IDX 14 14 15 15 16 16 17 17 18 18 19 19 20 20 21 21 22 22 23 23
REMARK SMILES IDX 24 24
REMARK H PARENT
REMARK Flexibility Score: inf
ROOT
ATOM      1  C   UNL     1     -99.486 -62.260 -64.701  1.00  0.00     0.000 C 
ENDROOT
BRANCH   1   2
ATOM      2  C   UNL     1     -98.354 -61.759 -63.786  1.00  0.00     0.000 C 
BRANCH   2   3
ATOM      3  C   UNL     1     -97.163 -61.101 -64.511  1.00  0.00     0.000 C 
BRANCH   3   4
ATOM      4  C   UNL     1     -96.004 -62.051 -64.858  1.00  0.00    -0.000 C 
BRANCH   4   5
ATOM      5  C   UNL     1     -95.056 -61.471 -65.919  1.00  0.00    -0.000 C 
BRANCH   5   6
ATOM      6  C   UNL     1     -93.739 -62.259 -65.964  1.00  0.00    -0.000 C 
BRANCH   6   7
ATOM      7  C   UNL     1     -93.003 -62.114 -67.307  1.00  0.00    -0.000 C 
BRANCH   7   8
ATOM      8  C   UNL     1     -93.134 -63.326 -68.250  1.00  0.00    -0.000 C 
BRANCH   8   9
ATOM      9  C   UNL     1     -93.436 -62.947 -69.715  1.00  0.00    -0.000 C 
BRANCH   9  10
ATOM     10  C   UNL     1     -94.651 -62.014 -69.838  1.00  0.00    -0.000 C 
BRANCH  10  11
ATOM     11  C   UNL     1     -95.677 -62.576 -70.829  1.00  0.00    -0.003 C 
ATOM     12  C   UNL     1     -95.091 -63.735 -71.632  1.00  0.00     0.004 C 
ENDBRANCH  10  11
ENDBRANCH   9  10
ENDBRANCH   8   9
ENDBRANCH   7   8
ENDBRANCH   6   7
ENDBRANCH   5   6
ENDBRANCH   4   5
ENDBRANCH   3   4
ENDBRANCH   2   3
ENDBRANCH   1   2
BRANCH   1  13
ATOM     13  C   UNL     1    -100.738 -61.368 -64.644  1.00  0.00     0.000 C 
BRANCH  13  14
ATOM     14  C   UNL     1    -100.957 -60.562 -65.937  1.00  0.00     0.000 C 
BRANCH  14  15
ATOM     15  C   UNL     1    -100.184 -59.230 -66.020  1.00  0.00     0.000 C 
BRANCH  15  16
ATOM     16  C   UNL     1     -99.532 -58.934 -67.385  1.00  0.00     0.000 C 
BRANCH  16  17
ATOM     17  C   UNL     1     -98.010 -59.179 -67.449  1.00  0.00     0.000 C 
BRANCH  17  18
ATOM     18  C   UNL     1     -97.575 -60.328 -68.376  1.00  0.00     0.000 C 
BRANCH  18  19
ATOM     19  C   UNL     1     -98.040 -61.729 -67.936  1.00  0.00     0.000 C 
BRANCH  19  20
ATOM     20  C   UNL     1     -98.825 -62.493 -69.025  1.00  0.00     0.006 C 
BRANCH  20  21
ATOM     21  C   UNL     1    -100.040 -63.238 -68.458  1.00  0.00     0.053 C 
BRANCH  21  22
ATOM     22  C   UNL     1    -101.062 -63.461 -69.527  1.00  0.00     0.041 C 
ATOM     23  O   UNL     1    -101.848 -62.534 -69.857  1.00  0.00    -0.550 OA
ATOM     24  O   UNL     1    -101.179 -64.709 -70.128  1.00  0.00    -0.550 OA
ENDBRANCH  21  22
ENDBRANCH  20  21
ENDBRANCH  19  20
ENDBRANCH  18  19
ENDBRANCH  17  18
ENDBRANCH  16  17
ENDBRANCH  15  16
ENDBRANCH  14  15
ENDBRANCH  13  14
ENDBRANCH   1  13
TORSDOF 20
ENDMDL
MODEL 3
REMARK VINA RESULT:    -5.190      2.543      6.919
REMARK INTER + INTRA:         -14.334
REMARK INTER:                 -11.358
REMARK INTRA:                  -2.976
REMARK UNBOUND:                -3.075
REMARK SMILES CCCCCCCCCCCCCCCCCCCCCC(=O)[O-]
REMARK SMILES IDX 12 1 11 2 10 3 9 4 8 5 7 6 6 7 5 8 4 9 3 10 2 11 1 12 13 13
REMARK SMILES IDX 14 14 15 15 16 16 17 17 18 18 19 19 20 20 21 21 22 22 23 23
REMARK SMILES IDX 24 24
REMARK H PARENT
REMARK Flexibility Score: inf
ROOT
ATOM      1  C   UNL     1     -96.245 -61.152 -65.337  1.00  0.00     0.000 C 
ENDROOT
BRANCH   1   2
ATOM      2  C   UNL     1     -95.567 -61.303 -66.711  1.00  0.00     0.000 C 
BRANCH   2   3
ATOM      3  C   UNL     1     -94.033 -61.139 -66.711  1.00  0.00     0.000 C 
BRANCH   3   4
ATOM      4  C   UNL     1     -93.249 -62.335 -66.145  1.00  0.00    -0.000 C 
BRANCH   4   5
ATOM      5  C   UNL     1     -93.084 -63.474 -67.162  1.00  0.00    -0.000 C 
BRANCH   5   6
ATOM      6  C   UNL     1     -92.993 -62.922 -68.592  1.00  0.00    -0.000 C 
BRANCH   6   7
ATOM      7  C   UNL     1     -93.720 -63.806 -69.620  1.00  0.00    -0.000 C 
BRANCH   7   8
ATOM      8  C   UNL     1     -93.938 -63.151 -70.998  1.00  0.00    -0.000 C 
BRANCH   8   9
ATOM      9  C   UNL     1     -95.366 -62.605 -71.209  1.00  0.00    -0.000 C 
BRANCH   9  10
ATOM     10  C   UNL     1     -95.455 -61.091 -70.960  1.00  0.00    -0.000 C 
BRANCH  10  11
ATOM     11  C   UNL     1     -96.623 -60.755 -70.025  1.00  0.00    -0.003 C 
ATOM     12  C   UNL     1     -97.392 -62.013 -69.629  1.00  0.00     0.004 C 
ENDBRANCH  10  11
ENDBRANCH   9  10
ENDBRANCH   8   9
ENDBRANCH   7   8
ENDBRANCH   6   7
ENDBRANCH   5   6
ENDBRANCH   4   5
ENDBRANCH   3   4
ENDBRANCH   2   3
ENDBRANCH   1   2
BRANCH   1  13
ATOM     13  C   UNL     1     -96.858 -59.757 -65.125  1.00  0.00     0.000 C 
BRANCH  13  14
ATOM     14  C   UNL     1     -96.843 -58.896 -66.401  1.00  0.00     0.000 C 
BRANCH  14  15
ATOM     15  C   UNL     1     -98.137 -58.102 -66.673  1.00  0.00     0.000 C 
BRANCH  15  16
ATOM     16  C   UNL     1     -99.292 -58.919 -67.284  1.00  0.00     0.000 C 
BRANCH  16  17
ATOM     17  C   UNL     1    -100.481 -59.178 -66.335  1.00  0.00     0.000 C 
BRANCH  17  18
ATOM     18  C   UNL     1    -100.761 -60.661 -66.034  1.00  0.00     0.000 C 
BRANCH  18  19
ATOM     19  C   UNL     1     -99.607 -61.622 -66.375  1.00  0.00     0.000 C 
BRANCH  19  20
ATOM     20  C   UNL     1    -100.042 -62.848 -67.208  1.00  0.00     0.006 C 
BRANCH  20  21
ATOM     21  C   UNL     1    -100.917 -62.461 -68.406  1.00  0.00     0.053 C 
BRANCH  21  22
ATOM     22  C   UNL     1    -101.033 -63.607 -69.361  1.00  0.00     0.041 C 
ATOM     23  O   UNL     1    -100.098 -64.444 -69.463  1.00  0.00    -0.550 OA
ATOM     24  O   UNL     1    -102.154 -63.725 -70.174  1.00  0.00    -0.550 OA
ENDBRANCH  21  22
ENDBRANCH  20  21
ENDBRANCH  19  20
ENDBRANCH  18  19
ENDBRANCH  17  18
ENDBRANCH  16  17
ENDBRANCH  15  16
ENDBRANCH  14  15
ENDBRANCH  13  14
ENDBRANCH   1  13
TORSDOF 20
ENDMDL
MODEL 4
REMARK VINA RESULT:    -5.123      1.950      7.022
REMARK INTER + INTRA:         -14.189
REMARK INTER:                 -11.383
REMARK INTRA:                  -2.805
REMARK UNBOUND:                -3.075
REMARK SMILES CCCCCCCCCCCCCCCCCCCCCC(=O)[O-]
REMARK SMILES IDX 12 1 11 2 10 3 9 4 8 5 7 6 6 7 5 8 4 9 3 10 2 11 1 12 13 13
REMARK SMILES IDX 14 14 15 15 16 16 17 17 18 18 19 19 20 20 21 21 22 22 23 23
REMARK SMILES IDX 24 24
REMARK H PARENT
REMARK Flexibility Score: inf
ROOT
ATOM      1  C   UNL     1     -95.616 -61.701 -66.303  1.00  0.00     0.000 C 
ENDROOT
BRANCH   1   2
ATOM      2  C   UNL     1     -94.378 -60.792 -66.406  1.00  0.00     0.000 C 
BRANCH   2   3
ATOM      3  C   UNL     1     -93.112 -61.463 -66.977  1.00  0.00     0.000 C 
BRANCH   3   4
ATOM      4  C   UNL     1     -92.888 -62.919 -66.536  1.00  0.00    -0.000 C 
BRANCH   4   5
ATOM      5  C   UNL     1     -93.145 -63.929 -67.664  1.00  0.00    -0.000 C 
BRANCH   5   6
ATOM      6  C   UNL     1     -93.103 -63.240 -69.035  1.00  0.00    -0.000 C 
BRANCH   6   7
ATOM      7  C   UNL     1     -93.578 -64.155 -70.177  1.00  0.00    -0.000 C 
BRANCH   7   8
ATOM      8  C   UNL     1     -93.885 -63.430 -71.502  1.00  0.00    -0.000 C 
BRANCH   8   9
ATOM      9  C   UNL     1     -94.283 -61.949 -71.325  1.00  0.00    -0.000 C 
BRANCH   9  10
ATOM     10  C   UNL     1     -95.805 -61.762 -71.228  1.00  0.00    -0.000 C 
BRANCH  10  11
ATOM     11  C   UNL     1     -96.218 -61.335 -69.814  1.00  0.00    -0.003 C 
ATOM     12  C   UNL     1     -97.584 -61.906 -69.443  1.00  0.00     0.004 C 
ENDBRANCH  10  11
ENDBRANCH   9  10
ENDBRANCH   8   9
ENDBRANCH   7   8
ENDBRANCH   6   7
ENDBRANCH   5   6
ENDBRANCH   4   5
ENDBRANCH   3   4
ENDBRANCH   2   3
ENDBRANCH   1   2
BRANCH   1  13
ATOM     13  C   UNL     1     -96.058 -61.944 -64.850  1.00  0.00     0.000 C 
BRANCH  13  14
ATOM     14  C   UNL     1     -97.340 -61.176 -64.478  1.00  0.00     0.000 C 
BRANCH  14  15
ATOM     15  C   UNL     1     -98.408 -62.003 -63.734  1.00  0.00     0.000 C 
BRANCH  15  16
ATOM     16  C   UNL     1     -99.749 -62.162 -64.476  1.00  0.00     0.000 C 
BRANCH  16  17
ATOM     17  C   UNL     1     -99.629 -62.532 -65.969  1.00  0.00     0.000 C 
BRANCH  17  18
ATOM     18  C   UNL     1    -100.421 -61.625 -66.929  1.00  0.00     0.000 C 
BRANCH  18  19
ATOM     19  C   UNL     1    -101.206 -60.488 -66.248  1.00  0.00     0.000 C 
BRANCH  19  20
ATOM     20  C   UNL     1    -100.511 -59.112 -66.337  1.00  0.00     0.006 C 
BRANCH  20  21
ATOM     21  C   UNL     1     -99.502 -59.039 -67.490  1.00  0.00     0.053 C 
BRANCH  21  22
ATOM     22  C   UNL     1     -98.185 -58.525 -67.000  1.00  0.00     0.041 C 
ATOM     23  O   UNL     1     -97.110 -59.020 -67.431  1.00  0.00    -0.550 OA
ATOM     24  O   UNL     1     -98.144 -57.530 -66.030  1.00  0.00    -0.550 OA
ENDBRANCH  21  22
ENDBRANCH  20  21
ENDBRANCH  19  20
ENDBRANCH  18  19
ENDBRANCH  17  18
ENDBRANCH  16  17
ENDBRANCH  15  16
ENDBRANCH  14  15
ENDBRANCH  13  14
ENDBRANCH   1  13
TORSDOF 20
ENDMDL
MODEL 5
REMARK VINA RESULT:    -5.078      2.502      6.334
REMARK INTER + INTRA:         -14.092
REMARK INTER:                 -11.262
REMARK INTRA:                  -2.830
REMARK UNBOUND:                -3.075
REMARK SMILES CCCCCCCCCCCCCCCCCCCCCC(=O)[O-]
REMARK SMILES IDX 12 1 11 2 10 3 9 4 8 5 7 6 6 7 5 8 4 9 3 10 2 11 1 12 13 13
REMARK SMILES IDX 14 14 15 15 16 16 17 17 18 18 19 19 20 20 21 21 22 22 23 23
REMARK SMILES IDX 24 24
REMARK H PARENT
REMARK Flexibility Score: inf
ROOT
ATOM      1  C   UNL     1     -96.975 -62.017 -69.808  1.00  0.00     0.000 C 
ENDROOT
BRANCH   1   2
ATOM      2  C   UNL     1     -96.235 -62.202 -71.146  1.00  0.00     0.000 C 
BRANCH   2   3
ATOM      3  C   UNL     1     -95.011 -63.140 -71.099  1.00  0.00     0.000 C 
BRANCH   3   4
ATOM      4  C   UNL     1     -93.832 -62.632 -70.252  1.00  0.00    -0.000 C 
BRANCH   4   5
ATOM      5  C   UNL     1     -93.056 -63.768 -69.569  1.00  0.00    -0.000 C 
BRANCH   5   6
ATOM      6  C   UNL     1     -93.231 -63.709 -68.045  1.00  0.00    -0.000 C 
BRANCH   6   7
ATOM      7  C   UNL     1     -94.008 -62.466 -67.581  1.00  0.00    -0.000 C 
BRANCH   7   8
ATOM      8  C   UNL     1     -94.158 -62.329 -66.053  1.00  0.00    -0.000 C 
BRANCH   8   9
ATOM      9  C   UNL     1     -95.338 -61.432 -65.621  1.00  0.00    -0.000 C 
BRANCH   9  10
ATOM     10  C   UNL     1     -96.179 -62.073 -64.505  1.00  0.00    -0.000 C 
BRANCH  10  11
ATOM     11  C   UNL     1     -97.382 -61.192 -64.149  1.00  0.00    -0.003 C 
ATOM     12  C   UNL     1     -98.695 -61.940 -64.364  1.00  0.00     0.004 C 
ENDBRANCH  10  11
ENDBRANCH   9  10
ENDBRANCH   8   9
ENDBRANCH   7   8
ENDBRANCH   6   7
ENDBRANCH   5   6
ENDBRANCH   4   5
ENDBRANCH   3   4
ENDBRANCH   2   3
ENDBRANCH   1   2
BRANCH   1  13
ATOM     13  C   UNL     1     -96.800 -60.606 -69.221  1.00  0.00     0.000 C 
BRANCH  13  14
ATOM     14  C   UNL     1     -97.629 -60.383 -67.943  1.00  0.00     0.000 C 
BRANCH  14  15
ATOM     15  C   UNL     1     -97.341 -59.065 -67.195  1.00  0.00     0.000 C 
BRANCH  15  16
ATOM     16  C   UNL     1     -98.583 -58.337 -66.646  1.00  0.00     0.000 C 
BRANCH  16  17
ATOM     17  C   UNL     1     -99.932 -58.832 -67.210  1.00  0.00     0.000 C 
BRANCH  17  18
ATOM     18  C   UNL     1    -100.868 -59.484 -66.176  1.00  0.00     0.000 C 
BRANCH  18  19
ATOM     19  C   UNL     1    -101.076 -61.000 -66.354  1.00  0.00     0.000 C 
BRANCH  19  20
ATOM     20  C   UNL     1    -101.042 -61.464 -67.827  1.00  0.00     0.006 C 
BRANCH  20  21
ATOM     21  C   UNL     1    -100.413 -62.853 -67.990  1.00  0.00     0.053 C 
BRANCH  21  22
ATOM     22  C   UNL     1    -100.832 -63.468 -69.288  1.00  0.00     0.041 C 
ATOM     23  O   UNL     1    -100.315 -63.080 -70.369  1.00  0.00    -0.550 OA
ATOM     24  O   UNL     1    -101.827 -64.437 -69.310  1.00  0.00    -0.550 OA
ENDBRANCH  21  22
ENDBRANCH  20  21
ENDBRANCH  19  20
ENDBRANCH  18  19
ENDBRANCH  17  18
ENDBRANCH  16  17
ENDBRANCH  15  16
ENDBRANCH  14  15
ENDBRANCH  13  14
ENDBRANCH   1  13
TORSDOF 20
ENDMDL
MODEL 6
REMARK VINA RESULT:    -5.002      2.706      5.547
REMARK INTER + INTRA:         -13.925
REMARK INTER:                 -11.031
REMARK INTRA:                  -2.895
REMARK UNBOUND:                -3.075
REMARK SMILES CCCCCCCCCCCCCCCCCCCCCC(=O)[O-]
REMARK SMILES IDX 12 1 11 2 10 3 9 4 8 5 7 6 6 7 5 8 4 9 3 10 2 11 1 12 13 13
REMARK SMILES IDX 14 14 15 15 16 16 17 17 18 18 19 19 20 20 21 21 22 22 23 23
REMARK SMILES IDX 24 24
REMARK H PARENT
REMARK Flexibility Score: inf
ROOT
ATOM      1  C   UNL     1     -93.171 -62.639 -68.646  1.00  0.00     0.000 C 
ENDROOT
BRANCH   1   2
ATOM      2  C   UNL     1     -93.506 -62.799 -67.152  1.00  0.00     0.000 C 
BRANCH   2   3
ATOM      3  C   UNL     1     -93.591 -61.484 -66.350  1.00  0.00     0.000 C 
BRANCH   3   4
ATOM      4  C   UNL     1     -94.989 -60.847 -66.288  1.00  0.00    -0.000 C 
BRANCH   4   5
ATOM      5  C   UNL     1     -96.003 -61.709 -65.522  1.00  0.00    -0.000 C 
BRANCH   5   6
ATOM      6  C   UNL     1     -97.069 -60.832 -64.849  1.00  0.00    -0.000 C 
BRANCH   6   7
ATOM      7  C   UNL     1     -98.235 -61.651 -64.269  1.00  0.00    -0.000 C 
BRANCH   7   8
ATOM      8  C   UNL     1     -99.227 -62.196 -65.314  1.00  0.00    -0.000 C 
BRANCH   8   9
ATOM      9  C   UNL     1    -100.456 -61.290 -65.539  1.00  0.00    -0.000 C 
BRANCH   9  10
ATOM     10  C   UNL     1    -100.333 -60.444 -66.817  1.00  0.00    -0.000 C 
BRANCH  10  11
ATOM     11  C   UNL     1     -99.861 -59.022 -66.491  1.00  0.00    -0.003 C 
ATOM     12  C   UNL     1     -98.660 -58.630 -67.348  1.00  0.00     0.004 C 
ENDBRANCH  10  11
ENDBRANCH   9  10
ENDBRANCH   8   9
ENDBRANCH   7   8
ENDBRANCH   6   7
ENDBRANCH   5   6
ENDBRANCH   4   5
ENDBRANCH   3   4
ENDBRANCH   2   3
ENDBRANCH   1   2
BRANCH   1  13
ATOM     13  C   UNL     1     -93.267 -63.963 -69.424  1.00  0.00     0.000 C 
BRANCH  13  14
ATOM     14  C   UNL     1     -93.086 -63.780 -70.942  1.00  0.00     0.000 C 
BRANCH  14  15
ATOM     15  C   UNL     1     -94.049 -62.770 -71.600  1.00  0.00     0.000 C 
BRANCH  15  16
ATOM     16  C   UNL     1     -95.544 -63.003 -71.309  1.00  0.00     0.000 C 
BRANCH  16  17
ATOM     17  C   UNL     1     -96.348 -61.730 -70.970  1.00  0.00     0.000 C 
BRANCH  17  18
ATOM     18  C   UNL     1     -96.421 -61.387 -69.471  1.00  0.00     0.000 C 
BRANCH  18  19
ATOM     19  C   UNL     1     -97.755 -61.741 -68.788  1.00  0.00     0.000 C 
BRANCH  19  20
ATOM     20  C   UNL     1     -98.651 -62.681 -69.623  1.00  0.00     0.006 C 
BRANCH  20  21
ATOM     21  C   UNL     1     -99.636 -63.476 -68.757  1.00  0.00     0.053 C 
BRANCH  21  22
ATOM     22  C   UNL     1    -100.961 -63.590 -69.441  1.00  0.00     0.041 C 
ATOM     23  O   UNL     1    -101.408 -64.719 -69.775  1.00  0.00    -0.550 OA
ATOM     24  O   UNL     1    -101.684 -62.445 -69.752  1.00  0.00    -0.550 OA
ENDBRANCH  21  22
ENDBRANCH  20  21
ENDBRANCH  19  20
ENDBRANCH  18  19
ENDBRANCH  17  18
ENDBRANCH  16  17
ENDBRANCH  15  16
ENDBRANCH  14  15
ENDBRANCH  13  14
ENDBRANCH   1  13
TORSDOF 20
ENDMDL
MODEL 7
REMARK VINA RESULT:    -4.997      2.066      5.852
REMARK INTER + INTRA:         -13.915
REMARK INTER:                 -10.974
REMARK INTRA:                  -2.941
REMARK UNBOUND:                -3.075
REMARK SMILES CCCCCCCCCCCCCCCCCCCCCC(=O)[O-]
REMARK SMILES IDX 12 1 11 2 10 3 9 4 8 5 7 6 6 7 5 8 4 9 3 10 2 11 1 12 13 13
REMARK SMILES IDX 14 14 15 15 16 16 17 17 18 18 19 19 20 20 21 21 22 22 23 23
REMARK SMILES IDX 24 24
REMARK H PARENT
REMARK Flexibility Score: inf
ROOT
ATOM      1  C   UNL     1    -100.750 -62.183 -68.188  1.00  0.00     0.000 C 
ENDROOT
BRANCH   1   2
ATOM      2  C   UNL     1     -99.245 -62.433 -67.986  1.00  0.00     0.000 C 
BRANCH   2   3
ATOM      3  C   UNL     1     -98.374 -62.276 -69.249  1.00  0.00     0.000 C 
BRANCH   3   4
ATOM      4  C   UNL     1     -97.007 -61.608 -69.022  1.00  0.00    -0.000 C 
BRANCH   4   5
ATOM      5  C   UNL     1     -96.522 -60.813 -70.243  1.00  0.00    -0.000 C 
BRANCH   5   6
ATOM      6  C   UNL     1     -96.342 -61.734 -71.459  1.00  0.00    -0.000 C 
BRANCH   6   7
ATOM      7  C   UNL     1     -94.905 -62.264 -71.598  1.00  0.00    -0.000 C 
BRANCH   7   8
ATOM      8  C   UNL     1     -94.708 -63.726 -71.155  1.00  0.00    -0.000 C 
BRANCH   8   9
ATOM      9  C   UNL     1     -93.610 -63.912 -70.086  1.00  0.00    -0.000 C 
BRANCH   9  10
ATOM     10  C   UNL     1     -93.145 -62.575 -69.489  1.00  0.00    -0.000 C 
BRANCH  10  11
ATOM     11  C   UNL     1     -93.554 -62.460 -68.015  1.00  0.00    -0.003 C 
ATOM     12  C   UNL     1     -93.284 -63.761 -67.264  1.00  0.00     0.004 C 
ENDBRANCH  10  11
ENDBRANCH   9  10
ENDBRANCH   8   9
ENDBRANCH   7   8
ENDBRANCH   6   7
ENDBRANCH   5   6
ENDBRANCH   4   5
ENDBRANCH   3   4
ENDBRANCH   2   3
ENDBRANCH   1   2
BRANCH   1  13
ATOM     13  C   UNL     1    -101.217 -60.843 -67.593  1.00  0.00     0.000 C 
BRANCH  13  14
ATOM     14  C   UNL     1    -100.169 -60.203 -66.665  1.00  0.00     0.000 C 
BRANCH  14  15
ATOM     15  C   UNL     1     -99.670 -58.809 -67.099  1.00  0.00     0.000 C 
BRANCH  15  16
ATOM     16  C   UNL     1     -98.164 -58.719 -67.409  1.00  0.00     0.000 C 
BRANCH  16  17
ATOM     17  C   UNL     1     -97.286 -58.223 -66.241  1.00  0.00     0.000 C 
BRANCH  17  18
ATOM     18  C   UNL     1     -97.033 -59.259 -65.131  1.00  0.00     0.000 C 
BRANCH  18  19
ATOM     19  C   UNL     1     -96.446 -60.598 -65.614  1.00  0.00     0.000 C 
BRANCH  19  20
ATOM     20  C   UNL     1     -97.161 -61.837 -65.033  1.00  0.00     0.006 C 
BRANCH  20  21
ATOM     21  C   UNL     1     -98.169 -61.472 -63.936  1.00  0.00     0.053 C 
BRANCH  21  22
ATOM     22  C   UNL     1     -99.487 -62.128 -64.198  1.00  0.00     0.041 C 
ATOM     23  O   UNL     1     -99.537 -63.232 -64.801  1.00  0.00    -0.550 OA
ATOM     24  O   UNL     1    -100.666 -61.498 -63.817  1.00  0.00    -0.550 OA
ENDBRANCH  21  22
ENDBRANCH  20  21
ENDBRANCH  19  20
ENDBRANCH  18  19
ENDBRANCH  17  18
ENDBRANCH  16  17
ENDBRANCH  15  16
ENDBRANCH  14  15
ENDBRANCH  13  14
ENDBRANCH   1  13
TORSDOF 20
ENDMDL
MODEL 8
REMARK VINA RESULT:    -4.937      2.494      5.979
REMARK INTER + INTRA:         -13.784
REMARK INTER:                 -10.929
REMARK INTRA:                  -2.855
REMARK UNBOUND:                -3.075
REMARK SMILES CCCCCCCCCCCCCCCCCCCCCC(=O)[O-]
REMARK SMILES IDX 12 1 11 2 10 3 9 4 8 5 7 6 6 7 5 8 4 9 3 10 2 11 1 12 13 13
REMARK SMILES IDX 14 14 15 15 16 16 17 17 18 18 19 19 20 20 21 21 22 22 23 23
REMARK SMILES IDX 24 24
REMARK H PARENT
REMARK Flexibility Score: inf
ROOT
ATOM      1  C   UNL     1     -94.209 -63.970 -70.223  1.00  0.00     0.000 C 
ENDROOT
BRANCH   1   2
ATOM      2  C   UNL     1     -93.116 -63.408 -69.296  1.00  0.00     0.000 C 
BRANCH   2   3
ATOM      3  C   UNL     1     -93.112 -63.974 -67.862  1.00  0.00     0.000 C 
BRANCH   3   4
ATOM      4  C   UNL     1     -93.235 -62.924 -66.745  1.00  0.00    -0.000 C 
BRANCH   4   5
ATOM      5  C   UNL     1     -93.739 -61.566 -67.257  1.00  0.00    -0.000 C 
BRANCH   5   6
ATOM      6  C   UNL     1     -95.211 -61.351 -66.877  1.00  0.00    -0.000 C 
BRANCH   6   7
ATOM      7  C   UNL     1     -95.572 -61.965 -65.514  1.00  0.00    -0.000 C 
BRANCH   7   8
ATOM      8  C   UNL     1     -96.813 -61.353 -64.837  1.00  0.00    -0.000 C 
BRANCH   8   9
ATOM      9  C   UNL     1     -97.549 -60.312 -65.706  1.00  0.00    -0.000 C 
BRANCH   9  10
ATOM     10  C   UNL     1     -97.026 -58.886 -65.477  1.00  0.00    -0.000 C 
BRANCH  10  11
ATOM     11  C   UNL     1     -97.738 -57.884 -66.394  1.00  0.00    -0.003 C 
ATOM     12  C   UNL     1     -98.479 -58.599 -67.521  1.00  0.00     0.004 C 
ENDBRANCH  10  11
ENDBRANCH   9  10
ENDBRANCH   8   9
ENDBRANCH   7   8
ENDBRANCH   6   7
ENDBRANCH   5   6
ENDBRANCH   4   5
ENDBRANCH   3   4
ENDBRANCH   2   3
ENDBRANCH   1   2
BRANCH   1  13
ATOM     13  C   UNL     1     -94.770 -62.914 -71.192  1.00  0.00     0.000 C 
BRANCH  13  14
ATOM     14  C   UNL     1     -94.851 -61.510 -70.566  1.00  0.00     0.000 C 
BRANCH  14  15
ATOM     15  C   UNL     1     -96.268 -60.907 -70.487  1.00  0.00     0.000 C 
BRANCH  15  16
ATOM     16  C   UNL     1     -97.417 -61.934 -70.450  1.00  0.00     0.000 C 
BRANCH  16  17
ATOM     17  C   UNL     1     -98.090 -62.110 -69.072  1.00  0.00     0.000 C 
BRANCH  17  18
ATOM     18  C   UNL     1     -99.178 -63.197 -69.014  1.00  0.00     0.000 C 
BRANCH  18  19
ATOM     19  C   UNL     1    -100.562 -62.706 -68.547  1.00  0.00     0.000 C 
BRANCH  19  20
ATOM     20  C   UNL     1    -100.578 -62.182 -67.095  1.00  0.00     0.006 C 
BRANCH  20  21
ATOM     21  C   UNL     1    -101.213 -60.791 -66.980  1.00  0.00     0.053 C 
BRANCH  21  22
ATOM     22  C   UNL     1    -101.280 -60.363 -65.547  1.00  0.00     0.041 C 
ATOM     23  O   UNL     1    -101.789 -59.253 -65.240  1.00  0.00    -0.550 OA
ATOM     24  O   UNL     1    -100.737 -61.170 -64.554  1.00  0.00    -0.550 OA
ENDBRANCH  21  22
ENDBRANCH  20  21
ENDBRANCH  19  20
ENDBRANCH  18  19
ENDBRANCH  17  18
ENDBRANCH  16  17
ENDBRANCH  15  16
ENDBRANCH  14  15
ENDBRANCH  13  14
ENDBRANCH   1  13
TORSDOF 20
ENDMDL
MODEL 9
REMARK VINA RESULT:    -4.930      0.986      2.378
REMARK INTER + INTRA:         -13.770
REMARK INTER:                 -10.708
REMARK INTRA:                  -3.062
REMARK UNBOUND:                -3.075
REMARK SMILES CCCCCCCCCCCCCCCCCCCCCC(=O)[O-]
REMARK SMILES IDX 12 1 11 2 10 3 9 4 8 5 7 6 6 7 5 8 4 9 3 10 2 11 1 12 13 13
REMARK SMILES IDX 14 14 15 15 16 16 17 17 18 18 19 19 20 20 21 21 22 22 23 23
REMARK SMILES IDX 24 24
REMARK H PARENT
REMARK Flexibility Score: inf
ROOT
ATOM      1  C   UNL     1    -100.674 -62.822 -68.094  1.00  0.00     0.000 C 
ENDROOT
BRANCH   1   2
ATOM      2  C   UNL     1    -100.524 -61.376 -67.586  1.00  0.00     0.000 C 
BRANCH   2   3
ATOM      3  C   UNL     1    -101.311 -61.043 -66.302  1.00  0.00     0.000 C 
BRANCH   3   4
ATOM      4  C   UNL     1    -100.483 -61.062 -65.005  1.00  0.00    -0.000 C 
BRANCH   4   5
ATOM      5  C   UNL     1     -99.316 -62.059 -65.059  1.00  0.00    -0.000 C 
BRANCH   5   6
ATOM      6  C   UNL     1     -98.261 -61.723 -63.995  1.00  0.00    -0.000 C 
BRANCH   6   7
ATOM      7  C   UNL     1     -96.941 -61.220 -64.604  1.00  0.00    -0.000 C 
BRANCH   7   8
ATOM      8  C   UNL     1     -96.830 -61.381 -66.132  1.00  0.00    -0.000 C 
BRANCH   8   9
ATOM      9  C   UNL     1     -96.499 -60.069 -66.875  1.00  0.00    -0.000 C 
BRANCH   9  10
ATOM     10  C   UNL     1     -97.715 -59.497 -67.620  1.00  0.00    -0.000 C 
BRANCH  10  11
ATOM     11  C   UNL     1     -98.390 -58.389 -66.803  1.00  0.00    -0.003 C 
ATOM     12  C   UNL     1     -97.358 -57.541 -66.065  1.00  0.00     0.004 C 
ENDBRANCH  10  11
ENDBRANCH   9  10
ENDBRANCH   8   9
ENDBRANCH   7   8
ENDBRANCH   6   7
ENDBRANCH   5   6
ENDBRANCH   4   5
ENDBRANCH   3   4
ENDBRANCH   2   3
ENDBRANCH   1   2
BRANCH   1  13
ATOM     13  C   UNL     1     -99.513 -63.257 -69.005  1.00  0.00     0.000 C 
BRANCH  13  14
ATOM     14  C   UNL     1     -98.663 -62.072 -69.499  1.00  0.00     0.000 C 
BRANCH  14  15
ATOM     15  C   UNL     1     -97.185 -62.401 -69.790  1.00  0.00     0.000 C 
BRANCH  15  16
ATOM     16  C   UNL     1     -96.460 -61.401 -70.713  1.00  0.00     0.000 C 
BRANCH  16  17
ATOM     17  C   UNL     1     -95.417 -62.027 -71.663  1.00  0.00     0.000 C 
BRANCH  17  18
ATOM     18  C   UNL     1     -95.162 -63.530 -71.448  1.00  0.00     0.000 C 
BRANCH  18  19
ATOM     19  C   UNL     1     -93.712 -63.896 -71.081  1.00  0.00     0.000 C 
BRANCH  19  20
ATOM     20  C   UNL     1     -93.429 -63.871 -69.562  1.00  0.00     0.006 C 
BRANCH  20  21
ATOM     21  C   UNL     1     -93.028 -62.477 -69.064  1.00  0.00     0.053 C 
BRANCH  21  22
ATOM     22  C   UNL     1     -93.321 -62.340 -67.603  1.00  0.00     0.041 C 
ATOM     23  O   UNL     1     -93.154 -61.234 -67.024  1.00  0.00    -0.550 OA
ATOM     24  O   UNL     1     -93.734 -63.445 -66.869  1.00  0.00    -0.550 OA
ENDBRANCH  21  22
ENDBRANCH  20  21
ENDBRANCH  19  20
ENDBRANCH  18  19
ENDBRANCH  17  18
ENDBRANCH  16  17
ENDBRANCH  15  16
ENDBRANCH  14  15
ENDBRANCH  13  14
ENDBRANCH   1  13
TORSDOF 20
ENDMDL
