MODEL 1
REMARK VINA RESULT:    -4.312      0.000      0.000
REMARK INTER + INTRA:         -12.395
REMARK INTER:                  -9.859
REMARK INTRA:                  -2.537
REMARK UNBOUND:                -2.537
REMARK SMILES CCCCCCCCCCCCCCCCCCCCCCCC(=O)[O-]
REMARK SMILES IDX 13 1 14 2 15 3 16 4 17 5 18 6 19 7 20 8 21 9 22 10 23 11
REMARK SMILES IDX 24 12 25 13 26 14 12 15 11 16 10 17 9 18 8 19 7 20 6 21 5 22
REMARK SMILES IDX 4 23 3 24 2 25 1 26
REMARK H PARENT
REMARK Flexibility Score: inf
ROOT
ATOM      1  C   UNL     1      29.082   8.173  40.612  1.00  0.00     0.000 C 
ENDROOT
BRANCH   1   2
ATOM      2  C   UNL     1      29.880   8.110  39.301  1.00  0.00     0.000 C 
BRANCH   2   3
ATOM      3  C   UNL     1      30.840   6.910  39.244  1.00  0.00     0.000 C 
BRANCH   3   4
ATOM      4  C   UNL     1      30.364   5.817  38.272  1.00  0.00     0.000 C 
BRANCH   4   5
ATOM      5  C   UNL     1      29.649   4.653  38.982  1.00  0.00     0.000 C 
BRANCH   5   6
ATOM      6  C   UNL     1      29.785   4.643  40.516  1.00  0.00     0.000 C 
BRANCH   6   7
ATOM      7  C   UNL     1      28.569   4.011  41.219  1.00  0.00     0.000 C 
BRANCH   7   8
ATOM      8  C   UNL     1      27.347   4.942  41.230  1.00  0.00     0.000 C 
BRANCH   8   9
ATOM      9  C   UNL     1      26.032   4.184  41.490  1.00  0.00     0.000 C 
BRANCH   9  10
ATOM     10  C   UNL     1      25.049   4.287  40.313  1.00  0.00     0.006 C 
BRANCH  10  11
ATOM     11  C   UNL     1      25.144   3.089  39.359  1.00  0.00     0.053 C 
BRANCH  11  12
ATOM     12  C   UNL     1      23.954   2.199  39.520  1.00  0.00     0.041 C 
ATOM     13  O   UNL     1      22.852   2.676  39.902  1.00  0.00    -0.550 OA
ATOM     14  O   UNL     1      24.072   0.832  39.297  1.00  0.00    -0.550 OA
ENDBRANCH  11  12
ENDBRANCH  10  11
ENDBRANCH   9  10
ENDBRANCH   8   9
ENDBRANCH   7   8
ENDBRANCH   6   7
ENDBRANCH   5   6
ENDBRANCH   4   5
ENDBRANCH   3   4
ENDBRANCH   2   3
ENDBRANCH   1   2
BRANCH   1  15
ATOM     15  C   UNL     1      29.520   9.375  41.461  1.00  0.00     0.000 C 
BRANCH  15  16
ATOM     16  C   UNL     1      30.478   8.987  42.602  1.00  0.00     0.000 C 
BRANCH  16  17
ATOM     17  C   UNL     1      30.861   7.495  42.653  1.00  0.00     0.000 C 
BRANCH  17  18
ATOM     18  C   UNL     1      30.092   6.654  43.693  1.00  0.00    -0.000 C 
BRANCH  18  19
ATOM     19  C   UNL     1      30.694   5.267  43.978  1.00  0.00    -0.000 C 
BRANCH  19  20
ATOM     20  C   UNL     1      30.828   4.971  45.479  1.00  0.00    -0.000 C 
BRANCH  20  21
ATOM     21  C   UNL     1      31.581   6.098  46.197  1.00  0.00    -0.000 C 
BRANCH  21  22
ATOM     22  C   UNL     1      30.746   6.669  47.351  1.00  0.00    -0.000 C 
BRANCH  22  23
ATOM     23  C   UNL     1      29.592   5.741  47.771  1.00  0.00    -0.000 C 
BRANCH  23  24
ATOM     24  C   UNL     1      29.809   4.987  49.099  1.00  0.00    -0.000 C 
BRANCH  24  25
ATOM     25  C   UNL     1      31.253   5.007  49.631  1.00  0.00    -0.003 C 
ATOM     26  C   UNL     1      31.893   3.620  49.671  1.00  0.00     0.004 C 
ENDBRANCH  24  25
ENDBRANCH  23  24
ENDBRANCH  22  23
ENDBRANCH  21  22
ENDBRANCH  20  21
ENDBRANCH  19  20
ENDBRANCH  18  19
ENDBRANCH  17  18
ENDBRANCH  16  17
ENDBRANCH  15  16
ENDBRANCH   1  15
TORSDOF 22
ENDMDL
MODEL 2
REMARK VINA RESULT:    -4.308      5.204     10.314
REMARK INTER + INTRA:         -12.385
REMARK INTER:                  -9.872
REMARK INTRA:                  -2.513
REMARK UNBOUND:                -2.537
REMARK SMILES CCCCCCCCCCCCCCCCCCCCCCCC(=O)[O-]
REMARK SMILES IDX 13 1 14 2 15 3 16 4 17 5 18 6 19 7 20 8 21 9 22 10 23 11
REMARK SMILES IDX 24 12 25 13 26 14 12 15 11 16 10 17 9 18 8 19 7 20 6 21 5 22
REMARK SMILES IDX 4 23 3 24 2 25 1 26
REMARK H PARENT
REMARK Flexibility Score: inf
ROOT
ATOM      1  C   UNL     1      25.037   5.227  41.341  1.00  0.00     0.000 C 
ENDROOT
BRANCH   1   2
ATOM      2  C   UNL     1      25.326   5.279  42.848  1.00  0.00     0.000 C 
BRANCH   2   3
ATOM      3  C   UNL     1      25.626   3.896  43.448  1.00  0.00     0.000 C 
BRANCH   3   4
ATOM      4  C   UNL     1      24.705   3.551  44.632  1.00  0.00     0.000 C 
BRANCH   4   5
ATOM      5  C   UNL     1      25.482   3.240  45.924  1.00  0.00     0.000 C 
BRANCH   5   6
ATOM      6  C   UNL     1      26.750   4.085  46.143  1.00  0.00     0.000 C 
BRANCH   6   7
ATOM      7  C   UNL     1      26.588   5.129  47.262  1.00  0.00     0.000 C 
BRANCH   7   8
ATOM      8  C   UNL     1      27.613   4.947  48.391  1.00  0.00     0.000 C 
BRANCH   8   9
ATOM      9  C   UNL     1      29.036   5.355  47.967  1.00  0.00     0.000 C 
BRANCH   9  10
ATOM     10  C   UNL     1      30.041   5.284  49.128  1.00  0.00     0.006 C 
BRANCH  10  11
ATOM     11  C   UNL     1      31.452   4.902  48.663  1.00  0.00     0.053 C 
BRANCH  11  12
ATOM     12  C   UNL     1      31.992   3.785  49.498  1.00  0.00     0.041 C 
ATOM     13  O   UNL     1      32.672   2.868  48.967  1.00  0.00    -0.550 OA
ATOM     14  O   UNL     1      31.701   3.730  50.856  1.00  0.00    -0.550 OA
ENDBRANCH  11  12
ENDBRANCH  10  11
ENDBRANCH   9  10
ENDBRANCH   8   9
ENDBRANCH   7   8
ENDBRANCH   6   7
ENDBRANCH   5   6
ENDBRANCH   4   5
ENDBRANCH   3   4
ENDBRANCH   2   3
ENDBRANCH   1   2
BRANCH   1  15
ATOM     15  C   UNL     1      25.731   4.019  40.693  1.00  0.00     0.000 C 
BRANCH  15  16
ATOM     16  C   UNL     1      25.070   3.585  39.372  1.00  0.00     0.000 C 
BRANCH  16  17
ATOM     17  C   UNL     1      24.417   2.189  39.396  1.00  0.00     0.000 C 
BRANCH  17  18
ATOM     18  C   UNL     1      23.005   2.135  40.016  1.00  0.00    -0.000 C 
BRANCH  18  19
ATOM     19  C   UNL     1      22.958   1.659  41.479  1.00  0.00    -0.000 C 
BRANCH  19  20
ATOM     20  C   UNL     1      21.864   2.357  42.300  1.00  0.00    -0.000 C 
BRANCH  20  21
ATOM     21  C   UNL     1      21.887   3.873  42.068  1.00  0.00    -0.000 C 
BRANCH  21  22
ATOM     22  C   UNL     1      20.481   4.401  41.748  1.00  0.00    -0.000 C 
BRANCH  22  23
ATOM     23  C   UNL     1      19.703   3.486  40.786  1.00  0.00    -0.000 C 
BRANCH  23  24
ATOM     24  C   UNL     1      18.195   3.359  41.081  1.00  0.00    -0.000 C 
BRANCH  24  25
ATOM     25  C   UNL     1      17.841   3.063  42.549  1.00  0.00    -0.003 C 
ATOM     26  C   UNL     1      18.212   1.644  42.977  1.00  0.00     0.004 C 
ENDBRANCH  24  25
ENDBRANCH  23  24
ENDBRANCH  22  23
ENDBRANCH  21  22
ENDBRANCH  20  21
ENDBRANCH  19  20
ENDBRANCH  18  19
ENDBRANCH  17  18
ENDBRANCH  16  17
ENDBRANCH  15  16
ENDBRANCH   1  15
TORSDOF 22
ENDMDL
MODEL 3
REMARK VINA RESULT:    -4.230      2.437      5.339
REMARK INTER + INTRA:         -12.206
REMARK INTER:                  -9.289
REMARK INTRA:                  -2.917
REMARK UNBOUND:                -2.537
REMARK SMILES CCCCCCCCCCCCCCCCCCCCCCCC(=O)[O-]
REMARK SMILES IDX 13 1 14 2 15 3 16 4 17 5 18 6 19 7 20 8 21 9 22 10 23 11
REMARK SMILES IDX 24 12 25 13 26 14 12 15 11 16 10 17 9 18 8 19 7 20 6 21 5 22
REMARK SMILES IDX 4 23 3 24 2 25 1 26
REMARK H PARENT
REMARK Flexibility Score: inf
ROOT
ATOM      1  C   UNL     1      31.352   5.748  46.150  1.00  0.00     0.000 C 
ENDROOT
BRANCH   1   2
ATOM      2  C   UNL     1      30.406   6.653  45.347  1.00  0.00     0.000 C 
BRANCH   2   3
ATOM      3  C   UNL     1      29.103   5.944  44.941  1.00  0.00     0.000 C 
BRANCH   3   4
ATOM      4  C   UNL     1      29.326   4.471  44.557  1.00  0.00     0.000 C 
BRANCH   4   5
ATOM      5  C   UNL     1      28.514   4.044  43.320  1.00  0.00     0.000 C 
BRANCH   5   6
ATOM      6  C   UNL     1      29.191   4.329  41.966  1.00  0.00     0.000 C 
BRANCH   6   7
ATOM      7  C   UNL     1      28.179   4.545  40.826  1.00  0.00     0.000 C 
BRANCH   7   8
ATOM      8  C   UNL     1      26.729   4.296  41.271  1.00  0.00     0.000 C 
BRANCH   8   9
ATOM      9  C   UNL     1      25.861   3.706  40.145  1.00  0.00     0.000 C 
BRANCH   9  10
ATOM     10  C   UNL     1      24.360   3.753  40.470  1.00  0.00     0.006 C 
BRANCH  10  11
ATOM     11  C   UNL     1      23.767   2.361  40.725  1.00  0.00     0.053 C 
BRANCH  11  12
ATOM     12  C   UNL     1      23.525   1.653  39.430  1.00  0.00     0.041 C 
ATOM     13  O   UNL     1      23.978   0.491  39.249  1.00  0.00    -0.550 OA
ATOM     14  O   UNL     1      22.843   2.295  38.404  1.00  0.00    -0.550 OA
ENDBRANCH  11  12
ENDBRANCH  10  11
ENDBRANCH   9  10
ENDBRANCH   8   9
ENDBRANCH   7   8
ENDBRANCH   6   7
ENDBRANCH   5   6
ENDBRANCH   4   5
ENDBRANCH   3   4
ENDBRANCH   2   3
ENDBRANCH   1   2
BRANCH   1  15
ATOM     15  C   UNL     1      31.470   6.231  47.603  1.00  0.00     0.000 C 
BRANCH  15  16
ATOM     16  C   UNL     1      31.359   5.086  48.626  1.00  0.00     0.000 C 
BRANCH  16  17
ATOM     17  C   UNL     1      30.070   5.089  49.471  1.00  0.00     0.000 C 
BRANCH  17  18
ATOM     18  C   UNL     1      28.781   4.727  48.704  1.00  0.00    -0.000 C 
BRANCH  18  19
ATOM     19  C   UNL     1      27.846   5.914  48.411  1.00  0.00    -0.000 C 
BRANCH  19  20
ATOM     20  C   UNL     1      26.360   5.547  48.531  1.00  0.00    -0.000 C 
BRANCH  20  21
ATOM     21  C   UNL     1      26.184   4.047  48.797  1.00  0.00    -0.000 C 
BRANCH  21  22
ATOM     22  C   UNL     1      24.749   3.599  48.489  1.00  0.00    -0.000 C 
BRANCH  22  23
ATOM     23  C   UNL     1      24.372   3.777  47.007  1.00  0.00    -0.000 C 
BRANCH  23  24
ATOM     24  C   UNL     1      25.493   3.443  46.003  1.00  0.00    -0.000 C 
BRANCH  24  25
ATOM     25  C   UNL     1      25.165   3.758  44.532  1.00  0.00    -0.003 C 
ATOM     26  C   UNL     1      24.941   5.248  44.277  1.00  0.00     0.004 C 
ENDBRANCH  24  25
ENDBRANCH  23  24
ENDBRANCH  22  23
ENDBRANCH  21  22
ENDBRANCH  20  21
ENDBRANCH  19  20
ENDBRANCH  18  19
ENDBRANCH  17  18
ENDBRANCH  16  17
ENDBRANCH  15  16
ENDBRANCH   1  15
TORSDOF 22
ENDMDL
MODEL 4
REMARK VINA RESULT:    -4.229      2.188      5.047
REMARK INTER + INTRA:         -12.204
REMARK INTER:                  -8.432
REMARK INTRA:                  -3.773
REMARK UNBOUND:                -2.537
REMARK SMILES CCCCCCCCCCCCCCCCCCCCCCCC(=O)[O-]
REMARK SMILES IDX 13 1 14 2 15 3 16 4 17 5 18 6 19 7 20 8 21 9 22 10 23 11
REMARK SMILES IDX 24 12 25 13 26 14 12 15 11 16 10 17 9 18 8 19 7 20 6 21 5 22
REMARK SMILES IDX 4 23 3 24 2 25 1 26
REMARK H PARENT
REMARK Flexibility Score: inf
ROOT
ATOM      1  C   UNL     1      31.252   6.089  47.801  1.00  0.00     0.000 C 
ENDROOT
BRANCH   1   2
ATOM      2  C   UNL     1      31.490   5.298  46.507  1.00  0.00     0.000 C 
BRANCH   2   3
ATOM      3  C   UNL     1      31.199   6.120  45.241  1.00  0.00     0.000 C 
BRANCH   3   4
ATOM      4  C   UNL     1      31.397   5.310  43.949  1.00  0.00     0.000 C 
BRANCH   4   5
ATOM      5  C   UNL     1      30.860   6.031  42.700  1.00  0.00     0.000 C 
BRANCH   5   6
ATOM      6  C   UNL     1      30.163   5.121  41.670  1.00  0.00     0.000 C 
BRANCH   6   7
ATOM      7  C   UNL     1      29.173   4.136  42.317  1.00  0.00     0.000 C 
BRANCH   7   8
ATOM      8  C   UNL     1      27.847   4.043  41.545  1.00  0.00     0.000 C 
BRANCH   8   9
ATOM      9  C   UNL     1      27.159   5.412  41.389  1.00  0.00     0.000 C 
BRANCH   9  10
ATOM     10  C   UNL     1      25.626   5.305  41.389  1.00  0.00     0.006 C 
BRANCH  10  11
ATOM     11  C   UNL     1      25.131   3.926  41.844  1.00  0.00     0.053 C 
BRANCH  11  12
ATOM     12  C   UNL     1      24.368   3.258  40.745  1.00  0.00     0.041 C 
ATOM     13  O   UNL     1      23.156   2.955  40.909  1.00  0.00    -0.550 OA
ATOM     14  O   UNL     1      25.008   2.924  39.558  1.00  0.00    -0.550 OA
ENDBRANCH  11  12
ENDBRANCH  10  11
ENDBRANCH   9  10
ENDBRANCH   8   9
ENDBRANCH   7   8
ENDBRANCH   6   7
ENDBRANCH   5   6
ENDBRANCH   4   5
ENDBRANCH   3   4
ENDBRANCH   2   3
ENDBRANCH   1   2
BRANCH   1  15
ATOM     15  C   UNL     1      31.105   5.143  49.002  1.00  0.00     0.000 C 
BRANCH  15  16
ATOM     16  C   UNL     1      29.643   4.738  49.270  1.00  0.00     0.000 C 
BRANCH  16  17
ATOM     17  C   UNL     1      28.585   5.612  48.569  1.00  0.00     0.000 C 
BRANCH  17  18
ATOM     18  C   UNL     1      27.195   4.961  48.412  1.00  0.00    -0.000 C 
BRANCH  18  19
ATOM     19  C   UNL     1      26.986   4.188  47.098  1.00  0.00    -0.000 C 
BRANCH  19  20
ATOM     20  C   UNL     1      27.845   4.727  45.945  1.00  0.00    -0.000 C 
BRANCH  20  21
ATOM     21  C   UNL     1      27.012   5.604  45.002  1.00  0.00    -0.000 C 
BRANCH  21  22
ATOM     22  C   UNL     1      27.727   6.931  44.710  1.00  0.00    -0.000 C 
BRANCH  22  23
ATOM     23  C   UNL     1      26.907   8.160  45.139  1.00  0.00    -0.000 C 
BRANCH  23  24
ATOM     24  C   UNL     1      26.905   8.450  46.653  1.00  0.00    -0.000 C 
BRANCH  24  25
ATOM     25  C   UNL     1      28.275   8.823  47.246  1.00  0.00    -0.003 C 
ATOM     26  C   UNL     1      28.307  10.234  47.831  1.00  0.00     0.004 C 
ENDBRANCH  24  25
ENDBRANCH  23  24
ENDBRANCH  22  23
ENDBRANCH  21  22
ENDBRANCH  20  21
ENDBRANCH  19  20
ENDBRANCH  18  19
ENDBRANCH  17  18
ENDBRANCH  16  17
ENDBRANCH  15  16
ENDBRANCH   1  15
TORSDOF 22
ENDMDL
MODEL 5
REMARK VINA RESULT:    -4.218      3.078      6.782
REMARK INTER + INTRA:         -12.181
REMARK INTER:                  -8.294
REMARK INTRA:                  -3.887
REMARK UNBOUND:                -2.537
REMARK SMILES CCCCCCCCCCCCCCCCCCCCCCCC(=O)[O-]
REMARK SMILES IDX 13 1 14 2 15 3 16 4 17 5 18 6 19 7 20 8 21 9 22 10 23 11
REMARK SMILES IDX 24 12 25 13 26 14 12 15 11 16 10 17 9 18 8 19 7 20 6 21 5 22
REMARK SMILES IDX 4 23 3 24 2 25 1 26
REMARK H PARENT
REMARK Flexibility Score: inf
ROOT
ATOM      1  C   UNL     1      28.861   5.388  49.123  1.00  0.00     0.000 C 
ENDROOT
BRANCH   1   2
ATOM      2  C   UNL     1      27.744   4.368  48.860  1.00  0.00     0.000 C 
BRANCH   2   3
ATOM      3  C   UNL     1      27.034   4.593  47.515  1.00  0.00     0.000 C 
BRANCH   3   4
ATOM      4  C   UNL     1      27.875   5.429  46.534  1.00  0.00     0.000 C 
BRANCH   4   5
ATOM      5  C   UNL     1      28.164   4.694  45.214  1.00  0.00     0.000 C 
BRANCH   5   6
ATOM      6  C   UNL     1      26.938   4.471  44.309  1.00  0.00     0.000 C 
BRANCH   6   7
ATOM      7  C   UNL     1      27.320   4.145  42.854  1.00  0.00     0.000 C 
BRANCH   7   8
ATOM      8  C   UNL     1      28.832   3.939  42.674  1.00  0.00     0.000 C 
BRANCH   8   9
ATOM      9  C   UNL     1      29.403   4.759  41.503  1.00  0.00     0.000 C 
BRANCH   9  10
ATOM     10  C   UNL     1      28.734   4.419  40.162  1.00  0.00     0.006 C 
BRANCH  10  11
ATOM     11  C   UNL     1      29.742   4.308  39.011  1.00  0.00     0.053 C 
BRANCH  11  12
ATOM     12  C   UNL     1      30.632   5.509  38.980  1.00  0.00     0.041 C 
ATOM     13  O   UNL     1      31.856   5.397  39.252  1.00  0.00    -0.550 OA
ATOM     14  O   UNL     1      30.099   6.761  38.699  1.00  0.00    -0.550 OA
ENDBRANCH  11  12
ENDBRANCH  10  11
ENDBRANCH   9  10
ENDBRANCH   8   9
ENDBRANCH   7   8
ENDBRANCH   6   7
ENDBRANCH   5   6
ENDBRANCH   4   5
ENDBRANCH   3   4
ENDBRANCH   2   3
ENDBRANCH   1   2
BRANCH   1  15
ATOM     15  C   UNL     1      30.162   4.681  49.535  1.00  0.00     0.000 C 
BRANCH  15  16
ATOM     16  C   UNL     1      31.409   5.279  48.859  1.00  0.00     0.000 C 
BRANCH  16  17
ATOM     17  C   UNL     1      31.451   5.138  47.324  1.00  0.00     0.000 C 
BRANCH  17  18
ATOM     18  C   UNL     1      31.517   6.468  46.545  1.00  0.00    -0.000 C 
BRANCH  18  19
ATOM     19  C   UNL     1      31.797   6.322  45.038  1.00  0.00    -0.000 C 
BRANCH  19  20
ATOM     20  C   UNL     1      31.483   7.600  44.247  1.00  0.00    -0.000 C 
BRANCH  20  21
ATOM     21  C   UNL     1      30.112   7.501  43.566  1.00  0.00    -0.000 C 
BRANCH  21  22
ATOM     22  C   UNL     1      29.030   8.196  44.405  1.00  0.00    -0.000 C 
BRANCH  22  23
ATOM     23  C   UNL     1      27.642   8.156  43.741  1.00  0.00    -0.000 C 
BRANCH  23  24
ATOM     24  C   UNL     1      27.654   7.984  42.209  1.00  0.00    -0.000 C 
BRANCH  24  25
ATOM     25  C   UNL     1      26.356   7.416  41.608  1.00  0.00    -0.003 C 
ATOM     26  C   UNL     1      25.230   7.290  42.632  1.00  0.00     0.004 C 
ENDBRANCH  24  25
ENDBRANCH  23  24
ENDBRANCH  22  23
ENDBRANCH  21  22
ENDBRANCH  20  21
ENDBRANCH  19  20
ENDBRANCH  18  19
ENDBRANCH  17  18
ENDBRANCH  16  17
ENDBRANCH  15  16
ENDBRANCH   1  15
TORSDOF 22
ENDMDL
MODEL 6
REMARK VINA RESULT:    -4.213      2.040      4.022
REMARK INTER + INTRA:         -12.167
REMARK INTER:                  -7.712
REMARK INTRA:                  -4.455
REMARK UNBOUND:                -2.537
REMARK SMILES CCCCCCCCCCCCCCCCCCCCCCCC(=O)[O-]
REMARK SMILES IDX 13 1 14 2 15 3 16 4 17 5 18 6 19 7 20 8 21 9 22 10 23 11
REMARK SMILES IDX 24 12 25 13 26 14 12 15 11 16 10 17 9 18 8 19 7 20 6 21 5 22
REMARK SMILES IDX 4 23 3 24 2 25 1 26
REMARK H PARENT
REMARK Flexibility Score: inf
ROOT
ATOM      1  C   UNL     1      31.207   7.723  46.157  1.00  0.00     0.000 C 
ENDROOT
BRANCH   1   2
ATOM      2  C   UNL     1      29.977   8.609  45.911  1.00  0.00     0.000 C 
BRANCH   2   3
ATOM      3  C   UNL     1      29.983   9.267  44.521  1.00  0.00     0.000 C 
BRANCH   3   4
ATOM      4  C   UNL     1      28.635   9.129  43.794  1.00  0.00     0.000 C 
BRANCH   4   5
ATOM      5  C   UNL     1      28.790   8.910  42.279  1.00  0.00     0.000 C 
BRANCH   5   6
ATOM      6  C   UNL     1      30.056   8.141  41.857  1.00  0.00     0.000 C 
BRANCH   6   7
ATOM      7  C   UNL     1      29.793   7.131  40.725  1.00  0.00     0.000 C 
BRANCH   7   8
ATOM      8  C   UNL     1      30.203   5.700  41.105  1.00  0.00     0.000 C 
BRANCH   8   9
ATOM      9  C   UNL     1      29.117   4.665  40.760  1.00  0.00     0.000 C 
BRANCH   9  10
ATOM     10  C   UNL     1      27.696   5.197  41.004  1.00  0.00     0.006 C 
BRANCH  10  11
ATOM     11  C   UNL     1      26.681   4.074  41.254  1.00  0.00     0.053 C 
BRANCH  11  12
ATOM     12  C   UNL     1      25.739   4.458  42.350  1.00  0.00     0.041 C 
ATOM     13  O   UNL     1      25.747   3.829  43.442  1.00  0.00    -0.550 OA
ATOM     14  O   UNL     1      24.817   5.478  42.149  1.00  0.00    -0.550 OA
ENDBRANCH  11  12
ENDBRANCH  10  11
ENDBRANCH   9  10
ENDBRANCH   8   9
ENDBRANCH   7   8
ENDBRANCH   6   7
ENDBRANCH   5   6
ENDBRANCH   4   5
ENDBRANCH   3   4
ENDBRANCH   2   3
ENDBRANCH   1   2
BRANCH   1  15
ATOM     15  C   UNL     1      31.929   7.411  44.838  1.00  0.00     0.000 C 
BRANCH  15  16
ATOM     16  C   UNL     1      31.910   5.913  44.484  1.00  0.00     0.000 C 
BRANCH  16  17
ATOM     17  C   UNL     1      31.082   5.027  45.436  1.00  0.00     0.000 C 
BRANCH  17  18
ATOM     18  C   UNL     1      29.774   4.466  44.840  1.00  0.00    -0.000 C 
BRANCH  18  19
ATOM     19  C   UNL     1      28.745   5.530  44.421  1.00  0.00    -0.000 C 
BRANCH  19  20
ATOM     20  C   UNL     1      27.694   5.804  45.507  1.00  0.00    -0.000 C 
BRANCH  20  21
ATOM     21  C   UNL     1      27.536   4.595  46.436  1.00  0.00    -0.000 C 
BRANCH  21  22
ATOM     22  C   UNL     1      27.504   5.033  47.907  1.00  0.00    -0.000 C 
BRANCH  22  23
ATOM     23  C   UNL     1      28.813   5.701  48.361  1.00  0.00    -0.000 C 
BRANCH  23  24
ATOM     24  C   UNL     1      29.673   4.865  49.330  1.00  0.00    -0.000 C 
BRANCH  24  25
ATOM     25  C   UNL     1      31.194   5.023  49.154  1.00  0.00    -0.003 C 
ATOM     26  C   UNL     1      31.975   3.779  49.572  1.00  0.00     0.004 C 
ENDBRANCH  24  25
ENDBRANCH  23  24
ENDBRANCH  22  23
ENDBRANCH  21  22
ENDBRANCH  20  21
ENDBRANCH  19  20
ENDBRANCH  18  19
ENDBRANCH  17  18
ENDBRANCH  16  17
ENDBRANCH  15  16
ENDBRANCH   1  15
TORSDOF 22
ENDMDL
MODEL 7
REMARK VINA RESULT:    -4.207      2.452      3.985
REMARK INTER + INTRA:         -12.154
REMARK INTER:                  -7.804
REMARK INTRA:                  -4.350
REMARK UNBOUND:                -2.537
REMARK SMILES CCCCCCCCCCCCCCCCCCCCCCCC(=O)[O-]
REMARK SMILES IDX 13 1 14 2 15 3 16 4 17 5 18 6 19 7 20 8 21 9 22 10 23 11
REMARK SMILES IDX 24 12 25 13 26 14 12 15 11 16 10 17 9 18 8 19 7 20 6 21 5 22
REMARK SMILES IDX 4 23 3 24 2 25 1 26
REMARK H PARENT
REMARK Flexibility Score: inf
ROOT
ATOM      1  C   UNL     1      32.922   7.003  42.130  1.00  0.00     0.000 C 
ENDROOT
BRANCH   1   2
ATOM      2  C   UNL     1      33.003   5.979  40.988  1.00  0.00     0.000 C 
BRANCH   2   3
ATOM      3  C   UNL     1      31.731   5.125  40.860  1.00  0.00     0.000 C 
BRANCH   3   4
ATOM      4  C   UNL     1      31.255   4.985  39.404  1.00  0.00     0.000 C 
BRANCH   4   5
ATOM      5  C   UNL     1      30.057   5.893  39.074  1.00  0.00     0.000 C 
BRANCH   5   6
ATOM      6  C   UNL     1      30.422   7.338  38.682  1.00  0.00     0.000 C 
BRANCH   6   7
ATOM      7  C   UNL     1      30.187   8.344  39.824  1.00  0.00     0.000 C 
BRANCH   7   8
ATOM      8  C   UNL     1      28.907   8.045  40.618  1.00  0.00     0.000 C 
BRANCH   8   9
ATOM      9  C   UNL     1      29.127   8.122  42.140  1.00  0.00     0.000 C 
BRANCH   9  10
ATOM     10  C   UNL     1      28.190   7.186  42.920  1.00  0.00     0.006 C 
BRANCH  10  11
ATOM     11  C   UNL     1      28.655   5.724  42.885  1.00  0.00     0.053 C 
BRANCH  11  12
ATOM     12  C   UNL     1      27.563   4.842  42.370  1.00  0.00     0.041 C 
ATOM     13  O   UNL     1      27.069   3.948  43.108  1.00  0.00    -0.550 OA
ATOM     14  O   UNL     1      27.124   4.974  41.058  1.00  0.00    -0.550 OA
ENDBRANCH  11  12
ENDBRANCH  10  11
ENDBRANCH   9  10
ENDBRANCH   8   9
ENDBRANCH   7   8
ENDBRANCH   6   7
ENDBRANCH   5   6
ENDBRANCH   4   5
ENDBRANCH   3   4
ENDBRANCH   2   3
ENDBRANCH   1   2
BRANCH   1  15
ATOM     15  C   UNL     1      32.213   6.403  43.353  1.00  0.00     0.000 C 
BRANCH  15  16
ATOM     16  C   UNL     1      33.070   6.457  44.630  1.00  0.00     0.000 C 
BRANCH  16  17
ATOM     17  C   UNL     1      33.746   7.815  44.906  1.00  0.00     0.000 C 
BRANCH  17  18
ATOM     18  C   UNL     1      33.271   8.538  46.183  1.00  0.00    -0.000 C 
BRANCH  18  19
ATOM     19  C   UNL     1      32.296   9.704  45.944  1.00  0.00    -0.000 C 
BRANCH  19  20
ATOM     20  C   UNL     1      30.980   9.258  45.292  1.00  0.00    -0.000 C 
BRANCH  20  21
ATOM     21  C   UNL     1      29.787   9.538  46.214  1.00  0.00    -0.000 C 
BRANCH  21  22
ATOM     22  C   UNL     1      29.289   8.247  46.877  1.00  0.00    -0.000 C 
BRANCH  22  23
ATOM     23  C   UNL     1      29.779   6.978  46.158  1.00  0.00    -0.000 C 
BRANCH  23  24
ATOM     24  C   UNL     1      30.067   5.774  47.078  1.00  0.00    -0.000 C 
BRANCH  24  25
ATOM     25  C   UNL     1      31.351   5.890  47.919  1.00  0.00    -0.003 C 
ATOM     26  C   UNL     1      31.355   4.960  49.132  1.00  0.00     0.004 C 
ENDBRANCH  24  25
ENDBRANCH  23  24
ENDBRANCH  22  23
ENDBRANCH  21  22
ENDBRANCH  20  21
ENDBRANCH  19  20
ENDBRANCH  18  19
ENDBRANCH  17  18
ENDBRANCH  16  17
ENDBRANCH  15  16
ENDBRANCH   1  15
TORSDOF 22
ENDMDL
MODEL 8
REMARK VINA RESULT:    -4.204      6.590     10.573
REMARK INTER + INTRA:         -12.146
REMARK INTER:                  -8.496
REMARK INTRA:                  -3.651
REMARK UNBOUND:                -2.537
REMARK SMILES CCCCCCCCCCCCCCCCCCCCCCCC(=O)[O-]
REMARK SMILES IDX 13 1 14 2 15 3 16 4 17 5 18 6 19 7 20 8 21 9 22 10 23 11
REMARK SMILES IDX 24 12 25 13 26 14 12 15 11 16 10 17 9 18 8 19 7 20 6 21 5 22
REMARK SMILES IDX 4 23 3 24 2 25 1 26
REMARK H PARENT
REMARK Flexibility Score: inf
ROOT
ATOM      1  C   UNL     1      17.640  -0.039  43.215  1.00  0.00     0.000 C 
ENDROOT
BRANCH   1   2
ATOM      2  C   UNL     1      18.217   1.384  43.195  1.00  0.00     0.000 C 
BRANCH   2   3
ATOM      3  C   UNL     1      17.419   2.340  42.293  1.00  0.00     0.000 C 
BRANCH   3   4
ATOM      4  C   UNL     1      18.318   3.138  41.334  1.00  0.00     0.000 C 
BRANCH   4   5
ATOM      5  C   UNL     1      19.561   3.726  42.026  1.00  0.00     0.000 C 
BRANCH   5   6
ATOM      6  C   UNL     1      20.910   3.186  41.514  1.00  0.00     0.000 C 
BRANCH   6   7
ATOM      7  C   UNL     1      21.738   2.503  42.617  1.00  0.00     0.000 C 
BRANCH   7   8
ATOM      8  C   UNL     1      23.183   3.020  42.675  1.00  0.00     0.000 C 
BRANCH   8   9
ATOM      9  C   UNL     1      23.548   3.885  41.455  1.00  0.00     0.000 C 
BRANCH   9  10
ATOM     10  C   UNL     1      24.853   3.434  40.780  1.00  0.00     0.006 C 
BRANCH  10  11
ATOM     11  C   UNL     1      24.652   3.045  39.309  1.00  0.00     0.053 C 
BRANCH  11  12
ATOM     12  C   UNL     1      23.586   2.004  39.187  1.00  0.00     0.041 C 
ATOM     13  O   UNL     1      23.755   0.861  39.690  1.00  0.00    -0.550 OA
ATOM     14  O   UNL     1      22.425   2.278  38.474  1.00  0.00    -0.550 OA
ENDBRANCH  11  12
ENDBRANCH  10  11
ENDBRANCH   9  10
ENDBRANCH   8   9
ENDBRANCH   7   8
ENDBRANCH   6   7
ENDBRANCH   5   6
ENDBRANCH   4   5
ENDBRANCH   3   4
ENDBRANCH   2   3
ENDBRANCH   1   2
BRANCH   1  15
ATOM     15  C   UNL     1      18.467  -0.952  44.132  1.00  0.00     0.000 C 
BRANCH  15  16
ATOM     16  C   UNL     1      19.983  -0.830  43.891  1.00  0.00     0.000 C 
BRANCH  16  17
ATOM     17  C   UNL     1      20.829  -1.991  44.449  1.00  0.00     0.000 C 
BRANCH  17  18
ATOM     18  C   UNL     1      20.397  -2.510  45.836  1.00  0.00    -0.000 C 
BRANCH  18  19
ATOM     19  C   UNL     1      21.556  -2.855  46.789  1.00  0.00    -0.000 C 
BRANCH  19  20
ATOM     20  C   UNL     1      22.780  -1.949  46.591  1.00  0.00    -0.000 C 
BRANCH  20  21
ATOM     21  C   UNL     1      22.628  -0.641  47.377  1.00  0.00    -0.000 C 
BRANCH  21  22
ATOM     22  C   UNL     1      22.661   0.572  46.436  1.00  0.00    -0.000 C 
BRANCH  22  23
ATOM     23  C   UNL     1      21.748   1.718  46.906  1.00  0.00    -0.000 C 
BRANCH  23  24
ATOM     24  C   UNL     1      20.554   2.025  45.979  1.00  0.00    -0.000 C 
BRANCH  24  25
ATOM     25  C   UNL     1      19.169   1.884  46.635  1.00  0.00    -0.003 C 
ATOM     26  C   UNL     1      19.055   0.650  47.529  1.00  0.00     0.004 C 
ENDBRANCH  24  25
ENDBRANCH  23  24
ENDBRANCH  22  23
ENDBRANCH  21  22
ENDBRANCH  20  21
ENDBRANCH  19  20
ENDBRANCH  18  19
ENDBRANCH  17  18
ENDBRANCH  16  17
ENDBRANCH  15  16
ENDBRANCH   1  15
TORSDOF 22
ENDMDL
MODEL 9
REMARK VINA RESULT:    -4.134      9.811     13.208
REMARK INTER + INTRA:         -11.988
REMARK INTER:                  -7.667
REMARK INTRA:                  -4.322
REMARK UNBOUND:                -2.537
REMARK SMILES CCCCCCCCCCCCCCCCCCCCCCCC(=O)[O-]
REMARK SMILES IDX 13 1 14 2 15 3 16 4 17 5 18 6 19 7 20 8 21 9 22 10 23 11
REMARK SMILES IDX 24 12 25 13 26 14 12 15 11 16 10 17 9 18 8 19 7 20 6 21 5 22
REMARK SMILES IDX 4 23 3 24 2 25 1 26
REMARK H PARENT
REMARK Flexibility Score: inf
ROOT
ATOM      1  C   UNL     1      23.107  -2.178  46.722  1.00  0.00     0.000 C 
ENDROOT
BRANCH   1   2
ATOM      2  C   UNL     1      21.858  -2.330  47.603  1.00  0.00     0.000 C 
BRANCH   2   3
ATOM      3  C   UNL     1      20.713  -3.070  46.893  1.00  0.00     0.000 C 
BRANCH   3   4
ATOM      4  C   UNL     1      21.017  -3.350  45.411  1.00  0.00     0.000 C 
BRANCH   4   5
ATOM      5  C   UNL     1      21.006  -4.851  45.070  1.00  0.00     0.000 C 
BRANCH   5   6
ATOM      6  C   UNL     1      21.239  -5.794  46.265  1.00  0.00     0.000 C 
BRANCH   6   7
ATOM      7  C   UNL     1      22.729  -6.103  46.501  1.00  0.00     0.000 C 
BRANCH   7   8
ATOM      8  C   UNL     1      23.115  -6.041  47.987  1.00  0.00     0.000 C 
BRANCH   8   9
ATOM      9  C   UNL     1      21.887  -5.967  48.912  1.00  0.00     0.000 C 
BRANCH   9  10
ATOM     10  C   UNL     1      22.191  -5.255  50.240  1.00  0.00     0.006 C 
BRANCH  10  11
ATOM     11  C   UNL     1      23.695  -5.164  50.530  1.00  0.00     0.053 C 
BRANCH  11  12
ATOM     12  C   UNL     1      23.977  -5.548  51.947  1.00  0.00     0.041 C 
ATOM     13  O   UNL     1      23.028  -5.812  52.733  1.00  0.00    -0.550 OA
ATOM     14  O   UNL     1      25.285  -5.565  52.415  1.00  0.00    -0.550 OA
ENDBRANCH  11  12
ENDBRANCH  10  11
ENDBRANCH   9  10
ENDBRANCH   8   9
ENDBRANCH   7   8
ENDBRANCH   6   7
ENDBRANCH   5   6
ENDBRANCH   4   5
ENDBRANCH   3   4
ENDBRANCH   2   3
ENDBRANCH   1   2
BRANCH   1  15
ATOM     15  C   UNL     1      24.364  -2.649  47.468  1.00  0.00     0.000 C 
BRANCH  15  16
ATOM     16  C   UNL     1      25.315  -1.493  47.829  1.00  0.00     0.000 C 
BRANCH  16  17
ATOM     17  C   UNL     1      25.243  -1.022  49.295  1.00  0.00     0.000 C 
BRANCH  17  18
ATOM     18  C   UNL     1      24.177   0.056  49.586  1.00  0.00    -0.000 C 
BRANCH  18  19
ATOM     19  C   UNL     1      24.241   1.293  48.673  1.00  0.00    -0.000 C 
BRANCH  19  20
ATOM     20  C   UNL     1      23.040   1.395  47.721  1.00  0.00    -0.000 C 
BRANCH  20  21
ATOM     21  C   UNL     1      23.503   1.528  46.265  1.00  0.00    -0.000 C 
BRANCH  21  22
ATOM     22  C   UNL     1      22.391   1.105  45.295  1.00  0.00    -0.000 C 
BRANCH  22  23
ATOM     23  C   UNL     1      20.990   1.525  45.770  1.00  0.00    -0.000 C 
BRANCH  23  24
ATOM     24  C   UNL     1      19.911   0.426  45.680  1.00  0.00    -0.000 C 
BRANCH  24  25
ATOM     25  C   UNL     1      19.660  -0.125  44.266  1.00  0.00    -0.003 C 
ATOM     26  C   UNL     1      18.391  -0.972  44.173  1.00  0.00     0.004 C 
ENDBRANCH  24  25
ENDBRANCH  23  24
ENDBRANCH  22  23
ENDBRANCH  21  22
ENDBRANCH  20  21
ENDBRANCH  19  20
ENDBRANCH  18  19
ENDBRANCH  17  18
ENDBRANCH  16  17
ENDBRANCH  15  16
ENDBRANCH   1  15
TORSDOF 22
ENDMDL
