MODEL 1
REMARK VINA RESULT:    15.465      0.000      0.000
REMARK INTER + INTRA:          31.490
REMARK INTER:                  25.411
REMARK INTRA:                   6.079
REMARK UNBOUND:                 6.079
REMARK SMILES C[C@@H]1O[C@@H](OC[C@H]2O[C@H](Oc3c(-c4ccc(O)c(O)c4)oc4cc(O)cc(O)c4c3=O)[C@@H](O)[C@H](O)[C@@H]2O)[C@H](O)[C@H](O)[C@@H]1O
REMARK SMILES IDX 7 1 36 2 34 3 32 4 9 5 8 6 6 7 5 8 4 9 1 10 2 11 42 12 3 13
REMARK SMILES IDX 40 14 38 15 43 16 41 18 39 20 37 22 35 24 10 26 11 27 12 28
REMARK SMILES IDX 30 29 21 30 29 31 31 32 22 33 27 34 23 35 26 36 24 37 13 38
REMARK SMILES IDX 20 39 14 40 18 41 15 42 16 43 19 44 17 46 28 48 25 50 33 52
REMARK H PARENT 43 17 41 19 39 21 37 23 35 25 19 45 17 47 28 49 25 51 33 53
REMARK Flexibility Score: inf
ROOT
ATOM      1  C   UNL     1      43.477 113.287 -15.780  1.00  0.00     0.180 C 
ATOM      2  C   UNL     1      43.441 111.791 -16.237  1.00  0.00     0.177 C 
ATOM      3  C   UNL     1      42.272 111.024 -15.567  1.00  0.00     0.180 C 
ATOM      4  C   UNL     1      41.058 111.940 -15.281  1.00  0.00     0.214 C 
ATOM      5  C   UNL     1      41.109 113.187 -16.182  1.00  0.00     0.339 C 
ATOM      6  O   UNL     1      42.238 113.992 -15.882  1.00  0.00    -0.332 OA
ENDROOT
BRANCH   1   7
ATOM      7  C   UNL     1      44.572 114.125 -16.489  1.00  0.00     0.198 C 
BRANCH   7   8
ATOM      8  O   UNL     1      45.608 113.317 -17.014  1.00  0.00    -0.347 OA
BRANCH   8   9
ATOM      9  C   UNL     1      46.829 113.488 -16.303  1.00  0.00     0.281 C 
ATOM     10  C   UNL     1      47.957 109.986 -16.437  1.00  0.00     0.041 C 
ATOM     11  C   UNL     1      47.072 111.163 -16.034  1.00  0.00     0.150 C 
ATOM     12  C   UNL     1      46.874 111.218 -14.503  1.00  0.00     0.174 C 
ATOM     13  O   UNL     1      47.674 112.360 -16.503  1.00  0.00    -0.344 OA
ATOM     14  C   UNL     1      45.986 112.433 -14.157  1.00  0.00     0.179 C 
ATOM     15  C   UNL     1      46.541 113.718 -14.805  1.00  0.00     0.202 C 
BRANCH  12  16
ATOM     16  O   UNL     1      48.125 111.323 -13.867  1.00  0.00    -0.388 OA
ATOM     17  H   UNL     1      48.724 111.804 -14.497  1.00  0.00     0.211 HD
ENDBRANCH  12  16
BRANCH  14  18
ATOM     18  O   UNL     1      45.888 112.604 -12.769  1.00  0.00    -0.387 OA
ATOM     19  H   UNL     1      46.807 112.794 -12.441  1.00  0.00     0.211 HD
ENDBRANCH  14  18
BRANCH  15  20
ATOM     20  O   UNL     1      47.727 114.124 -14.164  1.00  0.00    -0.385 OA
ATOM     21  H   UNL     1      48.409 114.248 -14.878  1.00  0.00     0.211 HD
ENDBRANCH  15  20
ENDBRANCH   8   9
ENDBRANCH   7   8
ENDBRANCH   1   7
BRANCH   2  22
ATOM     22  O   UNL     1      44.655 111.166 -15.917  1.00  0.00    -0.387 OA
ATOM     23  H   UNL     1      45.286 111.370 -16.658  1.00  0.00     0.211 HD
ENDBRANCH   2  22
BRANCH   3  24
ATOM     24  O   UNL     1      42.672 110.382 -14.376  1.00  0.00    -0.387 OA
ATOM     25  H   UNL     1      41.858 110.013 -13.946  1.00  0.00     0.211 HD
ENDBRANCH   3  24
BRANCH   5  26
ATOM     26  O   UNL     1      39.908 113.956 -16.042  1.00  0.00    -0.454 OA
BRANCH  26  27
ATOM     27  C   UNL     1      38.690 113.421 -15.599  1.00  0.00     0.214 A 
ATOM     28  C   UNL     1      37.668 113.144 -16.522  1.00  0.00     0.180 A 
ATOM     29  C   UNL     1      38.477 113.114 -14.250  1.00  0.00     0.239 A 
ATOM     30  O   UNL     1      36.504 112.656 -16.109  1.00  0.00    -0.452 OA
ATOM     31  C   UNL     1      37.223 112.615 -13.839  1.00  0.00     0.111 A 
ATOM     32  O   UNL     1      39.417 113.261 -13.425  1.00  0.00    -0.285 OA
ATOM     33  C   UNL     1      36.241 112.397 -14.833  1.00  0.00     0.146 A 
ATOM     34  C   UNL     1      36.913 112.319 -12.491  1.00  0.00     0.134 A 
ATOM     35  C   UNL     1      34.981 111.887 -14.487  1.00  0.00     0.094 A 
ATOM     36  C   UNL     1      35.649 111.808 -12.164  1.00  0.00     0.093 A 
ATOM     37  C   UNL     1      34.690 111.590 -13.157  1.00  0.00     0.123 A 
BRANCH  28  38
ATOM     38  C   UNL     1      37.884 113.353 -17.961  1.00  0.00     0.025 A 
ATOM     39  C   UNL     1      36.796 113.654 -18.796  1.00  0.00     0.062 A 
ATOM     40  C   UNL     1      39.167 113.234 -18.509  1.00  0.00     0.016 A 
ATOM     41  C   UNL     1      36.989 113.820 -20.176  1.00  0.00     0.158 A 
ATOM     42  C   UNL     1      39.363 113.387 -19.882  1.00  0.00     0.051 A 
ATOM     43  C   UNL     1      38.282 113.677 -20.723  1.00  0.00     0.157 A 
BRANCH  41  44
ATOM     44  O   UNL     1      35.909 114.124 -21.005  1.00  0.00    -0.504 OA
ATOM     45  H   UNL     1      35.072 114.564 -20.644  1.00  0.00     0.293 HD
ENDBRANCH  41  44
BRANCH  43  46
ATOM     46  O   UNL     1      38.505 113.815 -22.092  1.00  0.00    -0.504 OA
ATOM     47  H   UNL     1      38.860 114.674 -22.498  1.00  0.00     0.293 HD
ENDBRANCH  43  46
ENDBRANCH  28  38
BRANCH  34  48
ATOM     48  O   UNL     1      37.847 112.524 -11.481  1.00  0.00    -0.507 OA
ATOM     49  H   UNL     1      38.845 112.462 -11.655  1.00  0.00     0.293 HD
ENDBRANCH  34  48
BRANCH  37  50
ATOM     50  O   UNL     1      33.435 111.078 -12.824  1.00  0.00    -0.508 OA
ATOM     51  H   UNL     1      33.312 110.437 -12.051  1.00  0.00     0.293 HD
ENDBRANCH  37  50
ENDBRANCH  26  27
ENDBRANCH   5  26
BRANCH   4  52
ATOM     52  O   UNL     1      39.861 111.239 -15.513  1.00  0.00    -0.384 OA
ATOM     53  H   UNL     1      39.265 111.432 -14.745  1.00  0.00     0.211 HD
ENDBRANCH   4  52
TORSDOF 16
ENDMDL
MODEL 2
REMARK VINA RESULT:    16.460      3.494      9.877
REMARK INTER + INTRA:          33.124
REMARK INTER:                  25.312
REMARK INTRA:                   7.812
REMARK UNBOUND:                 6.079
REMARK SMILES C[C@@H]1O[C@@H](OC[C@H]2O[C@H](Oc3c(-c4ccc(O)c(O)c4)oc4cc(O)cc(O)c4c3=O)[C@@H](O)[C@H](O)[C@@H]2O)[C@H](O)[C@H](O)[C@@H]1O
REMARK SMILES IDX 7 1 36 2 34 3 32 4 9 5 8 6 6 7 5 8 4 9 1 10 2 11 42 12 3 13
REMARK SMILES IDX 40 14 38 15 43 16 41 18 39 20 37 22 35 24 10 26 11 27 12 28
REMARK SMILES IDX 30 29 21 30 29 31 31 32 22 33 27 34 23 35 26 36 24 37 13 38
REMARK SMILES IDX 20 39 14 40 18 41 15 42 16 43 19 44 17 46 28 48 25 50 33 52
REMARK H PARENT 43 17 41 19 39 21 37 23 35 25 19 45 17 47 28 49 25 51 33 53
REMARK Flexibility Score: inf
ROOT
ATOM      1  C   UNL     1      44.112 110.309 -16.543  1.00  0.00     0.180 C 
ATOM      2  C   UNL     1      44.008 111.225 -17.807  1.00  0.00     0.177 C 
ATOM      3  C   UNL     1      45.267 112.116 -17.962  1.00  0.00     0.180 C 
ATOM      4  C   UNL     1      46.540 111.435 -17.407  1.00  0.00     0.214 C 
ATOM      5  C   UNL     1      46.343 109.910 -17.344  1.00  0.00     0.339 C 
ATOM      6  O   UNL     1      45.323 109.561 -16.421  1.00  0.00    -0.332 OA
ENDROOT
BRANCH   1   7
ATOM      7  C   UNL     1      42.919 109.329 -16.389  1.00  0.00     0.198 C 
BRANCH   7   8
ATOM      8  O   UNL     1      41.755 109.974 -15.911  1.00  0.00    -0.347 OA
BRANCH   8   9
ATOM      9  C   UNL     1      41.962 110.572 -14.636  1.00  0.00     0.281 C 
ATOM     10  C   UNL     1      39.338 113.143 -14.879  1.00  0.00     0.041 C 
ATOM     11  C   UNL     1      40.644 112.430 -15.222  1.00  0.00     0.150 C 
ATOM     12  C   UNL     1      41.838 113.410 -15.206  1.00  0.00     0.174 C 
ATOM     13  O   UNL     1      40.845 111.382 -14.288  1.00  0.00    -0.344 OA
ATOM     14  C   UNL     1      43.128 112.633 -15.546  1.00  0.00     0.179 C 
ATOM     15  C   UNL     1      43.271 111.390 -14.643  1.00  0.00     0.202 C 
BRANCH  12  16
ATOM     16  O   UNL     1      41.942 114.008 -13.936  1.00  0.00    -0.388 OA
ATOM     17  H   UNL     1      41.185 113.659 -13.396  1.00  0.00     0.211 HD
ENDBRANCH  12  16
BRANCH  14  18
ATOM     18  O   UNL     1      44.258 113.451 -15.410  1.00  0.00    -0.387 OA
ATOM     19  H   UNL     1      44.670 113.224 -14.535  1.00  0.00     0.211 HD
ENDBRANCH  14  18
BRANCH  15  20
ATOM     20  O   UNL     1      43.585 111.768 -13.324  1.00  0.00    -0.385 OA
ATOM     21  H   UNL     1      44.526 112.093 -13.337  1.00  0.00     0.211 HD
ENDBRANCH  15  20
ENDBRANCH   8   9
ENDBRANCH   7   8
ENDBRANCH   1   7
BRANCH   2  22
ATOM     22  O   UNL     1      42.868 112.035 -17.716  1.00  0.00    -0.387 OA
ATOM     23  H   UNL     1      43.090 112.772 -17.086  1.00  0.00     0.211 HD
ENDBRANCH   2  22
BRANCH   3  24
ATOM     24  O   UNL     1      45.100 113.378 -17.353  1.00  0.00    -0.387 OA
ATOM     25  H   UNL     1      44.159 113.441 -17.043  1.00  0.00     0.211 HD
ENDBRANCH   3  24
BRANCH   5  26
ATOM     26  O   UNL     1      47.569 109.260 -16.990  1.00  0.00    -0.454 OA
BRANCH  26  27
ATOM     27  C   UNL     1      47.666 108.264 -16.007  1.00  0.00     0.214 A 
ATOM     28  C   UNL     1      47.795 108.624 -14.655  1.00  0.00     0.180 A 
ATOM     29  C   UNL     1      47.596 106.906 -16.336  1.00  0.00     0.239 A 
ATOM     30  O   UNL     1      47.908 107.689 -13.719  1.00  0.00    -0.452 OA
ATOM     31  C   UNL     1      47.738 105.935 -15.322  1.00  0.00     0.111 A 
ATOM     32  O   UNL     1      47.379 106.568 -17.530  1.00  0.00    -0.285 OA
ATOM     33  C   UNL     1      47.897 106.389 -13.992  1.00  0.00     0.146 A 
ATOM     34  C   UNL     1      47.721 104.544 -15.576  1.00  0.00     0.134 A 
ATOM     35  C   UNL     1      48.027 105.471 -12.940  1.00  0.00     0.094 A 
ATOM     36  C   UNL     1      47.850 103.641 -14.512  1.00  0.00     0.093 A 
ATOM     37  C   UNL     1      47.998 104.102 -13.201  1.00  0.00     0.123 A 
BRANCH  28  38
ATOM     38  C   UNL     1      47.769 110.037 -14.251  1.00  0.00     0.025 A 
ATOM     39  C   UNL     1      47.397 110.385 -12.943  1.00  0.00     0.062 A 
ATOM     40  C   UNL     1      48.096 111.042 -15.170  1.00  0.00     0.016 A 
ATOM     41  C   UNL     1      47.335 111.735 -12.562  1.00  0.00     0.158 A 
ATOM     42  C   UNL     1      48.026 112.386 -14.800  1.00  0.00     0.051 A 
ATOM     43  C   UNL     1      47.645 112.741 -13.501  1.00  0.00     0.157 A 
BRANCH  41  44
ATOM     44  O   UNL     1      46.969 112.081 -11.260  1.00  0.00    -0.504 OA
ATOM     45  H   UNL     1      46.951 113.045 -10.955  1.00  0.00     0.293 HD
ENDBRANCH  41  44
BRANCH  43  46
ATOM     46  O   UNL     1      47.574 114.091 -13.159  1.00  0.00    -0.504 OA
ATOM     47  H   UNL     1      47.640 114.828 -13.853  1.00  0.00     0.293 HD
ENDBRANCH  43  46
ENDBRANCH  28  38
BRANCH  34  48
ATOM     48  O   UNL     1      47.574 104.055 -16.871  1.00  0.00    -0.507 OA
ATOM     49  H   UNL     1      46.915 103.316 -17.091  1.00  0.00     0.293 HD
ENDBRANCH  34  48
BRANCH  37  50
ATOM     50  O   UNL     1      48.123 103.196 -12.145  1.00  0.00    -0.508 OA
ATOM     51  H   UNL     1      48.824 102.466 -12.154  1.00  0.00     0.293 HD
ENDBRANCH  37  50
ENDBRANCH  26  27
ENDBRANCH   5  26
BRANCH   4  52
ATOM     52  O   UNL     1      47.643 111.735 -18.227  1.00  0.00    -0.384 OA
ATOM     53  H   UNL     1      48.453 111.470 -17.723  1.00  0.00     0.211 HD
ENDBRANCH   4  52
TORSDOF 16
ENDMDL
MODEL 3
REMARK VINA RESULT:    17.496      1.417      2.197
REMARK INTER + INTRA:          34.826
REMARK INTER:                  32.222
REMARK INTRA:                   2.605
REMARK UNBOUND:                 6.079
REMARK SMILES C[C@@H]1O[C@@H](OC[C@H]2O[C@H](Oc3c(-c4ccc(O)c(O)c4)oc4cc(O)cc(O)c4c3=O)[C@@H](O)[C@H](O)[C@@H]2O)[C@H](O)[C@H](O)[C@@H]1O
REMARK SMILES IDX 7 1 36 2 34 3 32 4 9 5 8 6 6 7 5 8 4 9 1 10 2 11 42 12 3 13
REMARK SMILES IDX 40 14 38 15 43 16 41 18 39 20 37 22 35 24 10 26 11 27 12 28
REMARK SMILES IDX 30 29 21 30 29 31 31 32 22 33 27 34 23 35 26 36 24 37 13 38
REMARK SMILES IDX 20 39 14 40 18 41 15 42 16 43 19 44 17 46 28 48 25 50 33 52
REMARK H PARENT 43 17 41 19 39 21 37 23 35 25 19 45 17 47 28 49 25 51 33 53
REMARK Flexibility Score: inf
ROOT
ATOM      1  C   UNL     1      42.663 111.041 -16.195  1.00  0.00     0.180 C 
ATOM      2  C   UNL     1      42.998 111.153 -14.671  1.00  0.00     0.177 C 
ATOM      3  C   UNL     1      42.776 112.595 -14.149  1.00  0.00     0.180 C 
ATOM      4  C   UNL     1      41.644 113.326 -14.909  1.00  0.00     0.214 C 
ATOM      5  C   UNL     1      40.712 112.304 -15.585  1.00  0.00     0.339 C 
ATOM      6  O   UNL     1      41.395 111.569 -16.588  1.00  0.00    -0.332 OA
ENDROOT
BRANCH   1   7
ATOM      7  C   UNL     1      42.781 109.598 -16.751  1.00  0.00     0.198 C 
BRANCH   7   8
ATOM      8  O   UNL     1      44.127 109.205 -16.940  1.00  0.00    -0.347 OA
BRANCH   8   9
ATOM      9  C   UNL     1      44.839 110.122 -17.763  1.00  0.00     0.281 C 
ATOM     10  C   UNL     1      48.082 108.379 -17.729  1.00  0.00     0.041 C 
ATOM     11  C   UNL     1      46.901 109.161 -17.160  1.00  0.00     0.150 C 
ATOM     12  C   UNL     1      47.375 110.414 -16.392  1.00  0.00     0.174 C 
ATOM     13  O   UNL     1      46.044 109.526 -18.231  1.00  0.00    -0.344 OA
ATOM     14  C   UNL     1      46.140 111.169 -15.854  1.00  0.00     0.179 C 
ATOM     15  C   UNL     1      45.120 111.424 -16.983  1.00  0.00     0.202 C 
BRANCH  12  16
ATOM     16  O   UNL     1      48.123 111.241 -17.251  1.00  0.00    -0.388 OA
ATOM     17  H   UNL     1      47.807 111.051 -18.173  1.00  0.00     0.211 HD
ENDBRANCH  12  16
BRANCH  14  18
ATOM     18  O   UNL     1      46.512 112.386 -15.266  1.00  0.00    -0.387 OA
ATOM     19  H   UNL     1      45.670 112.852 -15.022  1.00  0.00     0.211 HD
ENDBRANCH  14  18
BRANCH  15  20
ATOM     20  O   UNL     1      45.602 112.401 -17.875  1.00  0.00    -0.385 OA
ATOM     21  H   UNL     1      46.467 112.061 -18.230  1.00  0.00     0.211 HD
ENDBRANCH  15  20
ENDBRANCH   8   9
ENDBRANCH   7   8
ENDBRANCH   1   7
BRANCH   2  22
ATOM     22  O   UNL     1      44.329 110.773 -14.447  1.00  0.00    -0.387 OA
ATOM     23  H   UNL     1      44.762 111.522 -13.955  1.00  0.00     0.211 HD
ENDBRANCH   2  22
BRANCH   3  24
ATOM     24  O   UNL     1      43.957 113.366 -14.201  1.00  0.00    -0.387 OA
ATOM     25  H   UNL     1      44.081 113.785 -13.310  1.00  0.00     0.211 HD
ENDBRANCH   3  24
BRANCH   5  26
ATOM     26  O   UNL     1      39.572 112.963 -16.151  1.00  0.00    -0.454 OA
BRANCH  26  27
ATOM     27  C   UNL     1      38.250 112.707 -15.758  1.00  0.00     0.214 A 
ATOM     28  C   UNL     1      37.203 112.853 -16.682  1.00  0.00     0.180 A 
ATOM     29  C   UNL     1      37.949 112.264 -14.465  1.00  0.00     0.239 A 
ATOM     30  O   UNL     1      35.947 112.632 -16.313  1.00  0.00    -0.452 OA
ATOM     31  C   UNL     1      36.602 112.056 -14.097  1.00  0.00     0.111 A 
ATOM     32  O   UNL     1      38.884 112.030 -13.655  1.00  0.00    -0.285 OA
ATOM     33  C   UNL     1      35.610 112.259 -15.084  1.00  0.00     0.146 A 
ATOM     34  C   UNL     1      36.209 111.650 -12.801  1.00  0.00     0.134 A 
ATOM     35  C   UNL     1      34.256 112.052 -14.782  1.00  0.00     0.094 A 
ATOM     36  C   UNL     1      34.852 111.445 -12.517  1.00  0.00     0.093 A 
ATOM     37  C   UNL     1      33.880 111.642 -13.503  1.00  0.00     0.123 A 
BRANCH  28  38
ATOM     38  C   UNL     1      37.483 113.216 -18.079  1.00  0.00     0.025 A 
ATOM     39  C   UNL     1      36.435 113.269 -19.012  1.00  0.00     0.062 A 
ATOM     40  C   UNL     1      38.793 113.490 -18.490  1.00  0.00     0.016 A 
ATOM     41  C   UNL     1      36.701 113.580 -20.355  1.00  0.00     0.158 A 
ATOM     42  C   UNL     1      39.064 113.789 -19.826  1.00  0.00     0.051 A 
ATOM     43  C   UNL     1      38.027 113.833 -20.765  1.00  0.00     0.157 A 
BRANCH  41  44
ATOM     44  O   UNL     1      35.659 113.637 -21.282  1.00  0.00    -0.504 OA
ATOM     45  H   UNL     1      35.838 113.732 -22.273  1.00  0.00     0.293 HD
ENDBRANCH  41  44
BRANCH  43  46
ATOM     46  O   UNL     1      38.327 114.125 -22.095  1.00  0.00    -0.504 OA
ATOM     47  H   UNL     1      38.479 113.398 -22.786  1.00  0.00     0.293 HD
ENDBRANCH  43  46
ENDBRANCH  28  38
BRANCH  34  48
ATOM     48  O   UNL     1      37.153 111.444 -11.799  1.00  0.00    -0.507 OA
ATOM     49  H   UNL     1      36.892 111.407 -10.819  1.00  0.00     0.293 HD
ENDBRANCH  34  48
BRANCH  37  50
ATOM     50  O   UNL     1      32.531 111.434 -13.214  1.00  0.00    -0.508 OA
ATOM     51  H   UNL     1      32.022 112.047 -12.590  1.00  0.00     0.293 HD
ENDBRANCH  37  50
ENDBRANCH  26  27
ENDBRANCH   5  26
BRANCH   4  52
ATOM     52  O   UNL     1      40.904 114.125 -14.020  1.00  0.00    -0.384 OA
ATOM     53  H   UNL     1      39.968 114.122 -14.346  1.00  0.00     0.211 HD
ENDBRANCH   4  52
TORSDOF 16
ENDMDL
MODEL 4
REMARK VINA RESULT:    17.539      3.570      9.394
REMARK INTER + INTRA:          34.897
REMARK INTER:                  35.939
REMARK INTRA:                  -1.042
REMARK UNBOUND:                 6.079
REMARK SMILES C[C@@H]1O[C@@H](OC[C@H]2O[C@H](Oc3c(-c4ccc(O)c(O)c4)oc4cc(O)cc(O)c4c3=O)[C@@H](O)[C@H](O)[C@@H]2O)[C@H](O)[C@H](O)[C@@H]1O
REMARK SMILES IDX 7 1 36 2 34 3 32 4 9 5 8 6 6 7 5 8 4 9 1 10 2 11 42 12 3 13
REMARK SMILES IDX 40 14 38 15 43 16 41 18 39 20 37 22 35 24 10 26 11 27 12 28
REMARK SMILES IDX 30 29 21 30 29 31 31 32 22 33 27 34 23 35 26 36 24 37 13 38
REMARK SMILES IDX 20 39 14 40 18 41 15 42 16 43 19 44 17 46 28 48 25 50 33 52
REMARK H PARENT 43 17 41 19 39 21 37 23 35 25 19 45 17 47 28 49 25 51 33 53
REMARK Flexibility Score: inf
ROOT
ATOM      1  C   UNL     1      42.832 109.373 -17.675  1.00  0.00     0.180 C 
ATOM      2  C   UNL     1      42.562 108.404 -18.873  1.00  0.00     0.177 C 
ATOM      3  C   UNL     1      43.439 108.765 -20.099  1.00  0.00     0.180 C 
ATOM      4  C   UNL     1      44.798 109.379 -19.687  1.00  0.00     0.214 C 
ATOM      5  C   UNL     1      45.138 108.993 -18.236  1.00  0.00     0.339 C 
ATOM      6  O   UNL     1      44.206 109.550 -17.324  1.00  0.00    -0.332 OA
ENDROOT
BRANCH   1   7
ATOM      7  C   UNL     1      42.047 109.003 -16.389  1.00  0.00     0.198 C 
BRANCH   7   8
ATOM      8  O   UNL     1      41.304 110.095 -15.884  1.00  0.00    -0.347 OA
BRANCH   8   9
ATOM      9  C   UNL     1      41.932 110.688 -14.752  1.00  0.00     0.281 C 
ATOM     10  C   UNL     1      39.453 113.347 -14.166  1.00  0.00     0.041 C 
ATOM     11  C   UNL     1      40.554 112.590 -14.904  1.00  0.00     0.150 C 
ATOM     12  C   UNL     1      41.720 113.528 -15.287  1.00  0.00     0.174 C 
ATOM     13  O   UNL     1      41.013 111.537 -14.072  1.00  0.00    -0.344 OA
ATOM     14  C   UNL     1      42.805 112.707 -16.016  1.00  0.00     0.179 C 
ATOM     15  C   UNL     1      43.193 111.461 -15.192  1.00  0.00     0.202 C 
BRANCH  12  16
ATOM     16  O   UNL     1      42.248 114.125 -14.127  1.00  0.00    -0.388 OA
ATOM     17  H   UNL     1      41.610 114.838 -13.860  1.00  0.00     0.211 HD
ENDBRANCH  12  16
BRANCH  14  18
ATOM     18  O   UNL     1      43.944 113.486 -16.263  1.00  0.00    -0.387 OA
ATOM     19  H   UNL     1      44.329 113.715 -15.377  1.00  0.00     0.211 HD
ENDBRANCH  14  18
BRANCH  15  20
ATOM     20  O   UNL     1      43.929 111.831 -14.050  1.00  0.00    -0.385 OA
ATOM     21  H   UNL     1      43.508 112.660 -13.696  1.00  0.00     0.211 HD
ENDBRANCH  15  20
ENDBRANCH   8   9
ENDBRANCH   7   8
ENDBRANCH   1   7
BRANCH   2  22
ATOM     22  O   UNL     1      41.208 108.459 -19.233  1.00  0.00    -0.387 OA
ATOM     23  H   UNL     1      40.774 109.109 -18.618  1.00  0.00     0.211 HD
ENDBRANCH   2  22
BRANCH   3  24
ATOM     24  O   UNL     1      42.775 109.635 -20.989  1.00  0.00    -0.387 OA
ATOM     25  H   UNL     1      43.274 109.625 -21.847  1.00  0.00     0.211 HD
ENDBRANCH   3  24
BRANCH   5  26
ATOM     26  O   UNL     1      46.466 109.418 -17.903  1.00  0.00    -0.454 OA
BRANCH  26  27
ATOM     27  C   UNL     1      46.820 109.958 -16.658  1.00  0.00     0.214 A 
ATOM     28  C   UNL     1      47.341 109.125 -15.655  1.00  0.00     0.180 A 
ATOM     29  C   UNL     1      46.706 111.329 -16.401  1.00  0.00     0.239 A 
ATOM     30  O   UNL     1      47.660 109.624 -14.467  1.00  0.00    -0.452 OA
ATOM     31  C   UNL     1      47.035 111.827 -15.122  1.00  0.00     0.111 A 
ATOM     32  O   UNL     1      46.336 112.105 -17.321  1.00  0.00    -0.285 OA
ATOM     33  C   UNL     1      47.521 110.909 -14.162  1.00  0.00     0.146 A 
ATOM     34  C   UNL     1      46.907 113.189 -14.767  1.00  0.00     0.134 A 
ATOM     35  C   UNL     1      47.879 111.348 -12.879  1.00  0.00     0.094 A 
ATOM     36  C   UNL     1      47.273 113.611 -13.481  1.00  0.00     0.093 A 
ATOM     37  C   UNL     1      47.759 112.695 -12.543  1.00  0.00     0.123 A 
BRANCH  28  38
ATOM     38  C   UNL     1      47.576 107.697 -15.916  1.00  0.00     0.025 A 
ATOM     39  C   UNL     1      47.420 107.188 -17.215  1.00  0.00     0.062 A 
ATOM     40  C   UNL     1      47.937 106.837 -14.872  1.00  0.00     0.016 A 
ATOM     41  C   UNL     1      47.608 105.820 -17.464  1.00  0.00     0.158 A 
ATOM     42  C   UNL     1      48.115 105.474 -15.112  1.00  0.00     0.051 A 
ATOM     43  C   UNL     1      47.950 104.956 -16.402  1.00  0.00     0.157 A 
BRANCH  41  44
ATOM     44  O   UNL     1      47.457 105.314 -18.756  1.00  0.00    -0.504 OA
ATOM     45  H   UNL     1      48.253 105.167 -19.363  1.00  0.00     0.293 HD
ENDBRANCH  41  44
BRANCH  43  46
ATOM     46  O   UNL     1      48.124 103.589 -16.613  1.00  0.00    -0.504 OA
ATOM     47  H   UNL     1      47.340 102.958 -16.744  1.00  0.00     0.293 HD
ENDBRANCH  43  46
ENDBRANCH  28  38
BRANCH  34  48
ATOM     48  O   UNL     1      46.427 114.125 -15.679  1.00  0.00    -0.507 OA
ATOM     49  H   UNL     1      45.436 114.317 -15.775  1.00  0.00     0.293 HD
ENDBRANCH  34  48
BRANCH  37  50
ATOM     50  O   UNL     1      48.124 113.122 -11.264  1.00  0.00    -0.508 OA
ATOM     51  H   UNL     1      48.310 114.097 -11.064  1.00  0.00     0.293 HD
ENDBRANCH  37  50
ENDBRANCH  26  27
ENDBRANCH   5  26
BRANCH   4  52
ATOM     52  O   UNL     1      45.813 108.924 -20.548  1.00  0.00    -0.384 OA
ATOM     53  H   UNL     1      46.437 109.683 -20.678  1.00  0.00     0.211 HD
ENDBRANCH   4  52
TORSDOF 16
ENDMDL
