MODEL 1
REMARK VINA RESULT:    21.544      0.000      0.000
REMARK INTER + INTRA:          25.542
REMARK INTER:                  25.952
REMARK INTRA:                  -0.410
REMARK UNBOUND:                -0.410
REMARK SMILES O=c1c(O)c(-c2ccc(O)cc2O)oc2cc(O)cc(O)c12
REMARK SMILES IDX 5 1 3 2 2 3 1 4 22 5 20 6 19 7 17 8 16 9 15 10 14 11 6 12
REMARK SMILES IDX 8 13 7 14 9 15 11 16 12 17 10 18 13 20 4 22 21 24 18 26
REMARK H PARENT 10 19 13 21 4 23 21 25 18 27
REMARK Flexibility Score: inf
ROOT
ATOM      1  C   UNL     1      -5.650   4.363  15.519  1.00  0.00     0.184 A 
ATOM      2  C   UNL     1      -6.746   4.225  14.650  1.00  0.00     0.208 A 
ATOM      3  C   UNL     1      -7.538   5.350  14.374  1.00  0.00     0.238 A 
ATOM      4  O   UNL     1      -8.522   5.241  13.593  1.00  0.00    -0.285 OA
ATOM      5  C   UNL     1      -7.225   6.588  14.976  1.00  0.00     0.111 A 
ATOM      6  C   UNL     1      -7.972   7.768  14.752  1.00  0.00     0.134 A 
ATOM      7  C   UNL     1      -7.598   8.960  15.393  1.00  0.00     0.093 A 
ATOM      8  C   UNL     1      -6.492   8.991  16.249  1.00  0.00     0.123 A 
ATOM      9  C   UNL     1      -5.752   7.829  16.472  1.00  0.00     0.094 A 
ATOM     10  C   UNL     1      -6.107   6.633  15.844  1.00  0.00     0.146 A 
ATOM     11  O   UNL     1      -5.384   5.543  16.072  1.00  0.00    -0.451 OA
ENDROOT
BRANCH   1  12
ATOM     12  C   UNL     1      -4.770   3.218  15.834  1.00  0.00     0.063 A 
ATOM     13  C   UNL     1      -2.785   1.909  15.313  1.00  0.00     0.047 A 
ATOM     14  C   UNL     1      -3.664   2.950  15.008  1.00  0.00     0.020 A 
ATOM     15  C   UNL     1      -2.992   1.126  16.451  1.00  0.00     0.119 A 
ATOM     16  C   UNL     1      -4.088   1.384  17.282  1.00  0.00     0.093 A 
ATOM     17  C   UNL     1      -4.983   2.418  16.982  1.00  0.00     0.130 A 
BRANCH  15  18
ATOM     18  O   UNL     1      -2.103   0.094  16.745  1.00  0.00    -0.508 OA
ATOM     19  H   UNL     1      -1.133   0.280  16.970  1.00  0.00     0.293 HD
ENDBRANCH  15  18
BRANCH  17  20
ATOM     20  O   UNL     1      -6.079   2.609  17.826  1.00  0.00    -0.507 OA
ATOM     21  H   UNL     1      -6.917   3.099  17.541  1.00  0.00     0.293 HD
ENDBRANCH  17  20
ENDBRANCH   1  12
BRANCH   2  22
ATOM     22  O   UNL     1      -7.044   2.981  14.089  1.00  0.00    -0.502 OA
ATOM     23  H   UNL     1      -6.725   2.714  13.165  1.00  0.00     0.293 HD
ENDBRANCH   2  22
BRANCH   6  24
ATOM     24  O   UNL     1      -9.080   7.767  13.904  1.00  0.00    -0.507 OA
ATOM     25  H   UNL     1      -8.984   7.884  12.902  1.00  0.00     0.293 HD
ENDBRANCH   6  24
BRANCH   8  26
ATOM     26  O   UNL     1      -6.120  10.175  16.885  1.00  0.00    -0.508 OA
ATOM     27  H   UNL     1      -6.803  10.770  17.337  1.00  0.00     0.293 HD
ENDBRANCH   8  26
TORSDOF 6
ENDMDL
MODEL 2
REMARK VINA RESULT:    24.097      1.960      6.416
REMARK INTER + INTRA:          28.617
REMARK INTER:                  28.910
REMARK INTRA:                  -0.293
REMARK UNBOUND:                -0.410
REMARK SMILES O=c1c(O)c(-c2ccc(O)cc2O)oc2cc(O)cc(O)c12
REMARK SMILES IDX 5 1 3 2 2 3 1 4 22 5 20 6 19 7 17 8 16 9 15 10 14 11 6 12
REMARK SMILES IDX 8 13 7 14 9 15 11 16 12 17 10 18 13 20 4 22 21 24 18 26
REMARK H PARENT 10 19 13 21 4 23 21 25 18 27
REMARK Flexibility Score: inf
ROOT
ATOM      1  C   UNL     1      -6.015   7.689  16.162  1.00  0.00     0.184 A 
ATOM      2  C   UNL     1      -6.963   7.518  15.138  1.00  0.00     0.208 A 
ATOM      3  C   UNL     1      -7.433   6.226  14.859  1.00  0.00     0.238 A 
ATOM      4  O   UNL     1      -8.286   6.059  13.945  1.00  0.00    -0.285 OA
ATOM      5  C   UNL     1      -6.942   5.130  15.601  1.00  0.00     0.111 A 
ATOM      6  C   UNL     1      -7.362   3.797  15.381  1.00  0.00     0.134 A 
ATOM      7  C   UNL     1      -6.822   2.761  16.159  1.00  0.00     0.093 A 
ATOM      8  C   UNL     1      -5.874   3.035  17.151  1.00  0.00     0.123 A 
ATOM      9  C   UNL     1      -5.458   4.348  17.372  1.00  0.00     0.094 A 
ATOM     10  C   UNL     1      -5.983   5.394  16.608  1.00  0.00     0.146 A 
ATOM     11  O   UNL     1      -5.571   6.635  16.841  1.00  0.00    -0.451 OA
ENDROOT
BRANCH   1  12
ATOM     12  C   UNL     1      -5.496   9.028  16.513  1.00  0.00     0.063 A 
ATOM     13  C   UNL     1      -3.657  10.623  16.487  1.00  0.00     0.047 A 
ATOM     14  C   UNL     1      -4.159   9.348  16.217  1.00  0.00     0.020 A 
ATOM     15  C   UNL     1      -4.484  11.598  17.049  1.00  0.00     0.119 A 
ATOM     16  C   UNL     1      -5.817  11.292  17.346  1.00  0.00     0.093 A 
ATOM     17  C   UNL     1      -6.330  10.014  17.089  1.00  0.00     0.130 A 
BRANCH  15  18
ATOM     18  O   UNL     1      -3.971  12.868  17.307  1.00  0.00    -0.508 OA
ATOM     19  H   UNL     1      -3.814  13.537  16.563  1.00  0.00     0.293 HD
ENDBRANCH  15  18
BRANCH  17  20
ATOM     20  O   UNL     1      -7.656   9.753  17.438  1.00  0.00    -0.507 OA
ATOM     21  H   UNL     1      -8.438  10.284  17.073  1.00  0.00     0.293 HD
ENDBRANCH  17  20
ENDBRANCH   1  12
BRANCH   2  22
ATOM     22  O   UNL     1      -7.411   8.620  14.407  1.00  0.00    -0.502 OA
ATOM     23  H   UNL     1      -8.008   9.332  14.811  1.00  0.00     0.293 HD
ENDBRANCH   2  22
BRANCH   6  24
ATOM     24  O   UNL     1      -8.305   3.493  14.399  1.00  0.00    -0.507 OA
ATOM     25  H   UNL     1      -8.241   2.649  13.841  1.00  0.00     0.293 HD
ENDBRANCH   6  24
BRANCH   8  26
ATOM     26  O   UNL     1      -5.339   2.006  17.924  1.00  0.00    -0.508 OA
ATOM     27  H   UNL     1      -5.751   1.080  17.933  1.00  0.00     0.293 HD
ENDBRANCH   8  26
TORSDOF 6
ENDMDL
