MODEL 1
REMARK VINA RESULT:     1.172      0.000      0.000
REMARK INTER + INTRA:           1.153
REMARK INTER:                   2.680
REMARK INTRA:                  -1.528
REMARK UNBOUND:                -1.528
REMARK SMILES CCCCCCCCCCCCCCCCCCCCCCCC(=O)[O-]
REMARK SMILES IDX 13 1 14 2 15 3 16 4 17 5 18 6 19 7 20 8 21 9 22 10 23 11
REMARK SMILES IDX 24 12 25 13 26 14 12 15 11 16 10 17 9 18 8 19 7 20 6 21 5 22
REMARK SMILES IDX 4 23 3 24 2 25 1 26
REMARK H PARENT
REMARK Flexibility Score: inf
ROOT
ATOM      1  C   UNL     1       5.526   7.573   4.170  1.00  0.00     0.000 C 
ENDROOT
BRANCH   1   2
ATOM      2  C   UNL     1       4.899   8.978   4.123  1.00  0.00     0.000 C 
BRANCH   2   3
ATOM      3  C   UNL     1       3.808   9.184   5.189  1.00  0.00     0.000 C 
BRANCH   3   4
ATOM      4  C   UNL     1       2.478   9.669   4.588  1.00  0.00     0.000 C 
BRANCH   4   5
ATOM      5  C   UNL     1       2.486   9.660   3.048  1.00  0.00     0.000 C 
BRANCH   5   6
ATOM      6  C   UNL     1       1.078   9.791   2.440  1.00  0.00     0.000 C 
BRANCH   6   7
ATOM      7  C   UNL     1      -0.068   9.906   3.462  1.00  0.00     0.000 C 
BRANCH   7   8
ATOM      8  C   UNL     1      -1.056   8.730   3.390  1.00  0.00     0.000 C 
BRANCH   8   9
ATOM      9  C   UNL     1      -0.360   7.357   3.420  1.00  0.00     0.000 C 
BRANCH   9  10
ATOM     10  C   UNL     1      -1.124   6.215   2.718  1.00  0.00     0.006 C 
BRANCH  10  11
ATOM     11  C   UNL     1      -0.429   4.847   2.787  1.00  0.00     0.053 C 
BRANCH  11  12
ATOM     12  C   UNL     1      -0.005   4.503   4.182  1.00  0.00     0.041 C 
ATOM     13  O   UNL     1      -0.857   4.130   5.031  1.00  0.00    -0.550 OA
ATOM     14  O   UNL     1       1.335   4.587   4.541  1.00  0.00    -0.550 OA
ENDBRANCH  11  12
ENDBRANCH  10  11
ENDBRANCH   9  10
ENDBRANCH   8   9
ENDBRANCH   7   8
ENDBRANCH   6   7
ENDBRANCH   5   6
ENDBRANCH   4   5
ENDBRANCH   3   4
ENDBRANCH   2   3
ENDBRANCH   1   2
BRANCH   1  15
ATOM     15  C   UNL     1       6.100   7.064   2.834  1.00  0.00     0.000 C 
BRANCH  15  16
ATOM     16  C   UNL     1       5.600   5.657   2.464  1.00  0.00     0.000 C 
BRANCH  16  17
ATOM     17  C   UNL     1       6.033   4.580   3.476  1.00  0.00     0.000 C 
BRANCH  17  18
ATOM     18  C   UNL     1       5.417   3.186   3.257  1.00  0.00    -0.000 C 
BRANCH  18  19
ATOM     19  C   UNL     1       5.736   2.596   1.875  1.00  0.00    -0.000 C 
BRANCH  19  20
ATOM     20  C   UNL     1       6.848   1.540   1.975  1.00  0.00    -0.000 C 
BRANCH  20  21
ATOM     21  C   UNL     1       8.244   2.162   2.146  1.00  0.00    -0.000 C 
BRANCH  21  22
ATOM     22  C   UNL     1       9.371   1.129   1.993  1.00  0.00    -0.000 C 
BRANCH  22  23
ATOM     23  C   UNL     1       9.248  -0.040   2.986  1.00  0.00    -0.000 C 
BRANCH  23  24
ATOM     24  C   UNL     1      10.466  -0.989   2.976  1.00  0.00    -0.000 C 
BRANCH  24  25
ATOM     25  C   UNL     1      11.684  -0.358   2.284  1.00  0.00    -0.003 C 
ATOM     26  C   UNL     1      12.988  -0.851   2.902  1.00  0.00     0.004 C 
ENDBRANCH  24  25
ENDBRANCH  23  24
ENDBRANCH  22  23
ENDBRANCH  21  22
ENDBRANCH  20  21
ENDBRANCH  19  20
ENDBRANCH  18  19
ENDBRANCH  17  18
ENDBRANCH  16  17
ENDBRANCH  15  16
ENDBRANCH   1  15
TORSDOF 22
ENDMDL
MODEL 2
REMARK VINA RESULT:     2.697      2.441      4.572
REMARK INTER + INTRA:           4.637
REMARK INTER:                   4.931
REMARK INTRA:                  -0.294
REMARK UNBOUND:                -1.528
REMARK SMILES CCCCCCCCCCCCCCCCCCCCCCCC(=O)[O-]
REMARK SMILES IDX 13 1 14 2 15 3 16 4 17 5 18 6 19 7 20 8 21 9 22 10 23 11
REMARK SMILES IDX 24 12 25 13 26 14 12 15 11 16 10 17 9 18 8 19 7 20 6 21 5 22
REMARK SMILES IDX 4 23 3 24 2 25 1 26
REMARK H PARENT
REMARK Flexibility Score: inf
ROOT
ATOM      1  C   UNL     1       4.830   8.447   5.262  1.00  0.00     0.000 C 
ENDROOT
BRANCH   1   2
ATOM      2  C   UNL     1       4.337   7.552   4.110  1.00  0.00     0.000 C 
BRANCH   2   3
ATOM      3  C   UNL     1       3.315   8.254   3.200  1.00  0.00     0.000 C 
BRANCH   3   4
ATOM      4  C   UNL     1       3.036   7.469   1.907  1.00  0.00     0.000 C 
BRANCH   4   5
ATOM      5  C   UNL     1       1.690   6.723   1.947  1.00  0.00     0.000 C 
BRANCH   5   6
ATOM      6  C   UNL     1       1.055   6.704   3.350  1.00  0.00     0.000 C 
BRANCH   6   7
ATOM      7  C   UNL     1      -0.349   7.330   3.441  1.00  0.00     0.000 C 
BRANCH   7   8
ATOM      8  C   UNL     1      -0.621   8.356   2.329  1.00  0.00     0.000 C 
BRANCH   8   9
ATOM      9  C   UNL     1      -1.072   9.725   2.870  1.00  0.00     0.000 C 
BRANCH   9  10
ATOM     10  C   UNL     1      -0.631  10.040   4.314  1.00  0.00     0.006 C 
BRANCH  10  11
ATOM     11  C   UNL     1       0.890  10.093   4.519  1.00  0.00     0.053 C 
BRANCH  11  12
ATOM     12  C   UNL     1       1.325   9.283   5.702  1.00  0.00     0.041 C 
ATOM     13  O   UNL     1       2.108   9.776   6.556  1.00  0.00    -0.550 OA
ATOM     14  O   UNL     1       0.859   7.984   5.863  1.00  0.00    -0.550 OA
ENDBRANCH  11  12
ENDBRANCH  10  11
ENDBRANCH   9  10
ENDBRANCH   8   9
ENDBRANCH   7   8
ENDBRANCH   6   7
ENDBRANCH   5   6
ENDBRANCH   4   5
ENDBRANCH   3   4
ENDBRANCH   2   3
ENDBRANCH   1   2
BRANCH   1  15
ATOM     15  C   UNL     1       5.671   9.666   4.834  1.00  0.00     0.000 C 
BRANCH  15  16
ATOM     16  C   UNL     1       5.519  10.003   3.341  1.00  0.00     0.000 C 
BRANCH  16  17
ATOM     17  C   UNL     1       6.870  10.101   2.608  1.00  0.00     0.000 C 
BRANCH  17  18
ATOM     18  C   UNL     1       7.320   8.818   1.885  1.00  0.00    -0.000 C 
BRANCH  18  19
ATOM     19  C   UNL     1       8.131   7.872   2.784  1.00  0.00    -0.000 C 
BRANCH  19  20
ATOM     20  C   UNL     1       8.702   6.700   1.970  1.00  0.00    -0.000 C 
BRANCH  20  21
ATOM     21  C   UNL     1       7.730   5.513   1.875  1.00  0.00    -0.000 C 
BRANCH  21  22
ATOM     22  C   UNL     1       6.642   5.554   2.959  1.00  0.00    -0.000 C 
BRANCH  22  23
ATOM     23  C   UNL     1       5.499   4.558   2.696  1.00  0.00    -0.000 C 
BRANCH  23  24
ATOM     24  C   UNL     1       5.934   3.324   1.875  1.00  0.00    -0.000 C 
BRANCH  24  25
ATOM     25  C   UNL     1       6.108   2.078   2.756  1.00  0.00    -0.003 C 
ATOM     26  C   UNL     1       7.426   1.369   2.455  1.00  0.00     0.004 C 
ENDBRANCH  24  25
ENDBRANCH  23  24
ENDBRANCH  22  23
ENDBRANCH  21  22
ENDBRANCH  20  21
ENDBRANCH  19  20
ENDBRANCH  18  19
ENDBRANCH  17  18
ENDBRANCH  16  17
ENDBRANCH  15  16
ENDBRANCH   1  15
TORSDOF 22
ENDMDL
MODEL 3
REMARK VINA RESULT:     4.021      4.181     11.536
REMARK INTER + INTRA:           7.664
REMARK INTER:                   8.357
REMARK INTRA:                  -0.693
REMARK UNBOUND:                -1.528
REMARK SMILES CCCCCCCCCCCCCCCCCCCCCCCC(=O)[O-]
REMARK SMILES IDX 13 1 14 2 15 3 16 4 17 5 18 6 19 7 20 8 21 9 22 10 23 11
REMARK SMILES IDX 24 12 25 13 26 14 12 15 11 16 10 17 9 18 8 19 7 20 6 21 5 22
REMARK SMILES IDX 4 23 3 24 2 25 1 26
REMARK H PARENT
REMARK Flexibility Score: inf
ROOT
ATOM      1  C   UNL     1       4.994   4.060   2.490  1.00  0.00     0.000 C 
ENDROOT
BRANCH   1   2
ATOM      2  C   UNL     1       6.197   3.312   1.888  1.00  0.00     0.000 C 
BRANCH   2   3
ATOM      3  C   UNL     1       6.574   2.047   2.678  1.00  0.00     0.000 C 
BRANCH   3   4
ATOM      4  C   UNL     1       7.479   1.097   1.876  1.00  0.00     0.000 C 
BRANCH   4   5
ATOM      5  C   UNL     1       8.977   1.357   2.123  1.00  0.00     0.000 C 
BRANCH   5   6
ATOM      6  C   UNL     1       9.808   0.062   2.182  1.00  0.00     0.000 C 
BRANCH   6   7
ATOM      7  C   UNL     1      11.323   0.265   2.371  1.00  0.00     0.000 C 
BRANCH   7   8
ATOM      8  C   UNL     1      12.027  -0.978   2.942  1.00  0.00     0.000 C 
BRANCH   8   9
ATOM      9  C   UNL     1      13.551  -0.957   2.730  1.00  0.00     0.000 C 
BRANCH   9  10
ATOM     10  C   UNL     1      14.246   0.377   3.074  1.00  0.00     0.006 C 
BRANCH  10  11
ATOM     11  C   UNL     1      14.451   1.316   1.876  1.00  0.00     0.053 C 
BRANCH  11  12
ATOM     12  C   UNL     1      14.981   2.653   2.295  1.00  0.00     0.041 C 
ATOM     13  O   UNL     1      14.302   3.696   2.099  1.00  0.00    -0.550 OA
ATOM     14  O   UNL     1      16.224   2.747   2.910  1.00  0.00    -0.550 OA
ENDBRANCH  11  12
ENDBRANCH  10  11
ENDBRANCH   9  10
ENDBRANCH   8   9
ENDBRANCH   7   8
ENDBRANCH   6   7
ENDBRANCH   5   6
ENDBRANCH   4   5
ENDBRANCH   3   4
ENDBRANCH   2   3
ENDBRANCH   1   2
BRANCH   1  15
ATOM     15  C   UNL     1       5.347   5.290   3.349  1.00  0.00     0.000 C 
BRANCH  15  16
ATOM     16  C   UNL     1       4.563   6.549   2.943  1.00  0.00     0.000 C 
BRANCH  16  17
ATOM     17  C   UNL     1       5.465   7.666   2.387  1.00  0.00     0.000 C 
BRANCH  17  18
ATOM     18  C   UNL     1       5.876   8.747   3.403  1.00  0.00    -0.000 C 
BRANCH  18  19
ATOM     19  C   UNL     1       4.685   9.330   4.178  1.00  0.00    -0.000 C 
BRANCH  19  20
ATOM     20  C   UNL     1       3.424   9.364   3.299  1.00  0.00    -0.000 C 
BRANCH  20  21
ATOM     21  C   UNL     1       2.126   9.363   4.123  1.00  0.00    -0.000 C 
BRANCH  21  22
ATOM     22  C   UNL     1       1.055   8.433   3.533  1.00  0.00    -0.000 C 
BRANCH  22  23
ATOM     23  C   UNL     1       0.840   7.162   4.374  1.00  0.00    -0.000 C 
BRANCH  23  24
ATOM     24  C   UNL     1       1.159   5.858   3.613  1.00  0.00    -0.000 C 
BRANCH  24  25
ATOM     25  C   UNL     1       0.004   4.848   3.689  1.00  0.00    -0.003 C 
ATOM     26  C   UNL     1       0.419   3.589   4.444  1.00  0.00     0.004 C 
ENDBRANCH  24  25
ENDBRANCH  23  24
ENDBRANCH  22  23
ENDBRANCH  21  22
ENDBRANCH  20  21
ENDBRANCH  19  20
ENDBRANCH  18  19
ENDBRANCH  17  18
ENDBRANCH  16  17
ENDBRANCH  15  16
ENDBRANCH   1  15
TORSDOF 22
ENDMDL
