MODEL 1
REMARK VINA RESULT:    -3.906      0.000      0.000
REMARK INTER + INTRA:          -7.569
REMARK INTER:                  -6.647
REMARK INTRA:                  -0.922
REMARK UNBOUND:                -0.922
REMARK SMILES CCCCCCCCCCCCCC(=O)[O-]
REMARK SMILES IDX 8 1 9 2 10 3 11 4 12 5 13 6 14 7 15 8 16 9 7 10 6 11 5 12
REMARK SMILES IDX 4 13 3 14 2 15 1 16
REMARK H PARENT
REMARK Flexibility Score: inf
ROOT
ATOM      1  C   UNL     1     -20.823   2.161   7.618  1.00  0.00     0.000 C 
ENDROOT
BRANCH   1   2
ATOM      2  C   UNL     1     -21.487   2.619   8.925  1.00  0.00     0.000 C 
BRANCH   2   3
ATOM      3  C   UNL     1     -21.549   1.472   9.941  1.00  0.00     0.000 C 
BRANCH   3   4
ATOM      4  C   UNL     1     -21.043   1.928  11.317  1.00  0.00     0.000 C 
BRANCH   4   5
ATOM      5  C   UNL     1     -21.830   1.297  12.477  1.00  0.00     0.006 C 
BRANCH   5   6
ATOM      6  C   UNL     1     -20.930   0.896  13.652  1.00  0.00     0.053 C 
BRANCH   6   7
ATOM      7  C   UNL     1     -21.133  -0.547  13.995  1.00  0.00     0.041 C 
ATOM      8  O   UNL     1     -21.660  -0.869  15.093  1.00  0.00    -0.550 OA
ATOM      9  O   UNL     1     -20.697  -1.537  13.125  1.00  0.00    -0.550 OA
ENDBRANCH   6   7
ENDBRANCH   5   6
ENDBRANCH   4   5
ENDBRANCH   3   4
ENDBRANCH   2   3
ENDBRANCH   1   2
BRANCH   1  10
ATOM     10  C   UNL     1     -19.981   0.887   7.798  1.00  0.00     0.000 C 
BRANCH  10  11
ATOM     11  C   UNL     1     -20.383  -0.231   6.821  1.00  0.00    -0.000 C 
BRANCH  11  12
ATOM     12  C   UNL     1     -20.287  -1.628   7.453  1.00  0.00    -0.000 C 
BRANCH  12  13
ATOM     13  C   UNL     1     -19.982  -1.572   8.961  1.00  0.00    -0.000 C 
BRANCH  13  14
ATOM     14  C   UNL     1     -19.631  -2.951   9.543  1.00  0.00    -0.000 C 
BRANCH  14  15
ATOM     15  C   UNL     1     -19.084  -3.917   8.482  1.00  0.00    -0.003 C 
ATOM     16  C   UNL     1     -19.507  -5.353   8.778  1.00  0.00     0.004 C 
ENDBRANCH  14  15
ENDBRANCH  13  14
ENDBRANCH  12  13
ENDBRANCH  11  12
ENDBRANCH  10  11
ENDBRANCH   1  10
TORSDOF 12
ENDMDL
MODEL 2
REMARK VINA RESULT:    -3.871      0.547      1.416
REMARK INTER + INTRA:          -7.510
REMARK INTER:                  -6.577
REMARK INTRA:                  -0.932
REMARK UNBOUND:                -0.922
REMARK SMILES CCCCCCCCCCCCCC(=O)[O-]
REMARK SMILES IDX 8 1 9 2 10 3 11 4 12 5 13 6 14 7 15 8 16 9 7 10 6 11 5 12
REMARK SMILES IDX 4 13 3 14 2 15 1 16
REMARK H PARENT
REMARK Flexibility Score: inf
ROOT
ATOM      1  C   UNL     1     -20.150   0.968   8.123  1.00  0.00     0.000 C 
ENDROOT
BRANCH   1   2
ATOM      2  C   UNL     1     -21.145   2.138   8.160  1.00  0.00     0.000 C 
BRANCH   2   3
ATOM      3  C   UNL     1     -21.731   2.317   9.567  1.00  0.00     0.000 C 
BRANCH   3   4
ATOM      4  C   UNL     1     -21.130   1.298  10.546  1.00  0.00     0.000 C 
BRANCH   4   5
ATOM      5  C   UNL     1     -21.921   1.202  11.860  1.00  0.00     0.006 C 
BRANCH   5   6
ATOM      6  C   UNL     1     -21.012   1.062  13.087  1.00  0.00     0.053 C 
BRANCH   6   7
ATOM      7  C   UNL     1     -21.034  -0.345  13.595  1.00  0.00     0.041 C 
ATOM      8  O   UNL     1     -20.644  -1.290  12.859  1.00  0.00    -0.550 OA
ATOM      9  O   UNL     1     -21.531  -0.620  14.862  1.00  0.00    -0.550 OA
ENDBRANCH   6   7
ENDBRANCH   5   6
ENDBRANCH   4   5
ENDBRANCH   3   4
ENDBRANCH   2   3
ENDBRANCH   1   2
BRANCH   1  10
ATOM     10  C   UNL     1     -20.516  -0.085   7.065  1.00  0.00     0.000 C 
BRANCH  10  11
ATOM     11  C   UNL     1     -20.287  -1.524   7.558  1.00  0.00    -0.000 C 
BRANCH  11  12
ATOM     12  C   UNL     1     -20.091  -1.602   9.080  1.00  0.00    -0.000 C 
BRANCH  12  13
ATOM     13  C   UNL     1     -19.507  -2.953   9.531  1.00  0.00    -0.000 C 
BRANCH  13  14
ATOM     14  C   UNL     1     -19.189  -3.881   8.347  1.00  0.00    -0.000 C 
BRANCH  14  15
ATOM     15  C   UNL     1     -19.235  -5.367   8.734  1.00  0.00    -0.003 C 
ATOM     16  C   UNL     1     -20.667  -5.821   8.996  1.00  0.00     0.004 C 
ENDBRANCH  14  15
ENDBRANCH  13  14
ENDBRANCH  12  13
ENDBRANCH  11  12
ENDBRANCH  10  11
ENDBRANCH   1  10
TORSDOF 12
ENDMDL
MODEL 3
REMARK VINA RESULT:    -3.674      1.660      5.121
REMARK INTER + INTRA:          -7.174
REMARK INTER:                  -6.259
REMARK INTRA:                  -0.914
REMARK UNBOUND:                -0.922
REMARK SMILES CCCCCCCCCCCCCC(=O)[O-]
REMARK SMILES IDX 8 1 9 2 10 3 11 4 12 5 13 6 14 7 15 8 16 9 7 10 6 11 5 12
REMARK SMILES IDX 4 13 3 14 2 15 1 16
REMARK H PARENT
REMARK Flexibility Score: inf
ROOT
ATOM      1  C   UNL     1     -20.842  -0.681   7.816  1.00  0.00     0.000 C 
ENDROOT
BRANCH   1   2
ATOM      2  C   UNL     1     -19.950  -1.931   7.778  1.00  0.00     0.000 C 
BRANCH   2   3
ATOM      3  C   UNL     1     -19.619  -2.412   9.197  1.00  0.00     0.000 C 
BRANCH   3   4
ATOM      4  C   UNL     1     -20.328  -1.548  10.250  1.00  0.00     0.000 C 
BRANCH   4   5
ATOM      5  C   UNL     1     -19.721  -1.707  11.653  1.00  0.00     0.006 C 
BRANCH   5   6
ATOM      6  C   UNL     1     -20.778  -2.005  12.723  1.00  0.00     0.053 C 
BRANCH   6   7
ATOM      7  C   UNL     1     -21.127  -0.758  13.472  1.00  0.00     0.041 C 
ATOM      8  O   UNL     1     -21.433  -0.817  14.693  1.00  0.00    -0.550 OA
ATOM      9  O   UNL     1     -21.162   0.463  12.813  1.00  0.00    -0.550 OA
ENDBRANCH   6   7
ENDBRANCH   5   6
ENDBRANCH   4   5
ENDBRANCH   3   4
ENDBRANCH   2   3
ENDBRANCH   1   2
BRANCH   1  10
ATOM     10  C   UNL     1     -20.227   0.507   7.058  1.00  0.00     0.000 C 
BRANCH  10  11
ATOM     11  C   UNL     1     -20.637   1.865   7.654  1.00  0.00    -0.000 C 
BRANCH  11  12
ATOM     12  C   UNL     1     -21.145   1.745   9.099  1.00  0.00    -0.000 C 
BRANCH  12  13
ATOM     13  C   UNL     1     -21.911   2.999   9.559  1.00  0.00    -0.000 C 
BRANCH  13  14
ATOM     14  C   UNL     1     -21.902   4.116   8.502  1.00  0.00    -0.000 C 
BRANCH  14  15
ATOM     15  C   UNL     1     -21.825   5.517   9.126  1.00  0.00    -0.003 C 
ATOM     16  C   UNL     1     -20.401   5.847   9.562  1.00  0.00     0.004 C 
ENDBRANCH  14  15
ENDBRANCH  13  14
ENDBRANCH  12  13
ENDBRANCH  11  12
ENDBRANCH  10  11
ENDBRANCH   1  10
TORSDOF 12
ENDMDL
MODEL 4
REMARK VINA RESULT:    -3.638      1.416      4.648
REMARK INTER + INTRA:          -7.112
REMARK INTER:                  -6.231
REMARK INTRA:                  -0.882
REMARK UNBOUND:                -0.922
REMARK SMILES CCCCCCCCCCCCCC(=O)[O-]
REMARK SMILES IDX 8 1 9 2 10 3 11 4 12 5 13 6 14 7 15 8 16 9 7 10 6 11 5 12
REMARK SMILES IDX 4 13 3 14 2 15 1 16
REMARK H PARENT
REMARK Flexibility Score: inf
ROOT
ATOM      1  C   UNL     1     -19.943  -1.962   7.463  1.00  0.00     0.000 C 
ENDROOT
BRANCH   1   2
ATOM      2  C   UNL     1     -19.662  -2.576   8.843  1.00  0.00     0.000 C 
BRANCH   2   3
ATOM      3  C   UNL     1     -20.263  -1.713   9.960  1.00  0.00     0.000 C 
BRANCH   3   4
ATOM      4  C   UNL     1     -19.527  -1.942  11.288  1.00  0.00     0.000 C 
BRANCH   4   5
ATOM      5  C   UNL     1     -20.477  -1.969  12.495  1.00  0.00     0.006 C 
BRANCH   5   6
ATOM      6  C   UNL     1     -20.981  -0.573  12.882  1.00  0.00     0.053 C 
BRANCH   6   7
ATOM      7  C   UNL     1     -21.089  -0.451  14.369  1.00  0.00     0.041 C 
ATOM      8  O   UNL     1     -20.075  -0.152  15.056  1.00  0.00    -0.550 OA
ATOM      9  O   UNL     1     -22.295  -0.715  15.004  1.00  0.00    -0.550 OA
ENDBRANCH   6   7
ENDBRANCH   5   6
ENDBRANCH   4   5
ENDBRANCH   3   4
ENDBRANCH   2   3
ENDBRANCH   1   2
BRANCH   1  10
ATOM     10  C   UNL     1     -20.866  -0.736   7.538  1.00  0.00     0.000 C 
BRANCH  10  11
ATOM     11  C   UNL     1     -20.207   0.537   6.979  1.00  0.00    -0.000 C 
BRANCH  11  12
ATOM     12  C   UNL     1     -20.601   1.798   7.763  1.00  0.00    -0.000 C 
BRANCH  12  13
ATOM     13  C   UNL     1     -21.059   1.479   9.198  1.00  0.00    -0.000 C 
BRANCH  13  14
ATOM     14  C   UNL     1     -21.836   2.640   9.840  1.00  0.00    -0.000 C 
BRANCH  14  15
ATOM     15  C   UNL     1     -22.130   3.774   8.847  1.00  0.00    -0.003 C 
ATOM     16  C   UNL     1     -21.389   5.049   9.235  1.00  0.00     0.004 C 
ENDBRANCH  14  15
ENDBRANCH  13  14
ENDBRANCH  12  13
ENDBRANCH  11  12
ENDBRANCH  10  11
ENDBRANCH   1  10
TORSDOF 12
ENDMDL
MODEL 5
REMARK VINA RESULT:    -3.354      2.342      5.391
REMARK INTER + INTRA:          -6.628
REMARK INTER:                  -5.704
REMARK INTRA:                  -0.924
REMARK UNBOUND:                -0.922
REMARK SMILES CCCCCCCCCCCCCC(=O)[O-]
REMARK SMILES IDX 8 1 9 2 10 3 11 4 12 5 13 6 14 7 15 8 16 9 7 10 6 11 5 12
REMARK SMILES IDX 4 13 3 14 2 15 1 16
REMARK H PARENT
REMARK Flexibility Score: inf
ROOT
ATOM      1  C   UNL     1     -20.017   0.900   7.945  1.00  0.00     0.000 C 
ENDROOT
BRANCH   1   2
ATOM      2  C   UNL     1     -20.373  -0.136   6.867  1.00  0.00     0.000 C 
BRANCH   2   3
ATOM      3  C   UNL     1     -20.340  -1.558   7.441  1.00  0.00     0.000 C 
BRANCH   3   4
ATOM      4  C   UNL     1     -20.148  -1.532   8.964  1.00  0.00     0.000 C 
BRANCH   4   5
ATOM      5  C   UNL     1     -19.566  -2.846   9.510  1.00  0.00     0.006 C 
BRANCH   5   6
ATOM      6  C   UNL     1     -19.128  -3.805   8.396  1.00  0.00     0.053 C 
BRANCH   6   7
ATOM      7  C   UNL     1     -19.490  -5.214   8.749  1.00  0.00     0.041 C 
ATOM      8  O   UNL     1     -18.731  -6.164   8.422  1.00  0.00    -0.550 OA
ATOM      9  O   UNL     1     -20.689  -5.483   9.397  1.00  0.00    -0.550 OA
ENDBRANCH   6   7
ENDBRANCH   5   6
ENDBRANCH   4   5
ENDBRANCH   3   4
ENDBRANCH   2   3
ENDBRANCH   1   2
BRANCH   1  10
ATOM     10  C   UNL     1     -20.992   2.087   7.969  1.00  0.00     0.000 C 
BRANCH  10  11
ATOM     11  C   UNL     1     -21.612   2.317   9.358  1.00  0.00    -0.000 C 
BRANCH  11  12
ATOM     12  C   UNL     1     -21.116   1.301  10.399  1.00  0.00    -0.000 C 
BRANCH  12  13
ATOM     13  C   UNL     1     -21.886   1.397  11.729  1.00  0.00    -0.000 C 
BRANCH  13  14
ATOM     14  C   UNL     1     -20.984   1.160  12.951  1.00  0.00    -0.000 C 
BRANCH  14  15
ATOM     15  C   UNL     1     -21.347  -0.124  13.712  1.00  0.00    -0.003 C 
ATOM     16  C   UNL     1     -20.769  -1.354  13.019  1.00  0.00     0.004 C 
ENDBRANCH  14  15
ENDBRANCH  13  14
ENDBRANCH  12  13
ENDBRANCH  11  12
ENDBRANCH  10  11
ENDBRANCH   1  10
TORSDOF 12
ENDMDL
MODEL 6
REMARK VINA RESULT:    -3.066      2.766      4.614
REMARK INTER + INTRA:          -6.139
REMARK INTER:                  -5.215
REMARK INTRA:                  -0.924
REMARK UNBOUND:                -0.922
REMARK SMILES CCCCCCCCCCCCCC(=O)[O-]
REMARK SMILES IDX 8 1 9 2 10 3 11 4 12 5 13 6 14 7 15 8 16 9 7 10 6 11 5 12
REMARK SMILES IDX 4 13 3 14 2 15 1 16
REMARK H PARENT
REMARK Flexibility Score: inf
ROOT
ATOM      1  C   UNL     1     -20.819  -0.390  14.096  1.00  0.00     0.000 C 
ENDROOT
BRANCH   1   2
ATOM      2  C   UNL     1     -20.857   1.004  13.453  1.00  0.00     0.000 C 
BRANCH   2   3
ATOM      3  C   UNL     1     -21.711   0.998  12.178  1.00  0.00     0.000 C 
BRANCH   3   4
ATOM      4  C   UNL     1     -21.308   2.146  11.241  1.00  0.00     0.000 C 
BRANCH   4   5
ATOM      5  C   UNL     1     -21.617   1.842   9.766  1.00  0.00     0.006 C 
BRANCH   5   6
ATOM      6  C   UNL     1     -20.796   0.666   9.222  1.00  0.00     0.053 C 
BRANCH   6   7
ATOM      7  C   UNL     1     -20.461   0.888   7.780  1.00  0.00     0.041 C 
ATOM      8  O   UNL     1     -20.470   2.053   7.300  1.00  0.00    -0.550 OA
ATOM      9  O   UNL     1     -20.184  -0.194   6.955  1.00  0.00    -0.550 OA
ENDBRANCH   6   7
ENDBRANCH   5   6
ENDBRANCH   4   5
ENDBRANCH   3   4
ENDBRANCH   2   3
ENDBRANCH   1   2
BRANCH   1  10
ATOM     10  C   UNL     1     -21.185  -1.508  13.106  1.00  0.00     0.000 C 
BRANCH  10  11
ATOM     11  C   UNL     1     -19.991  -1.945  12.239  1.00  0.00    -0.000 C 
BRANCH  11  12
ATOM     12  C   UNL     1     -20.427  -2.507  10.877  1.00  0.00    -0.000 C 
BRANCH  12  13
ATOM     13  C   UNL     1     -19.334  -2.361   9.803  1.00  0.00    -0.000 C 
BRANCH  13  14
ATOM     14  C   UNL     1     -19.618  -3.211   8.554  1.00  0.00    -0.000 C 
BRANCH  14  15
ATOM     15  C   UNL     1     -18.918  -4.578   8.598  1.00  0.00    -0.003 C 
ATOM     16  C   UNL     1     -19.929  -5.706   8.774  1.00  0.00     0.004 C 
ENDBRANCH  14  15
ENDBRANCH  13  14
ENDBRANCH  12  13
ENDBRANCH  11  12
ENDBRANCH  10  11
ENDBRANCH   1  10
TORSDOF 12
ENDMDL
MODEL 7
REMARK VINA RESULT:    -3.065      3.246      5.174
REMARK INTER + INTRA:          -6.137
REMARK INTER:                  -5.354
REMARK INTRA:                  -0.783
REMARK UNBOUND:                -0.922
REMARK SMILES CCCCCCCCCCCCCC(=O)[O-]
REMARK SMILES IDX 8 1 9 2 10 3 11 4 12 5 13 6 14 7 15 8 16 9 7 10 6 11 5 12
REMARK SMILES IDX 4 13 3 14 2 15 1 16
REMARK H PARENT
REMARK Flexibility Score: inf
ROOT
ATOM      1  C   UNL     1     -20.806  -0.817   7.526  1.00  0.00     0.000 C 
ENDROOT
BRANCH   1   2
ATOM      2  C   UNL     1     -19.969   0.356   6.991  1.00  0.00     0.000 C 
BRANCH   2   3
ATOM      3  C   UNL     1     -20.449   1.687   7.583  1.00  0.00     0.000 C 
BRANCH   3   4
ATOM      4  C   UNL     1     -21.131   1.471   8.942  1.00  0.00     0.000 C 
BRANCH   4   5
ATOM      5  C   UNL     1     -21.373   2.786   9.699  1.00  0.00     0.006 C 
BRANCH   5   6
ATOM      6  C   UNL     1     -22.190   3.795   8.883  1.00  0.00     0.053 C 
BRANCH   6   7
ATOM      7  C   UNL     1     -21.635   5.174   9.052  1.00  0.00     0.041 C 
ATOM      8  O   UNL     1     -20.759   5.401   9.929  1.00  0.00    -0.550 OA
ATOM      9  O   UNL     1     -22.118   6.220   8.276  1.00  0.00    -0.550 OA
ENDBRANCH   6   7
ENDBRANCH   5   6
ENDBRANCH   4   5
ENDBRANCH   3   4
ENDBRANCH   2   3
ENDBRANCH   1   2
BRANCH   1  10
ATOM     10  C   UNL     1     -20.011  -2.131   7.587  1.00  0.00     0.000 C 
BRANCH  10  11
ATOM     11  C   UNL     1     -19.504  -2.452   9.003  1.00  0.00    -0.000 C 
BRANCH  11  12
ATOM     12  C   UNL     1     -20.245  -1.655  10.089  1.00  0.00    -0.000 C 
BRANCH  12  13
ATOM     13  C   UNL     1     -19.652  -1.879  11.492  1.00  0.00    -0.000 C 
BRANCH  13  14
ATOM     14  C   UNL     1     -20.729  -1.907  12.589  1.00  0.00    -0.000 C 
BRANCH  14  15
ATOM     15  C   UNL     1     -20.743  -0.625  13.434  1.00  0.00    -0.003 C 
ATOM     16  C   UNL     1     -21.656  -0.778  14.647  1.00  0.00     0.004 C 
ENDBRANCH  14  15
ENDBRANCH  13  14
ENDBRANCH  12  13
ENDBRANCH  11  12
ENDBRANCH  10  11
ENDBRANCH   1  10
TORSDOF 12
ENDMDL
MODEL 8
REMARK VINA RESULT:    -2.987      2.892      6.506
REMARK INTER + INTRA:          -6.005
REMARK INTER:                  -5.152
REMARK INTRA:                  -0.853
REMARK UNBOUND:                -0.922
REMARK SMILES CCCCCCCCCCCCCC(=O)[O-]
REMARK SMILES IDX 8 1 9 2 10 3 11 4 12 5 13 6 14 7 15 8 16 9 7 10 6 11 5 12
REMARK SMILES IDX 4 13 3 14 2 15 1 16
REMARK H PARENT
REMARK Flexibility Score: inf
ROOT
ATOM      1  C   UNL     1     -21.013  -0.488  14.213  1.00  0.00     0.000 C 
ENDROOT
BRANCH   1   2
ATOM      2  C   UNL     1     -21.213  -1.653  13.232  1.00  0.00     0.000 C 
BRANCH   2   3
ATOM      3  C   UNL     1     -20.032  -1.761  12.259  1.00  0.00     0.000 C 
BRANCH   3   4
ATOM      4  C   UNL     1     -20.436  -2.519  10.986  1.00  0.00     0.000 C 
BRANCH   4   5
ATOM      5  C   UNL     1     -19.711  -2.002   9.734  1.00  0.00     0.006 C 
BRANCH   5   6
ATOM      6  C   UNL     1     -20.401  -0.780   9.115  1.00  0.00     0.053 C 
BRANCH   6   7
ATOM      7  C   UNL     1     -20.302  -0.826   7.622  1.00  0.00     0.041 C 
ATOM      8  O   UNL     1     -20.207  -1.933   7.028  1.00  0.00    -0.550 OA
ATOM      9  O   UNL     1     -20.267   0.353   6.890  1.00  0.00    -0.550 OA
ENDBRANCH   6   7
ENDBRANCH   5   6
ENDBRANCH   4   5
ENDBRANCH   3   4
ENDBRANCH   2   3
ENDBRANCH   1   2
BRANCH   1  10
ATOM     10  C   UNL     1     -20.766   0.851  13.498  1.00  0.00     0.000 C 
BRANCH  10  11
ATOM     11  C   UNL     1     -21.741   1.088  12.332  1.00  0.00    -0.000 C 
BRANCH  11  12
ATOM     12  C   UNL     1     -21.188   2.076  11.293  1.00  0.00    -0.000 C 
BRANCH  12  13
ATOM     13  C   UNL     1     -21.977   2.044   9.972  1.00  0.00    -0.000 C 
BRANCH  13  14
ATOM     14  C   UNL     1     -21.404   3.008   8.920  1.00  0.00    -0.000 C 
BRANCH  14  15
ATOM     15  C   UNL     1     -22.177   4.334   8.853  1.00  0.00    -0.003 C 
ATOM     16  C   UNL     1     -21.265   5.517   9.163  1.00  0.00     0.004 C 
ENDBRANCH  14  15
ENDBRANCH  13  14
ENDBRANCH  12  13
ENDBRANCH  11  12
ENDBRANCH  10  11
ENDBRANCH   1  10
TORSDOF 12
ENDMDL
MODEL 9
REMARK VINA RESULT:    -2.768      2.696      6.185
REMARK INTER + INTRA:          -5.631
REMARK INTER:                  -4.584
REMARK INTRA:                  -1.047
REMARK UNBOUND:                -0.922
REMARK SMILES CCCCCCCCCCCCCC(=O)[O-]
REMARK SMILES IDX 8 1 9 2 10 3 11 4 12 5 13 6 14 7 15 8 16 9 7 10 6 11 5 12
REMARK SMILES IDX 4 13 3 14 2 15 1 16
REMARK H PARENT
REMARK Flexibility Score: inf
ROOT
ATOM      1  C   UNL     1     -20.778   0.360  13.669  1.00  0.00     0.000 C 
ENDROOT
BRANCH   1   2
ATOM      2  C   UNL     1     -21.477  -0.931  14.120  1.00  0.00     0.000 C 
BRANCH   2   3
ATOM      3  C   UNL     1     -21.109  -2.104  13.202  1.00  0.00     0.000 C 
BRANCH   3   4
ATOM      4  C   UNL     1     -19.987  -1.710  12.231  1.00  0.00     0.000 C 
BRANCH   4   5
ATOM      5  C   UNL     1     -20.153  -2.350  10.843  1.00  0.00     0.006 C 
BRANCH   5   6
ATOM      6  C   UNL     1     -20.123  -1.316   9.709  1.00  0.00     0.053 C 
BRANCH   6   7
ATOM      7  C   UNL     1     -19.964  -1.998   8.387  1.00  0.00     0.041 C 
ATOM      8  O   UNL     1     -19.458  -3.150   8.325  1.00  0.00    -0.550 OA
ATOM      9  O   UNL     1     -20.329  -1.344   7.218  1.00  0.00    -0.550 OA
ENDBRANCH   6   7
ENDBRANCH   5   6
ENDBRANCH   4   5
ENDBRANCH   3   4
ENDBRANCH   2   3
ENDBRANCH   1   2
BRANCH   1  10
ATOM     10  C   UNL     1     -21.695   1.267  12.833  1.00  0.00     0.000 C 
BRANCH  10  11
ATOM     11  C   UNL     1     -21.013   1.778  11.552  1.00  0.00    -0.000 C 
BRANCH  11  12
ATOM     12  C   UNL     1     -21.985   1.879  10.366  1.00  0.00    -0.000 C 
BRANCH  12  13
ATOM     13  C   UNL     1     -21.270   1.771   9.007  1.00  0.00    -0.000 C 
BRANCH  13  14
ATOM     14  C   UNL     1     -21.220   3.114   8.260  1.00  0.00    -0.000 C 
BRANCH  14  15
ATOM     15  C   UNL     1     -22.115   4.182   8.906  1.00  0.00    -0.003 C 
ATOM     16  C   UNL     1     -21.327   5.457   9.192  1.00  0.00     0.004 C 
ENDBRANCH  14  15
ENDBRANCH  13  14
ENDBRANCH  12  13
ENDBRANCH  11  12
ENDBRANCH  10  11
ENDBRANCH   1  10
TORSDOF 12
ENDMDL
