MODEL 1
REMARK VINA RESULT:    -1.570      0.000      0.000
REMARK INTER + INTRA:          -3.481
REMARK INTER:                  -2.671
REMARK INTRA:                  -0.810
REMARK UNBOUND:                -0.810
REMARK SMILES CCCCCCCCCCCCCC(=O)[O-]
REMARK SMILES IDX 8 1 9 2 10 3 11 4 12 5 13 6 14 7 15 8 16 9 7 10 6 11 5 12
REMARK SMILES IDX 4 13 3 14 2 15 1 16
REMARK H PARENT
REMARK Flexibility Score: inf
ROOT
ATOM      1  C   UNL     1       3.765  44.103  11.702  1.00  0.00     0.000 C 
ENDROOT
BRANCH   1   2
ATOM      2  C   UNL     1       2.928  43.182  10.796  1.00  0.00     0.000 C 
BRANCH   2   3
ATOM      3  C   UNL     1       1.426  43.247  11.116  1.00  0.00     0.000 C 
BRANCH   3   4
ATOM      4  C   UNL     1       1.128  44.032  12.406  1.00  0.00     0.000 C 
BRANCH   4   5
ATOM      5  C   UNL     1      -0.209  43.628  13.048  1.00  0.00     0.006 C 
BRANCH   5   6
ATOM      6  C   UNL     1      -0.724  44.675  14.044  1.00  0.00     0.053 C 
BRANCH   6   7
ATOM      7  C   UNL     1      -1.991  44.206  14.686  1.00  0.00     0.041 C 
ATOM      8  O   UNL     1      -2.295  42.984  14.671  1.00  0.00    -0.550 OA
ATOM      9  O   UNL     1      -2.863  45.125  15.255  1.00  0.00    -0.550 OA
ENDBRANCH   6   7
ENDBRANCH   5   6
ENDBRANCH   4   5
ENDBRANCH   3   4
ENDBRANCH   2   3
ENDBRANCH   1   2
BRANCH   1  10
ATOM     10  C   UNL     1       4.863  44.849  10.929  1.00  0.00     0.000 C 
BRANCH  10  11
ATOM     11  C   UNL     1       5.628  43.937   9.954  1.00  0.00    -0.000 C 
BRANCH  11  12
ATOM     12  C   UNL     1       7.155  44.024  10.127  1.00  0.00    -0.000 C 
BRANCH  12  13
ATOM     13  C   UNL     1       7.658  43.800  11.567  1.00  0.00    -0.000 C 
BRANCH  13  14
ATOM     14  C   UNL     1       7.769  42.325  11.997  1.00  0.00    -0.000 C 
BRANCH  14  15
ATOM     15  C   UNL     1       7.283  42.059  13.438  1.00  0.00    -0.003 C 
ATOM     16  C   UNL     1       6.062  42.898  13.812  1.00  0.00     0.004 C 
ENDBRANCH  14  15
ENDBRANCH  13  14
ENDBRANCH  12  13
ENDBRANCH  11  12
ENDBRANCH  10  11
ENDBRANCH   1  10
TORSDOF 12
ENDMDL
MODEL 2
REMARK VINA RESULT:    -1.130      2.608      3.930
REMARK INTER + INTRA:          -2.733
REMARK INTER:                  -2.753
REMARK INTRA:                   0.020
REMARK UNBOUND:                -0.810
REMARK SMILES CCCCCCCCCCCCCC(=O)[O-]
REMARK SMILES IDX 8 1 9 2 10 3 11 4 12 5 13 6 14 7 15 8 16 9 7 10 6 11 5 12
REMARK SMILES IDX 4 13 3 14 2 15 1 16
REMARK H PARENT
REMARK Flexibility Score: inf
ROOT
ATOM      1  C   UNL     1       5.389  42.586  14.042  1.00  0.00     0.000 C 
ENDROOT
BRANCH   1   2
ATOM      2  C   UNL     1       5.015  43.790  13.159  1.00  0.00     0.000 C 
BRANCH   2   3
ATOM      3  C   UNL     1       3.842  43.485  12.214  1.00  0.00     0.000 C 
BRANCH   3   4
ATOM      4  C   UNL     1       3.370  44.726  11.434  1.00  0.00     0.000 C 
BRANCH   4   5
ATOM      5  C   UNL     1       2.703  44.365  10.097  1.00  0.00     0.006 C 
BRANCH   5   6
ATOM      6  C   UNL     1       2.234  42.906  10.049  1.00  0.00     0.053 C 
BRANCH   6   7
ATOM      7  C   UNL     1       0.877  42.773  10.665  1.00  0.00     0.041 C 
ATOM      8  O   UNL     1      -0.021  42.106  10.085  1.00  0.00    -0.550 OA
ATOM      9  O   UNL     1       0.586  43.429  11.854  1.00  0.00    -0.550 OA
ENDBRANCH   6   7
ENDBRANCH   5   6
ENDBRANCH   4   5
ENDBRANCH   3   4
ENDBRANCH   2   3
ENDBRANCH   1   2
BRANCH   1  10
ATOM     10  C   UNL     1       6.896  42.286  14.021  1.00  0.00     0.000 C 
BRANCH  10  11
ATOM     11  C   UNL     1       7.454  42.145  12.594  1.00  0.00    -0.000 C 
BRANCH  11  12
ATOM     12  C   UNL     1       8.476  43.241  12.242  1.00  0.00    -0.000 C 
BRANCH  12  13
ATOM     13  C   UNL     1       8.551  43.601  10.745  1.00  0.00    -0.000 C 
BRANCH  13  14
ATOM     14  C   UNL     1       7.831  44.905  10.352  1.00  0.00    -0.000 C 
BRANCH  14  15
ATOM     15  C   UNL     1       6.377  44.693   9.875  1.00  0.00    -0.003 C 
ATOM     16  C   UNL     1       5.966  43.222   9.875  1.00  0.00     0.004 C 
ENDBRANCH  14  15
ENDBRANCH  13  14
ENDBRANCH  12  13
ENDBRANCH  11  12
ENDBRANCH  10  11
ENDBRANCH   1  10
TORSDOF 12
ENDMDL
MODEL 3
REMARK VINA RESULT:    -1.085      3.318      7.426
REMARK INTER + INTRA:          -2.656
REMARK INTER:                  -2.060
REMARK INTRA:                  -0.596
REMARK UNBOUND:                -0.810
REMARK SMILES CCCCCCCCCCCCCC(=O)[O-]
REMARK SMILES IDX 8 1 9 2 10 3 11 4 12 5 13 6 14 7 15 8 16 9 7 10 6 11 5 12
REMARK SMILES IDX 4 13 3 14 2 15 1 16
REMARK H PARENT
REMARK Flexibility Score: inf
ROOT
ATOM      1  C   UNL     1       4.059  43.571  10.872  1.00  0.00     0.000 C 
ENDROOT
BRANCH   1   2
ATOM      2  C   UNL     1       5.230  43.427   9.883  1.00  0.00     0.000 C 
BRANCH   2   3
ATOM      3  C   UNL     1       6.191  44.625   9.931  1.00  0.00     0.000 C 
BRANCH   3   4
ATOM      4  C   UNL     1       7.670  44.199   9.983  1.00  0.00     0.000 C 
BRANCH   4   5
ATOM      5  C   UNL     1       7.894  42.945  10.841  1.00  0.00     0.006 C 
BRANCH   5   6
ATOM      6  C   UNL     1       8.130  43.278  12.320  1.00  0.00     0.053 C 
BRANCH   6   7
ATOM      7  C   UNL     1       7.120  42.586  13.179  1.00  0.00     0.041 C 
ATOM      8  O   UNL     1       6.025  43.147  13.448  1.00  0.00    -0.550 OA
ATOM      9  O   UNL     1       7.408  41.343  13.727  1.00  0.00    -0.550 OA
ENDBRANCH   6   7
ENDBRANCH   5   6
ENDBRANCH   4   5
ENDBRANCH   3   4
ENDBRANCH   2   3
ENDBRANCH   1   2
BRANCH   1  10
ATOM     10  C   UNL     1       2.705  43.730  10.162  1.00  0.00     0.000 C 
BRANCH  10  11
ATOM     11  C   UNL     1       1.533  43.168  10.985  1.00  0.00    -0.000 C 
BRANCH  11  12
ATOM     12  C   UNL     1       1.325  43.916  12.315  1.00  0.00    -0.000 C 
BRANCH  12  13
ATOM     13  C   UNL     1      -0.076  43.755  12.937  1.00  0.00    -0.000 C 
BRANCH  13  14
ATOM     14  C   UNL     1      -0.396  44.732  14.084  1.00  0.00    -0.000 C 
BRANCH  14  15
ATOM     15  C   UNL     1      -1.856  44.652  14.579  1.00  0.00    -0.003 C 
ATOM     16  C   UNL     1      -2.343  43.213  14.749  1.00  0.00     0.004 C 
ENDBRANCH  14  15
ENDBRANCH  13  14
ENDBRANCH  12  13
ENDBRANCH  11  12
ENDBRANCH  10  11
ENDBRANCH   1  10
TORSDOF 12
ENDMDL
MODEL 4
REMARK VINA RESULT:    -1.049      2.924      3.774
REMARK INTER + INTRA:          -2.594
REMARK INTER:                  -4.515
REMARK INTRA:                   1.921
REMARK UNBOUND:                -0.810
REMARK SMILES CCCCCCCCCCCCCC(=O)[O-]
REMARK SMILES IDX 8 1 9 2 10 3 11 4 12 5 13 6 14 7 15 8 16 9 7 10 6 11 5 12
REMARK SMILES IDX 4 13 3 14 2 15 1 16
REMARK H PARENT
REMARK Flexibility Score: inf
ROOT
ATOM      1  C   UNL     1       6.126  45.102  10.306  1.00  0.00     0.000 C 
ENDROOT
BRANCH   1   2
ATOM      2  C   UNL     1       5.598  45.125  11.752  1.00  0.00     0.000 C 
BRANCH   2   3
ATOM      3  C   UNL     1       4.067  45.013  11.820  1.00  0.00     0.000 C 
BRANCH   3   4
ATOM      4  C   UNL     1       3.431  44.720  10.450  1.00  0.00     0.000 C 
BRANCH   4   5
ATOM      5  C   UNL     1       3.865  43.363   9.875  1.00  0.00     0.006 C 
BRANCH   5   6
ATOM      6  C   UNL     1       2.731  42.329   9.887  1.00  0.00     0.053 C 
BRANCH   6   7
ATOM      7  C   UNL     1       1.555  42.853  10.649  1.00  0.00     0.041 C 
ATOM      8  O   UNL     1       1.728  43.592  11.654  1.00  0.00    -0.550 OA
ATOM      9  O   UNL     1       0.268  42.484  10.280  1.00  0.00    -0.550 OA
ENDBRANCH   6   7
ENDBRANCH   5   6
ENDBRANCH   4   5
ENDBRANCH   3   4
ENDBRANCH   2   3
ENDBRANCH   1   2
BRANCH   1  10
ATOM     10  C   UNL     1       7.662  45.116  10.240  1.00  0.00     0.000 C 
BRANCH  10  11
ATOM     11  C   UNL     1       8.294  43.851  10.847  1.00  0.00    -0.000 C 
BRANCH  11  12
ATOM     12  C   UNL     1       7.504  42.572  10.515  1.00  0.00    -0.000 C 
BRANCH  12  13
ATOM     13  C   UNL     1       7.612  41.452  11.568  1.00  0.00    -0.000 C 
BRANCH  13  14
ATOM     14  C   UNL     1       7.629  41.932  13.032  1.00  0.00    -0.000 C 
BRANCH  14  15
ATOM     15  C   UNL     1       6.397  42.775  13.425  1.00  0.00    -0.003 C 
ATOM     16  C   UNL     1       5.759  42.312  14.734  1.00  0.00     0.004 C 
ENDBRANCH  14  15
ENDBRANCH  13  14
ENDBRANCH  12  13
ENDBRANCH  11  12
ENDBRANCH  10  11
ENDBRANCH   1  10
TORSDOF 12
ENDMDL
MODEL 5
REMARK VINA RESULT:    -0.896      3.830      7.509
REMARK INTER + INTRA:          -2.335
REMARK INTER:                  -1.661
REMARK INTRA:                  -0.674
REMARK UNBOUND:                -0.810
REMARK SMILES CCCCCCCCCCCCCC(=O)[O-]
REMARK SMILES IDX 8 1 9 2 10 3 11 4 12 5 13 6 14 7 15 8 16 9 7 10 6 11 5 12
REMARK SMILES IDX 4 13 3 14 2 15 1 16
REMARK H PARENT
REMARK Flexibility Score: inf
ROOT
ATOM      1  C   UNL     1       3.644  42.683   9.885  1.00  0.00     0.000 C 
ENDROOT
BRANCH   1   2
ATOM      2  C   UNL     1       4.860  43.627   9.903  1.00  0.00     0.000 C 
BRANCH   2   3
ATOM      3  C   UNL     1       4.720  44.746  10.946  1.00  0.00     0.000 C 
BRANCH   3   4
ATOM      4  C   UNL     1       5.992  44.931  11.794  1.00  0.00     0.000 C 
BRANCH   4   5
ATOM      5  C   UNL     1       7.279  44.723  10.981  1.00  0.00     0.006 C 
BRANCH   5   6
ATOM      6  C   UNL     1       8.276  43.793  11.685  1.00  0.00     0.053 C 
BRANCH   6   7
ATOM      7  C   UNL     1       7.659  42.451  11.923  1.00  0.00     0.041 C 
ATOM      8  O   UNL     1       7.249  41.761  10.952  1.00  0.00    -0.550 OA
ATOM      9  O   UNL     1       7.488  41.985  13.220  1.00  0.00    -0.550 OA
ENDBRANCH   6   7
ENDBRANCH   5   6
ENDBRANCH   4   5
ENDBRANCH   3   4
ENDBRANCH   2   3
ENDBRANCH   1   2
BRANCH   1  10
ATOM     10  C   UNL     1       2.319  43.425  10.119  1.00  0.00     0.000 C 
BRANCH  10  11
ATOM     11  C   UNL     1       1.513  42.845  11.295  1.00  0.00    -0.000 C 
BRANCH  11  12
ATOM     12  C   UNL     1       1.258  43.875  12.410  1.00  0.00    -0.000 C 
BRANCH  12  13
ATOM     13  C   UNL     1      -0.216  44.018  12.836  1.00  0.00    -0.000 C 
BRANCH  13  14
ATOM     14  C   UNL     1      -0.435  44.631  14.233  1.00  0.00    -0.000 C 
BRANCH  14  15
ATOM     15  C   UNL     1      -1.879  44.483  14.757  1.00  0.00    -0.003 C 
ATOM     16  C   UNL     1      -2.374  43.037  14.722  1.00  0.00     0.004 C 
ENDBRANCH  14  15
ENDBRANCH  13  14
ENDBRANCH  12  13
ENDBRANCH  11  12
ENDBRANCH  10  11
ENDBRANCH   1  10
TORSDOF 12
ENDMDL
MODEL 6
REMARK VINA RESULT:    -0.880      0.883      1.234
REMARK INTER + INTRA:          -2.307
REMARK INTER:                  -1.403
REMARK INTRA:                  -0.904
REMARK UNBOUND:                -0.810
REMARK SMILES CCCCCCCCCCCCCC(=O)[O-]
REMARK SMILES IDX 8 1 9 2 10 3 11 4 12 5 13 6 14 7 15 8 16 9 7 10 6 11 5 12
REMARK SMILES IDX 4 13 3 14 2 15 1 16
REMARK H PARENT
REMARK Flexibility Score: inf
ROOT
ATOM      1  C   UNL     1       3.911  43.749  12.056  1.00  0.00     0.000 C 
ENDROOT
BRANCH   1   2
ATOM      2  C   UNL     1       2.949  43.013  11.107  1.00  0.00     0.000 C 
BRANCH   2   3
ATOM      3  C   UNL     1       1.500  43.509  11.238  1.00  0.00     0.000 C 
BRANCH   3   4
ATOM      4  C   UNL     1       1.158  43.975  12.665  1.00  0.00     0.000 C 
BRANCH   4   5
ATOM      5  C   UNL     1      -0.331  43.805  13.001  1.00  0.00     0.006 C 
BRANCH   5   6
ATOM      6  C   UNL     1      -0.806  44.785  14.082  1.00  0.00     0.053 C 
BRANCH   6   7
ATOM      7  C   UNL     1      -2.038  44.265  14.753  1.00  0.00     0.041 C 
ATOM      8  O   UNL     1      -2.375  43.059  14.615  1.00  0.00    -0.550 OA
ATOM      9  O   UNL     1      -2.845  45.125  15.487  1.00  0.00    -0.550 OA
ENDBRANCH   6   7
ENDBRANCH   5   6
ENDBRANCH   4   5
ENDBRANCH   3   4
ENDBRANCH   2   3
ENDBRANCH   1   2
BRANCH   1  10
ATOM     10  C   UNL     1       4.342  45.120  11.510  1.00  0.00     0.000 C 
BRANCH  10  11
ATOM     11  C   UNL     1       4.787  45.061  10.039  1.00  0.00    -0.000 C 
BRANCH  11  12
ATOM     12  C   UNL     1       6.310  44.893   9.882  1.00  0.00    -0.000 C 
BRANCH  12  13
ATOM     13  C   UNL     1       7.112  44.995  11.193  1.00  0.00    -0.000 C 
BRANCH  13  14
ATOM     14  C   UNL     1       8.125  43.859  11.429  1.00  0.00    -0.000 C 
BRANCH  14  15
ATOM     15  C   UNL     1       7.494  42.572  12.002  1.00  0.00    -0.003 C 
ATOM     16  C   UNL     1       7.700  41.360  11.094  1.00  0.00     0.004 C 
ENDBRANCH  14  15
ENDBRANCH  13  14
ENDBRANCH  12  13
ENDBRANCH  11  12
ENDBRANCH  10  11
ENDBRANCH   1  10
TORSDOF 12
ENDMDL
MODEL 7
REMARK VINA RESULT:    -0.404      4.149      7.188
REMARK INTER + INTRA:          -1.496
REMARK INTER:                  -2.027
REMARK INTRA:                   0.530
REMARK UNBOUND:                -0.810
REMARK SMILES CCCCCCCCCCCCCC(=O)[O-]
REMARK SMILES IDX 8 1 9 2 10 3 11 4 12 5 13 6 14 7 15 8 16 9 7 10 6 11 5 12
REMARK SMILES IDX 4 13 3 14 2 15 1 16
REMARK H PARENT
REMARK Flexibility Score: inf
ROOT
ATOM      1  C   UNL     1       5.474  45.062  12.260  1.00  0.00     0.000 C 
ENDROOT
BRANCH   1   2
ATOM      2  C   UNL     1       5.213  45.125  10.744  1.00  0.00     0.000 C 
BRANCH   2   3
ATOM      3  C   UNL     1       6.189  44.251   9.942  1.00  0.00     0.000 C 
BRANCH   3   4
ATOM      4  C   UNL     1       7.634  44.780   9.987  1.00  0.00     0.000 C 
BRANCH   4   5
ATOM      5  C   UNL     1       8.634  43.727  10.490  1.00  0.00     0.006 C 
BRANCH   5   6
ATOM      6  C   UNL     1       8.423  43.375  11.968  1.00  0.00     0.053 C 
BRANCH   6   7
ATOM      7  C   UNL     1       7.747  42.046  12.096  1.00  0.00     0.041 C 
ATOM      8  O   UNL     1       7.424  41.605  13.231  1.00  0.00    -0.550 OA
ATOM      9  O   UNL     1       7.521  41.269  10.968  1.00  0.00    -0.550 OA
ENDBRANCH   6   7
ENDBRANCH   5   6
ENDBRANCH   4   5
ENDBRANCH   3   4
ENDBRANCH   2   3
ENDBRANCH   1   2
BRANCH   1  10
ATOM     10  C   UNL     1       4.783  43.862  12.927  1.00  0.00     0.000 C 
BRANCH  10  11
ATOM     11  C   UNL     1       3.823  43.126  11.976  1.00  0.00    -0.000 C 
BRANCH  11  12
ATOM     12  C   UNL     1       2.856  44.078  11.248  1.00  0.00    -0.000 C 
BRANCH  12  13
ATOM     13  C   UNL     1       2.366  43.580   9.875  1.00  0.00    -0.000 C 
BRANCH  13  14
ATOM     14  C   UNL     1       1.265  42.504   9.926  1.00  0.00    -0.000 C 
BRANCH  14  15
ATOM     15  C   UNL     1       0.333  42.625  11.151  1.00  0.00    -0.003 C 
ATOM     16  C   UNL     1      -0.765  41.562  11.164  1.00  0.00     0.004 C 
ENDBRANCH  14  15
ENDBRANCH  13  14
ENDBRANCH  12  13
ENDBRANCH  11  12
ENDBRANCH  10  11
ENDBRANCH   1  10
TORSDOF 12
ENDMDL
MODEL 8
REMARK VINA RESULT:    -0.232      3.167      6.326
REMARK INTER + INTRA:          -1.204
REMARK INTER:                  -0.843
REMARK INTRA:                  -0.362
REMARK UNBOUND:                -0.810
REMARK SMILES CCCCCCCCCCCCCC(=O)[O-]
REMARK SMILES IDX 8 1 9 2 10 3 11 4 12 5 13 6 14 7 15 8 16 9 7 10 6 11 5 12
REMARK SMILES IDX 4 13 3 14 2 15 1 16
REMARK H PARENT
REMARK Flexibility Score: inf
ROOT
ATOM      1  C   UNL     1       6.428  45.034  10.125  1.00  0.00     0.000 C 
ENDROOT
BRANCH   1   2
ATOM      2  C   UNL     1       6.942  43.594   9.950  1.00  0.00     0.000 C 
BRANCH   2   3
ATOM      3  C   UNL     1       8.099  43.263  10.906  1.00  0.00     0.000 C 
BRANCH   3   4
ATOM      4  C   UNL     1       8.025  41.825  11.452  1.00  0.00     0.000 C 
BRANCH   4   5
ATOM      5  C   UNL     1       7.535  41.770  12.907  1.00  0.00     0.006 C 
BRANCH   5   6
ATOM      6  C   UNL     1       6.853  43.071  13.348  1.00  0.00     0.053 C 
BRANCH   6   7
ATOM      7  C   UNL     1       5.532  42.778  13.987  1.00  0.00     0.041 C 
ATOM      8  O   UNL     1       5.467  42.015  14.988  1.00  0.00    -0.550 OA
ATOM      9  O   UNL     1       4.366  43.304  13.447  1.00  0.00    -0.550 OA
ENDBRANCH   6   7
ENDBRANCH   5   6
ENDBRANCH   4   5
ENDBRANCH   3   4
ENDBRANCH   2   3
ENDBRANCH   1   2
BRANCH   1  10
ATOM     10  C   UNL     1       5.256  45.125  11.116  1.00  0.00     0.000 C 
BRANCH  10  11
ATOM     11  C   UNL     1       3.885  45.034  10.423  1.00  0.00    -0.000 C 
BRANCH  11  12
ATOM     12  C   UNL     1       3.562  43.615   9.922  1.00  0.00    -0.000 C 
BRANCH  12  13
ATOM     13  C   UNL     1       2.391  42.922  10.646  1.00  0.00    -0.000 C 
BRANCH  13  14
ATOM     14  C   UNL     1       1.034  43.006   9.922  1.00  0.00    -0.000 C 
BRANCH  14  15
ATOM     15  C   UNL     1       0.162  41.742  10.086  1.00  0.00    -0.003 C 
ATOM     16  C   UNL     1      -0.657  41.756  11.376  1.00  0.00     0.004 C 
ENDBRANCH  14  15
ENDBRANCH  13  14
ENDBRANCH  12  13
ENDBRANCH  11  12
ENDBRANCH  10  11
ENDBRANCH   1  10
TORSDOF 12
ENDMDL
