MODEL 1
REMARK VINA RESULT:    -5.231      0.000      0.000
REMARK INTER + INTRA:          -6.415
REMARK INTER:                  -6.149
REMARK INTRA:                  -0.266
REMARK UNBOUND:                -0.266
REMARK SMILES O=c1cc(-c2ccc(O)c(O)c2)oc2cc(O)cc(O)c12
REMARK SMILES IDX 4 1 3 2 2 3 1 4 21 5 19 6 18 7 16 8 15 9 14 10 13 11 5 12
REMARK SMILES IDX 6 13 7 14 8 15 12 16 10 17 9 18 11 20 20 22 17 24
REMARK H PARENT 9 19 11 21 20 23 17 25
REMARK Flexibility Score: inf
ROOT
ATOM      1  C   UNL     1      -7.568  -6.440   1.631  1.00  0.00     0.138 A 
ATOM      2  C   UNL     1      -6.624  -5.406   1.691  1.00  0.00     0.100 A 
ATOM      3  C   UNL     1      -7.026  -4.123   2.067  1.00  0.00     0.197 A 
ATOM      4  O   UNL     1      -6.168  -3.203   2.050  1.00  0.00    -0.289 OA
ATOM      5  C   UNL     1      -8.377  -3.884   2.416  1.00  0.00     0.107 A 
ATOM      6  C   UNL     1      -8.892  -2.628   2.853  1.00  0.00     0.134 A 
ATOM      7  C   UNL     1     -10.270  -2.481   3.060  1.00  0.00     0.093 A 
ATOM      8  C   UNL     1     -11.141  -3.562   2.903  1.00  0.00     0.123 A 
ATOM      9  C   UNL     1     -10.640  -4.807   2.528  1.00  0.00     0.094 A 
ATOM     10  C   UNL     1      -9.276  -4.976   2.281  1.00  0.00     0.146 A 
ATOM     11  O   UNL     1      -8.840  -6.176   1.911  1.00  0.00    -0.456 OA
ENDROOT
BRANCH   1  12
ATOM     12  C   UNL     1      -7.194  -7.822   1.238  1.00  0.00     0.021 A 
ATOM     13  C   UNL     1      -7.390  -8.240  -0.089  1.00  0.00     0.016 A 
ATOM     14  C   UNL     1      -7.053  -9.538  -0.483  1.00  0.00     0.051 A 
ATOM     15  C   UNL     1      -6.526 -10.443   0.442  1.00  0.00     0.157 A 
ATOM     16  C   UNL     1      -6.675  -8.741   2.170  1.00  0.00     0.062 A 
ATOM     17  C   UNL     1      -6.338 -10.045   1.776  1.00  0.00     0.158 A 
BRANCH  15  18
ATOM     18  O   UNL     1      -6.197 -11.730   0.019  1.00  0.00    -0.504 OA
ATOM     19  H   UNL     1      -6.841 -12.506   0.108  1.00  0.00     0.293 HD
ENDBRANCH  15  18
BRANCH  17  20
ATOM     20  O   UNL     1      -5.823 -10.946   2.705  1.00  0.00    -0.504 OA
ATOM     21  H   UNL     1      -6.374 -11.720   3.058  1.00  0.00     0.293 HD
ENDBRANCH  17  20
ENDBRANCH   1  12
BRANCH   6  22
ATOM     22  O   UNL     1      -8.098  -1.509   3.123  1.00  0.00    -0.507 OA
ATOM     23  H   UNL     1      -7.365  -1.164   2.524  1.00  0.00     0.293 HD
ENDBRANCH   6  22
BRANCH   8  24
ATOM     24  O   UNL     1     -12.508  -3.410   3.125  1.00  0.00    -0.508 OA
ATOM     25  H   UNL     1     -12.864  -2.742   3.798  1.00  0.00     0.293 HD
ENDBRANCH   8  24
TORSDOF 5
ENDMDL
MODEL 2
REMARK VINA RESULT:    -4.612      1.316      2.921
REMARK INTER + INTRA:          -5.687
REMARK INTER:                  -5.423
REMARK INTRA:                  -0.264
REMARK UNBOUND:                -0.266
REMARK SMILES O=c1cc(-c2ccc(O)c(O)c2)oc2cc(O)cc(O)c12
REMARK SMILES IDX 4 1 3 2 2 3 1 4 21 5 19 6 18 7 16 8 15 9 14 10 13 11 5 12
REMARK SMILES IDX 6 13 7 14 8 15 12 16 10 17 9 18 11 20 20 22 17 24
REMARK H PARENT 9 19 11 21 20 23 17 25
REMARK Flexibility Score: inf
ROOT
ATOM      1  C   UNL     1      -7.614  -6.166   1.636  1.00  0.00     0.138 A 
ATOM      2  C   UNL     1      -8.892  -5.835   2.105  1.00  0.00     0.100 A 
ATOM      3  C   UNL     1      -9.161  -4.528   2.513  1.00  0.00     0.197 A 
ATOM      4  O   UNL     1     -10.299  -4.276   2.989  1.00  0.00    -0.289 OA
ATOM      5  C   UNL     1      -8.152  -3.540   2.420  1.00  0.00     0.107 A 
ATOM      6  C   UNL     1      -8.324  -2.167   2.769  1.00  0.00     0.134 A 
ATOM      7  C   UNL     1      -7.220  -1.305   2.744  1.00  0.00     0.093 A 
ATOM      8  C   UNL     1      -5.964  -1.754   2.327  1.00  0.00     0.123 A 
ATOM      9  C   UNL     1      -5.798  -3.080   1.934  1.00  0.00     0.094 A 
ATOM     10  C   UNL     1      -6.872  -3.972   1.979  1.00  0.00     0.146 A 
ATOM     11  O   UNL     1      -6.668  -5.232   1.609  1.00  0.00    -0.456 OA
ENDROOT
BRANCH   1  12
ATOM     12  C   UNL     1      -7.275  -7.540   1.188  1.00  0.00     0.021 A 
ATOM     13  C   UNL     1      -7.505  -7.908  -0.149  1.00  0.00     0.016 A 
ATOM     14  C   UNL     1      -7.201  -9.197  -0.594  1.00  0.00     0.051 A 
ATOM     15  C   UNL     1      -6.673 -10.144   0.289  1.00  0.00     0.157 A 
ATOM     16  C   UNL     1      -6.756  -8.501   2.077  1.00  0.00     0.062 A 
ATOM     17  C   UNL     1      -6.452  -9.797   1.631  1.00  0.00     0.158 A 
BRANCH  15  18
ATOM     18  O   UNL     1      -6.378 -11.422  -0.185  1.00  0.00    -0.504 OA
ATOM     19  H   UNL     1      -6.606 -11.711  -1.128  1.00  0.00     0.293 HD
ENDBRANCH  15  18
BRANCH  17  20
ATOM     20  O   UNL     1      -5.936 -10.739   2.519  1.00  0.00    -0.504 OA
ATOM     21  H   UNL     1      -5.431 -10.463   3.353  1.00  0.00     0.293 HD
ENDBRANCH  17  20
ENDBRANCH   1  12
BRANCH   6  22
ATOM     22  O   UNL     1      -9.552  -1.598   3.116  1.00  0.00    -0.507 OA
ATOM     23  H   UNL     1     -10.421  -2.103   3.194  1.00  0.00     0.293 HD
ENDBRANCH   6  22
BRANCH   8  24
ATOM     24  O   UNL     1      -4.875  -0.886   2.292  1.00  0.00    -0.508 OA
ATOM     25  H   UNL     1      -3.964  -1.164   2.639  1.00  0.00     0.293 HD
ENDBRANCH   8  24
TORSDOF 5
ENDMDL
MODEL 3
REMARK VINA RESULT:    -3.541      1.529      2.212
REMARK INTER + INTRA:          -4.428
REMARK INTER:                  -4.160
REMARK INTRA:                  -0.268
REMARK UNBOUND:                -0.266
REMARK SMILES O=c1cc(-c2ccc(O)c(O)c2)oc2cc(O)cc(O)c12
REMARK SMILES IDX 4 1 3 2 2 3 1 4 21 5 19 6 18 7 16 8 15 9 14 10 13 11 5 12
REMARK SMILES IDX 6 13 7 14 8 15 12 16 10 17 9 18 11 20 20 22 17 24
REMARK H PARENT 9 19 11 21 20 23 17 25
REMARK Flexibility Score: inf
ROOT
ATOM      1  C   UNL     1      -6.598  -8.344   1.648  1.00  0.00     0.138 A 
ATOM      2  C   UNL     1      -5.568  -7.513   2.111  1.00  0.00     0.100 A 
ATOM      3  C   UNL     1      -5.834  -6.170   2.386  1.00  0.00     0.197 A 
ATOM      4  O   UNL     1      -4.876  -5.436   2.740  1.00  0.00    -0.289 OA
ATOM      5  C   UNL     1      -7.147  -5.666   2.224  1.00  0.00     0.107 A 
ATOM      6  C   UNL     1      -7.543  -4.326   2.512  1.00  0.00     0.134 A 
ATOM      7  C   UNL     1      -8.845  -3.910   2.204  1.00  0.00     0.093 A 
ATOM      8  C   UNL     1      -9.780  -4.803   1.675  1.00  0.00     0.123 A 
ATOM      9  C   UNL     1      -9.418  -6.128   1.440  1.00  0.00     0.094 A 
ATOM     10  C   UNL     1      -8.118  -6.564   1.705  1.00  0.00     0.146 A 
ATOM     11  O   UNL     1      -7.809  -7.832   1.454  1.00  0.00    -0.456 OA
ENDROOT
BRANCH   1  12
ATOM     12  C   UNL     1      -6.370  -9.778   1.343  1.00  0.00     0.021 A 
ATOM     13  C   UNL     1      -6.610 -10.255   0.041  1.00  0.00     0.016 A 
ATOM     14  C   UNL     1      -6.410 -11.602  -0.270  1.00  0.00     0.051 A 
ATOM     15  C   UNL     1      -5.979 -12.498   0.711  1.00  0.00     0.157 A 
ATOM     16  C   UNL     1      -5.949 -10.688   2.331  1.00  0.00     0.062 A 
ATOM     17  C   UNL     1      -5.750 -12.042   2.019  1.00  0.00     0.158 A 
BRANCH  15  18
ATOM     18  O   UNL     1      -5.787 -13.836   0.369  1.00  0.00    -0.504 OA
ATOM     19  H   UNL     1      -5.031 -14.387   0.757  1.00  0.00     0.293 HD
ENDBRANCH  15  18
BRANCH  17  20
ATOM     20  O   UNL     1      -5.331 -12.933   3.005  1.00  0.00    -0.504 OA
ATOM     21  H   UNL     1      -5.299 -13.933   2.840  1.00  0.00     0.293 HD
ENDBRANCH  17  20
ENDBRANCH   1  12
BRANCH   6  22
ATOM     22  O   UNL     1      -6.713  -3.380   3.120  1.00  0.00    -0.507 OA
ATOM     23  H   UNL     1      -5.868  -3.594   3.626  1.00  0.00     0.293 HD
ENDBRANCH   6  22
BRANCH   8  24
ATOM     24  O   UNL     1     -11.077  -4.384   1.385  1.00  0.00    -0.508 OA
ATOM     25  H   UNL     1     -11.886  -4.882   1.737  1.00  0.00     0.293 HD
ENDBRANCH   8  24
TORSDOF 5
ENDMDL
MODEL 4
REMARK VINA RESULT:    -2.932     20.127     21.400
REMARK INTER + INTRA:          -3.712
REMARK INTER:                  -3.407
REMARK INTRA:                  -0.306
REMARK UNBOUND:                -0.266
REMARK SMILES O=c1cc(-c2ccc(O)c(O)c2)oc2cc(O)cc(O)c12
REMARK SMILES IDX 4 1 3 2 2 3 1 4 21 5 19 6 18 7 16 8 15 9 14 10 13 11 5 12
REMARK SMILES IDX 6 13 7 14 8 15 12 16 10 17 9 18 11 20 20 22 17 24
REMARK H PARENT 9 19 11 21 20 23 17 25
REMARK Flexibility Score: inf
ROOT
ATOM      1  C   UNL     1     -22.198  -4.938 -14.068  1.00  0.00     0.138 A 
ATOM      2  C   UNL     1     -22.606  -4.541 -15.349  1.00  0.00     0.100 A 
ATOM      3  C   UNL     1     -23.438  -3.430 -15.496  1.00  0.00     0.197 A 
ATOM      4  O   UNL     1     -23.839  -3.136 -16.652  1.00  0.00    -0.289 OA
ATOM      5  C   UNL     1     -23.838  -2.695 -14.354  1.00  0.00     0.107 A 
ATOM      6  C   UNL     1     -24.650  -1.523 -14.385  1.00  0.00     0.134 A 
ATOM      7  C   UNL     1     -25.076  -0.946 -13.182  1.00  0.00     0.093 A 
ATOM      8  C   UNL     1     -24.670  -1.465 -11.951  1.00  0.00     0.123 A 
ATOM      9  C   UNL     1     -23.832  -2.577 -11.910  1.00  0.00     0.094 A 
ATOM     10  C   UNL     1     -23.418  -3.195 -13.091  1.00  0.00     0.146 A 
ATOM     11  O   UNL     1     -22.630  -4.263 -13.009  1.00  0.00    -0.456 OA
ENDROOT
BRANCH   1  12
ATOM     12  C   UNL     1     -21.312  -6.111 -13.856  1.00  0.00     0.021 A 
ATOM     13  C   UNL     1     -20.391  -6.472 -14.856  1.00  0.00     0.016 A 
ATOM     14  C   UNL     1     -19.552  -7.575 -14.684  1.00  0.00     0.051 A 
ATOM     15  C   UNL     1     -19.623  -8.343 -13.518  1.00  0.00     0.157 A 
ATOM     16  C   UNL     1     -21.390  -6.896 -12.690  1.00  0.00     0.062 A 
ATOM     17  C   UNL     1     -20.548  -8.005 -12.518  1.00  0.00     0.158 A 
BRANCH  15  18
ATOM     18  O   UNL     1     -18.771  -9.437 -13.375  1.00  0.00    -0.504 OA
ATOM     19  H   UNL     1     -18.937 -10.314 -13.853  1.00  0.00     0.293 HD
ENDBRANCH  15  18
BRANCH  17  20
ATOM     20  O   UNL     1     -20.632  -8.774 -11.358  1.00  0.00    -0.504 OA
ATOM     21  H   UNL     1     -21.483  -8.818 -10.809  1.00  0.00     0.293 HD
ENDBRANCH  17  20
ENDBRANCH   1  12
BRANCH   6  22
ATOM     22  O   UNL     1     -25.041  -0.876 -15.561  1.00  0.00    -0.507 OA
ATOM     23  H   UNL     1     -25.972  -0.538 -15.752  1.00  0.00     0.293 HD
ENDBRANCH   6  22
BRANCH   8  24
ATOM     24  O   UNL     1     -25.087  -0.875 -10.759  1.00  0.00    -0.508 OA
ATOM     25  H   UNL     1     -25.022   0.125 -10.611  1.00  0.00     0.293 HD
ENDBRANCH   8  24
TORSDOF 5
ENDMDL
MODEL 5
REMARK VINA RESULT:    -2.796     21.650     22.789
REMARK INTER + INTRA:          -3.553
REMARK INTER:                  -3.282
REMARK INTRA:                  -0.270
REMARK UNBOUND:                -0.266
REMARK SMILES O=c1cc(-c2ccc(O)c(O)c2)oc2cc(O)cc(O)c12
REMARK SMILES IDX 4 1 3 2 2 3 1 4 21 5 19 6 18 7 16 8 15 9 14 10 13 11 5 12
REMARK SMILES IDX 6 13 7 14 8 15 12 16 10 17 9 18 11 20 20 22 17 24
REMARK H PARENT 9 19 11 21 20 23 17 25
REMARK Flexibility Score: inf
ROOT
ATOM      1  C   UNL     1     -22.452  -5.539 -15.633  1.00  0.00     0.138 A 
ATOM      2  C   UNL     1     -22.987  -4.718 -14.631  1.00  0.00     0.100 A 
ATOM      3  C   UNL     1     -22.352  -3.517 -14.310  1.00  0.00     0.197 A 
ATOM      4  O   UNL     1     -22.820  -2.832 -13.364  1.00  0.00    -0.289 OA
ATOM      5  C   UNL     1     -21.194  -3.122 -15.021  1.00  0.00     0.107 A 
ATOM      6  C   UNL     1     -20.488  -1.900 -14.809  1.00  0.00     0.134 A 
ATOM      7  C   UNL     1     -19.287  -1.670 -15.492  1.00  0.00     0.093 A 
ATOM      8  C   UNL     1     -18.799  -2.590 -16.423  1.00  0.00     0.123 A 
ATOM      9  C   UNL     1     -19.510  -3.762 -16.676  1.00  0.00     0.094 A 
ATOM     10  C   UNL     1     -20.692  -4.036 -15.987  1.00  0.00     0.146 A 
ATOM     11  O   UNL     1     -21.332  -5.171 -16.247  1.00  0.00    -0.456 OA
ENDROOT
BRANCH   1  12
ATOM     12  C   UNL     1     -23.087  -6.826 -16.013  1.00  0.00     0.021 A 
ATOM     13  C   UNL     1     -24.291  -6.815 -16.738  1.00  0.00     0.016 A 
ATOM     14  C   UNL     1     -24.913  -8.012 -17.103  1.00  0.00     0.051 A 
ATOM     15  C   UNL     1     -24.350  -9.239 -16.742  1.00  0.00     0.157 A 
ATOM     16  C   UNL     1     -22.531  -8.065 -15.640  1.00  0.00     0.062 A 
ATOM     17  C   UNL     1     -23.156  -9.268 -16.004  1.00  0.00     0.158 A 
BRANCH  15  18
ATOM     18  O   UNL     1     -24.993 -10.417 -17.122  1.00  0.00    -0.504 OA
ATOM     19  H   UNL     1     -24.522 -11.313 -17.112  1.00  0.00     0.293 HD
ENDBRANCH  15  18
BRANCH  17  20
ATOM     20  O   UNL     1     -22.596 -10.488 -15.632  1.00  0.00    -0.504 OA
ATOM     21  H   UNL     1     -23.172 -11.290 -15.402  1.00  0.00     0.293 HD
ENDBRANCH  17  20
ENDBRANCH   1  12
BRANCH   6  22
ATOM     22  O   UNL     1     -20.932  -0.878 -13.965  1.00  0.00    -0.507 OA
ATOM     23  H   UNL     1     -21.881  -0.541 -13.918  1.00  0.00     0.293 HD
ENDBRANCH   6  22
BRANCH   8  24
ATOM     24  O   UNL     1     -17.611  -2.345 -17.108  1.00  0.00    -0.508 OA
ATOM     25  H   UNL     1     -17.610  -2.036 -18.073  1.00  0.00     0.293 HD
ENDBRANCH   8  24
TORSDOF 5
ENDMDL
MODEL 6
REMARK VINA RESULT:    -2.787     21.724     22.778
REMARK INTER + INTRA:          -3.542
REMARK INTER:                  -3.279
REMARK INTRA:                  -0.263
REMARK UNBOUND:                -0.266
REMARK SMILES O=c1cc(-c2ccc(O)c(O)c2)oc2cc(O)cc(O)c12
REMARK SMILES IDX 4 1 3 2 2 3 1 4 21 5 19 6 18 7 16 8 15 9 14 10 13 11 5 12
REMARK SMILES IDX 6 13 7 14 8 15 12 16 10 17 9 18 11 20 20 22 17 24
REMARK H PARENT 9 19 11 21 20 23 17 25
REMARK Flexibility Score: inf
ROOT
ATOM      1  C   UNL     1     -22.519  -6.798 -15.904  1.00  0.00     0.138 A 
ATOM      2  C   UNL     1     -21.420  -6.350 -16.649  1.00  0.00     0.100 A 
ATOM      3  C   UNL     1     -20.841  -5.114 -16.353  1.00  0.00     0.197 A 
ATOM      4  O   UNL     1     -19.896  -4.711 -17.079  1.00  0.00    -0.289 OA
ATOM      5  C   UNL     1     -21.349  -4.339 -15.283  1.00  0.00     0.107 A 
ATOM      6  C   UNL     1     -20.815  -3.084 -14.863  1.00  0.00     0.134 A 
ATOM      7  C   UNL     1     -21.472  -2.353 -13.865  1.00  0.00     0.093 A 
ATOM      8  C   UNL     1     -22.609  -2.859 -13.232  1.00  0.00     0.123 A 
ATOM      9  C   UNL     1     -23.108  -4.108 -13.597  1.00  0.00     0.094 A 
ATOM     10  C   UNL     1     -22.495  -4.846 -14.611  1.00  0.00     0.146 A 
ATOM     11  O   UNL     1     -23.010  -6.026 -14.940  1.00  0.00    -0.456 OA
ENDROOT
BRANCH   1  12
ATOM     12  C   UNL     1     -23.171  -8.103 -16.177  1.00  0.00     0.021 A 
ATOM     13  C   UNL     1     -24.398  -8.134 -16.862  1.00  0.00     0.016 A 
ATOM     14  C   UNL     1     -25.036  -9.349 -17.124  1.00  0.00     0.051 A 
ATOM     15  C   UNL     1     -24.466 -10.553 -16.700  1.00  0.00     0.157 A 
ATOM     16  C   UNL     1     -22.608  -9.318 -15.739  1.00  0.00     0.062 A 
ATOM     17  C   UNL     1     -23.248 -10.538 -16.002  1.00  0.00     0.158 A 
BRANCH  15  18
ATOM     18  O   UNL     1     -25.125 -11.750 -16.979  1.00  0.00    -0.504 OA
ATOM     19  H   UNL     1     -26.043 -11.771 -17.405  1.00  0.00     0.293 HD
ENDBRANCH  15  18
BRANCH  17  20
ATOM     20  O   UNL     1     -22.681 -11.735 -15.566  1.00  0.00    -0.504 OA
ATOM     21  H   UNL     1     -21.676 -11.853 -15.498  1.00  0.00     0.293 HD
ENDBRANCH  17  20
ENDBRANCH   1  12
BRANCH   6  22
ATOM     22  O   UNL     1     -19.636  -2.529 -15.371  1.00  0.00    -0.507 OA
ATOM     23  H   UNL     1     -18.929  -3.040 -15.875  1.00  0.00     0.293 HD
ENDBRANCH   6  22
BRANCH   8  24
ATOM     24  O   UNL     1     -23.248  -2.131 -12.230  1.00  0.00    -0.508 OA
ATOM     25  H   UNL     1     -24.222  -1.864 -12.308  1.00  0.00     0.293 HD
ENDBRANCH   8  24
TORSDOF 5
ENDMDL
MODEL 7
REMARK VINA RESULT:    -2.417     20.198     21.206
REMARK INTER + INTRA:          -3.108
REMARK INTER:                  -2.816
REMARK INTRA:                  -0.292
REMARK UNBOUND:                -0.266
REMARK SMILES O=c1cc(-c2ccc(O)c(O)c2)oc2cc(O)cc(O)c12
REMARK SMILES IDX 4 1 3 2 2 3 1 4 21 5 19 6 18 7 16 8 15 9 14 10 13 11 5 12
REMARK SMILES IDX 6 13 7 14 8 15 12 16 10 17 9 18 11 20 20 22 17 24
REMARK H PARENT 9 19 11 21 20 23 17 25
REMARK Flexibility Score: inf
ROOT
ATOM      1  C   UNL     1     -20.708  -5.333 -14.501  1.00  0.00     0.138 A 
ATOM      2  C   UNL     1     -19.685  -4.811 -15.305  1.00  0.00     0.100 A 
ATOM      3  C   UNL     1     -19.881  -3.602 -15.974  1.00  0.00     0.197 A 
ATOM      4  O   UNL     1     -18.969  -3.191 -16.737  1.00  0.00    -0.289 OA
ATOM      5  C   UNL     1     -21.098  -2.897 -15.811  1.00  0.00     0.107 A 
ATOM      6  C   UNL     1     -21.392  -1.637 -16.410  1.00  0.00     0.134 A 
ATOM      7  C   UNL     1     -22.674  -1.089 -16.270  1.00  0.00     0.093 A 
ATOM      8  C   UNL     1     -23.651  -1.727 -15.502  1.00  0.00     0.123 A 
ATOM      9  C   UNL     1     -23.355  -2.932 -14.869  1.00  0.00     0.094 A 
ATOM     10  C   UNL     1     -22.098  -3.521 -15.017  1.00  0.00     0.146 A 
ATOM     11  O   UNL     1     -21.861  -4.678 -14.408  1.00  0.00    -0.456 OA
ENDROOT
BRANCH   1  12
ATOM     12  C   UNL     1     -20.552  -6.614 -13.767  1.00  0.00     0.021 A 
ATOM     13  C   UNL     1     -21.363  -6.873 -12.648  1.00  0.00     0.016 A 
ATOM     14  C   UNL     1     -21.231  -8.067 -11.935  1.00  0.00     0.051 A 
ATOM     15  C   UNL     1     -20.282  -9.018 -12.320  1.00  0.00     0.157 A 
ATOM     16  C   UNL     1     -19.588  -7.569 -14.141  1.00  0.00     0.062 A 
ATOM     17  C   UNL     1     -19.454  -8.769 -13.425  1.00  0.00     0.158 A 
BRANCH  15  18
ATOM     18  O   UNL     1     -20.176 -10.202 -11.590  1.00  0.00    -0.504 OA
ATOM     19  H   UNL     1     -20.407 -11.103 -11.990  1.00  0.00     0.293 HD
ENDBRANCH  15  18
BRANCH  17  20
ATOM     20  O   UNL     1     -18.498  -9.709 -13.807  1.00  0.00    -0.504 OA
ATOM     21  H   UNL     1     -18.349 -10.560 -13.278  1.00  0.00     0.293 HD
ENDBRANCH  17  20
ENDBRANCH   1  12
BRANCH   6  22
ATOM     22  O   UNL     1     -20.463  -0.875 -17.125  1.00  0.00    -0.507 OA
ATOM     23  H   UNL     1     -19.983  -1.183 -17.956  1.00  0.00     0.293 HD
ENDBRANCH   6  22
BRANCH   8  24
ATOM     24  O   UNL     1     -24.918  -1.167 -15.357  1.00  0.00    -0.508 OA
ATOM     25  H   UNL     1     -25.733  -1.578 -15.797  1.00  0.00     0.293 HD
ENDBRANCH   8  24
TORSDOF 5
ENDMDL
MODEL 8
REMARK VINA RESULT:    -2.248     24.188     25.581
REMARK INTER + INTRA:          -2.909
REMARK INTER:                  -2.592
REMARK INTRA:                  -0.317
REMARK UNBOUND:                -0.266
REMARK SMILES O=c1cc(-c2ccc(O)c(O)c2)oc2cc(O)cc(O)c12
REMARK SMILES IDX 4 1 3 2 2 3 1 4 21 5 19 6 18 7 16 8 15 9 14 10 13 11 5 12
REMARK SMILES IDX 6 13 7 14 8 15 12 16 10 17 9 18 11 20 20 22 17 24
REMARK H PARENT 9 19 11 21 20 23 17 25
REMARK Flexibility Score: inf
ROOT
ATOM      1  C   UNL     1     -20.058 -18.730 -16.743  1.00  0.00     0.138 A 
ATOM      2  C   UNL     1     -21.172 -19.576 -16.655  1.00  0.00     0.100 A 
ATOM      3  C   UNL     1     -22.457 -19.034 -16.708  1.00  0.00     0.197 A 
ATOM      4  O   UNL     1     -23.436 -19.812 -16.563  1.00  0.00    -0.289 OA
ATOM      5  C   UNL     1     -22.625 -17.640 -16.882  1.00  0.00     0.107 A 
ATOM      6  C   UNL     1     -23.886 -16.981 -16.991  1.00  0.00     0.134 A 
ATOM      7  C   UNL     1     -23.932 -15.582 -17.046  1.00  0.00     0.093 A 
ATOM      8  C   UNL     1     -22.759 -14.823 -17.056  1.00  0.00     0.123 A 
ATOM      9  C   UNL     1     -21.521 -15.460 -17.004  1.00  0.00     0.094 A 
ATOM     10  C   UNL     1     -21.444 -16.851 -16.915  1.00  0.00     0.146 A 
ATOM     11  O   UNL     1     -20.244 -17.419 -16.852  1.00  0.00    -0.456 OA
ENDROOT
BRANCH   1  12
ATOM     12  C   UNL     1     -18.670 -19.254 -16.694  1.00  0.00     0.021 A 
ATOM     13  C   UNL     1     -18.453 -20.608 -16.385  1.00  0.00     0.016 A 
ATOM     14  C   UNL     1     -17.156 -21.125 -16.325  1.00  0.00     0.051 A 
ATOM     15  C   UNL     1     -16.054 -20.298 -16.560  1.00  0.00     0.157 A 
ATOM     16  C   UNL     1     -17.556 -18.422 -16.917  1.00  0.00     0.062 A 
ATOM     17  C   UNL     1     -16.253 -18.940 -16.855  1.00  0.00     0.158 A 
BRANCH  15  18
ATOM     18  O   UNL     1     -14.772 -20.843 -16.495  1.00  0.00    -0.504 OA
ATOM     19  H   UNL     1     -14.551 -21.745 -16.897  1.00  0.00     0.293 HD
ENDBRANCH  15  18
BRANCH  17  20
ATOM     20  O   UNL     1     -15.158 -18.108 -17.080  1.00  0.00    -0.504 OA
ATOM     21  H   UNL     1     -14.224 -18.481 -17.208  1.00  0.00     0.293 HD
ENDBRANCH  17  20
ENDBRANCH   1  12
BRANCH   6  22
ATOM     22  O   UNL     1     -25.111 -17.649 -17.076  1.00  0.00    -0.507 OA
ATOM     23  H   UNL     1     -25.267 -18.506 -17.585  1.00  0.00     0.293 HD
ENDBRANCH   6  22
BRANCH   8  24
ATOM     24  O   UNL     1     -22.814 -13.432 -17.125  1.00  0.00    -0.508 OA
ATOM     25  H   UNL     1     -23.222 -12.957 -17.922  1.00  0.00     0.293 HD
ENDBRANCH   8  24
TORSDOF 5
ENDMDL
