MODEL 1
REMARK VINA RESULT:    -4.848      0.000      0.000
REMARK INTER + INTRA:         -16.134
REMARK INTER:                 -12.218
REMARK INTRA:                  -3.916
REMARK UNBOUND:                -3.916
REMARK SMILES CCCCCCCCCCCCCCCCCCCCCCCCCCCC(=O)[O-]
REMARK SMILES IDX 15 1 16 2 17 3 18 4 19 5 20 6 21 7 22 8 23 9 24 10 25 11
REMARK SMILES IDX 26 12 27 13 28 14 29 15 30 16 14 17 13 18 12 19 11 20 10 21
REMARK SMILES IDX 9 22 8 23 7 24 6 25 5 26 4 27 3 28 2 29 1 30
REMARK H PARENT
REMARK Flexibility Score: inf
ROOT
ATOM      1  C   UNL     1     -12.408   1.603  22.036  1.00  0.00     0.000 C 
ENDROOT
BRANCH   1   2
ATOM      2  C   UNL     1     -12.657   0.500  23.089  1.00  0.00     0.000 C 
BRANCH   2   3
ATOM      3  C   UNL     1     -11.480   0.280  24.060  1.00  0.00     0.000 C 
BRANCH   3   4
ATOM      4  C   UNL     1     -10.459   1.428  24.125  1.00  0.00     0.000 C 
BRANCH   4   5
ATOM      5  C   UNL     1      -9.046   0.996  23.706  1.00  0.00     0.000 C 
BRANCH   5   6
ATOM      6  C   UNL     1      -8.973  -0.528  23.507  1.00  0.00     0.000 C 
BRANCH   6   7
ATOM      7  C   UNL     1      -8.481  -0.917  22.103  1.00  0.00     0.000 C 
BRANCH   7   8
ATOM      8  C   UNL     1      -9.499  -0.576  21.003  1.00  0.00     0.000 C 
BRANCH   8   9
ATOM      9  C   UNL     1      -8.787  -0.266  19.676  1.00  0.00     0.000 C 
BRANCH   9  10
ATOM     10  C   UNL     1      -9.251   1.057  19.048  1.00  0.00     0.000 C 
BRANCH  10  11
ATOM     11  C   UNL     1      -9.590   2.129  20.095  1.00  0.00     0.000 C 
BRANCH  11  12
ATOM     12  C   UNL     1      -9.038   3.498  19.680  1.00  0.00     0.006 C 
BRANCH  12  13
ATOM     13  C   UNL     1      -7.977   3.353  18.586  1.00  0.00     0.053 C 
BRANCH  13  14
ATOM     14  C   UNL     1      -6.688   3.984  19.013  1.00  0.00     0.041 C 
ATOM     15  O   UNL     1      -5.612   3.692  18.426  1.00  0.00    -0.550 OA
ATOM     16  O   UNL     1      -6.681   4.925  20.036  1.00  0.00    -0.550 OA
ENDBRANCH  13  14
ENDBRANCH  12  13
ENDBRANCH  11  12
ENDBRANCH  10  11
ENDBRANCH   9  10
ENDBRANCH   8   9
ENDBRANCH   7   8
ENDBRANCH   6   7
ENDBRANCH   5   6
ENDBRANCH   4   5
ENDBRANCH   3   4
ENDBRANCH   2   3
ENDBRANCH   1   2
BRANCH   1  17
ATOM     17  C   UNL     1     -13.434   2.745  22.124  1.00  0.00     0.000 C 
BRANCH  17  18
ATOM     18  C   UNL     1     -12.804   4.088  21.735  1.00  0.00     0.000 C 
BRANCH  18  19
ATOM     19  C   UNL     1     -13.657   4.802  20.674  1.00  0.00     0.000 C 
BRANCH  19  20
ATOM     20  C   UNL     1     -13.850   3.953  19.406  1.00  0.00     0.000 C 
BRANCH  20  21
ATOM     21  C   UNL     1     -12.520   3.488  18.771  1.00  0.00     0.000 C 
BRANCH  21  22
ATOM     22  C   UNL     1     -12.555   3.436  17.230  1.00  0.00    -0.000 C 
BRANCH  22  23
ATOM     23  C   UNL     1     -11.401   4.182  16.535  1.00  0.00    -0.000 C 
BRANCH  23  24
ATOM     24  C   UNL     1     -10.435   3.287  15.734  1.00  0.00    -0.000 C 
BRANCH  24  25
ATOM     25  C   UNL     1     -10.917   1.829  15.582  1.00  0.00    -0.000 C 
BRANCH  25  26
ATOM     26  C   UNL     1     -10.051   1.025  14.602  1.00  0.00    -0.000 C 
BRANCH  26  27
ATOM     27  C   UNL     1     -10.781  -0.241  14.130  1.00  0.00    -0.000 C 
BRANCH  27  28
ATOM     28  C   UNL     1     -12.269   0.014  13.830  1.00  0.00    -0.000 C 
BRANCH  28  29
ATOM     29  C   UNL     1     -13.101  -1.278  13.832  1.00  0.00    -0.003 C 
ATOM     30  C   UNL     1     -12.394  -2.383  13.051  1.00  0.00     0.004 C 
ENDBRANCH  28  29
ENDBRANCH  27  28
ENDBRANCH  26  27
ENDBRANCH  25  26
ENDBRANCH  24  25
ENDBRANCH  23  24
ENDBRANCH  22  23
ENDBRANCH  21  22
ENDBRANCH  20  21
ENDBRANCH  19  20
ENDBRANCH  18  19
ENDBRANCH  17  18
ENDBRANCH   1  17
TORSDOF 26
ENDMDL
MODEL 2
REMARK VINA RESULT:    -4.775      2.388      7.445
REMARK INTER + INTRA:         -15.949
REMARK INTER:                 -10.765
REMARK INTRA:                  -5.184
REMARK UNBOUND:                -3.916
REMARK SMILES CCCCCCCCCCCCCCCCCCCCCCCCCCCC(=O)[O-]
REMARK SMILES IDX 15 1 16 2 17 3 18 4 19 5 20 6 21 7 22 8 23 9 24 10 25 11
REMARK SMILES IDX 26 12 27 13 28 14 29 15 30 16 14 17 13 18 12 19 11 20 10 21
REMARK SMILES IDX 9 22 8 23 7 24 6 25 5 26 4 27 3 28 2 29 1 30
REMARK H PARENT
REMARK Flexibility Score: inf
ROOT
ATOM      1  C   UNL     1     -10.131   1.294  19.527  1.00  0.00     0.000 C 
ENDROOT
BRANCH   1   2
ATOM      2  C   UNL     1      -9.669   2.756  19.713  1.00  0.00     0.000 C 
BRANCH   2   3
ATOM      3  C   UNL     1      -8.530   3.181  18.765  1.00  0.00     0.000 C 
BRANCH   3   4
ATOM      4  C   UNL     1      -7.773   4.454  19.180  1.00  0.00     0.000 C 
BRANCH   4   5
ATOM      5  C   UNL     1      -7.754   5.524  18.078  1.00  0.00     0.000 C 
BRANCH   5   6
ATOM      6  C   UNL     1      -9.081   5.536  17.300  1.00  0.00     0.000 C 
BRANCH   6   7
ATOM      7  C   UNL     1     -10.141   6.439  17.953  1.00  0.00     0.000 C 
BRANCH   7   8
ATOM      8  C   UNL     1     -11.471   5.710  18.199  1.00  0.00     0.000 C 
BRANCH   8   9
ATOM      9  C   UNL     1     -11.876   4.880  16.970  1.00  0.00     0.000 C 
BRANCH   9  10
ATOM     10  C   UNL     1     -12.672   3.619  17.339  1.00  0.00     0.000 C 
BRANCH  10  11
ATOM     11  C   UNL     1     -12.115   2.347  16.681  1.00  0.00     0.000 C 
BRANCH  11  12
ATOM     12  C   UNL     1     -10.960   2.681  15.729  1.00  0.00     0.006 C 
BRANCH  12  13
ATOM     13  C   UNL     1      -9.948   1.532  15.671  1.00  0.00     0.053 C 
BRANCH  13  14
ATOM     14  C   UNL     1     -10.162   0.703  14.441  1.00  0.00     0.041 C 
ATOM     15  O   UNL     1      -9.176   0.310  13.762  1.00  0.00    -0.550 OA
ATOM     16  O   UNL     1     -11.448   0.332  14.069  1.00  0.00    -0.550 OA
ENDBRANCH  13  14
ENDBRANCH  12  13
ENDBRANCH  11  12
ENDBRANCH  10  11
ENDBRANCH   9  10
ENDBRANCH   8   9
ENDBRANCH   7   8
ENDBRANCH   6   7
ENDBRANCH   5   6
ENDBRANCH   4   5
ENDBRANCH   3   4
ENDBRANCH   2   3
ENDBRANCH   1   2
BRANCH   1  17
ATOM     17  C   UNL     1      -9.002   0.376  19.032  1.00  0.00     0.000 C 
BRANCH  17  18
ATOM     18  C   UNL     1      -8.752  -0.776  20.013  1.00  0.00     0.000 C 
BRANCH  18  19
ATOM     19  C   UNL     1      -9.427  -0.495  21.365  1.00  0.00     0.000 C 
BRANCH  19  20
ATOM     20  C   UNL     1      -8.576  -0.966  22.557  1.00  0.00     0.000 C 
BRANCH  20  21
ATOM     21  C   UNL     1      -8.810  -0.140  23.842  1.00  0.00     0.000 C 
BRANCH  21  22
ATOM     22  C   UNL     1      -9.998   0.838  23.741  1.00  0.00    -0.000 C 
BRANCH  22  23
ATOM     23  C   UNL     1     -11.314   0.317  24.348  1.00  0.00    -0.000 C 
BRANCH  23  24
ATOM     24  C   UNL     1     -12.594   0.955  23.775  1.00  0.00    -0.000 C 
BRANCH  24  25
ATOM     25  C   UNL     1     -12.553   1.172  22.247  1.00  0.00    -0.000 C 
BRANCH  25  26
ATOM     26  C   UNL     1     -13.192   2.503  21.828  1.00  0.00    -0.000 C 
BRANCH  26  27
ATOM     27  C   UNL     1     -12.580   3.678  22.604  1.00  0.00    -0.000 C 
BRANCH  27  28
ATOM     28  C   UNL     1     -12.197   4.854  21.689  1.00  0.00    -0.000 C 
BRANCH  28  29
ATOM     29  C   UNL     1     -10.745   5.312  21.892  1.00  0.00    -0.003 C 
ATOM     30  C   UNL     1     -10.065   4.501  22.993  1.00  0.00     0.004 C 
ENDBRANCH  28  29
ENDBRANCH  27  28
ENDBRANCH  26  27
ENDBRANCH  25  26
ENDBRANCH  24  25
ENDBRANCH  23  24
ENDBRANCH  22  23
ENDBRANCH  21  22
ENDBRANCH  20  21
ENDBRANCH  19  20
ENDBRANCH  18  19
ENDBRANCH  17  18
ENDBRANCH   1  17
TORSDOF 26
ENDMDL
MODEL 3
REMARK VINA RESULT:    -4.747      2.392      6.899
REMARK INTER + INTRA:         -15.879
REMARK INTER:                 -11.605
REMARK INTRA:                  -4.274
REMARK UNBOUND:                -3.916
REMARK SMILES CCCCCCCCCCCCCCCCCCCCCCCCCCCC(=O)[O-]
REMARK SMILES IDX 15 1 16 2 17 3 18 4 19 5 20 6 21 7 22 8 23 9 24 10 25 11
REMARK SMILES IDX 26 12 27 13 28 14 29 15 30 16 14 17 13 18 12 19 11 20 10 21
REMARK SMILES IDX 9 22 8 23 7 24 6 25 5 26 4 27 3 28 2 29 1 30
REMARK H PARENT
REMARK Flexibility Score: inf
ROOT
ATOM      1  C   UNL     1      -9.959   0.721  20.299  1.00  0.00     0.000 C 
ENDROOT
BRANCH   1   2
ATOM      2  C   UNL     1     -11.134   1.715  20.429  1.00  0.00     0.000 C 
BRANCH   2   3
ATOM      3  C   UNL     1     -12.049   1.455  21.641  1.00  0.00     0.000 C 
BRANCH   3   4
ATOM      4  C   UNL     1     -13.137   2.515  21.881  1.00  0.00     0.000 C 
BRANCH   4   5
ATOM      5  C   UNL     1     -13.387   3.403  20.652  1.00  0.00     0.000 C 
BRANCH   5   6
ATOM      6  C   UNL     1     -12.815   4.815  20.868  1.00  0.00     0.000 C 
BRANCH   6   7
ATOM      7  C   UNL     1     -13.000   5.721  19.639  1.00  0.00     0.000 C 
BRANCH   7   8
ATOM      8  C   UNL     1     -11.692   5.942  18.863  1.00  0.00     0.000 C 
BRANCH   8   9
ATOM      9  C   UNL     1     -11.772   5.311  17.464  1.00  0.00     0.000 C 
BRANCH   9  10
ATOM     10  C   UNL     1     -11.296   3.850  17.443  1.00  0.00     0.000 C 
BRANCH  10  11
ATOM     11  C   UNL     1     -12.445   2.851  17.234  1.00  0.00     0.000 C 
BRANCH  11  12
ATOM     12  C   UNL     1     -12.292   2.107  15.902  1.00  0.00     0.006 C 
BRANCH  12  13
ATOM     13  C   UNL     1     -10.817   1.972  15.515  1.00  0.00     0.053 C 
BRANCH  13  14
ATOM     14  C   UNL     1     -10.607   0.774  14.641  1.00  0.00     0.041 C 
ATOM     15  O   UNL     1      -9.444   0.339  14.429  1.00  0.00    -0.550 OA
ATOM     16  O   UNL     1     -11.701   0.115  14.092  1.00  0.00    -0.550 OA
ENDBRANCH  13  14
ENDBRANCH  12  13
ENDBRANCH  11  12
ENDBRANCH  10  11
ENDBRANCH   9  10
ENDBRANCH   8   9
ENDBRANCH   7   8
ENDBRANCH   6   7
ENDBRANCH   5   6
ENDBRANCH   4   5
ENDBRANCH   3   4
ENDBRANCH   2   3
ENDBRANCH   1   2
BRANCH   1  17
ATOM     17  C   UNL     1     -10.093  -0.479  21.252  1.00  0.00     0.000 C 
BRANCH  17  18
ATOM     18  C   UNL     1      -8.726  -1.104  21.553  1.00  0.00     0.000 C 
BRANCH  18  19
ATOM     19  C   UNL     1      -8.310  -0.826  23.007  1.00  0.00     0.000 C 
BRANCH  19  20
ATOM     20  C   UNL     1      -9.316   0.073  23.746  1.00  0.00     0.000 C 
BRANCH  20  21
ATOM     21  C   UNL     1      -8.707   1.410  24.224  1.00  0.00     0.000 C 
BRANCH  21  22
ATOM     22  C   UNL     1      -9.635   2.623  24.010  1.00  0.00    -0.000 C 
BRANCH  22  23
ATOM     23  C   UNL     1      -8.929   3.891  23.495  1.00  0.00    -0.000 C 
BRANCH  23  24
ATOM     24  C   UNL     1      -9.436   4.414  22.138  1.00  0.00    -0.000 C 
BRANCH  24  25
ATOM     25  C   UNL     1      -8.307   4.777  21.149  1.00  0.00    -0.000 C 
BRANCH  25  26
ATOM     26  C   UNL     1      -8.569   4.234  19.737  1.00  0.00    -0.000 C 
BRANCH  26  27
ATOM     27  C   UNL     1      -7.254   4.038  18.968  1.00  0.00    -0.000 C 
BRANCH  27  28
ATOM     28  C   UNL     1      -6.306   5.241  19.106  1.00  0.00    -0.000 C 
BRANCH  28  29
ATOM     29  C   UNL     1      -4.854   4.820  19.377  1.00  0.00    -0.003 C 
ATOM     30  C   UNL     1      -4.303   3.984  18.224  1.00  0.00     0.004 C 
ENDBRANCH  28  29
ENDBRANCH  27  28
ENDBRANCH  26  27
ENDBRANCH  25  26
ENDBRANCH  24  25
ENDBRANCH  23  24
ENDBRANCH  22  23
ENDBRANCH  21  22
ENDBRANCH  20  21
ENDBRANCH  19  20
ENDBRANCH  18  19
ENDBRANCH  17  18
ENDBRANCH   1  17
TORSDOF 26
ENDMDL
MODEL 4
REMARK VINA RESULT:    -4.728      2.554      6.771
REMARK INTER + INTRA:         -15.831
REMARK INTER:                 -10.773
REMARK INTRA:                  -5.058
REMARK UNBOUND:                -3.916
REMARK SMILES CCCCCCCCCCCCCCCCCCCCCCCCCCCC(=O)[O-]
REMARK SMILES IDX 15 1 16 2 17 3 18 4 19 5 20 6 21 7 22 8 23 9 24 10 25 11
REMARK SMILES IDX 26 12 27 13 28 14 29 15 30 16 14 17 13 18 12 19 11 20 10 21
REMARK SMILES IDX 9 22 8 23 7 24 6 25 5 26 4 27 3 28 2 29 1 30
REMARK H PARENT
REMARK Flexibility Score: inf
ROOT
ATOM      1  C   UNL     1      -8.379  -0.900  22.455  1.00  0.00     0.000 C 
ENDROOT
BRANCH   1   2
ATOM      2  C   UNL     1      -9.398  -0.899  21.295  1.00  0.00     0.000 C 
BRANCH   2   3
ATOM      3  C   UNL     1      -8.775  -0.636  19.910  1.00  0.00     0.000 C 
BRANCH   3   4
ATOM      4  C   UNL     1      -9.129   0.721  19.278  1.00  0.00     0.000 C 
BRANCH   4   5
ATOM      5  C   UNL     1     -10.089   1.551  20.144  1.00  0.00     0.000 C 
BRANCH   5   6
ATOM      6  C   UNL     1     -11.456   1.705  19.457  1.00  0.00     0.000 C 
BRANCH   6   7
ATOM      7  C   UNL     1     -11.990   3.146  19.520  1.00  0.00     0.000 C 
BRANCH   7   8
ATOM      8  C   UNL     1     -12.632   3.599  18.200  1.00  0.00     0.000 C 
BRANCH   8   9
ATOM      9  C   UNL     1     -12.009   4.917  17.712  1.00  0.00     0.000 C 
BRANCH   9  10
ATOM     10  C   UNL     1     -10.909   4.702  16.661  1.00  0.00     0.000 C 
BRANCH  10  11
ATOM     11  C   UNL     1     -11.040   3.359  15.926  1.00  0.00     0.000 C 
BRANCH  11  12
ATOM     12  C   UNL     1      -9.731   2.562  15.998  1.00  0.00     0.006 C 
BRANCH  12  13
ATOM     13  C   UNL     1      -9.998   1.058  15.888  1.00  0.00     0.053 C 
BRANCH  13  14
ATOM     14  C   UNL     1     -10.182   0.658  14.456  1.00  0.00     0.041 C 
ATOM     15  O   UNL     1      -9.186   0.569  13.689  1.00  0.00    -0.550 OA
ATOM     16  O   UNL     1     -11.449   0.346  13.980  1.00  0.00    -0.550 OA
ENDBRANCH  13  14
ENDBRANCH  12  13
ENDBRANCH  11  12
ENDBRANCH  10  11
ENDBRANCH   9  10
ENDBRANCH   8   9
ENDBRANCH   7   8
ENDBRANCH   6   7
ENDBRANCH   5   6
ENDBRANCH   4   5
ENDBRANCH   3   4
ENDBRANCH   2   3
ENDBRANCH   1   2
BRANCH   1  17
ATOM     17  C   UNL     1      -8.868  -0.099  23.672  1.00  0.00     0.000 C 
BRANCH  17  18
ATOM     18  C   UNL     1     -10.355   0.254  23.544  1.00  0.00     0.000 C 
BRANCH  18  19
ATOM     19  C   UNL     1     -10.576   1.761  23.747  1.00  0.00     0.000 C 
BRANCH  19  20
ATOM     20  C   UNL     1      -9.254   2.544  23.835  1.00  0.00     0.000 C 
BRANCH  20  21
ATOM     21  C   UNL     1      -9.365   3.996  23.319  1.00  0.00     0.000 C 
BRANCH  21  22
ATOM     22  C   UNL     1      -8.809   4.190  21.894  1.00  0.00    -0.000 C 
BRANCH  22  23
ATOM     23  C   UNL     1      -9.247   5.495  21.204  1.00  0.00    -0.000 C 
BRANCH  23  24
ATOM     24  C   UNL     1      -9.001   5.544  19.684  1.00  0.00    -0.000 C 
BRANCH  24  25
ATOM     25  C   UNL     1      -8.144   4.374  19.153  1.00  0.00    -0.000 C 
BRANCH  25  26
ATOM     26  C   UNL     1      -6.828   4.852  18.523  1.00  0.00    -0.000 C 
BRANCH  26  27
ATOM     27  C   UNL     1      -5.655   4.685  19.501  1.00  0.00    -0.000 C 
BRANCH  27  28
ATOM     28  C   UNL     1      -4.790   5.953  19.606  1.00  0.00    -0.000 C 
BRANCH  28  29
ATOM     29  C   UNL     1      -5.255   6.893  20.729  1.00  0.00    -0.003 C 
ATOM     30  C   UNL     1      -5.641   6.103  21.977  1.00  0.00     0.004 C 
ENDBRANCH  28  29
ENDBRANCH  27  28
ENDBRANCH  26  27
ENDBRANCH  25  26
ENDBRANCH  24  25
ENDBRANCH  23  24
ENDBRANCH  22  23
ENDBRANCH  21  22
ENDBRANCH  20  21
ENDBRANCH  19  20
ENDBRANCH  18  19
ENDBRANCH  17  18
ENDBRANCH   1  17
TORSDOF 26
ENDMDL
MODEL 5
REMARK VINA RESULT:    -4.696      1.582      3.477
REMARK INTER + INTRA:         -15.749
REMARK INTER:                 -11.281
REMARK INTRA:                  -4.467
REMARK UNBOUND:                -3.916
REMARK SMILES CCCCCCCCCCCCCCCCCCCCCCCCCCCC(=O)[O-]
REMARK SMILES IDX 15 1 16 2 17 3 18 4 19 5 20 6 21 7 22 8 23 9 24 10 25 11
REMARK SMILES IDX 26 12 27 13 28 14 29 15 30 16 14 17 13 18 12 19 11 20 10 21
REMARK SMILES IDX 9 22 8 23 7 24 6 25 5 26 4 27 3 28 2 29 1 30
REMARK H PARENT
REMARK Flexibility Score: inf
ROOT
ATOM      1  C   UNL     1      -8.727  -0.870  22.037  1.00  0.00     0.000 C 
ENDROOT
BRANCH   1   2
ATOM      2  C   UNL     1      -8.651  -0.228  23.439  1.00  0.00     0.000 C 
BRANCH   2   3
ATOM      3  C   UNL     1     -10.015  -0.088  24.143  1.00  0.00     0.000 C 
BRANCH   3   4
ATOM      4  C   UNL     1     -10.353   1.327  24.643  1.00  0.00     0.000 C 
BRANCH   4   5
ATOM      5  C   UNL     1      -9.705   2.431  23.794  1.00  0.00     0.000 C 
BRANCH   5   6
ATOM      6  C   UNL     1     -10.629   3.656  23.685  1.00  0.00     0.000 C 
BRANCH   6   7
ATOM      7  C   UNL     1     -10.130   4.682  22.653  1.00  0.00     0.000 C 
BRANCH   7   8
ATOM      8  C   UNL     1      -8.739   4.337  22.100  1.00  0.00     0.000 C 
BRANCH   8   9
ATOM      9  C   UNL     1      -8.570   4.876  20.670  1.00  0.00     0.000 C 
BRANCH   9  10
ATOM     10  C   UNL     1      -8.720   3.782  19.601  1.00  0.00     0.000 C 
BRANCH  10  11
ATOM     11  C   UNL     1      -7.473   3.638  18.714  1.00  0.00     0.000 C 
BRANCH  11  12
ATOM     12  C   UNL     1      -6.588   4.887  18.804  1.00  0.00     0.006 C 
BRANCH  12  13
ATOM     13  C   UNL     1      -5.104   4.507  18.820  1.00  0.00     0.053 C 
BRANCH  13  14
ATOM     14  C   UNL     1      -4.280   5.568  18.156  1.00  0.00     0.041 C 
ATOM     15  O   UNL     1      -4.040   5.505  16.921  1.00  0.00    -0.550 OA
ATOM     16  O   UNL     1      -3.810   6.645  18.897  1.00  0.00    -0.550 OA
ENDBRANCH  13  14
ENDBRANCH  12  13
ENDBRANCH  11  12
ENDBRANCH  10  11
ENDBRANCH   9  10
ENDBRANCH   8   9
ENDBRANCH   7   8
ENDBRANCH   6   7
ENDBRANCH   5   6
ENDBRANCH   4   5
ENDBRANCH   3   4
ENDBRANCH   2   3
ENDBRANCH   1   2
BRANCH   1  17
ATOM     17  C   UNL     1     -10.028  -0.518  21.296  1.00  0.00     0.000 C 
BRANCH  17  18
ATOM     18  C   UNL     1      -9.888   0.801  20.526  1.00  0.00     0.000 C 
BRANCH  18  19
ATOM     19  C   UNL     1     -11.258   1.286  20.026  1.00  0.00     0.000 C 
BRANCH  19  20
ATOM     20  C   UNL     1     -12.174   1.748  21.173  1.00  0.00     0.000 C 
BRANCH  20  21
ATOM     21  C   UNL     1     -13.002   3.006  20.828  1.00  0.00     0.000 C 
BRANCH  21  22
ATOM     22  C   UNL     1     -12.399   3.850  19.687  1.00  0.00    -0.000 C 
BRANCH  22  23
ATOM     23  C   UNL     1     -13.280   3.955  18.429  1.00  0.00    -0.000 C 
BRANCH  23  24
ATOM     24  C   UNL     1     -12.591   3.542  17.114  1.00  0.00    -0.000 C 
BRANCH  24  25
ATOM     25  C   UNL     1     -11.142   4.059  16.980  1.00  0.00    -0.000 C 
BRANCH  25  26
ATOM     26  C   UNL     1     -10.325   3.250  15.963  1.00  0.00    -0.000 C 
BRANCH  26  27
ATOM     27  C   UNL     1     -10.299   1.760  16.334  1.00  0.00    -0.000 C 
BRANCH  27  28
ATOM     28  C   UNL     1      -9.870   0.867  15.158  1.00  0.00    -0.000 C 
BRANCH  28  29
ATOM     29  C   UNL     1     -11.028   0.559  14.197  1.00  0.00    -0.003 C 
ATOM     30  C   UNL     1     -12.356   0.487  14.947  1.00  0.00     0.004 C 
ENDBRANCH  28  29
ENDBRANCH  27  28
ENDBRANCH  26  27
ENDBRANCH  25  26
ENDBRANCH  24  25
ENDBRANCH  23  24
ENDBRANCH  22  23
ENDBRANCH  21  22
ENDBRANCH  20  21
ENDBRANCH  19  20
ENDBRANCH  18  19
ENDBRANCH  17  18
ENDBRANCH   1  17
TORSDOF 26
ENDMDL
MODEL 6
REMARK VINA RESULT:    -4.673      2.523      6.831
REMARK INTER + INTRA:         -15.691
REMARK INTER:                 -10.284
REMARK INTRA:                  -5.407
REMARK UNBOUND:                -3.916
REMARK SMILES CCCCCCCCCCCCCCCCCCCCCCCCCCCC(=O)[O-]
REMARK SMILES IDX 15 1 16 2 17 3 18 4 19 5 20 6 21 7 22 8 23 9 24 10 25 11
REMARK SMILES IDX 26 12 27 13 28 14 29 15 30 16 14 17 13 18 12 19 11 20 10 21
REMARK SMILES IDX 9 22 8 23 7 24 6 25 5 26 4 27 3 28 2 29 1 30
REMARK H PARENT
REMARK Flexibility Score: inf
ROOT
ATOM      1  C   UNL     1      -8.535  -1.228  21.603  1.00  0.00     0.000 C 
ENDROOT
BRANCH   1   2
ATOM      2  C   UNL     1      -9.783  -0.586  20.959  1.00  0.00     0.000 C 
BRANCH   2   3
ATOM      3  C   UNL     1      -9.463   0.485  19.897  1.00  0.00     0.000 C 
BRANCH   3   4
ATOM      4  C   UNL     1     -10.138   1.849  20.116  1.00  0.00     0.000 C 
BRANCH   4   5
ATOM      5  C   UNL     1     -11.610   1.864  19.678  1.00  0.00     0.000 C 
BRANCH   5   6
ATOM      6  C   UNL     1     -12.220   3.266  19.844  1.00  0.00     0.000 C 
BRANCH   6   7
ATOM      7  C   UNL     1     -12.683   3.871  18.508  1.00  0.00     0.000 C 
BRANCH   7   8
ATOM      8  C   UNL     1     -12.164   5.301  18.293  1.00  0.00     0.000 C 
BRANCH   8   9
ATOM      9  C   UNL     1     -11.107   5.338  17.177  1.00  0.00     0.000 C 
BRANCH   9  10
ATOM     10  C   UNL     1     -11.101   4.062  16.321  1.00  0.00     0.000 C 
BRANCH  10  11
ATOM     11  C   UNL     1      -9.801   3.254  16.465  1.00  0.00     0.000 C 
BRANCH  11  12
ATOM     12  C   UNL     1     -10.075   1.749  16.360  1.00  0.00     0.006 C 
BRANCH  12  13
ATOM     13  C   UNL     1     -11.472   1.484  15.790  1.00  0.00     0.053 C 
BRANCH  13  14
ATOM     14  C   UNL     1     -11.388   0.624  14.567  1.00  0.00     0.041 C 
ATOM     15  O   UNL     1     -12.356  -0.116  14.244  1.00  0.00    -0.550 OA
ATOM     16  O   UNL     1     -10.256   0.668  13.763  1.00  0.00    -0.550 OA
ENDBRANCH  13  14
ENDBRANCH  12  13
ENDBRANCH  11  12
ENDBRANCH  10  11
ENDBRANCH   9  10
ENDBRANCH   8   9
ENDBRANCH   7   8
ENDBRANCH   6   7
ENDBRANCH   5   6
ENDBRANCH   4   5
ENDBRANCH   3   4
ENDBRANCH   2   3
ENDBRANCH   1   2
BRANCH   1  17
ATOM     17  C   UNL     1      -8.376  -0.852  23.086  1.00  0.00     0.000 C 
BRANCH  17  18
ATOM     18  C   UNL     1      -9.350   0.263  23.483  1.00  0.00     0.000 C 
BRANCH  18  19
ATOM     19  C   UNL     1     -10.169  -0.144  24.718  1.00  0.00     0.000 C 
BRANCH  19  20
ATOM     20  C   UNL     1     -11.647   0.268  24.606  1.00  0.00     0.000 C 
BRANCH  20  21
ATOM     21  C   UNL     1     -12.014   0.868  23.230  1.00  0.00     0.000 C 
BRANCH  21  22
ATOM     22  C   UNL     1     -12.849   2.161  23.322  1.00  0.00    -0.000 C 
BRANCH  22  23
ATOM     23  C   UNL     1     -12.101   3.370  23.913  1.00  0.00    -0.000 C 
BRANCH  23  24
ATOM     24  C   UNL     1     -10.671   3.578  23.378  1.00  0.00    -0.000 C 
BRANCH  24  25
ATOM     25  C   UNL     1     -10.477   4.907  22.617  1.00  0.00    -0.000 C 
BRANCH  25  26
ATOM     26  C   UNL     1      -9.224   4.897  21.731  1.00  0.00    -0.000 C 
BRANCH  26  27
ATOM     27  C   UNL     1      -9.356   5.902  20.576  1.00  0.00    -0.000 C 
BRANCH  27  28
ATOM     28  C   UNL     1      -8.344   5.638  19.447  1.00  0.00    -0.000 C 
BRANCH  28  29
ATOM     29  C   UNL     1      -7.580   4.319  19.635  1.00  0.00    -0.003 C 
ATOM     30  C   UNL     1      -6.301   4.304  18.802  1.00  0.00     0.004 C 
ENDBRANCH  28  29
ENDBRANCH  27  28
ENDBRANCH  26  27
ENDBRANCH  25  26
ENDBRANCH  24  25
ENDBRANCH  23  24
ENDBRANCH  22  23
ENDBRANCH  21  22
ENDBRANCH  20  21
ENDBRANCH  19  20
ENDBRANCH  18  19
ENDBRANCH  17  18
ENDBRANCH   1  17
TORSDOF 26
ENDMDL
MODEL 7
REMARK VINA RESULT:    -4.593      2.496      6.534
REMARK INTER + INTRA:         -15.492
REMARK INTER:                 -10.138
REMARK INTRA:                  -5.354
REMARK UNBOUND:                -3.916
REMARK SMILES CCCCCCCCCCCCCCCCCCCCCCCCCCCC(=O)[O-]
REMARK SMILES IDX 15 1 16 2 17 3 18 4 19 5 20 6 21 7 22 8 23 9 24 10 25 11
REMARK SMILES IDX 26 12 27 13 28 14 29 15 30 16 14 17 13 18 12 19 11 20 10 21
REMARK SMILES IDX 9 22 8 23 7 24 6 25 5 26 4 27 3 28 2 29 1 30
REMARK H PARENT
REMARK Flexibility Score: inf
ROOT
ATOM      1  C   UNL     1     -12.582   0.152  23.888  1.00  0.00     0.000 C 
ENDROOT
BRANCH   1   2
ATOM      2  C   UNL     1     -13.693   1.220  23.792  1.00  0.00     0.000 C 
BRANCH   2   3
ATOM      3  C   UNL     1     -13.253   2.629  24.239  1.00  0.00     0.000 C 
BRANCH   3   4
ATOM      4  C   UNL     1     -12.420   3.413  23.211  1.00  0.00     0.000 C 
BRANCH   4   5
ATOM      5  C   UNL     1     -13.058   3.430  21.813  1.00  0.00     0.000 C 
BRANCH   5   6
ATOM      6  C   UNL     1     -13.128   4.863  21.258  1.00  0.00     0.000 C 
BRANCH   6   7
ATOM      7  C   UNL     1     -13.378   4.897  19.741  1.00  0.00     0.000 C 
BRANCH   7   8
ATOM      8  C   UNL     1     -12.866   3.636  19.028  1.00  0.00     0.000 C 
BRANCH   8   9
ATOM      9  C   UNL     1     -12.597   3.919  17.541  1.00  0.00     0.000 C 
BRANCH   9  10
ATOM     10  C   UNL     1     -11.347   4.783  17.315  1.00  0.00     0.000 C 
BRANCH  10  11
ATOM     11  C   UNL     1     -10.220   4.025  16.596  1.00  0.00     0.000 C 
BRANCH  11  12
ATOM     12  C   UNL     1     -10.776   2.841  15.796  1.00  0.00     0.006 C 
BRANCH  12  13
ATOM     13  C   UNL     1      -9.670   1.834  15.467  1.00  0.00     0.053 C 
BRANCH  13  14
ATOM     14  C   UNL     1     -10.202   0.728  14.607  1.00  0.00     0.041 C 
ATOM     15  O   UNL     1      -9.411  -0.010  13.962  1.00  0.00    -0.550 OA
ATOM     16  O   UNL     1     -11.570   0.491  14.549  1.00  0.00    -0.550 OA
ENDBRANCH  13  14
ENDBRANCH  12  13
ENDBRANCH  11  12
ENDBRANCH  10  11
ENDBRANCH   9  10
ENDBRANCH   8   9
ENDBRANCH   7   8
ENDBRANCH   6   7
ENDBRANCH   5   6
ENDBRANCH   4   5
ENDBRANCH   3   4
ENDBRANCH   2   3
ENDBRANCH   1   2
BRANCH   1  17
ATOM     17  C   UNL     1     -12.052  -0.022  25.321  1.00  0.00     0.000 C 
BRANCH  17  18
ATOM     18  C   UNL     1     -10.528  -0.186  25.333  1.00  0.00     0.000 C 
BRANCH  18  19
ATOM     19  C   UNL     1      -9.837   1.118  24.901  1.00  0.00     0.000 C 
BRANCH  19  20
ATOM     20  C   UNL     1      -8.855   0.906  23.736  1.00  0.00     0.000 C 
BRANCH  20  21
ATOM     21  C   UNL     1      -8.789  -0.560  23.249  1.00  0.00     0.000 C 
BRANCH  21  22
ATOM     22  C   UNL     1      -8.911  -0.709  21.719  1.00  0.00    -0.000 C 
BRANCH  22  23
ATOM     23  C   UNL     1     -10.348  -0.617  21.175  1.00  0.00    -0.000 C 
BRANCH  23  24
ATOM     24  C   UNL     1     -10.768   0.779  20.675  1.00  0.00    -0.000 C 
BRANCH  24  25
ATOM     25  C   UNL     1     -10.110   1.187  19.340  1.00  0.00    -0.000 C 
BRANCH  25  26
ATOM     26  C   UNL     1      -9.294   2.482  19.462  1.00  0.00    -0.000 C 
BRANCH  26  27
ATOM     27  C   UNL     1      -9.526   3.154  20.823  1.00  0.00    -0.000 C 
BRANCH  27  28
ATOM     28  C   UNL     1      -9.093   4.630  20.833  1.00  0.00    -0.000 C 
BRANCH  28  29
ATOM     29  C   UNL     1      -9.466   5.346  22.140  1.00  0.00    -0.003 C 
ATOM     30  C   UNL     1      -8.575   4.882  23.290  1.00  0.00     0.004 C 
ENDBRANCH  28  29
ENDBRANCH  27  28
ENDBRANCH  26  27
ENDBRANCH  25  26
ENDBRANCH  24  25
ENDBRANCH  23  24
ENDBRANCH  22  23
ENDBRANCH  21  22
ENDBRANCH  20  21
ENDBRANCH  19  20
ENDBRANCH  18  19
ENDBRANCH  17  18
ENDBRANCH   1  17
TORSDOF 26
ENDMDL
MODEL 8
REMARK VINA RESULT:    -4.539      2.629      7.463
REMARK INTER + INTRA:         -15.353
REMARK INTER:                  -9.483
REMARK INTRA:                  -5.870
REMARK UNBOUND:                -3.916
REMARK SMILES CCCCCCCCCCCCCCCCCCCCCCCCCCCC(=O)[O-]
REMARK SMILES IDX 15 1 16 2 17 3 18 4 19 5 20 6 21 7 22 8 23 9 24 10 25 11
REMARK SMILES IDX 26 12 27 13 28 14 29 15 30 16 14 17 13 18 12 19 11 20 10 21
REMARK SMILES IDX 9 22 8 23 7 24 6 25 5 26 4 27 3 28 2 29 1 30
REMARK H PARENT
REMARK Flexibility Score: inf
ROOT
ATOM      1  C   UNL     1      -8.399   3.018  18.516  1.00  0.00     0.000 C 
ENDROOT
BRANCH   1   2
ATOM      2  C   UNL     1      -7.350   4.135  18.708  1.00  0.00     0.000 C 
BRANCH   2   3
ATOM      3  C   UNL     1      -7.372   4.786  20.105  1.00  0.00     0.000 C 
BRANCH   3   4
ATOM      4  C   UNL     1      -8.095   6.141  20.186  1.00  0.00     0.000 C 
BRANCH   4   5
ATOM      5  C   UNL     1      -8.497   6.687  18.806  1.00  0.00     0.000 C 
BRANCH   5   6
ATOM      6  C   UNL     1      -9.973   7.119  18.794  1.00  0.00     0.000 C 
BRANCH   6   7
ATOM      7  C   UNL     1     -10.889   6.114  19.513  1.00  0.00     0.000 C 
BRANCH   7   8
ATOM      8  C   UNL     1     -12.106   5.710  18.666  1.00  0.00     0.000 C 
BRANCH   8   9
ATOM      9  C   UNL     1     -11.726   4.623  17.647  1.00  0.00     0.000 C 
BRANCH   9  10
ATOM     10  C   UNL     1     -12.837   3.580  17.449  1.00  0.00     0.000 C 
BRANCH  10  11
ATOM     11  C   UNL     1     -12.499   2.546  16.363  1.00  0.00     0.000 C 
BRANCH  11  12
ATOM     12  C   UNL     1     -11.052   2.708  15.881  1.00  0.00     0.006 C 
BRANCH  12  13
ATOM     13  C   UNL     1     -10.311   1.368  15.911  1.00  0.00     0.053 C 
BRANCH  13  14
ATOM     14  C   UNL     1     -10.344   0.717  14.562  1.00  0.00     0.041 C 
ATOM     15  O   UNL     1     -11.431   0.282  14.093  1.00  0.00    -0.550 OA
ATOM     16  O   UNL     1      -9.182   0.624  13.807  1.00  0.00    -0.550 OA
ENDBRANCH  13  14
ENDBRANCH  12  13
ENDBRANCH  11  12
ENDBRANCH  10  11
ENDBRANCH   9  10
ENDBRANCH   8   9
ENDBRANCH   7   8
ENDBRANCH   6   7
ENDBRANCH   5   6
ENDBRANCH   4   5
ENDBRANCH   3   4
ENDBRANCH   2   3
ENDBRANCH   1   2
BRANCH   1  17
ATOM     17  C   UNL     1      -9.273   2.807  19.764  1.00  0.00     0.000 C 
BRANCH  17  18
ATOM     18  C   UNL     1      -9.884   1.400  19.782  1.00  0.00     0.000 C 
BRANCH  18  19
ATOM     19  C   UNL     1     -11.400   1.469  20.024  1.00  0.00     0.000 C 
BRANCH  19  20
ATOM     20  C   UNL     1     -11.809   2.706  20.844  1.00  0.00     0.000 C 
BRANCH  20  21
ATOM     21  C   UNL     1     -13.235   2.606  21.433  1.00  0.00     0.000 C 
BRANCH  21  22
ATOM     22  C   UNL     1     -13.264   2.148  22.905  1.00  0.00    -0.000 C 
BRANCH  22  23
ATOM     23  C   UNL     1     -13.070   0.636  23.114  1.00  0.00    -0.000 C 
BRANCH  23  24
ATOM     24  C   UNL     1     -11.769   0.238  23.839  1.00  0.00    -0.000 C 
BRANCH  24  25
ATOM     25  C   UNL     1     -10.931   1.443  24.319  1.00  0.00    -0.000 C 
BRANCH  25  26
ATOM     26  C   UNL     1      -9.561   1.514  23.628  1.00  0.00    -0.000 C 
BRANCH  26  27
ATOM     27  C   UNL     1      -8.822   2.808  24.001  1.00  0.00    -0.000 C 
BRANCH  27  28
ATOM     28  C   UNL     1      -9.250   4.002  23.132  1.00  0.00    -0.000 C 
BRANCH  28  29
ATOM     29  C   UNL     1     -10.014   5.070  23.930  1.00  0.00    -0.003 C 
ATOM     30  C   UNL     1     -11.298   5.475  23.211  1.00  0.00     0.004 C 
ENDBRANCH  28  29
ENDBRANCH  27  28
ENDBRANCH  26  27
ENDBRANCH  25  26
ENDBRANCH  24  25
ENDBRANCH  23  24
ENDBRANCH  22  23
ENDBRANCH  21  22
ENDBRANCH  20  21
ENDBRANCH  19  20
ENDBRANCH  18  19
ENDBRANCH  17  18
ENDBRANCH   1  17
TORSDOF 26
ENDMDL
MODEL 9
REMARK VINA RESULT:    -4.528      2.404      7.175
REMARK INTER + INTRA:         -15.327
REMARK INTER:                  -9.842
REMARK INTRA:                  -5.485
REMARK UNBOUND:                -3.916
REMARK SMILES CCCCCCCCCCCCCCCCCCCCCCCCCCCC(=O)[O-]
REMARK SMILES IDX 15 1 16 2 17 3 18 4 19 5 20 6 21 7 22 8 23 9 24 10 25 11
REMARK SMILES IDX 26 12 27 13 28 14 29 15 30 16 14 17 13 18 12 19 11 20 10 21
REMARK SMILES IDX 9 22 8 23 7 24 6 25 5 26 4 27 3 28 2 29 1 30
REMARK H PARENT
REMARK Flexibility Score: inf
ROOT
ATOM      1  C   UNL     1      -8.978  -0.860  21.075  1.00  0.00     0.000 C 
ENDROOT
BRANCH   1   2
ATOM      2  C   UNL     1     -10.330  -0.116  21.010  1.00  0.00     0.000 C 
BRANCH   2   3
ATOM      3  C   UNL     1     -10.436   0.898  19.854  1.00  0.00     0.000 C 
BRANCH   3   4
ATOM      4  C   UNL     1      -9.557   2.152  19.998  1.00  0.00     0.000 C 
BRANCH   4   5
ATOM      5  C   UNL     1      -8.742   2.458  18.732  1.00  0.00     0.000 C 
BRANCH   5   6
ATOM      6  C   UNL     1      -8.475   3.967  18.601  1.00  0.00     0.000 C 
BRANCH   6   7
ATOM      7  C   UNL     1      -9.432   4.652  17.610  1.00  0.00     0.000 C 
BRANCH   7   8
ATOM      8  C   UNL     1     -10.592   5.376  18.311  1.00  0.00     0.000 C 
BRANCH   8   9
ATOM      9  C   UNL     1     -11.936   5.012  17.661  1.00  0.00     0.000 C 
BRANCH   9  10
ATOM     10  C   UNL     1     -12.271   3.518  17.781  1.00  0.00     0.000 C 
BRANCH  10  11
ATOM     11  C   UNL     1     -12.478   2.840  16.417  1.00  0.00     0.000 C 
BRANCH  11  12
ATOM     12  C   UNL     1     -11.700   1.521  16.334  1.00  0.00     0.006 C 
BRANCH  12  13
ATOM     13  C   UNL     1     -10.425   1.688  15.501  1.00  0.00     0.053 C 
BRANCH  13  14
ATOM     14  C   UNL     1     -10.405   0.711  14.366  1.00  0.00     0.041 C 
ATOM     15  O   UNL     1     -11.484   0.241  13.915  1.00  0.00    -0.550 OA
ATOM     16  O   UNL     1      -9.197   0.350  13.782  1.00  0.00    -0.550 OA
ENDBRANCH  13  14
ENDBRANCH  12  13
ENDBRANCH  11  12
ENDBRANCH  10  11
ENDBRANCH   9  10
ENDBRANCH   8   9
ENDBRANCH   7   8
ENDBRANCH   6   7
ENDBRANCH   5   6
ENDBRANCH   4   5
ENDBRANCH   3   4
ENDBRANCH   2   3
ENDBRANCH   1   2
BRANCH   1  17
ATOM     17  C   UNL     1      -8.380  -0.877  22.491  1.00  0.00     0.000 C 
BRANCH  17  18
ATOM     18  C   UNL     1      -9.373  -0.322  23.519  1.00  0.00     0.000 C 
BRANCH  18  19
ATOM     19  C   UNL     1      -9.072   1.155  23.824  1.00  0.00     0.000 C 
BRANCH  19  20
ATOM     20  C   UNL     1     -10.337   1.949  24.191  1.00  0.00     0.000 C 
BRANCH  20  21
ATOM     21  C   UNL     1     -11.607   1.073  24.283  1.00  0.00     0.000 C 
BRANCH  21  22
ATOM     22  C   UNL     1     -12.920   1.871  24.149  1.00  0.00    -0.000 C 
BRANCH  22  23
ATOM     23  C   UNL     1     -13.621   1.734  22.785  1.00  0.00    -0.000 C 
BRANCH  23  24
ATOM     24  C   UNL     1     -12.912   2.440  21.613  1.00  0.00    -0.000 C 
BRANCH  24  25
ATOM     25  C   UNL     1     -13.669   3.674  21.079  1.00  0.00    -0.000 C 
BRANCH  25  26
ATOM     26  C   UNL     1     -12.873   4.974  21.263  1.00  0.00    -0.000 C 
BRANCH  26  27
ATOM     27  C   UNL     1     -11.488   4.693  21.863  1.00  0.00    -0.000 C 
BRANCH  27  28
ATOM     28  C   UNL     1     -11.249   5.456  23.177  1.00  0.00    -0.000 C 
BRANCH  28  29
ATOM     29  C   UNL     1     -12.535   5.638  23.997  1.00  0.00    -0.003 C 
ATOM     30  C   UNL     1     -12.328   5.199  25.444  1.00  0.00     0.004 C 
ENDBRANCH  28  29
ENDBRANCH  27  28
ENDBRANCH  26  27
ENDBRANCH  25  26
ENDBRANCH  24  25
ENDBRANCH  23  24
ENDBRANCH  22  23
ENDBRANCH  21  22
ENDBRANCH  20  21
ENDBRANCH  19  20
ENDBRANCH  18  19
ENDBRANCH  17  18
ENDBRANCH   1  17
TORSDOF 26
ENDMDL
