MODEL 1
REMARK VINA RESULT:    -2.700      0.000      0.000
REMARK INTER + INTRA:          -3.488
REMARK INTER:                  -3.174
REMARK INTRA:                  -0.315
REMARK UNBOUND:                -0.315
REMARK SMILES O=c1cc(-c2ccc(O)c(O)c2)oc2cc(O)cc(O)c12
REMARK SMILES IDX 4 1 3 2 2 3 1 4 21 5 19 6 18 7 16 8 15 9 14 10 13 11 5 12
REMARK SMILES IDX 6 13 7 14 8 15 12 16 10 17 9 18 11 20 20 22 17 24
REMARK H PARENT 9 19 11 21 20 23 17 25
REMARK Flexibility Score: inf
ROOT
ATOM      1  C   UNL     1       8.835  11.929 -16.363  1.00  0.00     0.138 A 
ATOM      2  C   UNL     1       7.519  12.399 -16.258  1.00  0.00     0.100 A 
ATOM      3  C   UNL     1       7.080  13.418 -17.105  1.00  0.00     0.197 A 
ATOM      4  O   UNL     1       5.875  13.776 -17.029  1.00  0.00    -0.289 OA
ATOM      5  C   UNL     1       7.975  13.990 -18.039  1.00  0.00     0.107 A 
ATOM      6  C   UNL     1       7.651  15.061 -18.925  1.00  0.00     0.134 A 
ATOM      7  C   UNL     1       8.583  15.465 -19.889  1.00  0.00     0.093 A 
ATOM      8  C   UNL     1       9.850  14.879 -19.958  1.00  0.00     0.123 A 
ATOM      9  C   UNL     1      10.194  13.870 -19.062  1.00  0.00     0.094 A 
ATOM     10  C   UNL     1       9.274  13.420 -18.112  1.00  0.00     0.146 A 
ATOM     11  O   UNL     1       9.639  12.444 -17.286  1.00  0.00    -0.456 OA
ENDROOT
BRANCH   1  12
ATOM     12  C   UNL     1       9.353  10.847 -15.486  1.00  0.00     0.021 A 
ATOM     13  C   UNL     1       8.448  10.049 -14.766  1.00  0.00     0.016 A 
ATOM     14  C   UNL     1       8.909   9.021 -13.941  1.00  0.00     0.051 A 
ATOM     15  C   UNL     1      10.279   8.764 -13.828  1.00  0.00     0.157 A 
ATOM     16  C   UNL     1      10.731  10.577 -15.380  1.00  0.00     0.062 A 
ATOM     17  C   UNL     1      11.195   9.543 -14.554  1.00  0.00     0.158 A 
BRANCH  15  18
ATOM     18  O   UNL     1      10.708   7.732 -12.995  1.00  0.00    -0.504 OA
ATOM     19  H   UNL     1      10.602   6.757 -13.249  1.00  0.00     0.293 HD
ENDBRANCH  15  18
BRANCH  17  20
ATOM     20  O   UNL     1      12.561   9.286 -14.454  1.00  0.00    -0.504 OA
ATOM     21  H   UNL     1      13.041   8.695 -15.123  1.00  0.00     0.293 HD
ENDBRANCH  17  20
ENDBRANCH   1  12
BRANCH   6  22
ATOM     22  O   UNL     1       6.447  15.771 -18.884  1.00  0.00    -0.507 OA
ATOM     23  H   UNL     1       5.559  15.419 -19.208  1.00  0.00     0.293 HD
ENDBRANCH   6  22
BRANCH   8  24
ATOM     24  O   UNL     1      10.776  15.299 -20.910  1.00  0.00    -0.508 OA
ATOM     25  H   UNL     1      10.773  14.928 -21.853  1.00  0.00     0.293 HD
ENDBRANCH   8  24
TORSDOF 5
ENDMDL
