MODEL 1
REMARK VINA RESULT:    -3.411      0.000      0.000
REMARK INTER + INTRA:          -8.929
REMARK INTER:                  -6.204
REMARK INTRA:                  -2.726
REMARK UNBOUND:                -2.726
REMARK SMILES CCCCCCCCCCCCCCCC(=O)[O-]
REMARK SMILES IDX 9 1 10 2 11 3 12 4 13 5 14 6 15 7 16 8 17 9 18 10 8 11 7 12
REMARK SMILES IDX 6 13 5 14 4 15 3 16 2 17 1 18
REMARK H PARENT
REMARK Flexibility Score: inf
ROOT
ATOM      1  C   UNL     1      20.983 -51.512 157.944  1.00  0.00     0.000 C 
ENDROOT
BRANCH   1   2
ATOM      2  C   UNL     1      21.358 -52.808 158.680  1.00  0.00     0.000 C 
BRANCH   2   3
ATOM      3  C   UNL     1      21.395 -52.633 160.209  1.00  0.00     0.000 C 
BRANCH   3   4
ATOM      4  C   UNL     1      22.789 -52.898 160.798  1.00  0.00     0.000 C 
BRANCH   4   5
ATOM      5  C   UNL     1      23.678 -53.733 159.860  1.00  0.00     0.000 C 
BRANCH   5   6
ATOM      6  C   UNL     1      25.130 -53.232 159.820  1.00  0.00     0.006 C 
BRANCH   6   7
ATOM      7  C   UNL     1      25.500 -52.399 161.055  1.00  0.00     0.053 C 
BRANCH   7   8
ATOM      8  C   UNL     1      26.978 -52.170 161.103  1.00  0.00     0.041 C 
ATOM      9  O   UNL     1      27.433 -51.014 161.312  1.00  0.00    -0.550 OA
ATOM     10  O   UNL     1      27.853 -53.239 160.962  1.00  0.00    -0.550 OA
ENDBRANCH   7   8
ENDBRANCH   6   7
ENDBRANCH   5   6
ENDBRANCH   4   5
ENDBRANCH   3   4
ENDBRANCH   2   3
ENDBRANCH   1   2
BRANCH   1  11
ATOM     11  C   UNL     1      21.941 -51.192 156.788  1.00  0.00     0.000 C 
BRANCH  11  12
ATOM     12  C   UNL     1      23.382 -51.044 157.293  1.00  0.00    -0.000 C 
BRANCH  12  13
ATOM     13  C   UNL     1      23.621 -49.640 157.868  1.00  0.00    -0.000 C 
BRANCH  13  14
ATOM     14  C   UNL     1      23.970 -49.652 159.367  1.00  0.00    -0.000 C 
BRANCH  14  15
ATOM     15  C   UNL     1      22.845 -49.179 160.306  1.00  0.00    -0.000 C 
BRANCH  15  16
ATOM     16  C   UNL     1      21.768 -48.352 159.581  1.00  0.00    -0.000 C 
BRANCH  16  17
ATOM     17  C   UNL     1      20.350 -48.662 160.085  1.00  0.00    -0.003 C 
ATOM     18  C   UNL     1      20.343 -49.515 161.353  1.00  0.00     0.004 C 
ENDBRANCH  16  17
ENDBRANCH  15  16
ENDBRANCH  14  15
ENDBRANCH  13  14
ENDBRANCH  12  13
ENDBRANCH  11  12
ENDBRANCH   1  11
TORSDOF 14
ENDMDL
MODEL 2
REMARK VINA RESULT:    -3.214     17.439     19.511
REMARK INTER + INTRA:          -8.570
REMARK INTER:                  -6.436
REMARK INTRA:                  -2.134
REMARK UNBOUND:                -2.726
REMARK SMILES CCCCCCCCCCCCCCCC(=O)[O-]
REMARK SMILES IDX 9 1 10 2 11 3 12 4 13 5 14 6 15 7 16 8 17 9 18 10 8 11 7 12
REMARK SMILES IDX 6 13 5 14 4 15 3 16 2 17 1 18
REMARK H PARENT
REMARK Flexibility Score: inf
ROOT
ATOM      1  C   UNL     1      18.245 -37.038 146.630  1.00  0.00     0.000 C 
ENDROOT
BRANCH   1   2
ATOM      2  C   UNL     1      18.363 -38.098 147.737  1.00  0.00     0.000 C 
BRANCH   2   3
ATOM      3  C   UNL     1      18.709 -37.488 149.107  1.00  0.00     0.000 C 
BRANCH   3   4
ATOM      4  C   UNL     1      17.976 -38.185 150.265  1.00  0.00     0.000 C 
BRANCH   4   5
ATOM      5  C   UNL     1      17.380 -37.186 151.272  1.00  0.00     0.000 C 
BRANCH   5   6
ATOM      6  C   UNL     1      16.416 -36.187 150.613  1.00  0.00     0.006 C 
BRANCH   6   7
ATOM      7  C   UNL     1      15.033 -36.794 150.342  1.00  0.00     0.053 C 
BRANCH   7   8
ATOM      8  C   UNL     1      14.526 -37.498 151.561  1.00  0.00     0.041 C 
ATOM      9  O   UNL     1      14.285 -36.850 152.613  1.00  0.00    -0.550 OA
ATOM     10  O   UNL     1      14.274 -38.864 151.522  1.00  0.00    -0.550 OA
ENDBRANCH   7   8
ENDBRANCH   6   7
ENDBRANCH   5   6
ENDBRANCH   4   5
ENDBRANCH   3   4
ENDBRANCH   2   3
ENDBRANCH   1   2
BRANCH   1  11
ATOM     11  C   UNL     1      17.903 -35.645 147.181  1.00  0.00     0.000 C 
BRANCH  11  12
ATOM     12  C   UNL     1      18.396 -34.545 146.233  1.00  0.00    -0.000 C 
BRANCH  12  13
ATOM     13  C   UNL     1      19.665 -33.875 146.780  1.00  0.00    -0.000 C 
BRANCH  13  14
ATOM     14  C   UNL     1      19.756 -33.917 148.316  1.00  0.00    -0.000 C 
BRANCH  14  15
ATOM     15  C   UNL     1      21.034 -34.564 148.880  1.00  0.00    -0.000 C 
BRANCH  15  16
ATOM     16  C   UNL     1      20.889 -34.992 150.351  1.00  0.00    -0.000 C 
BRANCH  16  17
ATOM     17  C   UNL     1      19.676 -34.344 151.037  1.00  0.00    -0.003 C 
ATOM     18  C   UNL     1      19.835 -34.245 152.553  1.00  0.00     0.004 C 
ENDBRANCH  16  17
ENDBRANCH  15  16
ENDBRANCH  14  15
ENDBRANCH  13  14
ENDBRANCH  12  13
ENDBRANCH  11  12
ENDBRANCH   1  11
TORSDOF 14
ENDMDL
MODEL 3
REMARK VINA RESULT:    -3.188      1.365      2.593
REMARK INTER + INTRA:          -8.523
REMARK INTER:                  -6.439
REMARK INTRA:                  -2.085
REMARK UNBOUND:                -2.726
REMARK SMILES CCCCCCCCCCCCCCCC(=O)[O-]
REMARK SMILES IDX 9 1 10 2 11 3 12 4 13 5 14 6 15 7 16 8 17 9 18 10 8 11 7 12
REMARK SMILES IDX 6 13 5 14 4 15 3 16 2 17 1 18
REMARK H PARENT
REMARK Flexibility Score: inf
ROOT
ATOM      1  C   UNL     1      22.672 -51.929 156.752  1.00  0.00     0.000 C 
ENDROOT
BRANCH   1   2
ATOM      2  C   UNL     1      22.518 -53.047 157.796  1.00  0.00     0.000 C 
BRANCH   2   3
ATOM      3  C   UNL     1      23.805 -53.283 158.606  1.00  0.00     0.000 C 
BRANCH   3   4
ATOM      4  C   UNL     1      23.868 -52.422 159.877  1.00  0.00     0.000 C 
BRANCH   4   5
ATOM      5  C   UNL     1      25.261 -52.436 160.531  1.00  0.00     0.000 C 
BRANCH   5   6
ATOM      6  C   UNL     1      25.688 -51.051 161.041  1.00  0.00     0.006 C 
BRANCH   6   7
ATOM      7  C   UNL     1      26.208 -51.089 162.484  1.00  0.00     0.053 C 
BRANCH   7   8
ATOM      8  C   UNL     1      27.687 -51.315 162.498  1.00  0.00     0.041 C 
ATOM      9  O   UNL     1      28.149 -52.486 162.494  1.00  0.00    -0.550 OA
ATOM     10  O   UNL     1      28.557 -50.232 162.468  1.00  0.00    -0.550 OA
ENDBRANCH   7   8
ENDBRANCH   6   7
ENDBRANCH   5   6
ENDBRANCH   4   5
ENDBRANCH   3   4
ENDBRANCH   2   3
ENDBRANCH   1   2
BRANCH   1  11
ATOM     11  C   UNL     1      21.557 -50.876 156.846  1.00  0.00     0.000 C 
BRANCH  11  12
ATOM     12  C   UNL     1      20.645 -51.149 158.048  1.00  0.00    -0.000 C 
BRANCH  12  13
ATOM     13  C   UNL     1      20.418 -49.871 158.868  1.00  0.00    -0.000 C 
BRANCH  13  14
ATOM     14  C   UNL     1      21.099 -49.910 160.248  1.00  0.00    -0.000 C 
BRANCH  14  15
ATOM     15  C   UNL     1      22.449 -49.174 160.333  1.00  0.00    -0.000 C 
BRANCH  15  16
ATOM     16  C   UNL     1      22.453 -47.839 159.568  1.00  0.00    -0.000 C 
BRANCH  16  17
ATOM     17  C   UNL     1      23.649 -47.713 158.610  1.00  0.00    -0.003 C 
ATOM     18  C   UNL     1      24.269 -49.063 158.255  1.00  0.00     0.004 C 
ENDBRANCH  16  17
ENDBRANCH  15  16
ENDBRANCH  14  15
ENDBRANCH  13  14
ENDBRANCH  12  13
ENDBRANCH  11  12
ENDBRANCH   1  11
TORSDOF 14
ENDMDL
MODEL 4
REMARK VINA RESULT:    -3.167      5.792      7.138
REMARK INTER + INTRA:          -8.485
REMARK INTER:                  -7.674
REMARK INTRA:                  -0.811
REMARK UNBOUND:                -2.726
REMARK SMILES CCCCCCCCCCCCCCCC(=O)[O-]
REMARK SMILES IDX 9 1 10 2 11 3 12 4 13 5 14 6 15 7 16 8 17 9 18 10 8 11 7 12
REMARK SMILES IDX 6 13 5 14 4 15 3 16 2 17 1 18
REMARK H PARENT
REMARK Flexibility Score: inf
ROOT
ATOM      1  C   UNL     1      24.283 -53.585 155.930  1.00  0.00     0.000 C 
ENDROOT
BRANCH   1   2
ATOM      2  C   UNL     1      24.764 -53.213 154.519  1.00  0.00     0.000 C 
BRANCH   2   3
ATOM      3  C   UNL     1      25.832 -52.105 154.529  1.00  0.00     0.000 C 
BRANCH   3   4
ATOM      4  C   UNL     1      26.308 -51.731 153.116  1.00  0.00     0.000 C 
BRANCH   4   5
ATOM      5  C   UNL     1      27.722 -51.125 153.111  1.00  0.00     0.000 C 
BRANCH   5   6
ATOM      6  C   UNL     1      28.512 -51.483 151.843  1.00  0.00     0.006 C 
BRANCH   6   7
ATOM      7  C   UNL     1      27.894 -52.657 151.074  1.00  0.00     0.053 C 
BRANCH   7   8
ATOM      8  C   UNL     1      27.724 -52.302 149.630  1.00  0.00     0.041 C 
ATOM      9  O   UNL     1      27.782 -51.099 149.263  1.00  0.00    -0.550 OA
ATOM     10  O   UNL     1      27.546 -53.303 148.683  1.00  0.00    -0.550 OA
ENDBRANCH   7   8
ENDBRANCH   6   7
ENDBRANCH   5   6
ENDBRANCH   4   5
ENDBRANCH   3   4
ENDBRANCH   2   3
ENDBRANCH   1   2
BRANCH   1  11
ATOM     11  C   UNL     1      23.752 -52.373 156.711  1.00  0.00     0.000 C 
BRANCH  11  12
ATOM     12  C   UNL     1      22.218 -52.342 156.697  1.00  0.00    -0.000 C 
BRANCH  12  13
ATOM     13  C   UNL     1      21.696 -50.908 156.871  1.00  0.00    -0.000 C 
BRANCH  13  14
ATOM     14  C   UNL     1      20.587 -50.794 157.932  1.00  0.00    -0.000 C 
BRANCH  14  15
ATOM     15  C   UNL     1      21.063 -50.370 159.334  1.00  0.00    -0.000 C 
BRANCH  15  16
ATOM     16  C   UNL     1      21.479 -48.890 159.403  1.00  0.00    -0.000 C 
BRANCH  16  17
ATOM     17  C   UNL     1      23.003 -48.711 159.494  1.00  0.00    -0.003 C 
ATOM     18  C   UNL     1      23.493 -47.441 158.798  1.00  0.00     0.004 C 
ENDBRANCH  16  17
ENDBRANCH  15  16
ENDBRANCH  14  15
ENDBRANCH  13  14
ENDBRANCH  12  13
ENDBRANCH  11  12
ENDBRANCH   1  11
TORSDOF 14
ENDMDL
MODEL 5
REMARK VINA RESULT:    -3.161      4.716      6.194
REMARK INTER + INTRA:          -8.475
REMARK INTER:                  -7.402
REMARK INTRA:                  -1.073
REMARK UNBOUND:                -2.726
REMARK SMILES CCCCCCCCCCCCCCCC(=O)[O-]
REMARK SMILES IDX 9 1 10 2 11 3 12 4 13 5 14 6 15 7 16 8 17 9 18 10 8 11 7 12
REMARK SMILES IDX 6 13 5 14 4 15 3 16 2 17 1 18
REMARK H PARENT
REMARK Flexibility Score: inf
ROOT
ATOM      1  C   UNL     1      23.980 -52.392 156.385  1.00  0.00     0.000 C 
ENDROOT
BRANCH   1   2
ATOM      2  C   UNL     1      24.821 -53.423 155.615  1.00  0.00     0.000 C 
BRANCH   2   3
ATOM      3  C   UNL     1      24.025 -54.125 154.501  1.00  0.00     0.000 C 
BRANCH   3   4
ATOM      4  C   UNL     1      24.630 -53.892 153.107  1.00  0.00     0.000 C 
BRANCH   4   5
ATOM      5  C   UNL     1      25.507 -52.629 153.048  1.00  0.00     0.000 C 
BRANCH   5   6
ATOM      6  C   UNL     1      25.853 -52.217 151.609  1.00  0.00     0.006 C 
BRANCH   6   7
ATOM      7  C   UNL     1      26.422 -50.795 151.523  1.00  0.00     0.053 C 
BRANCH   7   8
ATOM      8  C   UNL     1      27.880 -50.797 151.858  1.00  0.00     0.041 C 
ATOM      9  O   UNL     1      28.590 -51.803 151.594  1.00  0.00    -0.550 OA
ATOM     10  O   UNL     1      28.467 -49.669 152.419  1.00  0.00    -0.550 OA
ENDBRANCH   7   8
ENDBRANCH   6   7
ENDBRANCH   5   6
ENDBRANCH   4   5
ENDBRANCH   3   4
ENDBRANCH   2   3
ENDBRANCH   1   2
BRANCH   1  11
ATOM     11  C   UNL     1      22.475 -52.694 156.323  1.00  0.00     0.000 C 
BRANCH  11  12
ATOM     12  C   UNL     1      21.774 -52.258 157.615  1.00  0.00    -0.000 C 
BRANCH  12  13
ATOM     13  C   UNL     1      21.006 -50.945 157.408  1.00  0.00    -0.000 C 
BRANCH  13  14
ATOM     14  C   UNL     1      20.506 -50.324 158.725  1.00  0.00    -0.000 C 
BRANCH  14  15
ATOM     15  C   UNL     1      21.610 -49.814 159.670  1.00  0.00    -0.000 C 
BRANCH  15  16
ATOM     16  C   UNL     1      21.990 -48.346 159.411  1.00  0.00    -0.000 C 
BRANCH  16  17
ATOM     17  C   UNL     1      23.499 -48.158 159.193  1.00  0.00    -0.003 C 
ATOM     18  C   UNL     1      24.063 -49.083 158.115  1.00  0.00     0.004 C 
ENDBRANCH  16  17
ENDBRANCH  15  16
ENDBRANCH  14  15
ENDBRANCH  13  14
ENDBRANCH  12  13
ENDBRANCH  11  12
ENDBRANCH   1  11
TORSDOF 14
ENDMDL
MODEL 6
REMARK VINA RESULT:    -3.160     12.177     14.924
REMARK INTER + INTRA:          -8.472
REMARK INTER:                  -6.110
REMARK INTRA:                  -2.362
REMARK UNBOUND:                -2.726
REMARK SMILES CCCCCCCCCCCCCCCC(=O)[O-]
REMARK SMILES IDX 9 1 10 2 11 3 12 4 13 5 14 6 15 7 16 8 17 9 18 10 8 11 7 12
REMARK SMILES IDX 6 13 5 14 4 15 3 16 2 17 1 18
REMARK H PARENT
REMARK Flexibility Score: inf
ROOT
ATOM      1  C   UNL     1      21.741 -35.276 161.155  1.00  0.00     0.000 C 
ENDROOT
BRANCH   1   2
ATOM      2  C   UNL     1      20.983 -36.609 161.065  1.00  0.00     0.000 C 
BRANCH   2   3
ATOM      3  C   UNL     1      21.391 -37.599 162.171  1.00  0.00     0.000 C 
BRANCH   3   4
ATOM      4  C   UNL     1      21.714 -38.998 161.620  1.00  0.00     0.000 C 
BRANCH   4   5
ATOM      5  C   UNL     1      21.422 -39.121 160.115  1.00  0.00     0.000 C 
BRANCH   5   6
ATOM      6  C   UNL     1      20.520 -40.320 159.784  1.00  0.00     0.006 C 
BRANCH   6   7
ATOM      7  C   UNL     1      19.185 -39.897 159.158  1.00  0.00     0.053 C 
BRANCH   7   8
ATOM      8  C   UNL     1      18.378 -39.105 160.138  1.00  0.00     0.041 C 
ATOM      9  O   UNL     1      17.791 -38.053 159.772  1.00  0.00    -0.550 OA
ATOM     10  O   UNL     1      18.236 -39.553 161.446  1.00  0.00    -0.550 OA
ENDBRANCH   7   8
ENDBRANCH   6   7
ENDBRANCH   5   6
ENDBRANCH   4   5
ENDBRANCH   3   4
ENDBRANCH   2   3
ENDBRANCH   1   2
BRANCH   1  11
ATOM     11  C   UNL     1      21.689 -34.478 159.843  1.00  0.00     0.000 C 
BRANCH  11  12
ATOM     12  C   UNL     1      23.076 -34.399 159.194  1.00  0.00    -0.000 C 
BRANCH  12  13
ATOM     13  C   UNL     1      23.080 -35.082 157.819  1.00  0.00    -0.000 C 
BRANCH  13  14
ATOM     14  C   UNL     1      22.839 -36.601 157.899  1.00  0.00    -0.000 C 
BRANCH  14  15
ATOM     15  C   UNL     1      21.818 -37.157 156.889  1.00  0.00    -0.000 C 
BRANCH  15  16
ATOM     16  C   UNL     1      20.364 -37.028 157.376  1.00  0.00    -0.000 C 
BRANCH  16  17
ATOM     17  C   UNL     1      19.652 -35.801 156.785  1.00  0.00    -0.003 C 
ATOM     18  C   UNL     1      18.641 -35.181 157.750  1.00  0.00     0.004 C 
ENDBRANCH  16  17
ENDBRANCH  15  16
ENDBRANCH  14  15
ENDBRANCH  13  14
ENDBRANCH  12  13
ENDBRANCH  11  12
ENDBRANCH   1  11
TORSDOF 14
ENDMDL
MODEL 7
REMARK VINA RESULT:    -3.154     12.949     15.643
REMARK INTER + INTRA:          -8.462
REMARK INTER:                  -6.087
REMARK INTRA:                  -2.375
REMARK UNBOUND:                -2.726
REMARK SMILES CCCCCCCCCCCCCCCC(=O)[O-]
REMARK SMILES IDX 9 1 10 2 11 3 12 4 13 5 14 6 15 7 16 8 17 9 18 10 8 11 7 12
REMARK SMILES IDX 6 13 5 14 4 15 3 16 2 17 1 18
REMARK H PARENT
REMARK Flexibility Score: inf
ROOT
ATOM      1  C   UNL     1      19.179 -36.449 157.032  1.00  0.00     0.000 C 
ENDROOT
BRANCH   1   2
ATOM      2  C   UNL     1      18.334 -35.654 158.040  1.00  0.00     0.000 C 
BRANCH   2   3
ATOM      3  C   UNL     1      18.998 -35.559 159.426  1.00  0.00     0.000 C 
BRANCH   3   4
ATOM      4  C   UNL     1      18.053 -35.979 160.563  1.00  0.00     0.000 C 
BRANCH   4   5
ATOM      5  C   UNL     1      16.614 -36.223 160.074  1.00  0.00     0.000 C 
BRANCH   5   6
ATOM      6  C   UNL     1      16.078 -37.603 160.485  1.00  0.00     0.006 C 
BRANCH   6   7
ATOM      7  C   UNL     1      15.548 -37.625 161.925  1.00  0.00     0.053 C 
BRANCH   7   8
ATOM      8  C   UNL     1      14.052 -37.567 161.929  1.00  0.00     0.041 C 
ATOM      9  O   UNL     1      13.461 -36.469 162.105  1.00  0.00    -0.550 OA
ATOM     10  O   UNL     1      13.311 -38.718 161.692  1.00  0.00    -0.550 OA
ENDBRANCH   7   8
ENDBRANCH   6   7
ENDBRANCH   5   6
ENDBRANCH   4   5
ENDBRANCH   3   4
ENDBRANCH   2   3
ENDBRANCH   1   2
BRANCH   1  11
ATOM     11  C   UNL     1      20.688 -36.300 157.279  1.00  0.00     0.000 C 
BRANCH  11  12
ATOM     12  C   UNL     1      21.378 -37.670 157.300  1.00  0.00    -0.000 C 
BRANCH  12  13
ATOM     13  C   UNL     1      22.163 -37.871 158.605  1.00  0.00    -0.000 C 
BRANCH  13  14
ATOM     14  C   UNL     1      21.650 -39.057 159.441  1.00  0.00    -0.000 C 
BRANCH  14  15
ATOM     15  C   UNL     1      20.653 -38.691 160.556  1.00  0.00    -0.000 C 
BRANCH  15  16
ATOM     16  C   UNL     1      19.304 -39.418 160.415  1.00  0.00    -0.000 C 
BRANCH  16  17
ATOM     17  C   UNL     1      19.222 -40.266 159.137  1.00  0.00    -0.003 C 
ATOM     18  C   UNL     1      18.260 -39.686 158.100  1.00  0.00     0.004 C 
ENDBRANCH  16  17
ENDBRANCH  15  16
ENDBRANCH  14  15
ENDBRANCH  13  14
ENDBRANCH  12  13
ENDBRANCH  11  12
ENDBRANCH   1  11
TORSDOF 14
ENDMDL
MODEL 8
REMARK VINA RESULT:    -3.047     12.935     15.301
REMARK INTER + INTRA:          -8.266
REMARK INTER:                  -5.823
REMARK INTRA:                  -2.443
REMARK UNBOUND:                -2.726
REMARK SMILES CCCCCCCCCCCCCCCC(=O)[O-]
REMARK SMILES IDX 9 1 10 2 11 3 12 4 13 5 14 6 15 7 16 8 17 9 18 10 8 11 7 12
REMARK SMILES IDX 6 13 5 14 4 15 3 16 2 17 1 18
REMARK H PARENT
REMARK Flexibility Score: inf
ROOT
ATOM      1  C   UNL     1      22.129 -37.832 159.043  1.00  0.00     0.000 C 
ENDROOT
BRANCH   1   2
ATOM      2  C   UNL     1      21.899 -39.300 159.433  1.00  0.00     0.000 C 
BRANCH   2   3
ATOM      3  C   UNL     1      21.194 -39.449 160.793  1.00  0.00     0.000 C 
BRANCH   3   4
ATOM      4  C   UNL     1      19.679 -39.206 160.701  1.00  0.00     0.000 C 
BRANCH   4   5
ATOM      5  C   UNL     1      19.058 -39.828 159.438  1.00  0.00     0.000 C 
BRANCH   5   6
ATOM      6  C   UNL     1      18.415 -38.778 158.518  1.00  0.00     0.006 C 
BRANCH   6   7
ATOM      7  C   UNL     1      18.506 -37.358 159.090  1.00  0.00     0.053 C 
BRANCH   7   8
ATOM      8  C   UNL     1      18.427 -36.347 157.989  1.00  0.00     0.041 C 
ATOM      9  O   UNL     1      18.822 -36.641 156.830  1.00  0.00    -0.550 OA
ATOM     10  O   UNL     1      17.875 -35.096 158.231  1.00  0.00    -0.550 OA
ENDBRANCH   7   8
ENDBRANCH   6   7
ENDBRANCH   5   6
ENDBRANCH   4   5
ENDBRANCH   3   4
ENDBRANCH   2   3
ENDBRANCH   1   2
BRANCH   1  11
ATOM     11  C   UNL     1      22.070 -37.609 157.524  1.00  0.00     0.000 C 
BRANCH  11  12
ATOM     12  C   UNL     1      22.302 -36.133 157.176  1.00  0.00    -0.000 C 
BRANCH  12  13
ATOM     13  C   UNL     1      23.410 -35.530 158.051  1.00  0.00    -0.000 C 
BRANCH  13  14
ATOM     14  C   UNL     1      22.946 -34.299 158.850  1.00  0.00    -0.000 C 
BRANCH  14  15
ATOM     15  C   UNL     1      21.424 -34.063 158.866  1.00  0.00    -0.000 C 
BRANCH  15  16
ATOM     16  C   UNL     1      20.775 -34.433 160.211  1.00  0.00    -0.000 C 
BRANCH  16  17
ATOM     17  C   UNL     1      21.807 -34.872 161.262  1.00  0.00    -0.003 C 
ATOM     18  C   UNL     1      21.301 -36.008 162.150  1.00  0.00     0.004 C 
ENDBRANCH  16  17
ENDBRANCH  15  16
ENDBRANCH  14  15
ENDBRANCH  13  14
ENDBRANCH  12  13
ENDBRANCH  11  12
ENDBRANCH   1  11
TORSDOF 14
ENDMDL
MODEL 9
REMARK VINA RESULT:    -3.004     12.723     15.288
REMARK INTER + INTRA:          -8.189
REMARK INTER:                  -5.419
REMARK INTRA:                  -2.770
REMARK UNBOUND:                -2.726
REMARK SMILES CCCCCCCCCCCCCCCC(=O)[O-]
REMARK SMILES IDX 9 1 10 2 11 3 12 4 13 5 14 6 15 7 16 8 17 9 18 10 8 11 7 12
REMARK SMILES IDX 6 13 5 14 4 15 3 16 2 17 1 18
REMARK H PARENT
REMARK Flexibility Score: inf
ROOT
ATOM      1  C   UNL     1      20.891 -38.770 161.925  1.00  0.00     0.000 C 
ENDROOT
BRANCH   1   2
ATOM      2  C   UNL     1      21.103 -37.291 162.285  1.00  0.00     0.000 C 
BRANCH   2   3
ATOM      3  C   UNL     1      21.270 -36.396 161.044  1.00  0.00     0.000 C 
BRANCH   3   4
ATOM      4  C   UNL     1      19.991 -35.614 160.705  1.00  0.00     0.000 C 
BRANCH   4   5
ATOM      5  C   UNL     1      18.951 -35.665 161.837  1.00  0.00     0.000 C 
BRANCH   5   6
ATOM      6  C   UNL     1      17.588 -36.191 161.363  1.00  0.00     0.006 C 
BRANCH   6   7
ATOM      7  C   UNL     1      17.084 -37.370 162.207  1.00  0.00     0.053 C 
BRANCH   7   8
ATOM      8  C   UNL     1      15.737 -37.813 161.729  1.00  0.00     0.041 C 
ATOM      9  O   UNL     1      15.409 -37.657 160.524  1.00  0.00    -0.550 OA
ATOM     10  O   UNL     1      14.861 -38.441 162.605  1.00  0.00    -0.550 OA
ENDBRANCH   7   8
ENDBRANCH   6   7
ENDBRANCH   5   6
ENDBRANCH   4   5
ENDBRANCH   3   4
ENDBRANCH   2   3
ENDBRANCH   1   2
BRANCH   1  11
ATOM     11  C   UNL     1      21.547 -39.152 160.589  1.00  0.00     0.000 C 
BRANCH  11  12
ATOM     12  C   UNL     1      20.601 -40.010 159.740  1.00  0.00    -0.000 C 
BRANCH  12  13
ATOM     13  C   UNL     1      19.133 -39.722 160.089  1.00  0.00    -0.000 C 
BRANCH  13  14
ATOM     14  C   UNL     1      18.426 -38.841 159.042  1.00  0.00    -0.000 C 
BRANCH  14  15
ATOM     15  C   UNL     1      19.248 -38.540 157.776  1.00  0.00    -0.000 C 
BRANCH  15  16
ATOM     16  C   UNL     1      19.248 -37.048 157.402  1.00  0.00    -0.000 C 
BRANCH  16  17
ATOM     17  C   UNL     1      20.668 -36.480 157.243  1.00  0.00    -0.003 C 
ATOM     18  C   UNL     1      21.730 -37.570 157.104  1.00  0.00     0.004 C 
ENDBRANCH  16  17
ENDBRANCH  15  16
ENDBRANCH  14  15
ENDBRANCH  13  14
ENDBRANCH  12  13
ENDBRANCH  11  12
ENDBRANCH   1  11
TORSDOF 14
ENDMDL
