MODEL 1
REMARK VINA RESULT:    -3.546      0.000      0.000
REMARK INTER + INTRA:         -14.708
REMARK INTER:                  -9.350
REMARK INTRA:                  -5.357
REMARK UNBOUND:                -5.357
REMARK SMILES CCCCCCCCCCCCCCCCCCCCCCCCCCCCCC(=O)[O-]
REMARK SMILES IDX 16 1 17 2 18 3 19 4 20 5 21 6 22 7 23 8 24 9 25 10 26 11
REMARK SMILES IDX 27 12 28 13 29 14 30 15 31 16 32 17 15 18 14 19 13 20 12 21
REMARK SMILES IDX 11 22 10 23 9 24 8 25 7 26 6 27 5 28 4 29 3 30 2 31 1 32
REMARK H PARENT
REMARK Flexibility Score: inf
ROOT
ATOM      1  C   UNL     1     301.070 323.589 647.568  1.00  0.00     0.000 C 
ENDROOT
BRANCH   1   2
ATOM      2  C   UNL     1     299.796 324.445 647.460  1.00  0.00     0.000 C 
BRANCH   2   3
ATOM      3  C   UNL     1     299.150 324.438 646.060  1.00  0.00     0.000 C 
BRANCH   3   4
ATOM      4  C   UNL     1     300.022 325.158 645.015  1.00  0.00     0.000 C 
BRANCH   4   5
ATOM      5  C   UNL     1     300.599 324.200 643.961  1.00  0.00     0.000 C 
BRANCH   5   6
ATOM      6  C   UNL     1     302.122 324.032 644.092  1.00  0.00     0.000 C 
BRANCH   6   7
ATOM      7  C   UNL     1     302.880 324.297 642.776  1.00  0.00     0.000 C 
BRANCH   7   8
ATOM      8  C   UNL     1     304.111 323.401 642.519  1.00  0.00     0.000 C 
BRANCH   8   9
ATOM      9  C   UNL     1     304.105 322.055 643.278  1.00  0.00     0.000 C 
BRANCH   9  10
ATOM     10  C   UNL     1     304.168 320.819 642.362  1.00  0.00     0.000 C 
BRANCH  10  11
ATOM     11  C   UNL     1     302.820 320.124 642.119  1.00  0.00     0.000 C 
BRANCH  11  12
ATOM     12  C   UNL     1     302.044 320.725 640.937  1.00  0.00     0.000 C 
BRANCH  12  13
ATOM     13  C   UNL     1     300.811 321.500 641.425  1.00  0.00     0.006 C 
BRANCH  13  14
ATOM     14  C   UNL     1     300.024 322.128 640.268  1.00  0.00     0.053 C 
BRANCH  14  15
ATOM     15  C   UNL     1     300.602 323.449 639.860  1.00  0.00     0.041 C 
ATOM     16  O   UNL     1     300.233 324.508 640.433  1.00  0.00    -0.550 OA
ATOM     17  O   UNL     1     301.525 323.514 638.822  1.00  0.00    -0.550 OA
ENDBRANCH  14  15
ENDBRANCH  13  14
ENDBRANCH  12  13
ENDBRANCH  11  12
ENDBRANCH  10  11
ENDBRANCH   9  10
ENDBRANCH   8   9
ENDBRANCH   7   8
ENDBRANCH   6   7
ENDBRANCH   5   6
ENDBRANCH   4   5
ENDBRANCH   3   4
ENDBRANCH   2   3
ENDBRANCH   1   2
BRANCH   1  18
ATOM     18  C   UNL     1     302.324 324.419 647.883  1.00  0.00     0.000 C 
BRANCH  18  19
ATOM     19  C   UNL     1     303.429 323.606 648.581  1.00  0.00     0.000 C 
BRANCH  19  20
ATOM     20  C   UNL     1     303.879 322.329 647.839  1.00  0.00     0.000 C 
BRANCH  20  21
ATOM     21  C   UNL     1     304.877 321.441 648.605  1.00  0.00     0.000 C 
BRANCH  21  22
ATOM     22  C   UNL     1     304.973 321.805 650.097  1.00  0.00     0.000 C 
BRANCH  22  23
ATOM     23  C   UNL     1     306.416 322.091 650.548  1.00  0.00     0.000 C 
BRANCH  23  24
ATOM     24  C   UNL     1     307.454 322.160 649.406  1.00  0.00    -0.000 C 
BRANCH  24  25
ATOM     25  C   UNL     1     308.063 323.553 649.153  1.00  0.00    -0.000 C 
BRANCH  25  26
ATOM     26  C   UNL     1     307.042 324.679 648.901  1.00  0.00    -0.000 C 
BRANCH  26  27
ATOM     27  C   UNL     1     307.093 325.259 647.472  1.00  0.00    -0.000 C 
BRANCH  27  28
ATOM     28  C   UNL     1     306.781 324.211 646.394  1.00  0.00    -0.000 C 
BRANCH  28  29
ATOM     29  C   UNL     1     305.523 324.593 645.605  1.00  0.00    -0.000 C 
BRANCH  29  30
ATOM     30  C   UNL     1     305.490 326.103 645.321  1.00  0.00    -0.000 C 
BRANCH  30  31
ATOM     31  C   UNL     1     304.130 326.738 645.645  1.00  0.00    -0.003 C 
ATOM     32  C   UNL     1     304.140 327.524 646.956  1.00  0.00     0.004 C 
ENDBRANCH  30  31
ENDBRANCH  29  30
ENDBRANCH  28  29
ENDBRANCH  27  28
ENDBRANCH  26  27
ENDBRANCH  25  26
ENDBRANCH  24  25
ENDBRANCH  23  24
ENDBRANCH  22  23
ENDBRANCH  21  22
ENDBRANCH  20  21
ENDBRANCH  19  20
ENDBRANCH  18  19
ENDBRANCH   1  18
TORSDOF 28
ENDMDL
MODEL 2
REMARK VINA RESULT:    -3.533      5.144      8.735
REMARK INTER + INTRA:         -14.674
REMARK INTER:                  -8.972
REMARK INTRA:                  -5.702
REMARK UNBOUND:                -5.357
REMARK SMILES CCCCCCCCCCCCCCCCCCCCCCCCCCCCCC(=O)[O-]
REMARK SMILES IDX 16 1 17 2 18 3 19 4 20 5 21 6 22 7 23 8 24 9 25 10 26 11
REMARK SMILES IDX 27 12 28 13 29 14 30 15 31 16 32 17 15 18 14 19 13 20 12 21
REMARK SMILES IDX 11 22 10 23 9 24 8 25 7 26 6 27 5 28 4 29 3 30 2 31 1 32
REMARK H PARENT
REMARK Flexibility Score: inf
ROOT
ATOM      1  C   UNL     1     304.362 328.775 644.069  1.00  0.00     0.000 C 
ENDROOT
BRANCH   1   2
ATOM      2  C   UNL     1     303.032 329.388 643.595  1.00  0.00     0.000 C 
BRANCH   2   3
ATOM      3  C   UNL     1     302.494 330.507 644.509  1.00  0.00     0.000 C 
BRANCH   3   4
ATOM      4  C   UNL     1     301.159 330.121 645.173  1.00  0.00     0.000 C 
BRANCH   4   5
ATOM      5  C   UNL     1     300.649 328.742 644.723  1.00  0.00     0.000 C 
BRANCH   5   6
ATOM      6  C   UNL     1     299.250 328.814 644.091  1.00  0.00     0.000 C 
BRANCH   6   7
ATOM      7  C   UNL     1     298.875 330.226 643.598  1.00  0.00     0.000 C 
BRANCH   7   8
ATOM      8  C   UNL     1     299.249 330.548 642.134  1.00  0.00     0.000 C 
BRANCH   8   9
ATOM      9  C   UNL     1     299.977 331.895 641.932  1.00  0.00     0.000 C 
BRANCH   9  10
ATOM     10  C   UNL     1     299.825 332.873 643.114  1.00  0.00     0.000 C 
BRANCH  10  11
ATOM     11  C   UNL     1     301.057 333.748 643.391  1.00  0.00     0.000 C 
BRANCH  11  12
ATOM     12  C   UNL     1     300.724 335.001 644.213  1.00  0.00     0.000 C 
BRANCH  12  13
ATOM     13  C   UNL     1     301.549 335.044 645.509  1.00  0.00     0.006 C 
BRANCH  13  14
ATOM     14  C   UNL     1     301.495 333.717 646.276  1.00  0.00     0.053 C 
BRANCH  14  15
ATOM     15  C   UNL     1     302.859 333.268 646.702  1.00  0.00     0.041 C 
ATOM     16  O   UNL     1     303.886 333.770 646.174  1.00  0.00    -0.550 OA
ATOM     17  O   UNL     1     302.995 332.271 647.661  1.00  0.00    -0.550 OA
ENDBRANCH  14  15
ENDBRANCH  13  14
ENDBRANCH  12  13
ENDBRANCH  11  12
ENDBRANCH  10  11
ENDBRANCH   9  10
ENDBRANCH   8   9
ENDBRANCH   7   8
ENDBRANCH   6   7
ENDBRANCH   5   6
ENDBRANCH   4   5
ENDBRANCH   3   4
ENDBRANCH   2   3
ENDBRANCH   1   2
BRANCH   1  18
ATOM     18  C   UNL     1     304.203 327.348 644.614  1.00  0.00     0.000 C 
BRANCH  18  19
ATOM     19  C   UNL     1     303.789 327.308 646.096  1.00  0.00     0.000 C 
BRANCH  19  20
ATOM     20  C   UNL     1     302.701 326.272 646.451  1.00  0.00     0.000 C 
BRANCH  20  21
ATOM     21  C   UNL     1     303.218 324.853 646.753  1.00  0.00     0.000 C 
BRANCH  21  22
ATOM     22  C   UNL     1     302.470 324.184 647.919  1.00  0.00     0.000 C 
BRANCH  22  23
ATOM     23  C   UNL     1     301.090 323.639 647.507  1.00  0.00     0.000 C 
BRANCH  23  24
ATOM     24  C   UNL     1     299.889 324.485 647.981  1.00  0.00    -0.000 C 
BRANCH  24  25
ATOM     25  C   UNL     1     299.188 325.307 646.882  1.00  0.00    -0.000 C 
BRANCH  25  26
ATOM     26  C   UNL     1     298.947 324.559 645.557  1.00  0.00    -0.000 C 
BRANCH  26  27
ATOM     27  C   UNL     1     299.773 325.102 644.372  1.00  0.00    -0.000 C 
BRANCH  27  28
ATOM     28  C   UNL     1     300.818 324.096 643.866  1.00  0.00    -0.000 C 
BRANCH  28  29
ATOM     29  C   UNL     1     301.909 324.802 643.051  1.00  0.00    -0.000 C 
BRANCH  29  30
ATOM     30  C   UNL     1     301.437 326.189 642.588  1.00  0.00    -0.000 C 
BRANCH  30  31
ATOM     31  C   UNL     1     301.519 326.365 641.064  1.00  0.00    -0.003 C 
ATOM     32  C   UNL     1     301.376 327.822 640.626  1.00  0.00     0.004 C 
ENDBRANCH  30  31
ENDBRANCH  29  30
ENDBRANCH  28  29
ENDBRANCH  27  28
ENDBRANCH  26  27
ENDBRANCH  25  26
ENDBRANCH  24  25
ENDBRANCH  23  24
ENDBRANCH  22  23
ENDBRANCH  21  22
ENDBRANCH  20  21
ENDBRANCH  19  20
ENDBRANCH  18  19
ENDBRANCH   1  18
TORSDOF 28
ENDMDL
MODEL 3
REMARK VINA RESULT:    -3.483      4.689      7.873
REMARK INTER + INTRA:         -14.542
REMARK INTER:                  -9.871
REMARK INTRA:                  -4.671
REMARK UNBOUND:                -5.357
REMARK SMILES CCCCCCCCCCCCCCCCCCCCCCCCCCCCCC(=O)[O-]
REMARK SMILES IDX 16 1 17 2 18 3 19 4 20 5 21 6 22 7 23 8 24 9 25 10 26 11
REMARK SMILES IDX 27 12 28 13 29 14 30 15 31 16 32 17 15 18 14 19 13 20 12 21
REMARK SMILES IDX 11 22 10 23 9 24 8 25 7 26 6 27 5 28 4 29 3 30 2 31 1 32
REMARK H PARENT
REMARK Flexibility Score: inf
ROOT
ATOM      1  C   UNL     1     302.109 324.149 644.072  1.00  0.00     0.000 C 
ENDROOT
BRANCH   1   2
ATOM      2  C   UNL     1     302.623 325.600 644.090  1.00  0.00     0.000 C 
BRANCH   2   3
ATOM      3  C   UNL     1     303.765 325.850 645.096  1.00  0.00     0.000 C 
BRANCH   3   4
ATOM      4  C   UNL     1     303.395 326.923 646.136  1.00  0.00     0.000 C 
BRANCH   4   5
ATOM      5  C   UNL     1     302.302 327.882 645.637  1.00  0.00     0.000 C 
BRANCH   5   6
ATOM      6  C   UNL     1     302.854 329.278 645.304  1.00  0.00     0.000 C 
BRANCH   6   7
ATOM      7  C   UNL     1     301.751 330.324 645.048  1.00  0.00     0.000 C 
BRANCH   7   8
ATOM      8  C   UNL     1     300.382 329.762 644.606  1.00  0.00     0.000 C 
BRANCH   8   9
ATOM      9  C   UNL     1     299.322 330.832 644.261  1.00  0.00     0.000 C 
BRANCH   9  10
ATOM     10  C   UNL     1     299.533 331.502 642.889  1.00  0.00     0.000 C 
BRANCH  10  11
ATOM     11  C   UNL     1     300.163 332.902 642.943  1.00  0.00     0.000 C 
BRANCH  11  12
ATOM     12  C   UNL     1     299.820 333.660 644.234  1.00  0.00     0.000 C 
BRANCH  12  13
ATOM     13  C   UNL     1     301.046 334.412 644.773  1.00  0.00     0.006 C 
BRANCH  13  14
ATOM     14  C   UNL     1     301.512 333.867 646.128  1.00  0.00     0.053 C 
BRANCH  14  15
ATOM     15  C   UNL     1     302.991 334.023 646.308  1.00  0.00     0.041 C 
ATOM     16  O   UNL     1     303.468 335.110 646.730  1.00  0.00    -0.550 OA
ATOM     17  O   UNL     1     303.847 332.979 645.979  1.00  0.00    -0.550 OA
ENDBRANCH  14  15
ENDBRANCH  13  14
ENDBRANCH  12  13
ENDBRANCH  11  12
ENDBRANCH  10  11
ENDBRANCH   9  10
ENDBRANCH   8   9
ENDBRANCH   7   8
ENDBRANCH   6   7
ENDBRANCH   5   6
ENDBRANCH   4   5
ENDBRANCH   3   4
ENDBRANCH   2   3
ENDBRANCH   1   2
BRANCH   1  18
ATOM     18  C   UNL     1     300.578 324.058 643.975  1.00  0.00     0.000 C 
BRANCH  18  19
ATOM     19  C   UNL     1     299.869 325.373 644.342  1.00  0.00     0.000 C 
BRANCH  19  20
ATOM     20  C   UNL     1     299.029 325.331 645.637  1.00  0.00     0.000 C 
BRANCH  20  21
ATOM     21  C   UNL     1     299.826 325.492 646.945  1.00  0.00     0.000 C 
BRANCH  21  22
ATOM     22  C   UNL     1     299.914 324.186 647.752  1.00  0.00     0.000 C 
BRANCH  22  23
ATOM     23  C   UNL     1     301.277 323.485 647.605  1.00  0.00     0.000 C 
BRANCH  23  24
ATOM     24  C   UNL     1     302.483 324.292 648.133  1.00  0.00    -0.000 C 
BRANCH  24  25
ATOM     25  C   UNL     1     303.632 323.450 648.719  1.00  0.00    -0.000 C 
BRANCH  25  26
ATOM     26  C   UNL     1     304.020 322.206 647.896  1.00  0.00    -0.000 C 
BRANCH  26  27
ATOM     27  C   UNL     1     304.624 322.533 646.515  1.00  0.00    -0.000 C 
BRANCH  27  28
ATOM     28  C   UNL     1     306.110 322.157 646.413  1.00  0.00    -0.000 C 
BRANCH  28  29
ATOM     29  C   UNL     1     307.002 323.391 646.595  1.00  0.00    -0.000 C 
BRANCH  29  30
ATOM     30  C   UNL     1     307.484 323.509 648.050  1.00  0.00    -0.000 C 
BRANCH  30  31
ATOM     31  C   UNL     1     307.115 324.856 648.689  1.00  0.00    -0.003 C 
ATOM     32  C   UNL     1     306.584 325.869 647.675  1.00  0.00     0.004 C 
ENDBRANCH  30  31
ENDBRANCH  29  30
ENDBRANCH  28  29
ENDBRANCH  27  28
ENDBRANCH  26  27
ENDBRANCH  25  26
ENDBRANCH  24  25
ENDBRANCH  23  24
ENDBRANCH  22  23
ENDBRANCH  21  22
ENDBRANCH  20  21
ENDBRANCH  19  20
ENDBRANCH  18  19
ENDBRANCH   1  18
TORSDOF 28
ENDMDL
MODEL 4
REMARK VINA RESULT:    -3.443      4.618      8.140
REMARK INTER + INTRA:         -14.437
REMARK INTER:                 -10.152
REMARK INTRA:                  -4.285
REMARK UNBOUND:                -5.357
REMARK SMILES CCCCCCCCCCCCCCCCCCCCCCCCCCCCCC(=O)[O-]
REMARK SMILES IDX 16 1 17 2 18 3 19 4 20 5 21 6 22 7 23 8 24 9 25 10 26 11
REMARK SMILES IDX 27 12 28 13 29 14 30 15 31 16 32 17 15 18 14 19 13 20 12 21
REMARK SMILES IDX 11 22 10 23 9 24 8 25 7 26 6 27 5 28 4 29 3 30 2 31 1 32
REMARK H PARENT
REMARK Flexibility Score: inf
ROOT
ATOM      1  C   UNL     1     303.848 324.166 643.850  1.00  0.00     0.000 C 
ENDROOT
BRANCH   1   2
ATOM      2  C   UNL     1     304.714 325.091 644.723  1.00  0.00     0.000 C 
BRANCH   2   3
ATOM      3  C   UNL     1     304.883 326.515 644.156  1.00  0.00     0.000 C 
BRANCH   3   4
ATOM      4  C   UNL     1     304.778 327.592 645.251  1.00  0.00     0.000 C 
BRANCH   4   5
ATOM      5  C   UNL     1     303.676 327.288 646.278  1.00  0.00     0.000 C 
BRANCH   5   6
ATOM      6  C   UNL     1     302.266 327.525 645.712  1.00  0.00     0.000 C 
BRANCH   6   7
ATOM      7  C   UNL     1     302.175 328.767 644.804  1.00  0.00     0.000 C 
BRANCH   7   8
ATOM      8  C   UNL     1     301.069 328.733 643.727  1.00  0.00     0.000 C 
BRANCH   8   9
ATOM      9  C   UNL     1     299.649 329.058 644.244  1.00  0.00     0.000 C 
BRANCH   9  10
ATOM     10  C   UNL     1     299.169 330.481 643.900  1.00  0.00     0.000 C 
BRANCH  10  11
ATOM     11  C   UNL     1     299.981 331.612 644.549  1.00  0.00     0.000 C 
BRANCH  11  12
ATOM     12  C   UNL     1     299.980 332.901 643.714  1.00  0.00     0.000 C 
BRANCH  12  13
ATOM     13  C   UNL     1     299.965 334.143 644.618  1.00  0.00     0.006 C 
BRANCH  13  14
ATOM     14  C   UNL     1     301.062 334.095 645.689  1.00  0.00     0.053 C 
BRANCH  14  15
ATOM     15  C   UNL     1     302.151 335.086 645.411  1.00  0.00     0.041 C 
ATOM     16  O   UNL     1     303.359 334.755 645.542  1.00  0.00    -0.550 OA
ATOM     17  O   UNL     1     301.830 336.386 645.041  1.00  0.00    -0.550 OA
ENDBRANCH  14  15
ENDBRANCH  13  14
ENDBRANCH  12  13
ENDBRANCH  11  12
ENDBRANCH  10  11
ENDBRANCH   9  10
ENDBRANCH   8   9
ENDBRANCH   7   8
ENDBRANCH   6   7
ENDBRANCH   5   6
ENDBRANCH   4   5
ENDBRANCH   3   4
ENDBRANCH   2   3
ENDBRANCH   1   2
BRANCH   1  18
ATOM     18  C   UNL     1     302.469 323.882 644.464  1.00  0.00     0.000 C 
BRANCH  18  19
ATOM     19  C   UNL     1     301.343 324.728 643.842  1.00  0.00     0.000 C 
BRANCH  19  20
ATOM     20  C   UNL     1     299.912 324.351 644.285  1.00  0.00     0.000 C 
BRANCH  20  21
ATOM     21  C   UNL     1     299.154 325.444 645.060  1.00  0.00     0.000 C 
BRANCH  21  22
ATOM     22  C   UNL     1     299.415 325.388 646.575  1.00  0.00     0.000 C 
BRANCH  22  23
ATOM     23  C   UNL     1     299.381 323.953 647.132  1.00  0.00     0.000 C 
BRANCH  23  24
ATOM     24  C   UNL     1     300.680 323.495 647.828  1.00  0.00    -0.000 C 
BRANCH  24  25
ATOM     25  C   UNL     1     301.861 324.480 647.733  1.00  0.00    -0.000 C 
BRANCH  25  26
ATOM     26  C   UNL     1     303.190 323.971 648.324  1.00  0.00    -0.000 C 
BRANCH  26  27
ATOM     27  C   UNL     1     303.464 322.477 648.050  1.00  0.00    -0.000 C 
BRANCH  27  28
ATOM     28  C   UNL     1     304.603 322.258 647.043  1.00  0.00    -0.000 C 
BRANCH  28  29
ATOM     29  C   UNL     1     305.950 322.689 647.636  1.00  0.00    -0.000 C 
BRANCH  29  30
ATOM     30  C   UNL     1     306.483 321.630 648.614  1.00  0.00    -0.000 C 
BRANCH  30  31
ATOM     31  C   UNL     1     306.602 322.158 650.052  1.00  0.00    -0.003 C 
ATOM     32  C   UNL     1     305.989 321.212 651.084  1.00  0.00     0.004 C 
ENDBRANCH  30  31
ENDBRANCH  29  30
ENDBRANCH  28  29
ENDBRANCH  27  28
ENDBRANCH  26  27
ENDBRANCH  25  26
ENDBRANCH  24  25
ENDBRANCH  23  24
ENDBRANCH  22  23
ENDBRANCH  21  22
ENDBRANCH  20  21
ENDBRANCH  19  20
ENDBRANCH  18  19
ENDBRANCH   1  18
TORSDOF 28
ENDMDL
MODEL 5
REMARK VINA RESULT:    -3.425      4.808      8.567
REMARK INTER + INTRA:         -14.389
REMARK INTER:                  -9.503
REMARK INTRA:                  -4.887
REMARK UNBOUND:                -5.357
REMARK SMILES CCCCCCCCCCCCCCCCCCCCCCCCCCCCCC(=O)[O-]
REMARK SMILES IDX 16 1 17 2 18 3 19 4 20 5 21 6 22 7 23 8 24 9 25 10 26 11
REMARK SMILES IDX 27 12 28 13 29 14 30 15 31 16 32 17 15 18 14 19 13 20 12 21
REMARK SMILES IDX 11 22 10 23 9 24 8 25 7 26 6 27 5 28 4 29 3 30 2 31 1 32
REMARK H PARENT
REMARK Flexibility Score: inf
ROOT
ATOM      1  C   UNL     1     303.534 326.488 645.677  1.00  0.00     0.000 C 
ENDROOT
BRANCH   1   2
ATOM      2  C   UNL     1     303.908 325.920 644.296  1.00  0.00     0.000 C 
BRANCH   2   3
ATOM      3  C   UNL     1     303.330 324.519 644.014  1.00  0.00     0.000 C 
BRANCH   3   4
ATOM      4  C   UNL     1     302.152 324.566 643.023  1.00  0.00     0.000 C 
BRANCH   4   5
ATOM      5  C   UNL     1     300.788 324.415 643.715  1.00  0.00     0.000 C 
BRANCH   5   6
ATOM      6  C   UNL     1     299.977 325.721 643.701  1.00  0.00     0.000 C 
BRANCH   6   7
ATOM      7  C   UNL     1     299.083 325.897 644.945  1.00  0.00     0.000 C 
BRANCH   7   8
ATOM      8  C   UNL     1     299.192 324.786 646.012  1.00  0.00     0.000 C 
BRANCH   8   9
ATOM      9  C   UNL     1     299.615 325.274 647.416  1.00  0.00     0.000 C 
BRANCH   9  10
ATOM     10  C   UNL     1     300.778 324.474 648.033  1.00  0.00     0.000 C 
BRANCH  10  11
ATOM     11  C   UNL     1     301.625 323.684 647.024  1.00  0.00     0.000 C 
BRANCH  11  12
ATOM     12  C   UNL     1     302.828 322.986 647.674  1.00  0.00     0.000 C 
BRANCH  12  13
ATOM     13  C   UNL     1     303.837 324.013 648.211  1.00  0.00     0.006 C 
BRANCH  13  14
ATOM     14  C   UNL     1     305.195 323.379 648.535  1.00  0.00     0.053 C 
BRANCH  14  15
ATOM     15  C   UNL     1     305.061 322.256 649.518  1.00  0.00     0.041 C 
ATOM     16  O   UNL     1     304.992 322.497 650.752  1.00  0.00    -0.550 OA
ATOM     17  O   UNL     1     305.047 320.939 649.072  1.00  0.00    -0.550 OA
ENDBRANCH  14  15
ENDBRANCH  13  14
ENDBRANCH  12  13
ENDBRANCH  11  12
ENDBRANCH  10  11
ENDBRANCH   9  10
ENDBRANCH   8   9
ENDBRANCH   7   8
ENDBRANCH   6   7
ENDBRANCH   5   6
ENDBRANCH   4   5
ENDBRANCH   3   4
ENDBRANCH   2   3
ENDBRANCH   1   2
BRANCH   1  18
ATOM     18  C   UNL     1     302.423 327.546 645.608  1.00  0.00     0.000 C 
BRANCH  18  19
ATOM     19  C   UNL     1     302.672 328.616 644.531  1.00  0.00     0.000 C 
BRANCH  19  20
ATOM     20  C   UNL     1     301.401 329.211 643.884  1.00  0.00     0.000 C 
BRANCH  20  21
ATOM     21  C   UNL     1     300.255 329.530 644.861  1.00  0.00     0.000 C 
BRANCH  21  22
ATOM     22  C   UNL     1     299.293 330.601 644.319  1.00  0.00     0.000 C 
BRANCH  22  23
ATOM     23  C   UNL     1     299.557 330.945 642.842  1.00  0.00     0.000 C 
BRANCH  23  24
ATOM     24  C   UNL     1     299.529 332.453 642.510  1.00  0.00    -0.000 C 
BRANCH  24  25
ATOM     25  C   UNL     1     300.682 333.281 643.111  1.00  0.00    -0.000 C 
BRANCH  25  26
ATOM     26  C   UNL     1     300.307 334.129 644.342  1.00  0.00    -0.000 C 
BRANCH  26  27
ATOM     27  C   UNL     1     301.154 333.822 645.595  1.00  0.00    -0.000 C 
BRANCH  27  28
ATOM     28  C   UNL     1     302.213 332.738 645.344  1.00  0.00    -0.000 C 
BRANCH  28  29
ATOM     29  C   UNL     1     302.625 332.060 646.656  1.00  0.00    -0.000 C 
BRANCH  29  30
ATOM     30  C   UNL     1     303.940 331.284 646.484  1.00  0.00    -0.000 C 
BRANCH  30  31
ATOM     31  C   UNL     1     305.094 332.174 645.998  1.00  0.00    -0.003 C 
ATOM     32  C   UNL     1     305.565 333.168 647.058  1.00  0.00     0.004 C 
ENDBRANCH  30  31
ENDBRANCH  29  30
ENDBRANCH  28  29
ENDBRANCH  27  28
ENDBRANCH  26  27
ENDBRANCH  25  26
ENDBRANCH  24  25
ENDBRANCH  23  24
ENDBRANCH  22  23
ENDBRANCH  21  22
ENDBRANCH  20  21
ENDBRANCH  19  20
ENDBRANCH  18  19
ENDBRANCH   1  18
TORSDOF 28
ENDMDL
MODEL 6
REMARK VINA RESULT:    -3.420      4.160      8.465
REMARK INTER + INTRA:         -14.376
REMARK INTER:                  -9.097
REMARK INTRA:                  -5.279
REMARK UNBOUND:                -5.357
REMARK SMILES CCCCCCCCCCCCCCCCCCCCCCCCCCCCCC(=O)[O-]
REMARK SMILES IDX 16 1 17 2 18 3 19 4 20 5 21 6 22 7 23 8 24 9 25 10 26 11
REMARK SMILES IDX 27 12 28 13 29 14 30 15 31 16 32 17 15 18 14 19 13 20 12 21
REMARK SMILES IDX 11 22 10 23 9 24 8 25 7 26 6 27 5 28 4 29 3 30 2 31 1 32
REMARK H PARENT
REMARK Flexibility Score: inf
ROOT
ATOM      1  C   UNL     1     302.103 324.653 647.717  1.00  0.00     0.000 C 
ENDROOT
BRANCH   1   2
ATOM      2  C   UNL     1     303.375 323.995 648.280  1.00  0.00     0.000 C 
BRANCH   2   3
ATOM      3  C   UNL     1     303.631 322.568 647.752  1.00  0.00     0.000 C 
BRANCH   3   4
ATOM      4  C   UNL     1     304.456 321.724 648.740  1.00  0.00     0.000 C 
BRANCH   4   5
ATOM      5  C   UNL     1     304.646 322.418 650.099  1.00  0.00     0.000 C 
BRANCH   5   6
ATOM      6  C   UNL     1     305.873 321.890 650.860  1.00  0.00     0.000 C 
BRANCH   6   7
ATOM      7  C   UNL     1     307.098 321.658 649.953  1.00  0.00     0.000 C 
BRANCH   7   8
ATOM      8  C   UNL     1     308.007 322.886 649.723  1.00  0.00     0.000 C 
BRANCH   8   9
ATOM      9  C   UNL     1     307.729 323.663 648.417  1.00  0.00     0.000 C 
BRANCH   9  10
ATOM     10  C   UNL     1     306.985 324.995 648.627  1.00  0.00     0.000 C 
BRANCH  10  11
ATOM     11  C   UNL     1     307.891 326.231 648.732  1.00  0.00     0.000 C 
BRANCH  11  12
ATOM     12  C   UNL     1     309.356 325.927 648.388  1.00  0.00     0.000 C 
BRANCH  12  13
ATOM     13  C   UNL     1     310.255 326.073 649.626  1.00  0.00     0.006 C 
BRANCH  13  14
ATOM     14  C   UNL     1     311.659 325.501 649.394  1.00  0.00     0.053 C 
BRANCH  14  15
ATOM     15  C   UNL     1     311.759 324.077 649.848  1.00  0.00     0.041 C 
ATOM     16  O   UNL     1     311.570 323.782 651.058  1.00  0.00    -0.550 OA
ATOM     17  O   UNL     1     312.095 323.079 648.941  1.00  0.00    -0.550 OA
ENDBRANCH  14  15
ENDBRANCH  13  14
ENDBRANCH  12  13
ENDBRANCH  11  12
ENDBRANCH  10  11
ENDBRANCH   9  10
ENDBRANCH   8   9
ENDBRANCH   7   8
ENDBRANCH   6   7
ENDBRANCH   5   6
ENDBRANCH   4   5
ENDBRANCH   3   4
ENDBRANCH   2   3
ENDBRANCH   1   2
BRANCH   1  18
ATOM     18  C   UNL     1     301.010 323.635 647.359  1.00  0.00     0.000 C 
BRANCH  18  19
ATOM     19  C   UNL     1     299.585 324.177 647.569  1.00  0.00     0.000 C 
BRANCH  19  20
ATOM     20  C   UNL     1     299.020 325.018 646.404  1.00  0.00     0.000 C 
BRANCH  20  21
ATOM     21  C   UNL     1     299.241 326.537 646.522  1.00  0.00     0.000 C 
BRANCH  21  22
ATOM     22  C   UNL     1     299.888 327.144 645.265  1.00  0.00     0.000 C 
BRANCH  22  23
ATOM     23  C   UNL     1     300.145 326.098 644.165  1.00  0.00     0.000 C 
BRANCH  23  24
ATOM     24  C   UNL     1     301.617 325.655 644.020  1.00  0.00    -0.000 C 
BRANCH  24  25
ATOM     25  C   UNL     1     301.829 324.149 643.770  1.00  0.00    -0.000 C 
BRANCH  25  26
ATOM     26  C   UNL     1     303.158 323.577 644.300  1.00  0.00    -0.000 C 
BRANCH  26  27
ATOM     27  C   UNL     1     304.396 324.412 643.911  1.00  0.00    -0.000 C 
BRANCH  27  28
ATOM     28  C   UNL     1     305.453 324.462 645.024  1.00  0.00    -0.000 C 
BRANCH  28  29
ATOM     29  C   UNL     1     305.884 325.906 645.307  1.00  0.00    -0.000 C 
BRANCH  29  30
ATOM     30  C   UNL     1     304.794 326.664 646.080  1.00  0.00    -0.000 C 
BRANCH  30  31
ATOM     31  C   UNL     1     304.695 328.141 645.672  1.00  0.00    -0.003 C 
ATOM     32  C   UNL     1     303.252 328.641 645.596  1.00  0.00     0.004 C 
ENDBRANCH  30  31
ENDBRANCH  29  30
ENDBRANCH  28  29
ENDBRANCH  27  28
ENDBRANCH  26  27
ENDBRANCH  25  26
ENDBRANCH  24  25
ENDBRANCH  23  24
ENDBRANCH  22  23
ENDBRANCH  21  22
ENDBRANCH  20  21
ENDBRANCH  19  20
ENDBRANCH  18  19
ENDBRANCH   1  18
TORSDOF 28
ENDMDL
MODEL 7
REMARK VINA RESULT:    -3.412      3.252      7.502
REMARK INTER + INTRA:         -14.355
REMARK INTER:                  -8.957
REMARK INTRA:                  -5.398
REMARK UNBOUND:                -5.357
REMARK SMILES CCCCCCCCCCCCCCCCCCCCCCCCCCCCCC(=O)[O-]
REMARK SMILES IDX 16 1 17 2 18 3 19 4 20 5 21 6 22 7 23 8 24 9 25 10 26 11
REMARK SMILES IDX 27 12 28 13 29 14 30 15 31 16 32 17 15 18 14 19 13 20 12 21
REMARK SMILES IDX 11 22 10 23 9 24 8 25 7 26 6 27 5 28 4 29 3 30 2 31 1 32
REMARK H PARENT
REMARK Flexibility Score: inf
ROOT
ATOM      1  C   UNL     1     305.212 322.116 650.033  1.00  0.00     0.000 C 
ENDROOT
BRANCH   1   2
ATOM      2  C   UNL     1     306.736 322.154 650.243  1.00  0.00     0.000 C 
BRANCH   2   3
ATOM      3  C   UNL     1     307.531 322.611 649.004  1.00  0.00     0.000 C 
BRANCH   3   4
ATOM      4  C   UNL     1     307.814 324.124 649.023  1.00  0.00     0.000 C 
BRANCH   4   5
ATOM      5  C   UNL     1     306.851 324.920 648.128  1.00  0.00     0.000 C 
BRANCH   5   6
ATOM      6  C   UNL     1     306.728 324.317 646.718  1.00  0.00     0.000 C 
BRANCH   6   7
ATOM      7  C   UNL     1     305.506 324.839 645.937  1.00  0.00     0.000 C 
BRANCH   7   8
ATOM      8  C   UNL     1     305.431 326.371 645.754  1.00  0.00     0.000 C 
BRANCH   8   9
ATOM      9  C   UNL     1     304.271 327.058 646.511  1.00  0.00     0.000 C 
BRANCH   9  10
ATOM     10  C   UNL     1     304.721 328.205 647.436  1.00  0.00     0.000 C 
BRANCH  10  11
ATOM     11  C   UNL     1     304.431 329.617 646.902  1.00  0.00     0.000 C 
BRANCH  11  12
ATOM     12  C   UNL     1     303.443 329.618 645.727  1.00  0.00     0.000 C 
BRANCH  12  13
ATOM     13  C   UNL     1     303.326 331.020 645.108  1.00  0.00     0.006 C 
BRANCH  13  14
ATOM     14  C   UNL     1     302.014 331.206 644.336  1.00  0.00     0.053 C 
BRANCH  14  15
ATOM     15  C   UNL     1     301.150 332.259 644.958  1.00  0.00     0.041 C 
ATOM     16  O   UNL     1     301.478 332.782 646.056  1.00  0.00    -0.550 OA
ATOM     17  O   UNL     1     299.964 332.640 644.342  1.00  0.00    -0.550 OA
ENDBRANCH  14  15
ENDBRANCH  13  14
ENDBRANCH  12  13
ENDBRANCH  11  12
ENDBRANCH  10  11
ENDBRANCH   9  10
ENDBRANCH   8   9
ENDBRANCH   7   8
ENDBRANCH   6   7
ENDBRANCH   5   6
ENDBRANCH   4   5
ENDBRANCH   3   4
ENDBRANCH   2   3
ENDBRANCH   1   2
BRANCH   1  18
ATOM     18  C   UNL     1     304.809 321.502 648.684  1.00  0.00     0.000 C 
BRANCH  18  19
ATOM     19  C   UNL     1     303.761 322.337 647.927  1.00  0.00     0.000 C 
BRANCH  19  20
ATOM     20  C   UNL     1     303.398 323.689 648.578  1.00  0.00     0.000 C 
BRANCH  20  21
ATOM     21  C   UNL     1     302.157 324.389 647.994  1.00  0.00     0.000 C 
BRANCH  21  22
ATOM     22  C   UNL     1     301.105 323.394 647.471  1.00  0.00     0.000 C 
BRANCH  22  23
ATOM     23  C   UNL     1     299.724 324.041 647.266  1.00  0.00     0.000 C 
BRANCH  23  24
ATOM     24  C   UNL     1     299.688 325.573 647.456  1.00  0.00    -0.000 C 
BRANCH  24  25
ATOM     25  C   UNL     1     299.279 326.381 646.209  1.00  0.00    -0.000 C 
BRANCH  25  26
ATOM     26  C   UNL     1     300.249 327.511 645.812  1.00  0.00    -0.000 C 
BRANCH  26  27
ATOM     27  C   UNL     1     299.947 328.139 644.435  1.00  0.00    -0.000 C 
BRANCH  27  28
ATOM     28  C   UNL     1     300.604 327.375 643.276  1.00  0.00    -0.000 C 
BRANCH  28  29
ATOM     29  C   UNL     1     302.103 327.173 643.533  1.00  0.00    -0.000 C 
BRANCH  29  30
ATOM     30  C   UNL     1     302.550 325.768 643.102  1.00  0.00    -0.000 C 
BRANCH  30  31
ATOM     31  C   UNL     1     302.159 324.683 644.117  1.00  0.00    -0.003 C 
ATOM     32  C   UNL     1     300.830 324.008 643.781  1.00  0.00     0.004 C 
ENDBRANCH  30  31
ENDBRANCH  29  30
ENDBRANCH  28  29
ENDBRANCH  27  28
ENDBRANCH  26  27
ENDBRANCH  25  26
ENDBRANCH  24  25
ENDBRANCH  23  24
ENDBRANCH  22  23
ENDBRANCH  21  22
ENDBRANCH  20  21
ENDBRANCH  19  20
ENDBRANCH  18  19
ENDBRANCH   1  18
TORSDOF 28
ENDMDL
MODEL 8
REMARK VINA RESULT:    -3.403      5.419      8.945
REMARK INTER + INTRA:         -14.331
REMARK INTER:                  -9.336
REMARK INTRA:                  -4.995
REMARK UNBOUND:                -5.357
REMARK SMILES CCCCCCCCCCCCCCCCCCCCCCCCCCCCCC(=O)[O-]
REMARK SMILES IDX 16 1 17 2 18 3 19 4 20 5 21 6 22 7 23 8 24 9 25 10 26 11
REMARK SMILES IDX 27 12 28 13 29 14 30 15 31 16 32 17 15 18 14 19 13 20 12 21
REMARK SMILES IDX 11 22 10 23 9 24 8 25 7 26 6 27 5 28 4 29 3 30 2 31 1 32
REMARK H PARENT
REMARK Flexibility Score: inf
ROOT
ATOM      1  C   UNL     1     303.351 329.145 645.821  1.00  0.00     0.000 C 
ENDROOT
BRANCH   1   2
ATOM      2  C   UNL     1     302.639 328.574 644.582  1.00  0.00     0.000 C 
BRANCH   2   3
ATOM      3  C   UNL     1     301.646 329.552 643.921  1.00  0.00     0.000 C 
BRANCH   3   4
ATOM      4  C   UNL     1     300.541 330.001 644.894  1.00  0.00     0.000 C 
BRANCH   4   5
ATOM      5  C   UNL     1     299.457 330.850 644.210  1.00  0.00     0.000 C 
BRANCH   5   6
ATOM      6  C   UNL     1     299.403 330.617 642.691  1.00  0.00     0.000 C 
BRANCH   6   7
ATOM      7  C   UNL     1     299.510 331.919 641.871  1.00  0.00     0.000 C 
BRANCH   7   8
ATOM      8  C   UNL     1     299.968 333.169 642.654  1.00  0.00     0.000 C 
BRANCH   8   9
ATOM      9  C   UNL     1     301.364 333.703 642.263  1.00  0.00     0.000 C 
BRANCH   9  10
ATOM     10  C   UNL     1     302.525 332.773 642.665  1.00  0.00     0.000 C 
BRANCH  10  11
ATOM     11  C   UNL     1     303.433 333.317 643.779  1.00  0.00     0.000 C 
BRANCH  11  12
ATOM     12  C   UNL     1     303.056 332.784 645.169  1.00  0.00     0.000 C 
BRANCH  12  13
ATOM     13  C   UNL     1     302.552 333.918 646.075  1.00  0.00     0.006 C 
BRANCH  13  14
ATOM     14  C   UNL     1     301.032 334.100 645.987  1.00  0.00     0.053 C 
BRANCH  14  15
ATOM     15  C   UNL     1     300.667 335.449 645.447  1.00  0.00     0.041 C 
ATOM     16  O   UNL     1     299.488 335.878 645.556  1.00  0.00    -0.550 OA
ATOM     17  O   UNL     1     301.622 336.218 644.792  1.00  0.00    -0.550 OA
ENDBRANCH  14  15
ENDBRANCH  13  14
ENDBRANCH  12  13
ENDBRANCH  11  12
ENDBRANCH  10  11
ENDBRANCH   9  10
ENDBRANCH   8   9
ENDBRANCH   7   8
ENDBRANCH   6   7
ENDBRANCH   5   6
ENDBRANCH   4   5
ENDBRANCH   3   4
ENDBRANCH   2   3
ENDBRANCH   1   2
BRANCH   1  18
ATOM     18  C   UNL     1     304.191 328.096 646.564  1.00  0.00     0.000 C 
BRANCH  18  19
ATOM     19  C   UNL     1     303.616 326.673 646.458  1.00  0.00     0.000 C 
BRANCH  19  20
ATOM     20  C   UNL     1     304.488 325.663 645.681  1.00  0.00     0.000 C 
BRANCH  20  21
ATOM     21  C   UNL     1     303.712 324.570 644.922  1.00  0.00     0.000 C 
BRANCH  21  22
ATOM     22  C   UNL     1     302.767 325.146 643.853  1.00  0.00     0.000 C 
BRANCH  22  23
ATOM     23  C   UNL     1     301.423 324.400 643.784  1.00  0.00     0.000 C 
BRANCH  23  24
ATOM     24  C   UNL     1     300.176 325.285 644.003  1.00  0.00    -0.000 C 
BRANCH  24  25
ATOM     25  C   UNL     1     300.074 325.946 645.391  1.00  0.00    -0.000 C 
BRANCH  25  26
ATOM     26  C   UNL     1     299.171 325.214 646.402  1.00  0.00    -0.000 C 
BRANCH  26  27
ATOM     27  C   UNL     1     299.908 324.745 647.674  1.00  0.00    -0.000 C 
BRANCH  27  28
ATOM     28  C   UNL     1     301.068 323.787 647.368  1.00  0.00    -0.000 C 
BRANCH  28  29
ATOM     29  C   UNL     1     302.257 324.051 648.300  1.00  0.00    -0.000 C 
BRANCH  29  30
ATOM     30  C   UNL     1     303.315 322.944 648.169  1.00  0.00    -0.000 C 
BRANCH  30  31
ATOM     31  C   UNL     1     304.705 323.392 648.642  1.00  0.00    -0.003 C 
ATOM     32  C   UNL     1     305.275 322.497 649.742  1.00  0.00     0.004 C 
ENDBRANCH  30  31
ENDBRANCH  29  30
ENDBRANCH  28  29
ENDBRANCH  27  28
ENDBRANCH  26  27
ENDBRANCH  25  26
ENDBRANCH  24  25
ENDBRANCH  23  24
ENDBRANCH  22  23
ENDBRANCH  21  22
ENDBRANCH  20  21
ENDBRANCH  19  20
ENDBRANCH  18  19
ENDBRANCH   1  18
TORSDOF 28
ENDMDL
MODEL 9
REMARK VINA RESULT:    -3.365      2.285      3.617
REMARK INTER + INTRA:         -14.230
REMARK INTER:                  -8.649
REMARK INTRA:                  -5.581
REMARK UNBOUND:                -5.357
REMARK SMILES CCCCCCCCCCCCCCCCCCCCCCCCCCCCCC(=O)[O-]
REMARK SMILES IDX 16 1 17 2 18 3 19 4 20 5 21 6 22 7 23 8 24 9 25 10 26 11
REMARK SMILES IDX 27 12 28 13 29 14 30 15 31 16 32 17 15 18 14 19 13 20 12 21
REMARK SMILES IDX 11 22 10 23 9 24 8 25 7 26 6 27 5 28 4 29 3 30 2 31 1 32
REMARK H PARENT
REMARK Flexibility Score: inf
ROOT
ATOM      1  C   UNL     1     301.954 323.636 647.176  1.00  0.00     0.000 C 
ENDROOT
BRANCH   1   2
ATOM      2  C   UNL     1     300.766 324.429 647.750  1.00  0.00     0.000 C 
BRANCH   2   3
ATOM      3  C   UNL     1     299.395 324.001 647.189  1.00  0.00     0.000 C 
BRANCH   3   4
ATOM      4  C   UNL     1     298.875 324.979 646.120  1.00  0.00     0.000 C 
BRANCH   4   5
ATOM      5  C   UNL     1     299.190 326.446 646.454  1.00  0.00     0.000 C 
BRANCH   5   6
ATOM      6  C   UNL     1     299.686 327.233 645.230  1.00  0.00     0.000 C 
BRANCH   6   7
ATOM      7  C   UNL     1     299.014 326.797 643.913  1.00  0.00     0.000 C 
BRANCH   7   8
ATOM      8  C   UNL     1     299.965 326.279 642.812  1.00  0.00     0.000 C 
BRANCH   8   9
ATOM      9  C   UNL     1     301.228 325.558 643.334  1.00  0.00     0.000 C 
BRANCH   9  10
ATOM     10  C   UNL     1     301.108 324.022 643.357  1.00  0.00     0.000 C 
BRANCH  10  11
ATOM     11  C   UNL     1     302.447 323.269 643.385  1.00  0.00     0.000 C 
BRANCH  11  12
ATOM     12  C   UNL     1     303.659 324.211 643.433  1.00  0.00     0.000 C 
BRANCH  12  13
ATOM     13  C   UNL     1     304.653 323.772 644.519  1.00  0.00     0.006 C 
BRANCH  13  14
ATOM     14  C   UNL     1     305.093 322.313 644.349  1.00  0.00     0.053 C 
BRANCH  14  15
ATOM     15  C   UNL     1     306.165 322.176 643.310  1.00  0.00     0.041 C 
ATOM     16  O   UNL     1     307.353 322.496 643.578  1.00  0.00    -0.550 OA
ATOM     17  O   UNL     1     305.844 321.725 642.035  1.00  0.00    -0.550 OA
ENDBRANCH  14  15
ENDBRANCH  13  14
ENDBRANCH  12  13
ENDBRANCH  11  12
ENDBRANCH  10  11
ENDBRANCH   9  10
ENDBRANCH   8   9
ENDBRANCH   7   8
ENDBRANCH   6   7
ENDBRANCH   5   6
ENDBRANCH   4   5
ENDBRANCH   3   4
ENDBRANCH   2   3
ENDBRANCH   1   2
BRANCH   1  18
ATOM     18  C   UNL     1     303.103 323.469 648.181  1.00  0.00     0.000 C 
BRANCH  18  19
ATOM     19  C   UNL     1     304.013 322.268 647.867  1.00  0.00     0.000 C 
BRANCH  19  20
ATOM     20  C   UNL     1     304.514 321.480 649.097  1.00  0.00     0.000 C 
BRANCH  20  21
ATOM     21  C   UNL     1     305.201 322.325 650.185  1.00  0.00     0.000 C 
BRANCH  21  22
ATOM     22  C   UNL     1     306.662 321.909 650.427  1.00  0.00     0.000 C 
BRANCH  22  23
ATOM     23  C   UNL     1     307.671 322.867 649.770  1.00  0.00     0.000 C 
BRANCH  23  24
ATOM     24  C   UNL     1     308.268 322.369 648.436  1.00  0.00    -0.000 C 
BRANCH  24  25
ATOM     25  C   UNL     1     307.478 322.762 647.173  1.00  0.00    -0.000 C 
BRANCH  25  26
ATOM     26  C   UNL     1     307.469 324.269 646.848  1.00  0.00    -0.000 C 
BRANCH  26  27
ATOM     27  C   UNL     1     306.428 325.075 647.653  1.00  0.00    -0.000 C 
BRANCH  27  28
ATOM     28  C   UNL     1     306.526 326.588 647.402  1.00  0.00    -0.000 C 
BRANCH  28  29
ATOM     29  C   UNL     1     306.399 326.905 645.907  1.00  0.00    -0.000 C 
BRANCH  29  30
ATOM     30  C   UNL     1     305.344 327.997 645.666  1.00  0.00    -0.000 C 
BRANCH  30  31
ATOM     31  C   UNL     1     304.010 327.430 645.159  1.00  0.00    -0.003 C 
ATOM     32  C   UNL     1     303.102 326.947 646.289  1.00  0.00     0.004 C 
ENDBRANCH  30  31
ENDBRANCH  29  30
ENDBRANCH  28  29
ENDBRANCH  27  28
ENDBRANCH  26  27
ENDBRANCH  25  26
ENDBRANCH  24  25
ENDBRANCH  23  24
ENDBRANCH  22  23
ENDBRANCH  21  22
ENDBRANCH  20  21
ENDBRANCH  19  20
ENDBRANCH  18  19
ENDBRANCH   1  18
TORSDOF 28
ENDMDL
