MODEL 1
REMARK VINA RESULT:    -6.348      0.000      0.000
REMARK INTER + INTRA:          -7.684
REMARK INTER:                  -7.647
REMARK INTRA:                  -0.037
REMARK UNBOUND:                -0.037
REMARK SMILES O=c1c(O)c(-c2ccc(O)c(O)c2)oc2cc(O)cc(O)c12
REMARK SMILES IDX 5 1 3 2 2 3 1 4 22 5 20 6 19 7 17 8 16 9 15 10 14 11 6 12
REMARK SMILES IDX 7 13 8 14 9 15 13 16 11 17 10 18 12 20 4 22 21 24 18 26
REMARK H PARENT 10 19 12 21 4 23 21 25 18 27
REMARK Flexibility Score: inf
ROOT
ATOM      1  C   UNL     1      14.433  18.782  17.882  1.00  0.00     0.180 A 
ATOM      2  C   UNL     1      14.921  19.296  19.096  1.00  0.00     0.208 A 
ATOM      3  C   UNL     1      16.209  18.932  19.520  1.00  0.00     0.238 A 
ATOM      4  O   UNL     1      16.619  19.352  20.633  1.00  0.00    -0.285 OA
ATOM      5  C   UNL     1      16.999  18.072  18.719  1.00  0.00     0.111 A 
ATOM      6  C   UNL     1      18.332  17.670  19.032  1.00  0.00     0.134 A 
ATOM      7  C   UNL     1      18.970  16.713  18.234  1.00  0.00     0.093 A 
ATOM      8  C   UNL     1      18.350  16.193  17.098  1.00  0.00     0.123 A 
ATOM      9  C   UNL     1      17.070  16.624  16.749  1.00  0.00     0.094 A 
ATOM     10  C   UNL     1      16.392  17.550  17.546  1.00  0.00     0.146 A 
ATOM     11  O   UNL     1      15.172  17.926  17.186  1.00  0.00    -0.452 OA
ENDROOT
BRANCH   1  12
ATOM     12  C   UNL     1      13.096  19.139  17.356  1.00  0.00     0.025 A 
ATOM     13  C   UNL     1      12.934  19.661  16.061  1.00  0.00     0.016 A 
ATOM     14  C   UNL     1      11.661  19.969  15.576  1.00  0.00     0.051 A 
ATOM     15  C   UNL     1      10.530  19.746  16.372  1.00  0.00     0.157 A 
ATOM     16  C   UNL     1      11.956  18.898  18.141  1.00  0.00     0.062 A 
ATOM     17  C   UNL     1      10.677  19.207  17.656  1.00  0.00     0.158 A 
BRANCH  15  18
ATOM     18  O   UNL     1       9.257  20.053  15.892  1.00  0.00    -0.504 OA
ATOM     19  H   UNL     1       9.064  20.931  15.424  1.00  0.00     0.293 HD
ENDBRANCH  15  18
BRANCH  17  20
ATOM     20  O   UNL     1       9.549  18.979  18.443  1.00  0.00    -0.504 OA
ATOM     21  H   UNL     1       9.483  18.174  19.054  1.00  0.00     0.293 HD
ENDBRANCH  17  20
ENDBRANCH   1  12
BRANCH   2  22
ATOM     22  O   UNL     1      14.116  20.125  19.882  1.00  0.00    -0.502 OA
ATOM     23  H   UNL     1      14.450  20.554  20.737  1.00  0.00     0.293 HD
ENDBRANCH   2  22
BRANCH   6  24
ATOM     24  O   UNL     1      19.078  18.197  20.091  1.00  0.00    -0.507 OA
ATOM     25  H   UNL     1      19.974  17.846  20.391  1.00  0.00     0.293 HD
ENDBRANCH   6  24
BRANCH   8  26
ATOM     26  O   UNL     1      19.021  15.254  16.318  1.00  0.00    -0.508 OA
ATOM     27  H   UNL     1      18.667  14.312  16.202  1.00  0.00     0.293 HD
ENDBRANCH   8  26
TORSDOF 6
ENDMDL
MODEL 2
REMARK VINA RESULT:    -6.265      1.666      6.932
REMARK INTER + INTRA:          -7.584
REMARK INTER:                  -7.302
REMARK INTRA:                  -0.282
REMARK UNBOUND:                -0.037
REMARK SMILES O=c1c(O)c(-c2ccc(O)c(O)c2)oc2cc(O)cc(O)c12
REMARK SMILES IDX 5 1 3 2 2 3 1 4 22 5 20 6 19 7 17 8 16 9 15 10 14 11 6 12
REMARK SMILES IDX 7 13 8 14 9 15 13 16 11 17 10 18 12 20 4 22 21 24 18 26
REMARK H PARENT 10 19 12 21 4 23 21 25 18 27
REMARK Flexibility Score: inf
ROOT
ATOM      1  C   UNL     1      13.510  19.337  17.990  1.00  0.00     0.180 A 
ATOM      2  C   UNL     1      12.481  19.565  18.919  1.00  0.00     0.208 A 
ATOM      3  C   UNL     1      11.182  19.812  18.448  1.00  0.00     0.238 A 
ATOM      4  O   UNL     1      10.275  20.070  19.283  1.00  0.00    -0.285 OA
ATOM      5  C   UNL     1      10.924  19.814  17.056  1.00  0.00     0.111 A 
ATOM      6  C   UNL     1       9.638  20.014  16.470  1.00  0.00     0.134 A 
ATOM      7  C   UNL     1       9.524  20.125  15.078  1.00  0.00     0.093 A 
ATOM      8  C   UNL     1      10.635  19.978  14.250  1.00  0.00     0.123 A 
ATOM      9  C   UNL     1      11.888  19.722  14.809  1.00  0.00     0.094 A 
ATOM     10  C   UNL     1      12.041  19.643  16.196  1.00  0.00     0.146 A 
ATOM     11  O   UNL     1      13.250  19.409  16.689  1.00  0.00    -0.452 OA
ENDROOT
BRANCH   1  12
ATOM     12  C   UNL     1      14.900  19.044  18.408  1.00  0.00     0.025 A 
ATOM     13  C   UNL     1      15.762  20.064  18.849  1.00  0.00     0.016 A 
ATOM     14  C   UNL     1      17.062  19.762  19.262  1.00  0.00     0.051 A 
ATOM     15  C   UNL     1      17.514  18.436  19.255  1.00  0.00     0.157 A 
ATOM     16  C   UNL     1      15.354  17.715  18.423  1.00  0.00     0.062 A 
ATOM     17  C   UNL     1      16.658  17.411  18.837  1.00  0.00     0.158 A 
BRANCH  15  18
ATOM     18  O   UNL     1      18.812  18.132  19.665  1.00  0.00    -0.504 OA
ATOM     19  H   UNL     1      19.614  18.336  19.081  1.00  0.00     0.293 HD
ENDBRANCH  15  18
BRANCH  17  20
ATOM     20  O   UNL     1      17.109  16.091  18.837  1.00  0.00    -0.504 OA
ATOM     21  H   UNL     1      17.868  15.791  19.436  1.00  0.00     0.293 HD
ENDBRANCH  17  20
ENDBRANCH   1  12
BRANCH   2  22
ATOM     22  O   UNL     1      12.761  19.581  20.287  1.00  0.00    -0.502 OA
ATOM     23  H   UNL     1      12.537  18.804  20.898  1.00  0.00     0.293 HD
ENDBRANCH   2  22
BRANCH   6  24
ATOM     24  O   UNL     1       8.449  20.082  17.201  1.00  0.00    -0.507 OA
ATOM     25  H   UNL     1       7.983  20.937  17.460  1.00  0.00     0.293 HD
ENDBRANCH   6  24
BRANCH   8  26
ATOM     26  O   UNL     1      10.481  20.078  12.869  1.00  0.00    -0.508 OA
ATOM     27  H   UNL     1      11.040  20.721  12.319  1.00  0.00     0.293 HD
ENDBRANCH   8  26
TORSDOF 6
ENDMDL
MODEL 3
REMARK VINA RESULT:    -5.761     14.629     17.847
REMARK INTER + INTRA:          -6.976
REMARK INTER:                  -6.853
REMARK INTRA:                  -0.123
REMARK UNBOUND:                -0.037
REMARK SMILES O=c1c(O)c(-c2ccc(O)c(O)c2)oc2cc(O)cc(O)c12
REMARK SMILES IDX 5 1 3 2 2 3 1 4 22 5 20 6 19 7 17 8 16 9 15 10 14 11 6 12
REMARK SMILES IDX 7 13 8 14 9 15 13 16 11 17 10 18 12 20 4 22 21 24 18 26
REMARK H PARENT 10 19 12 21 4 23 21 25 18 27
REMARK Flexibility Score: inf
ROOT
ATOM      1  C   UNL     1       2.715  17.945   5.791  1.00  0.00     0.180 A 
ATOM      2  C   UNL     1       3.020  18.734   4.668  1.00  0.00     0.208 A 
ATOM      3  C   UNL     1       3.264  18.102   3.439  1.00  0.00     0.238 A 
ATOM      4  O   UNL     1       3.589  18.810   2.450  1.00  0.00    -0.285 OA
ATOM      5  C   UNL     1       3.187  16.692   3.343  1.00  0.00     0.111 A 
ATOM      6  C   UNL     1       3.377  15.950   2.139  1.00  0.00     0.134 A 
ATOM      7  C   UNL     1       3.407  14.550   2.188  1.00  0.00     0.093 A 
ATOM      8  C   UNL     1       3.189  13.866   3.383  1.00  0.00     0.123 A 
ATOM      9  C   UNL     1       2.942  14.581   4.555  1.00  0.00     0.094 A 
ATOM     10  C   UNL     1       2.943  15.979   4.546  1.00  0.00     0.146 A 
ATOM     11  O   UNL     1       2.715  16.622   5.684  1.00  0.00    -0.452 OA
ENDROOT
BRANCH   1  12
ATOM     12  C   UNL     1       2.421  18.539   7.115  1.00  0.00     0.025 A 
ATOM     13  C   UNL     1       1.368  19.456   7.288  1.00  0.00     0.016 A 
ATOM     14  C   UNL     1       1.093  19.985   8.551  1.00  0.00     0.051 A 
ATOM     15  C   UNL     1       1.855  19.597   9.661  1.00  0.00     0.157 A 
ATOM     16  C   UNL     1       3.168  18.139   8.235  1.00  0.00     0.062 A 
ATOM     17  C   UNL     1       2.892  18.670   9.503  1.00  0.00     0.158 A 
BRANCH  15  18
ATOM     18  O   UNL     1       1.584  20.125  10.922  1.00  0.00    -0.504 OA
ATOM     19  H   UNL     1       0.707  19.943  11.396  1.00  0.00     0.293 HD
ENDBRANCH  15  18
BRANCH  17  20
ATOM     20  O   UNL     1       3.644  18.280  10.610  1.00  0.00    -0.504 OA
ATOM     21  H   UNL     1       3.581  17.344  10.991  1.00  0.00     0.293 HD
ENDBRANCH  17  20
ENDBRANCH   1  12
BRANCH   2  22
ATOM     22  O   UNL     1       3.112  20.123   4.790  1.00  0.00    -0.502 OA
ATOM     23  H   UNL     1       3.733  20.679   4.214  1.00  0.00     0.293 HD
ENDBRANCH   2  22
BRANCH   6  24
ATOM     24  O   UNL     1       3.513  16.533   0.875  1.00  0.00    -0.507 OA
ATOM     25  H   UNL     1       2.863  17.191   0.475  1.00  0.00     0.293 HD
ENDBRANCH   6  24
BRANCH   8  26
ATOM     26  O   UNL     1       3.209  12.473   3.391  1.00  0.00    -0.508 OA
ATOM     27  H   UNL     1       3.912  11.951   2.881  1.00  0.00     0.293 HD
ENDBRANCH   8  26
TORSDOF 6
ENDMDL
MODEL 4
REMARK VINA RESULT:    -5.576      1.259      6.790
REMARK INTER + INTRA:          -6.753
REMARK INTER:                  -6.911
REMARK INTRA:                   0.158
REMARK UNBOUND:                -0.037
REMARK SMILES O=c1c(O)c(-c2ccc(O)c(O)c2)oc2cc(O)cc(O)c12
REMARK SMILES IDX 5 1 3 2 2 3 1 4 22 5 20 6 19 7 17 8 16 9 15 10 14 11 6 12
REMARK SMILES IDX 7 13 8 14 9 15 13 16 11 17 10 18 12 20 4 22 21 24 18 26
REMARK H PARENT 10 19 12 21 4 23 21 25 18 27
REMARK Flexibility Score: inf
ROOT
ATOM      1  C   UNL     1      14.406  18.763  18.144  1.00  0.00     0.180 A 
ATOM      2  C   UNL     1      13.859  19.068  19.402  1.00  0.00     0.208 A 
ATOM      3  C   UNL     1      12.519  19.482  19.479  1.00  0.00     0.238 A 
ATOM      4  O   UNL     1      12.051  19.805  20.602  1.00  0.00    -0.285 OA
ATOM      5  C   UNL     1      11.740  19.572  18.301  1.00  0.00     0.111 A 
ATOM      6  C   UNL     1      10.362  19.942  18.267  1.00  0.00     0.134 A 
ATOM      7  C   UNL     1       9.727  20.125  17.032  1.00  0.00     0.093 A 
ATOM      8  C   UNL     1      10.398  19.887  15.834  1.00  0.00     0.123 A 
ATOM      9  C   UNL     1      11.729  19.467  15.857  1.00  0.00     0.094 A 
ATOM     10  C   UNL     1      12.401  19.311  17.072  1.00  0.00     0.146 A 
ATOM     11  O   UNL     1      13.669  18.920  17.051  1.00  0.00    -0.452 OA
ENDROOT
BRANCH   1  12
ATOM     12  C   UNL     1      15.802  18.296  17.984  1.00  0.00     0.025 A 
ATOM     13  C   UNL     1      16.849  18.845  18.745  1.00  0.00     0.016 A 
ATOM     14  C   UNL     1      18.155  18.372  18.595  1.00  0.00     0.051 A 
ATOM     15  C   UNL     1      18.432  17.336  17.693  1.00  0.00     0.157 A 
ATOM     16  C   UNL     1      16.083  17.244  17.097  1.00  0.00     0.062 A 
ATOM     17  C   UNL     1      17.394  16.769  16.945  1.00  0.00     0.158 A 
BRANCH  15  18
ATOM     18  O   UNL     1      19.734  16.864  17.539  1.00  0.00    -0.504 OA
ATOM     19  H   UNL     1      19.985  15.911  17.779  1.00  0.00     0.293 HD
ENDBRANCH  15  18
BRANCH  17  20
ATOM     20  O   UNL     1      17.670  15.733  16.054  1.00  0.00    -0.504 OA
ATOM     21  H   UNL     1      17.019  14.972  15.907  1.00  0.00     0.293 HD
ENDBRANCH  17  20
ENDBRANCH   1  12
BRANCH   2  22
ATOM     22  O   UNL     1      14.652  18.993  20.550  1.00  0.00    -0.502 OA
ATOM     23  H   UNL     1      14.653  18.183  21.159  1.00  0.00     0.293 HD
ENDBRANCH   2  22
BRANCH   6  24
ATOM     24  O   UNL     1       9.571  20.114  19.407  1.00  0.00    -0.507 OA
ATOM     25  H   UNL     1       9.361  19.388  20.074  1.00  0.00     0.293 HD
ENDBRANCH   6  24
BRANCH   8  26
ATOM     26  O   UNL     1       9.730  20.063  14.625  1.00  0.00    -0.508 OA
ATOM     27  H   UNL     1       9.952  20.833  14.004  1.00  0.00     0.293 HD
ENDBRANCH   8  26
TORSDOF 6
ENDMDL
MODEL 5
REMARK VINA RESULT:    -5.443      1.800      2.930
REMARK INTER + INTRA:          -6.593
REMARK INTER:                  -6.464
REMARK INTRA:                  -0.129
REMARK UNBOUND:                -0.037
REMARK SMILES O=c1c(O)c(-c2ccc(O)c(O)c2)oc2cc(O)cc(O)c12
REMARK SMILES IDX 5 1 3 2 2 3 1 4 22 5 20 6 19 7 17 8 16 9 15 10 14 11 6 12
REMARK SMILES IDX 7 13 8 14 9 15 13 16 11 17 10 18 12 20 4 22 21 24 18 26
REMARK H PARENT 10 19 12 21 4 23 21 25 18 27
REMARK Flexibility Score: inf
ROOT
ATOM      1  C   UNL     1      14.470  17.906  18.695  1.00  0.00     0.180 A 
ATOM      2  C   UNL     1      14.706  16.523  18.626  1.00  0.00     0.208 A 
ATOM      3  C   UNL     1      16.030  16.057  18.646  1.00  0.00     0.238 A 
ATOM      4  O   UNL     1      16.238  14.821  18.530  1.00  0.00    -0.285 OA
ATOM      5  C   UNL     1      17.101  16.978  18.749  1.00  0.00     0.111 A 
ATOM      6  C   UNL     1      18.479  16.614  18.818  1.00  0.00     0.134 A 
ATOM      7  C   UNL     1      19.459  17.614  18.786  1.00  0.00     0.093 A 
ATOM      8  C   UNL     1      19.111  18.964  18.755  1.00  0.00     0.123 A 
ATOM      9  C   UNL     1      17.765  19.332  18.749  1.00  0.00     0.094 A 
ATOM     10  C   UNL     1      16.764  18.357  18.742  1.00  0.00     0.146 A 
ATOM     11  O   UNL     1      15.496  18.748  18.725  1.00  0.00    -0.452 OA
ENDROOT
BRANCH   1  12
ATOM     12  C   UNL     1      13.102  18.473  18.705  1.00  0.00     0.025 A 
ATOM     13  C   UNL     1      12.630  19.228  19.793  1.00  0.00     0.016 A 
ATOM     14  C   UNL     1      11.344  19.774  19.770  1.00  0.00     0.051 A 
ATOM     15  C   UNL     1      10.516  19.584  18.656  1.00  0.00     0.157 A 
ATOM     16  C   UNL     1      12.274  18.304  17.582  1.00  0.00     0.062 A 
ATOM     17  C   UNL     1      10.983  18.850  17.559  1.00  0.00     0.158 A 
BRANCH  15  18
ATOM     18  O   UNL     1       9.232  20.125  18.631  1.00  0.00    -0.504 OA
ATOM     19  H   UNL     1       8.736  20.355  19.485  1.00  0.00     0.293 HD
ENDBRANCH  15  18
BRANCH  17  20
ATOM     20  O   UNL     1      10.160  18.669  16.449  1.00  0.00    -0.504 OA
ATOM     21  H   UNL     1       9.290  18.154  16.512  1.00  0.00     0.293 HD
ENDBRANCH  17  20
ENDBRANCH   1  12
BRANCH   2  22
ATOM     22  O   UNL     1      13.636  15.633  18.503  1.00  0.00    -0.502 OA
ATOM     23  H   UNL     1      12.980  15.674  17.731  1.00  0.00     0.293 HD
ENDBRANCH   2  22
BRANCH   6  24
ATOM     24  O   UNL     1      18.934  15.299  18.945  1.00  0.00    -0.507 OA
ATOM     25  H   UNL     1      19.581  14.981  19.650  1.00  0.00     0.293 HD
ENDBRANCH   6  24
BRANCH   8  26
ATOM     26  O   UNL     1      20.112  19.932  18.741  1.00  0.00    -0.508 OA
ATOM     27  H   UNL     1      20.708  20.065  17.933  1.00  0.00     0.293 HD
ENDBRANCH   8  26
TORSDOF 6
ENDMDL
MODEL 6
REMARK VINA RESULT:    -5.121     14.104     17.657
REMARK INTER + INTRA:          -6.206
REMARK INTER:                  -6.004
REMARK INTRA:                  -0.202
REMARK UNBOUND:                -0.037
REMARK SMILES O=c1c(O)c(-c2ccc(O)c(O)c2)oc2cc(O)cc(O)c12
REMARK SMILES IDX 5 1 3 2 2 3 1 4 22 5 20 6 19 7 17 8 16 9 15 10 14 11 6 12
REMARK SMILES IDX 7 13 8 14 9 15 13 16 11 17 10 18 12 20 4 22 21 24 18 26
REMARK H PARENT 10 19 12 21 4 23 21 25 18 27
REMARK Flexibility Score: inf
ROOT
ATOM      1  C   UNL     1       2.693  17.981   6.367  1.00  0.00     0.180 A 
ATOM      2  C   UNL     1       2.642  16.603   6.097  1.00  0.00     0.208 A 
ATOM      3  C   UNL     1       2.908  16.155   4.793  1.00  0.00     0.238 A 
ATOM      4  O   UNL     1       2.808  14.925   4.545  1.00  0.00    -0.285 OA
ATOM      5  C   UNL     1       3.235  17.088   3.780  1.00  0.00     0.111 A 
ATOM      6  C   UNL     1       3.561  16.742   2.434  1.00  0.00     0.134 A 
ATOM      7  C   UNL     1       3.740  17.756   1.485  1.00  0.00     0.093 A 
ATOM      8  C   UNL     1       3.671  19.101   1.845  1.00  0.00     0.123 A 
ATOM      9  C   UNL     1       3.412  19.450   3.171  1.00  0.00     0.094 A 
ATOM     10  C   UNL     1       3.192  18.462   4.134  1.00  0.00     0.146 A 
ATOM     11  O   UNL     1       2.938  18.837   5.381  1.00  0.00    -0.452 OA
ENDROOT
BRANCH   1  12
ATOM     12  C   UNL     1       2.450  18.528   7.721  1.00  0.00     0.025 A 
ATOM     13  C   UNL     1       1.285  19.260   8.018  1.00  0.00     0.016 A 
ATOM     14  C   UNL     1       1.065  19.746   9.308  1.00  0.00     0.051 A 
ATOM     15  C   UNL     1       1.997  19.498  10.325  1.00  0.00     0.157 A 
ATOM     16  C   UNL     1       3.370  18.266   8.750  1.00  0.00     0.062 A 
ATOM     17  C   UNL     1       3.150  18.755  10.046  1.00  0.00     0.158 A 
BRANCH  15  18
ATOM     18  O   UNL     1       1.781  19.984  11.614  1.00  0.00    -0.504 OA
ATOM     19  H   UNL     1       2.090  19.472  12.432  1.00  0.00     0.293 HD
ENDBRANCH  15  18
BRANCH  17  20
ATOM     20  O   UNL     1       4.072  18.503  11.061  1.00  0.00    -0.504 OA
ATOM     21  H   UNL     1       4.766  19.190  11.328  1.00  0.00     0.293 HD
ENDBRANCH  17  20
ENDBRANCH   1  12
BRANCH   2  22
ATOM     22  O   UNL     1       2.295  15.702   7.107  1.00  0.00    -0.502 OA
ATOM     23  H   UNL     1       2.688  15.753   8.039  1.00  0.00     0.293 HD
ENDBRANCH   2  22
BRANCH   6  24
ATOM     24  O   UNL     1       3.746  15.430   1.988  1.00  0.00    -0.507 OA
ATOM     25  H   UNL     1       3.835  14.627   2.591  1.00  0.00     0.293 HD
ENDBRANCH   6  24
BRANCH   8  26
ATOM     26  O   UNL     1       3.871  20.083   0.877  1.00  0.00    -0.508 OA
ATOM     27  H   UNL     1       3.678  19.909  -0.102  1.00  0.00     0.293 HD
ENDBRANCH   8  26
TORSDOF 6
ENDMDL
MODEL 7
REMARK VINA RESULT:    -4.695      1.963      2.711
REMARK INTER + INTRA:          -5.693
REMARK INTER:                  -5.517
REMARK INTRA:                  -0.176
REMARK UNBOUND:                -0.037
REMARK SMILES O=c1c(O)c(-c2ccc(O)c(O)c2)oc2cc(O)cc(O)c12
REMARK SMILES IDX 5 1 3 2 2 3 1 4 22 5 20 6 19 7 17 8 16 9 15 10 14 11 6 12
REMARK SMILES IDX 7 13 8 14 9 15 13 16 11 17 10 18 12 20 4 22 21 24 18 26
REMARK H PARENT 10 19 12 21 4 23 21 25 18 27
REMARK Flexibility Score: inf
ROOT
ATOM      1  C   UNL     1      13.944  17.984  17.783  1.00  0.00     0.180 A 
ATOM      2  C   UNL     1      14.960  18.611  17.042  1.00  0.00     0.208 A 
ATOM      3  C   UNL     1      16.236  18.026  17.008  1.00  0.00     0.238 A 
ATOM      4  O   UNL     1      17.157  18.620  16.387  1.00  0.00    -0.285 OA
ATOM      5  C   UNL     1      16.476  16.816  17.703  1.00  0.00     0.111 A 
ATOM      6  C   UNL     1      17.720  16.116  17.705  1.00  0.00     0.134 A 
ATOM      7  C   UNL     1      17.881  14.997  18.533  1.00  0.00     0.093 A 
ATOM      8  C   UNL     1      16.826  14.516  19.307  1.00  0.00     0.123 A 
ATOM      9  C   UNL     1      15.588  15.158  19.267  1.00  0.00     0.094 A 
ATOM     10  C   UNL     1      15.406  16.298  18.479  1.00  0.00     0.146 A 
ATOM     11  O   UNL     1      14.217  16.886  18.477  1.00  0.00    -0.452 OA
ENDROOT
BRANCH   1  12
ATOM     12  C   UNL     1      12.567  18.526  17.846  1.00  0.00     0.025 A 
ATOM     13  C   UNL     1      12.043  19.056  19.039  1.00  0.00     0.016 A 
ATOM     14  C   UNL     1      10.750  19.583  19.070  1.00  0.00     0.051 A 
ATOM     15  C   UNL     1       9.967  19.601  17.908  1.00  0.00     0.157 A 
ATOM     16  C   UNL     1      11.784  18.566  16.681  1.00  0.00     0.062 A 
ATOM     17  C   UNL     1      10.486  19.095  16.711  1.00  0.00     0.158 A 
BRANCH  15  18
ATOM     18  O   UNL     1       8.675  20.125  17.936  1.00  0.00    -0.504 OA
ATOM     19  H   UNL     1       7.922  19.708  17.401  1.00  0.00     0.293 HD
ENDBRANCH  15  18
BRANCH  17  20
ATOM     20  O   UNL     1       9.707  19.121  15.555  1.00  0.00    -0.504 OA
ATOM     21  H   UNL     1       9.321  18.273  15.157  1.00  0.00     0.293 HD
ENDBRANCH  17  20
ENDBRANCH   1  12
BRANCH   2  22
ATOM     22  O   UNL     1      14.708  19.816  16.382  1.00  0.00    -0.502 OA
ATOM     23  H   UNL     1      15.245  20.118  15.578  1.00  0.00     0.293 HD
ENDBRANCH   2  22
BRANCH   6  24
ATOM     24  O   UNL     1      18.810  16.457  16.898  1.00  0.00    -0.507 OA
ATOM     25  H   UNL     1      19.609  16.987  17.209  1.00  0.00     0.293 HD
ENDBRANCH   6  24
BRANCH   8  26
ATOM     26  O   UNL     1      17.018  13.392  20.107  1.00  0.00    -0.508 OA
ATOM     27  H   UNL     1      17.943  13.103  20.402  1.00  0.00     0.293 HD
ENDBRANCH   8  26
TORSDOF 6
ENDMDL
MODEL 8
REMARK VINA RESULT:    -3.691      1.883      7.370
REMARK INTER + INTRA:          -4.483
REMARK INTER:                  -4.873
REMARK INTRA:                   0.389
REMARK UNBOUND:                -0.037
REMARK SMILES O=c1c(O)c(-c2ccc(O)c(O)c2)oc2cc(O)cc(O)c12
REMARK SMILES IDX 5 1 3 2 2 3 1 4 22 5 20 6 19 7 17 8 16 9 15 10 14 11 6 12
REMARK SMILES IDX 7 13 8 14 9 15 13 16 11 17 10 18 12 20 4 22 21 24 18 26
REMARK H PARENT 10 19 12 21 4 23 21 25 18 27
REMARK Flexibility Score: inf
ROOT
ATOM      1  C   UNL     1      14.087  19.680  18.094  1.00  0.00     0.180 A 
ATOM      2  C   UNL     1      14.086  19.668  16.688  1.00  0.00     0.208 A 
ATOM      3  C   UNL     1      12.859  19.734  16.009  1.00  0.00     0.238 A 
ATOM      4  O   UNL     1      12.860  19.668  14.752  1.00  0.00    -0.285 OA
ATOM      5  C   UNL     1      11.651  19.826  16.741  1.00  0.00     0.111 A 
ATOM      6  C   UNL     1      10.354  19.937  16.155  1.00  0.00     0.134 A 
ATOM      7  C   UNL     1       9.220  19.889  16.975  1.00  0.00     0.093 A 
ATOM      8  C   UNL     1       9.336  19.801  18.362  1.00  0.00     0.123 A 
ATOM      9  C   UNL     1      10.601  19.751  18.949  1.00  0.00     0.094 A 
ATOM     10  C   UNL     1      11.751  19.760  18.156  1.00  0.00     0.146 A 
ATOM     11  O   UNL     1      12.935  19.700  18.753  1.00  0.00    -0.452 OA
ENDROOT
BRANCH   1  12
ATOM     12  C   UNL     1      15.341  19.639  18.881  1.00  0.00     0.025 A 
ATOM     13  C   UNL     1      15.392  20.121  20.201  1.00  0.00     0.016 A 
ATOM     14  C   UNL     1      16.580  20.051  20.934  1.00  0.00     0.051 A 
ATOM     15  C   UNL     1      17.728  19.486  20.364  1.00  0.00     0.157 A 
ATOM     16  C   UNL     1      16.490  19.056  18.323  1.00  0.00     0.062 A 
ATOM     17  C   UNL     1      17.683  18.985  19.058  1.00  0.00     0.158 A 
BRANCH  15  18
ATOM     18  O   UNL     1      18.915  19.416  21.091  1.00  0.00    -0.504 OA
ATOM     19  H   UNL     1      19.609  20.154  21.048  1.00  0.00     0.293 HD
ENDBRANCH  15  18
BRANCH  17  20
ATOM     20  O   UNL     1      18.825  18.417  18.495  1.00  0.00    -0.504 OA
ATOM     21  H   UNL     1      19.378  17.733  18.996  1.00  0.00     0.293 HD
ENDBRANCH  17  20
ENDBRANCH   1  12
BRANCH   2  22
ATOM     22  O   UNL     1      15.288  19.555  15.986  1.00  0.00    -0.502 OA
ATOM     23  H   UNL     1      16.190  19.699  16.425  1.00  0.00     0.293 HD
ENDBRANCH   2  22
BRANCH   6  24
ATOM     24  O   UNL     1      10.128  20.123  14.788  1.00  0.00    -0.507 OA
ATOM     25  H   UNL     1       9.696  20.939  14.384  1.00  0.00     0.293 HD
ENDBRANCH   6  24
BRANCH   8  26
ATOM     26  O   UNL     1       8.186  19.772  19.148  1.00  0.00    -0.508 OA
ATOM     27  H   UNL     1       7.601  18.946  19.200  1.00  0.00     0.293 HD
ENDBRANCH   8  26
TORSDOF 6
ENDMDL
