MODEL 1
REMARK VINA RESULT:    -4.817      0.000      0.000
REMARK INTER + INTRA:          -6.042
REMARK INTER:                  -5.802
REMARK INTRA:                  -0.240
REMARK UNBOUND:                -0.240
REMARK SMILES O=c1c(O)c(-c2ccc(O)c(O)c2)oc2cc(O)cc(O)c12
REMARK SMILES IDX 5 1 3 2 2 3 1 4 22 5 20 6 19 7 17 8 16 9 15 10 14 11 6 12
REMARK SMILES IDX 7 13 8 14 9 15 13 16 11 17 10 18 12 20 4 22 21 24 18 26
REMARK H PARENT 10 19 12 21 4 23 21 25 18 27
REMARK Flexibility Score: inf
ROOT
ATOM      1  C   UNL     1     119.242 105.695 122.357  1.00  0.00     0.180 A 
ATOM      2  C   UNL     1     119.848 104.846 121.415  1.00  0.00     0.208 A 
ATOM      3  C   UNL     1     121.176 105.091 121.033  1.00  0.00     0.238 A 
ATOM      4  O   UNL     1     121.730 104.295 120.230  1.00  0.00    -0.285 OA
ATOM      5  C   UNL     1     121.877 106.191 121.584  1.00  0.00     0.111 A 
ATOM      6  C   UNL     1     123.212 106.557 121.238  1.00  0.00     0.134 A 
ATOM      7  C   UNL     1     123.851 107.585 121.943  1.00  0.00     0.093 A 
ATOM      8  C   UNL     1     123.182 108.302 122.934  1.00  0.00     0.123 A 
ATOM      9  C   UNL     1     121.857 107.992 123.239  1.00  0.00     0.094 A 
ATOM     10  C   UNL     1     121.204 106.948 122.579  1.00  0.00     0.146 A 
ATOM     11  O   UNL     1     119.946 106.678 122.906  1.00  0.00    -0.452 OA
ENDROOT
BRANCH   1  12
ATOM     12  C   UNL     1     117.837 105.515 122.791  1.00  0.00     0.025 A 
ATOM     13  C   UNL     1     117.514 104.467 123.667  1.00  0.00     0.016 A 
ATOM     14  C   UNL     1     116.199 104.291 124.105  1.00  0.00     0.051 A 
ATOM     15  C   UNL     1     115.190 105.171 123.687  1.00  0.00     0.157 A 
ATOM     16  C   UNL     1     116.827 106.407 122.390  1.00  0.00     0.062 A 
ATOM     17  C   UNL     1     115.509 106.236 122.829  1.00  0.00     0.158 A 
BRANCH  15  18
ATOM     18  O   UNL     1     113.880 104.992 124.125  1.00  0.00    -0.504 OA
ATOM     19  H   UNL     1     113.635 105.052 125.106  1.00  0.00     0.293 HD
ENDBRANCH  15  18
BRANCH  17  20
ATOM     20  O   UNL     1     114.532 107.137 122.406  1.00  0.00    -0.504 OA
ATOM     21  H   UNL     1     114.761 107.972 121.880  1.00  0.00     0.293 HD
ENDBRANCH  17  20
ENDBRANCH   1  12
BRANCH   2  22
ATOM     22  O   UNL     1     119.145 103.754 120.899  1.00  0.00    -0.502 OA
ATOM     23  H   UNL     1     118.502 103.839 120.122  1.00  0.00     0.293 HD
ENDBRANCH   2  22
BRANCH   6  24
ATOM     24  O   UNL     1     123.940 105.966 120.202  1.00  0.00    -0.507 OA
ATOM     25  H   UNL     1     124.938 106.050 120.079  1.00  0.00     0.293 HD
ENDBRANCH   6  24
BRANCH   8  26
ATOM     26  O   UNL     1     123.844 109.329 123.603  1.00  0.00    -0.508 OA
ATOM     27  H   UNL     1     124.687 109.748 123.229  1.00  0.00     0.293 HD
ENDBRANCH   8  26
TORSDOF 6
ENDMDL
MODEL 2
REMARK VINA RESULT:    -4.713      1.785      6.836
REMARK INTER + INTRA:          -5.918
REMARK INTER:                  -5.793
REMARK INTRA:                  -0.124
REMARK UNBOUND:                -0.240
REMARK SMILES O=c1c(O)c(-c2ccc(O)c(O)c2)oc2cc(O)cc(O)c12
REMARK SMILES IDX 5 1 3 2 2 3 1 4 22 5 20 6 19 7 17 8 16 9 15 10 14 11 6 12
REMARK SMILES IDX 7 13 8 14 9 15 13 16 11 17 10 18 12 20 4 22 21 24 18 26
REMARK H PARENT 10 19 12 21 4 23 21 25 18 27
REMARK Flexibility Score: inf
ROOT
ATOM      1  C   UNL     1     118.851 106.367 122.434  1.00  0.00     0.180 A 
ATOM      2  C   UNL     1     119.105 104.992 122.286  1.00  0.00     0.208 A 
ATOM      3  C   UNL     1     118.068 104.078 122.533  1.00  0.00     0.238 A 
ATOM      4  O   UNL     1     118.287 102.852 122.346  1.00  0.00    -0.285 OA
ATOM      5  C   UNL     1     116.797 104.548 122.941  1.00  0.00     0.111 A 
ATOM      6  C   UNL     1     115.686 103.709 123.258  1.00  0.00     0.134 A 
ATOM      7  C   UNL     1     114.438 104.286 123.524  1.00  0.00     0.093 A 
ATOM      8  C   UNL     1     114.276 105.670 123.548  1.00  0.00     0.123 A 
ATOM      9  C   UNL     1     115.369 106.502 123.299  1.00  0.00     0.094 A 
ATOM     10  C   UNL     1     116.618 105.955 122.995  1.00  0.00     0.146 A 
ATOM     11  O   UNL     1     117.630 106.780 122.754  1.00  0.00    -0.452 OA
ENDROOT
BRANCH   1  12
ATOM     12  C   UNL     1     119.900 107.390 122.216  1.00  0.00     0.025 A 
ATOM     13  C   UNL     1     119.676 108.421 121.290  1.00  0.00     0.016 A 
ATOM     14  C   UNL     1     120.643 109.407 121.082  1.00  0.00     0.051 A 
ATOM     15  C   UNL     1     121.841 109.388 121.810  1.00  0.00     0.157 A 
ATOM     16  C   UNL     1     121.094 107.385 122.958  1.00  0.00     0.062 A 
ATOM     17  C   UNL     1     122.063 108.374 122.756  1.00  0.00     0.158 A 
BRANCH  15  18
ATOM     18  O   UNL     1     122.804 110.373 121.600  1.00  0.00    -0.504 OA
ATOM     19  H   UNL     1     123.781 110.141 121.467  1.00  0.00     0.293 HD
ENDBRANCH  15  18
BRANCH  17  20
ATOM     20  O   UNL     1     123.238 108.334 123.506  1.00  0.00    -0.504 OA
ATOM     21  H   UNL     1     124.149 108.233 123.074  1.00  0.00     0.293 HD
ENDBRANCH  17  20
ENDBRANCH   1  12
BRANCH   2  22
ATOM     22  O   UNL     1     120.361 104.552 121.862  1.00  0.00    -0.502 OA
ATOM     23  H   UNL     1     120.595 104.437 120.883  1.00  0.00     0.293 HD
ENDBRANCH   2  22
BRANCH   6  24
ATOM     24  O   UNL     1     115.761 102.316 123.350  1.00  0.00    -0.507 OA
ATOM     25  H   UNL     1     114.982 101.689 123.221  1.00  0.00     0.293 HD
ENDBRANCH   6  24
BRANCH   8  26
ATOM     26  O   UNL     1     113.023 106.210 123.832  1.00  0.00    -0.508 OA
ATOM     27  H   UNL     1     112.589 106.092 124.740  1.00  0.00     0.293 HD
ENDBRANCH   8  26
TORSDOF 6
ENDMDL
MODEL 3
REMARK VINA RESULT:    -4.461      2.055      6.794
REMARK INTER + INTRA:          -5.613
REMARK INTER:                  -5.290
REMARK INTRA:                  -0.323
REMARK UNBOUND:                -0.240
REMARK SMILES O=c1c(O)c(-c2ccc(O)c(O)c2)oc2cc(O)cc(O)c12
REMARK SMILES IDX 5 1 3 2 2 3 1 4 22 5 20 6 19 7 17 8 16 9 15 10 14 11 6 12
REMARK SMILES IDX 7 13 8 14 9 15 13 16 11 17 10 18 12 20 4 22 21 24 18 26
REMARK H PARENT 10 19 12 21 4 23 21 25 18 27
REMARK Flexibility Score: inf
ROOT
ATOM      1  C   UNL     1     118.688 106.852 121.603  1.00  0.00     0.180 A 
ATOM      2  C   UNL     1     118.518 106.233 120.353  1.00  0.00     0.208 A 
ATOM      3  C   UNL     1     117.267 105.684 120.031  1.00  0.00     0.238 A 
ATOM      4  O   UNL     1     117.105 105.179 118.888  1.00  0.00    -0.285 OA
ATOM      5  C   UNL     1     116.207 105.744 120.968  1.00  0.00     0.111 A 
ATOM      6  C   UNL     1     114.910 105.185 120.762  1.00  0.00     0.134 A 
ATOM      7  C   UNL     1     113.900 105.419 121.704  1.00  0.00     0.093 A 
ATOM      8  C   UNL     1     114.157 106.135 122.872  1.00  0.00     0.123 A 
ATOM      9  C   UNL     1     115.437 106.637 123.111  1.00  0.00     0.094 A 
ATOM     10  C   UNL     1     116.456 106.450 122.174  1.00  0.00     0.146 A 
ATOM     11  O   UNL     1     117.657 106.951 122.435  1.00  0.00    -0.452 OA
ENDROOT
BRANCH   1  12
ATOM     12  C   UNL     1     119.984 107.432 122.025  1.00  0.00     0.025 A 
ATOM     13  C   UNL     1     120.924 106.619 122.679  1.00  0.00     0.016 A 
ATOM     14  C   UNL     1     122.160 107.140 123.068  1.00  0.00     0.051 A 
ATOM     15  C   UNL     1     122.483 108.476 122.795  1.00  0.00     0.157 A 
ATOM     16  C   UNL     1     120.319 108.766 121.735  1.00  0.00     0.062 A 
ATOM     17  C   UNL     1     121.558 109.290 122.121  1.00  0.00     0.158 A 
BRANCH  15  18
ATOM     18  O   UNL     1     123.716 108.993 123.185  1.00  0.00    -0.504 OA
ATOM     19  H   UNL     1     124.073 108.863 124.125  1.00  0.00     0.293 HD
ENDBRANCH  15  18
BRANCH  17  20
ATOM     20  O   UNL     1     121.853 110.620 121.822  1.00  0.00    -0.504 OA
ATOM     21  H   UNL     1     121.365 111.129 121.094  1.00  0.00     0.293 HD
ENDBRANCH  17  20
ENDBRANCH   1  12
BRANCH   2  22
ATOM     22  O   UNL     1     119.570 106.203 119.435  1.00  0.00    -0.502 OA
ATOM     23  H   UNL     1     119.426 106.319 118.439  1.00  0.00     0.293 HD
ENDBRANCH   2  22
BRANCH   6  24
ATOM     24  O   UNL     1     114.573 104.376 119.674  1.00  0.00    -0.507 OA
ATOM     25  H   UNL     1     115.234 103.994 119.015  1.00  0.00     0.293 HD
ENDBRANCH   6  24
BRANCH   8  26
ATOM     26  O   UNL     1     113.132 106.336 123.794  1.00  0.00    -0.508 OA
ATOM     27  H   UNL     1     113.133 107.130 124.423  1.00  0.00     0.293 HD
ENDBRANCH   8  26
TORSDOF 6
ENDMDL
MODEL 4
REMARK VINA RESULT:    -4.444      2.265      3.302
REMARK INTER + INTRA:          -5.593
REMARK INTER:                  -5.423
REMARK INTRA:                  -0.170
REMARK UNBOUND:                -0.240
REMARK SMILES O=c1c(O)c(-c2ccc(O)c(O)c2)oc2cc(O)cc(O)c12
REMARK SMILES IDX 5 1 3 2 2 3 1 4 22 5 20 6 19 7 17 8 16 9 15 10 14 11 6 12
REMARK SMILES IDX 7 13 8 14 9 15 13 16 11 17 10 18 12 20 4 22 21 24 18 26
REMARK H PARENT 10 19 12 21 4 23 21 25 18 27
REMARK Flexibility Score: inf
ROOT
ATOM      1  C   UNL     1     117.501 107.208 121.840  1.00  0.00     0.180 A 
ATOM      2  C   UNL     1     117.400 108.445 121.181  1.00  0.00     0.208 A 
ATOM      3  C   UNL     1     118.551 109.235 121.037  1.00  0.00     0.238 A 
ATOM      4  O   UNL     1     118.465 110.317 120.399  1.00  0.00    -0.285 OA
ATOM      5  C   UNL     1     119.785 108.787 121.568  1.00  0.00     0.111 A 
ATOM      6  C   UNL     1     121.006 109.525 121.515  1.00  0.00     0.134 A 
ATOM      7  C   UNL     1     122.193 108.927 121.956  1.00  0.00     0.093 A 
ATOM      8  C   UNL     1     122.193 107.647 122.506  1.00  0.00     0.123 A 
ATOM      9  C   UNL     1     120.996 106.939 122.617  1.00  0.00     0.094 A 
ATOM     10  C   UNL     1     119.801 107.494 122.153  1.00  0.00     0.146 A 
ATOM     11  O   UNL     1     118.685 106.784 122.268  1.00  0.00    -0.452 OA
ENDROOT
BRANCH   1  12
ATOM     12  C   UNL     1     116.327 106.330 122.052  1.00  0.00     0.025 A 
ATOM     13  C   UNL     1     116.327 105.034 121.512  1.00  0.00     0.016 A 
ATOM     14  C   UNL     1     115.239 104.182 121.716  1.00  0.00     0.051 A 
ATOM     15  C   UNL     1     114.142 104.606 122.479  1.00  0.00     0.157 A 
ATOM     16  C   UNL     1     115.234 106.744 122.834  1.00  0.00     0.062 A 
ATOM     17  C   UNL     1     114.144 105.893 123.044  1.00  0.00     0.158 A 
BRANCH  15  18
ATOM     18  O   UNL     1     113.058 103.755 122.680  1.00  0.00    -0.504 OA
ATOM     19  H   UNL     1     112.528 103.764 123.544  1.00  0.00     0.293 HD
ENDBRANCH  15  18
BRANCH  17  20
ATOM     20  O   UNL     1     113.074 106.340 123.819  1.00  0.00    -0.504 OA
ATOM     21  H   UNL     1     113.041 107.278 124.200  1.00  0.00     0.293 HD
ENDBRANCH  17  20
ENDBRANCH   1  12
BRANCH   2  22
ATOM     22  O   UNL     1     116.177 108.859 120.647  1.00  0.00    -0.502 OA
ATOM     23  H   UNL     1     115.309 108.372 120.835  1.00  0.00     0.293 HD
ENDBRANCH   2  22
BRANCH   6  24
ATOM     24  O   UNL     1     121.101 110.846 121.068  1.00  0.00    -0.507 OA
ATOM     25  H   UNL     1     121.131 111.124 120.098  1.00  0.00     0.293 HD
ENDBRANCH   6  24
BRANCH   8  26
ATOM     26  O   UNL     1     123.392 107.090 122.949  1.00  0.00    -0.508 OA
ATOM     27  H   UNL     1     123.495 106.738 123.893  1.00  0.00     0.293 HD
ENDBRANCH   8  26
TORSDOF 6
ENDMDL
MODEL 5
REMARK VINA RESULT:    -4.442      2.436      3.652
REMARK INTER + INTRA:          -5.590
REMARK INTER:                  -5.268
REMARK INTRA:                  -0.323
REMARK UNBOUND:                -0.240
REMARK SMILES O=c1c(O)c(-c2ccc(O)c(O)c2)oc2cc(O)cc(O)c12
REMARK SMILES IDX 5 1 3 2 2 3 1 4 22 5 20 6 19 7 17 8 16 9 15 10 14 11 6 12
REMARK SMILES IDX 7 13 8 14 9 15 13 16 11 17 10 18 12 20 4 22 21 24 18 26
REMARK H PARENT 10 19 12 21 4 23 21 25 18 27
REMARK Flexibility Score: inf
ROOT
ATOM      1  C   UNL     1     119.842 106.297 122.279  1.00  0.00     0.180 A 
ATOM      2  C   UNL     1     119.078 107.241 121.572  1.00  0.00     0.208 A 
ATOM      3  C   UNL     1     119.621 108.513 121.333  1.00  0.00     0.238 A 
ATOM      4  O   UNL     1     118.954 109.337 120.653  1.00  0.00    -0.285 OA
ATOM      5  C   UNL     1     120.913 108.831 121.817  1.00  0.00     0.111 A 
ATOM      6  C   UNL     1     121.545 110.102 121.667  1.00  0.00     0.134 A 
ATOM      7  C   UNL     1     122.877 110.263 122.070  1.00  0.00     0.093 A 
ATOM      8  C   UNL     1     123.576 109.220 122.676  1.00  0.00     0.123 A 
ATOM      9  C   UNL     1     122.949 107.991 122.881  1.00  0.00     0.094 A 
ATOM     10  C   UNL     1     121.634 107.789 122.457  1.00  0.00     0.146 A 
ATOM     11  O   UNL     1     121.076 106.601 122.662  1.00  0.00    -0.452 OA
ENDROOT
BRANCH   1  12
ATOM     12  C   UNL     1     119.328 104.943 122.592  1.00  0.00     0.025 A 
ATOM     13  C   UNL     1     118.564 104.746 123.753  1.00  0.00     0.016 A 
ATOM     14  C   UNL     1     118.052 103.482 124.058  1.00  0.00     0.051 A 
ATOM     15  C   UNL     1     118.283 102.400 123.198  1.00  0.00     0.157 A 
ATOM     16  C   UNL     1     119.540 103.859 121.722  1.00  0.00     0.062 A 
ATOM     17  C   UNL     1     119.027 102.592 122.022  1.00  0.00     0.158 A 
BRANCH  15  18
ATOM     18  O   UNL     1     117.772 101.140 123.505  1.00  0.00    -0.504 OA
ATOM     19  H   UNL     1     117.316 100.954 124.390  1.00  0.00     0.293 HD
ENDBRANCH  15  18
BRANCH  17  20
ATOM     20  O   UNL     1     119.262 101.539 121.138  1.00  0.00    -0.504 OA
ATOM     21  H   UNL     1     119.124 101.634 120.139  1.00  0.00     0.293 HD
ENDBRANCH  17  20
ENDBRANCH   1  12
BRANCH   2  22
ATOM     22  O   UNL     1     117.814 106.900 121.086  1.00  0.00    -0.502 OA
ATOM     23  H   UNL     1     117.685 106.340 120.252  1.00  0.00     0.293 HD
ENDBRANCH   2  22
BRANCH   6  24
ATOM     24  O   UNL     1     120.907 111.236 121.157  1.00  0.00    -0.507 OA
ATOM     25  H   UNL     1     120.350 111.252 120.316  1.00  0.00     0.293 HD
ENDBRANCH   6  24
BRANCH   8  26
ATOM     26  O   UNL     1     124.895 109.421 123.079  1.00  0.00    -0.508 OA
ATOM     27  H   UNL     1     125.524 110.019 122.556  1.00  0.00     0.293 HD
ENDBRANCH   8  26
TORSDOF 6
ENDMDL
MODEL 6
REMARK VINA RESULT:    -4.344     14.432     16.376
REMARK INTER + INTRA:          -5.473
REMARK INTER:                  -5.891
REMARK INTRA:                   0.418
REMARK UNBOUND:                -0.240
REMARK SMILES O=c1c(O)c(-c2ccc(O)c(O)c2)oc2cc(O)cc(O)c12
REMARK SMILES IDX 5 1 3 2 2 3 1 4 22 5 20 6 19 7 17 8 16 9 15 10 14 11 6 12
REMARK SMILES IDX 7 13 8 14 9 15 13 16 11 17 10 18 12 20 4 22 21 24 18 26
REMARK H PARENT 10 19 12 21 4 23 21 25 18 27
REMARK Flexibility Score: inf
ROOT
ATOM      1  C   UNL     1     123.769 110.697 108.404  1.00  0.00     0.180 A 
ATOM      2  C   UNL     1     122.444 110.320 108.684  1.00  0.00     0.208 A 
ATOM      3  C   UNL     1     122.124 108.955 108.743  1.00  0.00     0.238 A 
ATOM      4  O   UNL     1     120.948 108.623 109.048  1.00  0.00    -0.285 OA
ATOM      5  C   UNL     1     123.126 107.984 108.505  1.00  0.00     0.111 A 
ATOM      6  C   UNL     1     122.905 106.574 108.499  1.00  0.00     0.134 A 
ATOM      7  C   UNL     1     123.996 105.704 108.381  1.00  0.00     0.093 A 
ATOM      8  C   UNL     1     125.289 106.192 108.204  1.00  0.00     0.123 A 
ATOM      9  C   UNL     1     125.511 107.568 108.149  1.00  0.00     0.094 A 
ATOM     10  C   UNL     1     124.447 108.462 108.299  1.00  0.00     0.146 A 
ATOM     11  O   UNL     1     124.701 109.764 108.250  1.00  0.00    -0.452 OA
ENDROOT
BRANCH   1  12
ATOM     12  C   UNL     1     124.179 112.117 108.301  1.00  0.00     0.025 A 
ATOM     13  C   UNL     1     123.207 113.101 108.060  1.00  0.00     0.016 A 
ATOM     14  C   UNL     1     123.567 114.447 107.978  1.00  0.00     0.051 A 
ATOM     15  C   UNL     1     124.904 114.834 108.153  1.00  0.00     0.157 A 
ATOM     16  C   UNL     1     125.515 112.510 108.496  1.00  0.00     0.062 A 
ATOM     17  C   UNL     1     125.880 113.859 108.418  1.00  0.00     0.158 A 
BRANCH  15  18
ATOM     18  O   UNL     1     125.261 116.178 108.070  1.00  0.00    -0.504 OA
ATOM     19  H   UNL     1     125.830 116.621 108.781  1.00  0.00     0.293 HD
ENDBRANCH  15  18
BRANCH  17  20
ATOM     20  O   UNL     1     127.215 114.211 108.611  1.00  0.00    -0.504 OA
ATOM     21  H   UNL     1     127.962 113.816 108.052  1.00  0.00     0.293 HD
ENDBRANCH  17  20
ENDBRANCH   1  12
BRANCH   2  22
ATOM     22  O   UNL     1     121.475 111.294 108.937  1.00  0.00    -0.502 OA
ATOM     23  H   UNL     1     121.160 111.945 108.228  1.00  0.00     0.293 HD
ENDBRANCH   2  22
BRANCH   6  24
ATOM     24  O   UNL     1     121.641 105.983 108.578  1.00  0.00    -0.507 OA
ATOM     25  H   UNL     1     120.794 106.468 108.833  1.00  0.00     0.293 HD
ENDBRANCH   6  24
BRANCH   8  26
ATOM     26  O   UNL     1     126.349 105.296 108.075  1.00  0.00    -0.508 OA
ATOM     27  H   UNL     1     126.634 104.940 107.170  1.00  0.00     0.293 HD
ENDBRANCH   8  26
TORSDOF 6
ENDMDL
MODEL 7
REMARK VINA RESULT:    -4.341     13.079     15.999
REMARK INTER + INTRA:          -5.469
REMARK INTER:                  -5.242
REMARK INTRA:                  -0.226
REMARK UNBOUND:                -0.240
REMARK SMILES O=c1c(O)c(-c2ccc(O)c(O)c2)oc2cc(O)cc(O)c12
REMARK SMILES IDX 5 1 3 2 2 3 1 4 22 5 20 6 19 7 17 8 16 9 15 10 14 11 6 12
REMARK SMILES IDX 7 13 8 14 9 15 13 16 11 17 10 18 12 20 4 22 21 24 18 26
REMARK H PARENT 10 19 12 21 4 23 21 25 18 27
REMARK Flexibility Score: inf
ROOT
ATOM      1  C   UNL     1     124.091 110.288 109.020  1.00  0.00     0.180 A 
ATOM      2  C   UNL     1     124.286 109.808 110.327  1.00  0.00     0.208 A 
ATOM      3  C   UNL     1     124.028 108.456 110.600  1.00  0.00     0.238 A 
ATOM      4  O   UNL     1     124.256 108.020 111.760  1.00  0.00    -0.285 OA
ATOM      5  C   UNL     1     123.564 107.604 109.569  1.00  0.00     0.111 A 
ATOM      6  C   UNL     1     123.233 106.226 109.743  1.00  0.00     0.134 A 
ATOM      7  C   UNL     1     122.909 105.447 108.625  1.00  0.00     0.093 A 
ATOM      8  C   UNL     1     122.842 106.009 107.352  1.00  0.00     0.123 A 
ATOM      9  C   UNL     1     123.105 107.368 107.178  1.00  0.00     0.094 A 
ATOM     10  C   UNL     1     123.466 108.163 108.268  1.00  0.00     0.146 A 
ATOM     11  O   UNL     1     123.719 109.450 108.059  1.00  0.00    -0.452 OA
ENDROOT
BRANCH   1  12
ATOM     12  C   UNL     1     124.318 111.707 108.660  1.00  0.00     0.025 A 
ATOM     13  C   UNL     1     123.215 112.544 108.425  1.00  0.00     0.016 A 
ATOM     14  C   UNL     1     123.405 113.890 108.104  1.00  0.00     0.051 A 
ATOM     15  C   UNL     1     124.698 114.424 108.028  1.00  0.00     0.157 A 
ATOM     16  C   UNL     1     125.613 112.251 108.603  1.00  0.00     0.062 A 
ATOM     17  C   UNL     1     125.807 113.600 108.284  1.00  0.00     0.158 A 
BRANCH  15  18
ATOM     18  O   UNL     1     124.884 115.767 107.706  1.00  0.00    -0.504 OA
ATOM     19  H   UNL     1     125.801 116.141 107.495  1.00  0.00     0.293 HD
ENDBRANCH  15  18
BRANCH  17  20
ATOM     20  O   UNL     1     127.106 114.103 108.231  1.00  0.00    -0.504 OA
ATOM     21  H   UNL     1     127.755 113.843 107.497  1.00  0.00     0.293 HD
ENDBRANCH  17  20
ENDBRANCH   1  12
BRANCH   2  22
ATOM     22  O   UNL     1     124.764 110.661 111.325  1.00  0.00    -0.502 OA
ATOM     23  H   UNL     1     124.233 110.870 112.161  1.00  0.00     0.293 HD
ENDBRANCH   2  22
BRANCH   6  24
ATOM     24  O   UNL     1     123.181 105.587 110.985  1.00  0.00    -0.507 OA
ATOM     25  H   UNL     1     123.931 105.042 111.383  1.00  0.00     0.293 HD
ENDBRANCH   6  24
BRANCH   8  26
ATOM     26  O   UNL     1     122.501 105.207 106.264  1.00  0.00    -0.508 OA
ATOM     27  H   UNL     1     121.541 105.119 105.952  1.00  0.00     0.293 HD
ENDBRANCH   8  26
TORSDOF 6
ENDMDL
MODEL 8
REMARK VINA RESULT:    -4.227     15.273     17.771
REMARK INTER + INTRA:          -5.332
REMARK INTER:                  -5.177
REMARK INTRA:                  -0.155
REMARK UNBOUND:                -0.240
REMARK SMILES O=c1c(O)c(-c2ccc(O)c(O)c2)oc2cc(O)cc(O)c12
REMARK SMILES IDX 5 1 3 2 2 3 1 4 22 5 20 6 19 7 17 8 16 9 15 10 14 11 6 12
REMARK SMILES IDX 7 13 8 14 9 15 13 16 11 17 10 18 12 20 4 22 21 24 18 26
REMARK H PARENT 10 19 12 21 4 23 21 25 18 27
REMARK Flexibility Score: inf
ROOT
ATOM      1  C   UNL     1     126.652 115.182 109.522  1.00  0.00     0.180 A 
ATOM      2  C   UNL     1     126.536 116.538 109.871  1.00  0.00     0.208 A 
ATOM      3  C   UNL     1     127.701 117.277 110.127  1.00  0.00     0.238 A 
ATOM      4  O   UNL     1     127.593 118.505 110.386  1.00  0.00    -0.285 OA
ATOM      5  C   UNL     1     128.967 116.648 110.046  1.00  0.00     0.111 A 
ATOM      6  C   UNL     1     130.211 117.291 110.325  1.00  0.00     0.134 A 
ATOM      7  C   UNL     1     131.410 116.607 110.086  1.00  0.00     0.093 A 
ATOM      8  C   UNL     1     131.409 115.286 109.642  1.00  0.00     0.123 A 
ATOM      9  C   UNL     1     130.198 114.628 109.424  1.00  0.00     0.094 A 
ATOM     10  C   UNL     1     128.986 115.295 109.618  1.00  0.00     0.146 A 
ATOM     11  O   UNL     1     127.856 114.637 109.390  1.00  0.00    -0.452 OA
ENDROOT
BRANCH   1  12
ATOM     12  C   UNL     1     125.468 114.330 109.262  1.00  0.00     0.025 A 
ATOM     13  C   UNL     1     125.168 113.278 110.140  1.00  0.00     0.016 A 
ATOM     14  C   UNL     1     124.046 112.475 109.926  1.00  0.00     0.051 A 
ATOM     15  C   UNL     1     123.196 112.722 108.839  1.00  0.00     0.157 A 
ATOM     16  C   UNL     1     124.602 114.588 108.184  1.00  0.00     0.062 A 
ATOM     17  C   UNL     1     123.475 113.788 107.967  1.00  0.00     0.158 A 
BRANCH  15  18
ATOM     18  O   UNL     1     122.078 111.919 108.627  1.00  0.00    -0.504 OA
ATOM     19  H   UNL     1     122.149 110.909 108.586  1.00  0.00     0.293 HD
ENDBRANCH  15  18
BRANCH  17  20
ATOM     20  O   UNL     1     122.642 114.070 106.885  1.00  0.00    -0.504 OA
ATOM     21  H   UNL     1     122.952 114.628 106.098  1.00  0.00     0.293 HD
ENDBRANCH  17  20
ENDBRANCH   1  12
BRANCH   2  22
ATOM     22  O   UNL     1     125.278 117.144 109.924  1.00  0.00    -0.502 OA
ATOM     23  H   UNL     1     124.421 116.635 109.747  1.00  0.00     0.293 HD
ENDBRANCH   2  22
BRANCH   6  24
ATOM     24  O   UNL     1     130.322 118.578 110.857  1.00  0.00    -0.507 OA
ATOM     25  H   UNL     1     129.627 119.021 111.440  1.00  0.00     0.293 HD
ENDBRANCH   6  24
BRANCH   8  26
ATOM     26  O   UNL     1     132.621 114.632 109.430  1.00  0.00    -0.508 OA
ATOM     27  H   UNL     1     132.810 113.723 109.836  1.00  0.00     0.293 HD
ENDBRANCH   8  26
TORSDOF 6
ENDMDL
MODEL 9
REMARK VINA RESULT:    -4.222     14.553     16.164
REMARK INTER + INTRA:          -5.326
REMARK INTER:                  -5.005
REMARK INTRA:                  -0.321
REMARK UNBOUND:                -0.240
REMARK SMILES O=c1c(O)c(-c2ccc(O)c(O)c2)oc2cc(O)cc(O)c12
REMARK SMILES IDX 5 1 3 2 2 3 1 4 22 5 20 6 19 7 17 8 16 9 15 10 14 11 6 12
REMARK SMILES IDX 7 13 8 14 9 15 13 16 11 17 10 18 12 20 4 22 21 24 18 26
REMARK H PARENT 10 19 12 21 4 23 21 25 18 27
REMARK Flexibility Score: inf
ROOT
ATOM      1  C   UNL     1     123.982 110.895 108.786  1.00  0.00     0.180 A 
ATOM      2  C   UNL     1     125.032 110.003 108.514  1.00  0.00     0.208 A 
ATOM      3  C   UNL     1     124.726 108.674 108.178  1.00  0.00     0.238 A 
ATOM      4  O   UNL     1     125.669 107.894 107.882  1.00  0.00    -0.285 OA
ATOM      5  C   UNL     1     123.376 108.251 108.135  1.00  0.00     0.111 A 
ATOM      6  C   UNL     1     122.953 106.918 107.846  1.00  0.00     0.134 A 
ATOM      7  C   UNL     1     121.588 106.644 107.702  1.00  0.00     0.093 A 
ATOM      8  C   UNL     1     120.629 107.636 107.899  1.00  0.00     0.123 A 
ATOM      9  C   UNL     1     121.028 108.928 108.240  1.00  0.00     0.094 A 
ATOM     10  C   UNL     1     122.384 109.242 108.356  1.00  0.00     0.146 A 
ATOM     11  O   UNL     1     122.723 110.486 108.673  1.00  0.00    -0.452 OA
ENDROOT
BRANCH   1  12
ATOM     12  C   UNL     1     124.225 112.305 109.171  1.00  0.00     0.025 A 
ATOM     13  C   UNL     1     124.361 112.636 110.529  1.00  0.00     0.016 A 
ATOM     14  C   UNL     1     124.611 113.955 110.914  1.00  0.00     0.051 A 
ATOM     15  C   UNL     1     124.745 114.961 109.947  1.00  0.00     0.157 A 
ATOM     16  C   UNL     1     124.381 113.313 108.203  1.00  0.00     0.062 A 
ATOM     17  C   UNL     1     124.634 114.635 108.585  1.00  0.00     0.158 A 
BRANCH  15  18
ATOM     18  O   UNL     1     124.993 116.276 110.334  1.00  0.00    -0.504 OA
ATOM     19  H   UNL     1     124.667 116.639 111.222  1.00  0.00     0.293 HD
ENDBRANCH  15  18
BRANCH  17  20
ATOM     20  O   UNL     1     124.777 115.610 107.598  1.00  0.00    -0.504 OA
ATOM     21  H   UNL     1     124.002 115.901 107.013  1.00  0.00     0.293 HD
ENDBRANCH  17  20
ENDBRANCH   1  12
BRANCH   2  22
ATOM     22  O   UNL     1     126.357 110.447 108.541  1.00  0.00    -0.502 OA
ATOM     23  H   UNL     1     127.032 110.186 107.833  1.00  0.00     0.293 HD
ENDBRANCH   2  22
BRANCH   6  24
ATOM     24  O   UNL     1     123.825 105.833 107.719  1.00  0.00    -0.507 OA
ATOM     25  H   UNL     1     124.815 105.866 107.912  1.00  0.00     0.293 HD
ENDBRANCH   6  24
BRANCH   8  26
ATOM     26  O   UNL     1     119.278 107.322 107.763  1.00  0.00    -0.508 OA
ATOM     27  H   UNL     1     118.553 107.978 108.029  1.00  0.00     0.293 HD
ENDBRANCH   8  26
TORSDOF 6
ENDMDL
