MODEL 1
REMARK VINA RESULT:    -5.678      0.000      0.000
REMARK INTER + INTRA:         -10.858
REMARK INTER:                  -9.662
REMARK INTRA:                  -1.196
REMARK UNBOUND:                -1.196
REMARK SMILES CCCCCCCCCCCCCC(=O)[O-]
REMARK SMILES IDX 8 1 9 2 10 3 11 4 12 5 13 6 14 7 15 8 16 9 7 10 6 11 5 12
REMARK SMILES IDX 4 13 3 14 2 15 1 16
REMARK H PARENT
REMARK Flexibility Score: inf
ROOT
ATOM      1  C   UNL     1      11.911   3.963  53.814  1.00  0.00     0.000 C 
ENDROOT
BRANCH   1   2
ATOM      2  C   UNL     1      10.717   3.229  54.451  1.00  0.00     0.000 C 
BRANCH   2   3
ATOM      3  C   UNL     1       9.492   4.136  54.640  1.00  0.00     0.000 C 
BRANCH   3   4
ATOM      4  C   UNL     1       9.619   4.973  55.921  1.00  0.00     0.000 C 
BRANCH   4   5
ATOM      5  C   UNL     1       9.476   6.484  55.670  1.00  0.00     0.006 C 
BRANCH   5   6
ATOM      6  C   UNL     1       9.907   6.929  54.261  1.00  0.00     0.053 C 
BRANCH   6   7
ATOM      7  C   UNL     1      11.232   7.628  54.255  1.00  0.00     0.041 C 
ATOM      8  O   UNL     1      12.041   7.449  53.307  1.00  0.00    -0.550 OA
ATOM      9  O   UNL     1      11.588   8.453  55.315  1.00  0.00    -0.550 OA
ENDBRANCH   6   7
ENDBRANCH   5   6
ENDBRANCH   4   5
ENDBRANCH   3   4
ENDBRANCH   2   3
ENDBRANCH   1   2
BRANCH   1  10
ATOM     10  C   UNL     1      13.023   4.374  54.801  1.00  0.00     0.000 C 
BRANCH  10  11
ATOM     11  C   UNL     1      13.021   3.613  56.142  1.00  0.00    -0.000 C 
BRANCH  11  12
ATOM     12  C   UNL     1      14.288   2.786  56.423  1.00  0.00    -0.000 C 
BRANCH  12  13
ATOM     13  C   UNL     1      15.484   3.217  55.561  1.00  0.00    -0.000 C 
BRANCH  13  14
ATOM     14  C   UNL     1      16.534   2.102  55.482  1.00  0.00    -0.000 C 
BRANCH  14  15
ATOM     15  C   UNL     1      16.219   0.977  56.473  1.00  0.00    -0.003 C 
ATOM     16  C   UNL     1      16.494  -0.392  55.859  1.00  0.00     0.004 C 
ENDBRANCH  14  15
ENDBRANCH  13  14
ENDBRANCH  12  13
ENDBRANCH  11  12
ENDBRANCH  10  11
ENDBRANCH   1  10
TORSDOF 12
ENDMDL
MODEL 2
REMARK VINA RESULT:    -5.393      1.615      2.253
REMARK INTER + INTRA:         -10.372
REMARK INTER:                  -9.055
REMARK INTRA:                  -1.317
REMARK UNBOUND:                -1.196
REMARK SMILES CCCCCCCCCCCCCC(=O)[O-]
REMARK SMILES IDX 8 1 9 2 10 3 11 4 12 5 13 6 14 7 15 8 16 9 7 10 6 11 5 12
REMARK SMILES IDX 4 13 3 14 2 15 1 16
REMARK H PARENT
REMARK Flexibility Score: inf
ROOT
ATOM      1  C   UNL     1      10.999   3.953  54.030  1.00  0.00     0.000 C 
ENDROOT
BRANCH   1   2
ATOM      2  C   UNL     1      12.122   4.152  52.997  1.00  0.00     0.000 C 
BRANCH   2   3
ATOM      3  C   UNL     1      12.373   5.631  52.665  1.00  0.00     0.000 C 
BRANCH   3   4
ATOM      4  C   UNL     1      11.174   6.498  53.077  1.00  0.00     0.000 C 
BRANCH   4   5
ATOM      5  C   UNL     1      11.579   7.739  53.891  1.00  0.00     0.006 C 
BRANCH   5   6
ATOM      6  C   UNL     1      11.072   7.727  55.345  1.00  0.00     0.053 C 
BRANCH   6   7
ATOM      7  C   UNL     1       9.630   7.333  55.452  1.00  0.00     0.041 C 
ATOM      8  O   UNL     1       9.312   6.209  55.921  1.00  0.00    -0.550 OA
ATOM      9  O   UNL     1       8.638   8.196  55.002  1.00  0.00    -0.550 OA
ENDBRANCH   6   7
ENDBRANCH   5   6
ENDBRANCH   4   5
ENDBRANCH   3   4
ENDBRANCH   2   3
ENDBRANCH   1   2
BRANCH   1  10
ATOM     10  C   UNL     1      11.454   3.349  55.375  1.00  0.00     0.000 C 
BRANCH  10  11
ATOM     11  C   UNL     1      12.550   4.145  56.112  1.00  0.00    -0.000 C 
BRANCH  11  12
ATOM     12  C   UNL     1      13.810   3.336  56.471  1.00  0.00    -0.000 C 
BRANCH  12  13
ATOM     13  C   UNL     1      15.029   3.724  55.621  1.00  0.00    -0.000 C 
BRANCH  13  14
ATOM     14  C   UNL     1      16.032   2.568  55.537  1.00  0.00    -0.000 C 
BRANCH  14  15
ATOM     15  C   UNL     1      15.579   1.383  56.398  1.00  0.00    -0.003 C 
ATOM     16  C   UNL     1      16.570   0.227  56.309  1.00  0.00     0.004 C 
ENDBRANCH  14  15
ENDBRANCH  13  14
ENDBRANCH  12  13
ENDBRANCH  11  12
ENDBRANCH  10  11
ENDBRANCH   1  10
TORSDOF 12
ENDMDL
MODEL 3
REMARK VINA RESULT:    -5.337      1.614      2.822
REMARK INTER + INTRA:         -10.277
REMARK INTER:                  -8.738
REMARK INTRA:                  -1.539
REMARK UNBOUND:                -1.196
REMARK SMILES CCCCCCCCCCCCCC(=O)[O-]
REMARK SMILES IDX 8 1 9 2 10 3 11 4 12 5 13 6 14 7 15 8 16 9 7 10 6 11 5 12
REMARK SMILES IDX 4 13 3 14 2 15 1 16
REMARK H PARENT
REMARK Flexibility Score: inf
ROOT
ATOM      1  C   UNL     1       9.502   4.189  54.867  1.00  0.00     0.000 C 
ENDROOT
BRANCH   1   2
ATOM      2  C   UNL     1       9.644   5.279  55.945  1.00  0.00     0.000 C 
BRANCH   2   3
ATOM      3  C   UNL     1       9.524   6.701  55.376  1.00  0.00     0.000 C 
BRANCH   3   4
ATOM      4  C   UNL     1      10.909   7.336  55.185  1.00  0.00     0.000 C 
BRANCH   4   5
ATOM      5  C   UNL     1      11.080   8.008  53.812  1.00  0.00     0.006 C 
BRANCH   5   6
ATOM      6  C   UNL     1      10.485   7.203  52.642  1.00  0.00     0.053 C 
BRANCH   6   7
ATOM      7  C   UNL     1       9.439   7.966  51.888  1.00  0.00     0.041 C 
ATOM      8  O   UNL     1       9.556   8.150  50.648  1.00  0.00    -0.550 OA
ATOM      9  O   UNL     1       8.349   8.503  52.562  1.00  0.00    -0.550 OA
ENDBRANCH   6   7
ENDBRANCH   5   6
ENDBRANCH   4   5
ENDBRANCH   3   4
ENDBRANCH   2   3
ENDBRANCH   1   2
BRANCH   1  10
ATOM     10  C   UNL     1      10.772   3.352  54.619  1.00  0.00     0.000 C 
BRANCH  10  11
ATOM     11  C   UNL     1      11.887   4.071  53.833  1.00  0.00    -0.000 C 
BRANCH  11  12
ATOM     12  C   UNL     1      13.152   4.395  54.648  1.00  0.00    -0.000 C 
BRANCH  12  13
ATOM     13  C   UNL     1      13.058   3.923  56.106  1.00  0.00    -0.000 C 
BRANCH  13  14
ATOM     14  C   UNL     1      14.172   2.921  56.433  1.00  0.00    -0.000 C 
BRANCH  14  15
ATOM     15  C   UNL     1      15.405   3.164  55.557  1.00  0.00    -0.003 C 
ATOM     16  C   UNL     1      16.360   1.975  55.607  1.00  0.00     0.004 C 
ENDBRANCH  14  15
ENDBRANCH  13  14
ENDBRANCH  12  13
ENDBRANCH  11  12
ENDBRANCH  10  11
ENDBRANCH   1  10
TORSDOF 12
ENDMDL
MODEL 4
REMARK VINA RESULT:    -5.234      3.358      7.001
REMARK INTER + INTRA:         -10.102
REMARK INTER:                  -8.892
REMARK INTRA:                  -1.210
REMARK UNBOUND:                -1.196
REMARK SMILES CCCCCCCCCCCCCC(=O)[O-]
REMARK SMILES IDX 8 1 9 2 10 3 11 4 12 5 13 6 14 7 15 8 16 9 7 10 6 11 5 12
REMARK SMILES IDX 4 13 3 14 2 15 1 16
REMARK H PARENT
REMARK Flexibility Score: inf
ROOT
ATOM      1  C   UNL     1      11.599   3.299  55.310  1.00  0.00     0.000 C 
ENDROOT
BRANCH   1   2
ATOM      2  C   UNL     1      12.218   4.191  56.401  1.00  0.00     0.000 C 
BRANCH   2   3
ATOM      3  C   UNL     1      13.670   3.812  56.729  1.00  0.00     0.000 C 
BRANCH   3   4
ATOM      4  C   UNL     1      14.492   3.621  55.446  1.00  0.00     0.000 C 
BRANCH   4   5
ATOM      5  C   UNL     1      15.943   3.190  55.718  1.00  0.00     0.006 C 
BRANCH   5   6
ATOM      6  C   UNL     1      16.219   1.702  55.434  1.00  0.00     0.053 C 
BRANCH   6   7
ATOM      7  C   UNL     1      16.180   0.859  56.672  1.00  0.00     0.041 C 
ATOM      8  O   UNL     1      17.227   0.302  57.096  1.00  0.00    -0.550 OA
ATOM      9  O   UNL     1      14.979   0.661  57.342  1.00  0.00    -0.550 OA
ENDBRANCH   6   7
ENDBRANCH   5   6
ENDBRANCH   4   5
ENDBRANCH   3   4
ENDBRANCH   2   3
ENDBRANCH   1   2
BRANCH   1  10
ATOM     10  C   UNL     1      11.004   4.061  54.108  1.00  0.00     0.000 C 
BRANCH  10  11
ATOM     11  C   UNL     1      12.012   4.420  52.998  1.00  0.00    -0.000 C 
BRANCH  11  12
ATOM     12  C   UNL     1      12.385   5.911  52.915  1.00  0.00    -0.000 C 
BRANCH  12  13
ATOM     13  C   UNL     1      11.545   6.788  53.854  1.00  0.00    -0.000 C 
BRANCH  13  14
ATOM     14  C   UNL     1      10.425   7.501  53.085  1.00  0.00    -0.000 C 
BRANCH  14  15
ATOM     15  C   UNL     1       9.067   7.280  53.760  1.00  0.00    -0.003 C 
ATOM     16  C   UNL     1       9.150   7.532  55.262  1.00  0.00     0.004 C 
ENDBRANCH  14  15
ENDBRANCH  13  14
ENDBRANCH  12  13
ENDBRANCH  11  12
ENDBRANCH  10  11
ENDBRANCH   1  10
TORSDOF 12
ENDMDL
MODEL 5
REMARK VINA RESULT:    -5.217      2.985      6.028
REMARK INTER + INTRA:         -10.073
REMARK INTER:                  -8.586
REMARK INTRA:                  -1.487
REMARK UNBOUND:                -1.196
REMARK SMILES CCCCCCCCCCCCCC(=O)[O-]
REMARK SMILES IDX 8 1 9 2 10 3 11 4 12 5 13 6 14 7 15 8 16 9 7 10 6 11 5 12
REMARK SMILES IDX 4 13 3 14 2 15 1 16
REMARK H PARENT
REMARK Flexibility Score: inf
ROOT
ATOM      1  C   UNL     1      11.772   3.851  53.024  1.00  0.00     0.000 C 
ENDROOT
BRANCH   1   2
ATOM      2  C   UNL     1      10.981   3.295  54.222  1.00  0.00     0.000 C 
BRANCH   2   3
ATOM      3  C   UNL     1       9.850   4.230  54.677  1.00  0.00     0.000 C 
BRANCH   3   4
ATOM      4  C   UNL     1       9.931   4.496  56.187  1.00  0.00     0.000 C 
BRANCH   4   5
ATOM      5  C   UNL     1      11.372   4.689  56.689  1.00  0.00     0.006 C 
BRANCH   5   6
ATOM      6  C   UNL     1      11.830   3.628  57.706  1.00  0.00     0.053 C 
BRANCH   6   7
ATOM      7  C   UNL     1      12.932   2.760  57.181  1.00  0.00     0.041 C 
ATOM      8  O   UNL     1      13.024   1.558  57.545  1.00  0.00    -0.550 OA
ATOM      9  O   UNL     1      13.879   3.288  56.312  1.00  0.00    -0.550 OA
ENDBRANCH   6   7
ENDBRANCH   5   6
ENDBRANCH   4   5
ENDBRANCH   3   4
ENDBRANCH   2   3
ENDBRANCH   1   2
BRANCH   1  10
ATOM     10  C   UNL     1      12.366   5.258  53.236  1.00  0.00     0.000 C 
BRANCH  10  11
ATOM     11  C   UNL     1      11.756   6.366  52.355  1.00  0.00    -0.000 C 
BRANCH  11  12
ATOM     12  C   UNL     1      11.136   7.544  53.127  1.00  0.00    -0.000 C 
BRANCH  12  13
ATOM     13  C   UNL     1      11.563   7.579  54.602  1.00  0.00    -0.000 C 
BRANCH  13  14
ATOM     14  C   UNL     1      11.081   8.866  55.283  1.00  0.00    -0.000 C 
BRANCH  14  15
ATOM     15  C   UNL     1       9.594   9.112  55.007  1.00  0.00    -0.003 C 
ATOM     16  C   UNL     1       8.735   7.978  55.560  1.00  0.00     0.004 C 
ENDBRANCH  14  15
ENDBRANCH  13  14
ENDBRANCH  12  13
ENDBRANCH  11  12
ENDBRANCH  10  11
ENDBRANCH   1  10
TORSDOF 12
ENDMDL
MODEL 6
REMARK VINA RESULT:    -5.179      2.998      7.077
REMARK INTER + INTRA:         -10.008
REMARK INTER:                  -8.374
REMARK INTRA:                  -1.634
REMARK UNBOUND:                -1.196
REMARK SMILES CCCCCCCCCCCCCC(=O)[O-]
REMARK SMILES IDX 8 1 9 2 10 3 11 4 12 5 13 6 14 7 15 8 16 9 7 10 6 11 5 12
REMARK SMILES IDX 4 13 3 14 2 15 1 16
REMARK H PARENT
REMARK Flexibility Score: inf
ROOT
ATOM      1  C   UNL     1      11.753   7.601  53.702  1.00  0.00     0.000 C 
ENDROOT
BRANCH   1   2
ATOM      2  C   UNL     1      11.480   6.311  52.908  1.00  0.00     0.000 C 
BRANCH   2   3
ATOM      3  C   UNL     1      12.468   5.183  53.242  1.00  0.00     0.000 C 
BRANCH   3   4
ATOM      4  C   UNL     1      11.735   3.848  53.436  1.00  0.00     0.000 C 
BRANCH   4   5
ATOM      5  C   UNL     1      10.943   3.781  54.753  1.00  0.00     0.006 C 
BRANCH   5   6
ATOM      6  C   UNL     1      11.752   4.205  55.993  1.00  0.00     0.053 C 
BRANCH   6   7
ATOM      7  C   UNL     1      12.794   3.198  56.376  1.00  0.00     0.041 C 
ATOM      8  O   UNL     1      12.496   2.224  57.116  1.00  0.00    -0.550 OA
ATOM      9  O   UNL     1      14.104   3.355  55.942  1.00  0.00    -0.550 OA
ENDBRANCH   6   7
ENDBRANCH   5   6
ENDBRANCH   4   5
ENDBRANCH   3   4
ENDBRANCH   2   3
ENDBRANCH   1   2
BRANCH   1  10
ATOM     10  C   UNL     1      11.002   7.707  55.045  1.00  0.00     0.000 C 
BRANCH  10  11
ATOM     11  C   UNL     1       9.515   7.304  54.998  1.00  0.00    -0.000 C 
BRANCH  11  12
ATOM     12  C   UNL     1       8.522   8.442  55.297  1.00  0.00    -0.000 C 
BRANCH  12  13
ATOM     13  C   UNL     1       7.723   8.875  54.060  1.00  0.00    -0.000 C 
BRANCH  13  14
ATOM     14  C   UNL     1       8.020   7.962  52.865  1.00  0.00    -0.000 C 
BRANCH  14  15
ATOM     15  C   UNL     1       8.048   8.758  51.556  1.00  0.00    -0.003 C 
ATOM     16  C   UNL     1       9.449   8.777  50.952  1.00  0.00     0.004 C 
ENDBRANCH  14  15
ENDBRANCH  13  14
ENDBRANCH  12  13
ENDBRANCH  11  12
ENDBRANCH  10  11
ENDBRANCH   1  10
TORSDOF 12
ENDMDL
MODEL 7
REMARK VINA RESULT:    -5.145      2.985      6.650
REMARK INTER + INTRA:          -9.950
REMARK INTER:                  -8.385
REMARK INTRA:                  -1.566
REMARK UNBOUND:                -1.196
REMARK SMILES CCCCCCCCCCCCCC(=O)[O-]
REMARK SMILES IDX 8 1 9 2 10 3 11 4 12 5 13 6 14 7 15 8 16 9 7 10 6 11 5 12
REMARK SMILES IDX 4 13 3 14 2 15 1 16
REMARK H PARENT
REMARK Flexibility Score: inf
ROOT
ATOM      1  C   UNL     1      12.440   5.638  52.635  1.00  0.00     0.000 C 
ENDROOT
BRANCH   1   2
ATOM      2  C   UNL     1      12.500   4.624  53.792  1.00  0.00     0.000 C 
BRANCH   2   3
ATOM      3  C   UNL     1      11.281   3.690  53.830  1.00  0.00     0.000 C 
BRANCH   3   4
ATOM      4  C   UNL     1      10.641   3.679  55.226  1.00  0.00     0.000 C 
BRANCH   4   5
ATOM      5  C   UNL     1      11.427   4.508  56.257  1.00  0.00     0.006 C 
BRANCH   5   6
ATOM      6  C   UNL     1      11.935   3.693  57.461  1.00  0.00     0.053 C 
BRANCH   6   7
ATOM      7  C   UNL     1      13.026   2.734  57.092  1.00  0.00     0.041 C 
ATOM      8  O   UNL     1      13.999   3.117  56.391  1.00  0.00    -0.550 OA
ATOM      9  O   UNL     1      12.950   1.407  57.496  1.00  0.00    -0.550 OA
ENDBRANCH   6   7
ENDBRANCH   5   6
ENDBRANCH   4   5
ENDBRANCH   3   4
ENDBRANCH   2   3
ENDBRANCH   1   2
BRANCH   1  10
ATOM     10  C   UNL     1      11.367   6.736  52.788  1.00  0.00     0.000 C 
BRANCH  10  11
ATOM     11  C   UNL     1      11.702   7.840  53.811  1.00  0.00    -0.000 C 
BRANCH  11  12
ATOM     12  C   UNL     1      10.891   7.784  55.118  1.00  0.00    -0.000 C 
BRANCH  12  13
ATOM     13  C   UNL     1       9.434   7.353  54.896  1.00  0.00    -0.000 C 
BRANCH  13  14
ATOM     14  C   UNL     1       8.461   8.451  55.344  1.00  0.00    -0.000 C 
BRANCH  14  15
ATOM     15  C   UNL     1       7.621   8.956  54.166  1.00  0.00    -0.003 C 
ATOM     16  C   UNL     1       7.963   8.206  52.883  1.00  0.00     0.004 C 
ENDBRANCH  14  15
ENDBRANCH  13  14
ENDBRANCH  12  13
ENDBRANCH  11  12
ENDBRANCH  10  11
ENDBRANCH   1  10
TORSDOF 12
ENDMDL
MODEL 8
REMARK VINA RESULT:    -5.063      2.595      3.794
REMARK INTER + INTRA:          -9.811
REMARK INTER:                  -8.320
REMARK INTRA:                  -1.491
REMARK UNBOUND:                -1.196
REMARK SMILES CCCCCCCCCCCCCC(=O)[O-]
REMARK SMILES IDX 8 1 9 2 10 3 11 4 12 5 13 6 14 7 15 8 16 9 7 10 6 11 5 12
REMARK SMILES IDX 4 13 3 14 2 15 1 16
REMARK H PARENT
REMARK Flexibility Score: inf
ROOT
ATOM      1  C   UNL     1      11.400   6.625  52.865  1.00  0.00     0.000 C 
ENDROOT
BRANCH   1   2
ATOM      2  C   UNL     1      11.741   7.749  53.860  1.00  0.00     0.000 C 
BRANCH   2   3
ATOM      3  C   UNL     1      11.143   7.512  55.255  1.00  0.00     0.000 C 
BRANCH   3   4
ATOM      4  C   UNL     1       9.672   7.085  55.158  1.00  0.00     0.000 C 
BRANCH   4   5
ATOM      5  C   UNL     1       8.704   8.275  55.051  1.00  0.00     0.006 C 
BRANCH   5   6
ATOM      6  C   UNL     1       7.843   8.271  53.775  1.00  0.00     0.053 C 
BRANCH   6   7
ATOM      7  C   UNL     1       8.478   9.023  52.645  1.00  0.00     0.041 C 
ATOM      8  O   UNL     1       9.192  10.034  52.876  1.00  0.00    -0.550 OA
ATOM      9  O   UNL     1       8.253   8.627  51.332  1.00  0.00    -0.550 OA
ENDBRANCH   6   7
ENDBRANCH   5   6
ENDBRANCH   4   5
ENDBRANCH   3   4
ENDBRANCH   2   3
ENDBRANCH   1   2
BRANCH   1  10
ATOM     10  C   UNL     1      12.437   5.486  52.791  1.00  0.00     0.000 C 
BRANCH  10  11
ATOM     11  C   UNL     1      11.862   4.065  52.954  1.00  0.00    -0.000 C 
BRANCH  11  12
ATOM     12  C   UNL     1      11.214   3.778  54.320  1.00  0.00    -0.000 C 
BRANCH  12  13
ATOM     13  C   UNL     1      12.220   3.829  55.479  1.00  0.00    -0.000 C 
BRANCH  13  14
ATOM     14  C   UNL     1      11.500   3.828  56.833  1.00  0.00    -0.000 C 
BRANCH  14  15
ATOM     15  C   UNL     1      12.426   3.333  57.949  1.00  0.00    -0.003 C 
ATOM     16  C   UNL     1      13.031   1.976  57.602  1.00  0.00     0.004 C 
ENDBRANCH  14  15
ENDBRANCH  13  14
ENDBRANCH  12  13
ENDBRANCH  11  12
ENDBRANCH  10  11
ENDBRANCH   1  10
TORSDOF 12
ENDMDL
