MODEL 1
REMARK VINA RESULT:    -3.770      0.000      0.000
REMARK INTER + INTRA:          -3.880
REMARK INTER:                  -3.880
REMARK INTRA:                   0.000
REMARK UNBOUND:                 0.000
REMARK SMILES O=c1ccc2ccc(O)cc2o1
REMARK SMILES IDX 6 1 7 2 8 3 10 4 11 5 5 6 4 7 3 8 2 9 1 10 12 11 9 12
REMARK H PARENT 9 13
REMARK Flexibility Score: inf
ROOT
ATOM      1  C   UNL     1       2.373  11.910  13.346  1.00  0.00     0.016 A 
ATOM      2  C   UNL     1       2.180  12.579  14.559  1.00  0.00     0.047 A 
ATOM      3  C   UNL     1       2.738  13.845  14.766  1.00  0.00     0.119 A 
ATOM      4  C   UNL     1       3.498  14.449  13.753  1.00  0.00     0.094 A 
ATOM      5  C   UNL     1       3.697  13.788  12.537  1.00  0.00     0.142 A 
ATOM      6  C   UNL     1       3.131  12.510  12.332  1.00  0.00     0.018 A 
ATOM      7  C   UNL     1       3.347  11.875  11.105  1.00  0.00     0.019 A 
ATOM      8  C   UNL     1       4.109  12.515  10.127  1.00  0.00     0.094 A 
ATOM      9  C   UNL     1       4.639  13.780  10.401  1.00  0.00     0.336 A 
ATOM     10  O   UNL     1       5.329  14.374   9.532  1.00  0.00    -0.246 OA
ATOM     11  O   UNL     1       4.418  14.364  11.576  1.00  0.00    -0.423 OA
ENDROOT
BRANCH   3  12
ATOM     12  O   UNL     1       2.534  14.495  15.982  1.00  0.00    -0.508 OA
ATOM     13  H   UNL     1       3.201  14.422  16.741  1.00  0.00     0.293 HD
ENDBRANCH   3  12
TORSDOF 1
ENDMDL
MODEL 2
REMARK VINA RESULT:    -2.672      0.801      4.254
REMARK INTER + INTRA:          -2.750
REMARK INTER:                  -2.750
REMARK INTRA:                   0.000
REMARK UNBOUND:                 0.000
REMARK SMILES O=c1ccc2ccc(O)cc2o1
REMARK SMILES IDX 6 1 7 2 8 3 10 4 11 5 5 6 4 7 3 8 2 9 1 10 12 11 9 12
REMARK H PARENT 9 13
REMARK Flexibility Score: inf
ROOT
ATOM      1  C   UNL     1       3.253  11.875  10.613  1.00  0.00     0.016 A 
ATOM      2  C   UNL     1       4.021  12.487   9.616  1.00  0.00     0.047 A 
ATOM      3  C   UNL     1       4.711  13.675   9.883  1.00  0.00     0.119 A 
ATOM      4  C   UNL     1       4.632  14.259  11.157  1.00  0.00     0.094 A 
ATOM      5  C   UNL     1       3.866  13.655  12.159  1.00  0.00     0.142 A 
ATOM      6  C   UNL     1       3.172  12.455  11.885  1.00  0.00     0.018 A 
ATOM      7  C   UNL     1       2.415  11.876  12.908  1.00  0.00     0.019 A 
ATOM      8  C   UNL     1       2.367  12.492  14.159  1.00  0.00     0.094 A 
ATOM      9  C   UNL     1       3.079  13.680  14.357  1.00  0.00     0.336 A 
ATOM     10  O   UNL     1       3.049  14.250  15.478  1.00  0.00    -0.246 OA
ATOM     11  O   UNL     1       3.793  14.210  13.367  1.00  0.00    -0.423 OA
ENDROOT
BRANCH   3  12
ATOM     12  O   UNL     1       5.471  14.269   8.878  1.00  0.00    -0.508 OA
ATOM     13  H   UNL     1       6.357  13.878   8.582  1.00  0.00     0.293 HD
ENDBRANCH   3  12
TORSDOF 1
ENDMDL
MODEL 3
REMARK VINA RESULT:    -2.097      1.613      4.756
REMARK INTER + INTRA:          -2.158
REMARK INTER:                  -2.158
REMARK INTRA:                   0.000
REMARK UNBOUND:                 0.000
REMARK SMILES O=c1ccc2ccc(O)cc2o1
REMARK SMILES IDX 6 1 7 2 8 3 10 4 11 5 5 6 4 7 3 8 2 9 1 10 12 11 9 12
REMARK H PARENT 9 13
REMARK Flexibility Score: inf
ROOT
ATOM      1  C   UNL     1       4.204  14.505  11.413  1.00  0.00     0.016 A 
ATOM      2  C   UNL     1       4.219  13.806  10.201  1.00  0.00     0.047 A 
ATOM      3  C   UNL     1       3.593  12.559  10.095  1.00  0.00     0.119 A 
ATOM      4  C   UNL     1       2.946  12.004  11.209  1.00  0.00     0.094 A 
ATOM      5  C   UNL     1       2.926  12.695  12.425  1.00  0.00     0.142 A 
ATOM      6  C   UNL     1       3.559  13.954  12.528  1.00  0.00     0.018 A 
ATOM      7  C   UNL     1       3.521  14.620  13.756  1.00  0.00     0.019 A 
ATOM      8  C   UNL     1       2.866  14.029  14.836  1.00  0.00     0.094 A 
ATOM      9  C   UNL     1       2.261  12.779  14.662  1.00  0.00     0.336 A 
ATOM     10  O   UNL     1       1.665  12.230  15.624  1.00  0.00    -0.246 OA
ATOM     11  O   UNL     1       2.311  12.166  13.482  1.00  0.00    -0.423 OA
ENDROOT
BRANCH   3  12
ATOM     12  O   UNL     1       3.619  11.878   8.879  1.00  0.00    -0.508 OA
ATOM     13  H   UNL     1       4.196  11.056   8.744  1.00  0.00     0.293 HD
ENDBRANCH   3  12
TORSDOF 1
ENDMDL
MODEL 4
REMARK VINA RESULT:    -1.858     22.651     23.868
REMARK INTER + INTRA:          -1.912
REMARK INTER:                  -1.912
REMARK INTRA:                   0.000
REMARK UNBOUND:                 0.000
REMARK SMILES O=c1ccc2ccc(O)cc2o1
REMARK SMILES IDX 6 1 7 2 8 3 10 4 11 5 5 6 4 7 3 8 2 9 1 10 12 11 9 12
REMARK H PARENT 9 13
REMARK Flexibility Score: inf
ROOT
ATOM      1  C   UNL     1       0.002  31.129  25.020  1.00  0.00     0.016 A 
ATOM      2  C   UNL     1       1.210  31.382  25.678  1.00  0.00     0.047 A 
ATOM      3  C   UNL     1       1.214  31.877  26.987  1.00  0.00     0.119 A 
ATOM      4  C   UNL     1       0.000  32.122  27.646  1.00  0.00     0.094 A 
ATOM      5  C   UNL     1      -1.213  31.872  26.997  1.00  0.00     0.142 A 
ATOM      6  C   UNL     1      -1.213  31.373  25.676  1.00  0.00     0.018 A 
ATOM      7  C   UNL     1      -2.442  31.133  25.054  1.00  0.00     0.019 A 
ATOM      8  C   UNL     1      -3.623  31.391  25.749  1.00  0.00     0.094 A 
ATOM      9  C   UNL     1      -3.547  31.886  27.055  1.00  0.00     0.336 A 
ATOM     10  O   UNL     1      -4.601  32.125  27.699  1.00  0.00    -0.246 OA
ATOM     11  O   UNL     1      -2.364  32.105  27.625  1.00  0.00    -0.423 OA
ENDROOT
BRANCH   3  12
ATOM     12  O   UNL     1       2.429  32.123  27.625  1.00  0.00    -0.508 OA
ATOM     13  H   UNL     1       3.279  31.645  27.349  1.00  0.00     0.293 HD
ENDBRANCH   3  12
TORSDOF 1
ENDMDL
MODEL 5
REMARK VINA RESULT:    -1.854      1.439      2.200
REMARK INTER + INTRA:          -1.908
REMARK INTER:                  -1.908
REMARK INTRA:                   0.000
REMARK UNBOUND:                 0.000
REMARK SMILES O=c1ccc2ccc(O)cc2o1
REMARK SMILES IDX 6 1 7 2 8 3 10 4 11 5 5 6 4 7 3 8 2 9 1 10 12 11 9 12
REMARK H PARENT 9 13
REMARK Flexibility Score: inf
ROOT
ATOM      1  C   UNL     1       3.838  14.481  13.631  1.00  0.00     0.016 A 
ATOM      2  C   UNL     1       3.081  13.939  14.675  1.00  0.00     0.047 A 
ATOM      3  C   UNL     1       2.353  12.759  14.484  1.00  0.00     0.119 A 
ATOM      4  C   UNL     1       2.381  12.115  13.238  1.00  0.00     0.094 A 
ATOM      5  C   UNL     1       3.135  12.649  12.188  1.00  0.00     0.142 A 
ATOM      6  C   UNL     1       3.868  13.840  12.386  1.00  0.00     0.018 A 
ATOM      7  C   UNL     1       4.612  14.349  11.317  1.00  0.00     0.019 A 
ATOM      8  C   UNL     1       4.610  13.673  10.097  1.00  0.00     0.094 A 
ATOM      9  C   UNL     1       3.859  12.499   9.974  1.00  0.00     0.336 A 
ATOM     10  O   UNL     1       3.845  11.875   8.882  1.00  0.00    -0.246 OA
ATOM     11  O   UNL     1       3.160  12.035  11.007  1.00  0.00    -0.423 OA
ENDROOT
BRANCH   3  12
ATOM     12  O   UNL     1       1.604  12.235  15.536  1.00  0.00    -0.508 OA
ATOM     13  H   UNL     1       1.505  11.236  15.670  1.00  0.00     0.293 HD
ENDBRANCH   3  12
TORSDOF 1
ENDMDL
MODEL 6
REMARK VINA RESULT:    -1.744     22.754     23.787
REMARK INTER + INTRA:          -1.795
REMARK INTER:                  -1.795
REMARK INTRA:                   0.000
REMARK UNBOUND:                 0.000
REMARK SMILES O=c1ccc2ccc(O)cc2o1
REMARK SMILES IDX 6 1 7 2 8 3 10 4 11 5 5 6 4 7 3 8 2 9 1 10 12 11 9 12
REMARK H PARENT 9 13
REMARK Flexibility Score: inf
ROOT
ATOM      1  C   UNL     1      -2.397  31.140  25.072  1.00  0.00     0.016 A 
ATOM      2  C   UNL     1      -3.618  31.390  25.706  1.00  0.00     0.047 A 
ATOM      3  C   UNL     1      -3.649  31.880  27.016  1.00  0.00     0.119 A 
ATOM      4  C   UNL     1      -2.449  32.121  27.701  1.00  0.00     0.094 A 
ATOM      5  C   UNL     1      -1.222  31.874  27.077  1.00  0.00     0.142 A 
ATOM      6  C   UNL     1      -1.196  31.379  25.754  1.00  0.00     0.018 A 
ATOM      7  C   UNL     1       0.046  31.142  25.156  1.00  0.00     0.019 A 
ATOM      8  C   UNL     1       1.213  31.397  25.877  1.00  0.00     0.094 A 
ATOM      9  C   UNL     1       1.110  31.886  27.184  1.00  0.00     0.336 A 
ATOM     10  O   UNL     1       2.151  32.122  27.849  1.00  0.00    -0.246 OA
ATOM     11  O   UNL     1      -0.084  32.104  27.729  1.00  0.00    -0.423 OA
ENDROOT
BRANCH   3  12
ATOM     12  O   UNL     1      -4.877  32.124  27.630  1.00  0.00    -0.508 OA
ATOM     13  H   UNL     1      -5.105  31.727  28.534  1.00  0.00     0.293 HD
ENDBRANCH   3  12
TORSDOF 1
ENDMDL
MODEL 7
REMARK VINA RESULT:    -1.042     21.293     23.173
REMARK INTER + INTRA:          -1.073
REMARK INTER:                  -1.073
REMARK INTRA:                   0.000
REMARK UNBOUND:                 0.000
REMARK SMILES O=c1ccc2ccc(O)cc2o1
REMARK SMILES IDX 6 1 7 2 8 3 10 4 11 5 5 6 4 7 3 8 2 9 1 10 12 11 9 12
REMARK H PARENT 9 13
REMARK Flexibility Score: inf
ROOT
ATOM      1  C   UNL     1      -1.291  32.124  27.883  1.00  0.00     0.016 A 
ATOM      2  C   UNL     1      -2.685  32.125  27.992  1.00  0.00     0.047 A 
ATOM      3  C   UNL     1      -3.481  31.748  26.905  1.00  0.00     0.119 A 
ATOM      4  C   UNL     1      -2.879  31.367  25.696  1.00  0.00     0.094 A 
ATOM      5  C   UNL     1      -1.486  31.362  25.577  1.00  0.00     0.142 A 
ATOM      6  C   UNL     1      -0.686  31.744  26.678  1.00  0.00     0.018 A 
ATOM      7  C   UNL     1       0.704  31.729  26.527  1.00  0.00     0.019 A 
ATOM      8  C   UNL     1       1.257  31.342  25.306  1.00  0.00     0.094 A 
ATOM      9  C   UNL     1       0.403  30.978  24.260  1.00  0.00     0.336 A 
ATOM     10  O   UNL     1       0.883  30.626  23.152  1.00  0.00    -0.246 OA
ATOM     11  O   UNL     1      -0.917  31.000  24.429  1.00  0.00    -0.423 OA
ENDROOT
BRANCH   3  12
ATOM     12  O   UNL     1      -4.869  31.756  27.034  1.00  0.00    -0.508 OA
ATOM     13  H   UNL     1      -5.476  31.562  26.246  1.00  0.00     0.293 HD
ENDBRANCH   3  12
TORSDOF 1
ENDMDL
