MODEL 1
REMARK VINA RESULT:    -3.975      0.000      0.000
REMARK INTER + INTRA:         -10.228
REMARK INTER:                  -7.462
REMARK INTRA:                  -2.767
REMARK UNBOUND:                -2.767
REMARK SMILES CCCCCCCCC=CCCCCCCCC(=O)[O-]
REMARK SMILES IDX 10 1 9 2 11 3 12 4 13 5 14 6 15 7 16 8 17 9 18 10 19 11
REMARK SMILES IDX 20 12 8 13 7 14 6 15 5 16 4 17 3 18 2 19 1 20
REMARK H PARENT
REMARK Flexibility Score: inf
ROOT
ATOM      1  C   UNL     1      50.365  -2.027  75.585  1.00  0.00    -0.031 C 
ATOM      2  C   UNL     1      49.199  -1.498  75.984  1.00  0.00    -0.031 C 
ENDROOT
BRANCH   1   3
ATOM      3  C   UNL     1      50.682  -3.481  75.798  1.00  0.00     0.027 C 
BRANCH   3   4
ATOM      4  C   UNL     1      51.862  -3.922  74.919  1.00  0.00     0.004 C 
BRANCH   4   5
ATOM      5  C   UNL     1      51.457  -4.927  73.827  1.00  0.00     0.000 C 
BRANCH   5   6
ATOM      6  C   UNL     1      49.957  -5.280  73.785  1.00  0.00     0.000 C 
BRANCH   6   7
ATOM      7  C   UNL     1      49.281  -4.871  72.469  1.00  0.00     0.000 C 
BRANCH   7   8
ATOM      8  C   UNL     1      47.833  -4.430  72.710  1.00  0.00     0.006 C 
BRANCH   8   9
ATOM      9  C   UNL     1      47.471  -4.521  74.195  1.00  0.00     0.053 C 
BRANCH   9  10
ATOM     10  C   UNL     1      46.262  -5.382  74.389  1.00  0.00     0.041 C 
ATOM     11  O   UNL     1      45.818  -6.074  73.438  1.00  0.00    -0.550 OA
ATOM     12  O   UNL     1      45.652  -5.451  75.634  1.00  0.00    -0.550 OA
ENDBRANCH   9  10
ENDBRANCH   8   9
ENDBRANCH   7   8
ENDBRANCH   6   7
ENDBRANCH   5   6
ENDBRANCH   4   5
ENDBRANCH   3   4
ENDBRANCH   1   3
BRANCH   2  13
ATOM     13  C   UNL     1      48.856  -0.055  75.723  1.00  0.00     0.027 C 
BRANCH  13  14
ATOM     14  C   UNL     1      48.094   0.128  74.398  1.00  0.00     0.004 C 
BRANCH  14  15
ATOM     15  C   UNL     1      48.998   0.248  73.156  1.00  0.00     0.000 C 
BRANCH  15  16
ATOM     16  C   UNL     1      48.860  -0.947  72.198  1.00  0.00     0.000 C 
BRANCH  16  17
ATOM     17  C   UNL     1      50.233  -1.467  71.717  1.00  0.00    -0.000 C 
BRANCH  17  18
ATOM     18  C   UNL     1      51.424  -0.683  72.294  1.00  0.00    -0.000 C 
BRANCH  18  19
ATOM     19  C   UNL     1      52.713  -1.513  72.349  1.00  0.00    -0.003 C 
ATOM     20  C   UNL     1      53.843  -0.825  71.585  1.00  0.00     0.004 C 
ENDBRANCH  18  19
ENDBRANCH  17  18
ENDBRANCH  16  17
ENDBRANCH  15  16
ENDBRANCH  14  15
ENDBRANCH  13  14
ENDBRANCH   2  13
TORSDOF 15
ENDMDL
MODEL 2
REMARK VINA RESULT:    -3.830      1.592      2.938
REMARK INTER + INTRA:          -9.956
REMARK INTER:                  -7.486
REMARK INTRA:                  -2.470
REMARK UNBOUND:                -2.767
REMARK SMILES CCCCCCCCC=CCCCCCCCC(=O)[O-]
REMARK SMILES IDX 10 1 9 2 11 3 12 4 13 5 14 6 15 7 16 8 17 9 18 10 19 11
REMARK SMILES IDX 20 12 8 13 7 14 6 15 5 16 4 17 3 18 2 19 1 20
REMARK H PARENT
REMARK Flexibility Score: inf
ROOT
ATOM      1  C   UNL     1      49.365  -1.089  75.461  1.00  0.00    -0.031 C 
ATOM      2  C   UNL     1      48.395  -0.605  74.670  1.00  0.00    -0.031 C 
ENDROOT
BRANCH   1   3
ATOM      3  C   UNL     1      49.054  -1.979  76.631  1.00  0.00     0.027 C 
BRANCH   3   4
ATOM      4  C   UNL     1      49.051  -3.457  76.214  1.00  0.00     0.004 C 
BRANCH   4   5
ATOM      5  C   UNL     1      47.636  -4.055  76.125  1.00  0.00     0.000 C 
BRANCH   5   6
ATOM      6  C   UNL     1      47.159  -4.398  74.701  1.00  0.00     0.000 C 
BRANCH   6   7
ATOM      7  C   UNL     1      48.228  -4.138  73.631  1.00  0.00     0.000 C 
BRANCH   7   8
ATOM      8  C   UNL     1      47.993  -5.015  72.395  1.00  0.00     0.006 C 
BRANCH   8   9
ATOM      9  C   UNL     1      46.937  -6.088  72.676  1.00  0.00     0.053 C 
BRANCH   9  10
ATOM     10  C   UNL     1      47.468  -7.447  72.341  1.00  0.00     0.041 C 
ATOM     11  O   UNL     1      48.190  -8.066  73.162  1.00  0.00    -0.550 OA
ATOM     12  O   UNL     1      47.127  -8.046  71.135  1.00  0.00    -0.550 OA
ENDBRANCH   9  10
ENDBRANCH   8   9
ENDBRANCH   7   8
ENDBRANCH   6   7
ENDBRANCH   5   6
ENDBRANCH   4   5
ENDBRANCH   3   4
ENDBRANCH   1   3
BRANCH   2  13
ATOM     13  C   UNL     1      48.706   0.240  73.464  1.00  0.00     0.027 C 
BRANCH  13  14
ATOM     14  C   UNL     1      48.593  -0.558  72.153  1.00  0.00     0.004 C 
BRANCH  14  15
ATOM     15  C   UNL     1      49.893  -1.262  71.723  1.00  0.00     0.000 C 
BRANCH  15  16
ATOM     16  C   UNL     1      51.157  -0.535  72.215  1.00  0.00     0.000 C 
BRANCH  16  17
ATOM     17  C   UNL     1      52.355  -1.498  72.370  1.00  0.00    -0.000 C 
BRANCH  17  18
ATOM     18  C   UNL     1      52.215  -2.470  73.555  1.00  0.00    -0.000 C 
BRANCH  18  19
ATOM     19  C   UNL     1      52.680  -3.892  73.217  1.00  0.00    -0.003 C 
ATOM     20  C   UNL     1      51.850  -4.934  73.964  1.00  0.00     0.004 C 
ENDBRANCH  18  19
ENDBRANCH  17  18
ENDBRANCH  16  17
ENDBRANCH  15  16
ENDBRANCH  14  15
ENDBRANCH  13  14
ENDBRANCH   2  13
TORSDOF 15
ENDMDL
MODEL 3
REMARK VINA RESULT:    -3.826      3.608      6.200
REMARK INTER + INTRA:          -9.948
REMARK INTER:                  -7.749
REMARK INTRA:                  -2.199
REMARK UNBOUND:                -2.767
REMARK SMILES CCCCCCCCC=CCCCCCCCC(=O)[O-]
REMARK SMILES IDX 10 1 9 2 11 3 12 4 13 5 14 6 15 7 16 8 17 9 18 10 19 11
REMARK SMILES IDX 20 12 8 13 7 14 6 15 5 16 4 17 3 18 2 19 1 20
REMARK H PARENT
REMARK Flexibility Score: inf
ROOT
ATOM      1  C   UNL     1      46.370  -4.159  75.467  1.00  0.00    -0.031 C 
ATOM      2  C   UNL     1      47.377  -3.725  76.240  1.00  0.00    -0.031 C 
ENDROOT
BRANCH   1   3
ATOM      3  C   UNL     1      46.441  -5.479  74.752  1.00  0.00     0.027 C 
BRANCH   3   4
ATOM      4  C   UNL     1      47.792  -5.649  74.042  1.00  0.00     0.004 C 
BRANCH   4   5
ATOM      5  C   UNL     1      47.892  -4.843  72.735  1.00  0.00     0.000 C 
BRANCH   5   6
ATOM      6  C   UNL     1      49.090  -3.878  72.650  1.00  0.00     0.000 C 
BRANCH   6   7
ATOM      7  C   UNL     1      48.739  -2.446  73.077  1.00  0.00     0.000 C 
BRANCH   7   8
ATOM      8  C   UNL     1      49.906  -1.490  72.805  1.00  0.00     0.006 C 
BRANCH   8   9
ATOM      9  C   UNL     1      51.225  -2.257  72.669  1.00  0.00     0.053 C 
BRANCH   9  10
ATOM     10  C   UNL     1      52.341  -1.324  72.319  1.00  0.00     0.041 C 
ATOM     11  O   UNL     1      53.530  -1.732  72.314  1.00  0.00    -0.550 OA
ATOM     12  O   UNL     1      52.061  -0.013  71.958  1.00  0.00    -0.550 OA
ENDBRANCH   9  10
ENDBRANCH   8   9
ENDBRANCH   7   8
ENDBRANCH   6   7
ENDBRANCH   5   6
ENDBRANCH   4   5
ENDBRANCH   3   4
ENDBRANCH   1   3
BRANCH   2  13
ATOM     13  C   UNL     1      47.287  -2.429  77.001  1.00  0.00     0.027 C 
BRANCH  13  14
ATOM     14  C   UNL     1      48.654  -1.983  77.548  1.00  0.00     0.004 C 
BRANCH  14  15
ATOM     15  C   UNL     1      49.854  -2.753  76.966  1.00  0.00     0.000 C 
BRANCH  15  16
ATOM     16  C   UNL     1      50.764  -3.352  78.053  1.00  0.00     0.000 C 
BRANCH  16  17
ATOM     17  C   UNL     1      50.019  -4.385  78.927  1.00  0.00    -0.000 C 
BRANCH  17  18
ATOM     18  C   UNL     1      50.381  -5.844  78.601  1.00  0.00    -0.000 C 
BRANCH  18  19
ATOM     19  C   UNL     1      49.154  -6.761  78.523  1.00  0.00    -0.003 C 
ATOM     20  C   UNL     1      47.893  -6.034  78.986  1.00  0.00     0.004 C 
ENDBRANCH  18  19
ENDBRANCH  17  18
ENDBRANCH  16  17
ENDBRANCH  15  16
ENDBRANCH  14  15
ENDBRANCH  13  14
ENDBRANCH   2  13
TORSDOF 15
ENDMDL
MODEL 4
REMARK VINA RESULT:    -3.824      2.801      4.880
REMARK INTER + INTRA:          -9.944
REMARK INTER:                  -7.229
REMARK INTRA:                  -2.715
REMARK UNBOUND:                -2.767
REMARK SMILES CCCCCCCCC=CCCCCCCCC(=O)[O-]
REMARK SMILES IDX 10 1 9 2 11 3 12 4 13 5 14 6 15 7 16 8 17 9 18 10 19 11
REMARK SMILES IDX 20 12 8 13 7 14 6 15 5 16 4 17 3 18 2 19 1 20
REMARK H PARENT
REMARK Flexibility Score: inf
ROOT
ATOM      1  C   UNL     1      48.189  -4.235  72.927  1.00  0.00    -0.031 C 
ATOM      2  C   UNL     1      49.513  -4.174  73.136  1.00  0.00    -0.031 C 
ENDROOT
BRANCH   1   3
ATOM      3  C   UNL     1      47.252  -4.771  73.972  1.00  0.00     0.027 C 
BRANCH   3   4
ATOM      4  C   UNL     1      48.014  -5.575  75.036  1.00  0.00     0.004 C 
BRANCH   4   5
ATOM      5  C   UNL     1      47.499  -5.324  76.464  1.00  0.00     0.000 C 
BRANCH   5   6
ATOM      6  C   UNL     1      47.401  -6.578  77.354  1.00  0.00     0.000 C 
BRANCH   6   7
ATOM      7  C   UNL     1      48.137  -6.424  78.692  1.00  0.00     0.000 C 
BRANCH   7   8
ATOM      8  C   UNL     1      49.136  -5.262  78.639  1.00  0.00     0.006 C 
BRANCH   8   9
ATOM      9  C   UNL     1      50.578  -5.778  78.637  1.00  0.00     0.053 C 
BRANCH   9  10
ATOM     10  C   UNL     1      51.051  -6.008  77.236  1.00  0.00     0.041 C 
ATOM     11  O   UNL     1      51.580  -5.072  76.585  1.00  0.00    -0.550 OA
ATOM     12  O   UNL     1      50.945  -7.270  76.666  1.00  0.00    -0.550 OA
ENDBRANCH   9  10
ENDBRANCH   8   9
ENDBRANCH   7   8
ENDBRANCH   6   7
ENDBRANCH   5   6
ENDBRANCH   4   5
ENDBRANCH   3   4
ENDBRANCH   1   3
BRANCH   2  13
ATOM     13  C   UNL     1      50.449  -3.587  72.114  1.00  0.00     0.027 C 
BRANCH  13  14
ATOM     14  C   UNL     1      50.702  -2.088  72.354  1.00  0.00     0.004 C 
BRANCH  14  15
ATOM     15  C   UNL     1      49.719  -1.153  71.625  1.00  0.00     0.000 C 
BRANCH  15  16
ATOM     16  C   UNL     1      48.717  -0.478  72.578  1.00  0.00     0.000 C 
BRANCH  16  17
ATOM     17  C   UNL     1      49.232  -0.450  74.034  1.00  0.00    -0.000 C 
BRANCH  17  18
ATOM     18  C   UNL     1      48.118  -0.599  75.084  1.00  0.00    -0.000 C 
BRANCH  18  19
ATOM     19  C   UNL     1      48.322  -1.810  76.003  1.00  0.00    -0.003 C 
ATOM     20  C   UNL     1      49.807  -2.095  76.218  1.00  0.00     0.004 C 
ENDBRANCH  18  19
ENDBRANCH  17  18
ENDBRANCH  16  17
ENDBRANCH  15  16
ENDBRANCH  14  15
ENDBRANCH  13  14
ENDBRANCH   2  13
TORSDOF 15
ENDMDL
MODEL 5
REMARK VINA RESULT:    -3.824     11.146     14.079
REMARK INTER + INTRA:          -9.943
REMARK INTER:                  -7.366
REMARK INTRA:                  -2.577
REMARK UNBOUND:                -2.767
REMARK SMILES CCCCCCCCC=CCCCCCCCC(=O)[O-]
REMARK SMILES IDX 10 1 9 2 11 3 12 4 13 5 14 6 15 7 16 8 17 9 18 10 19 11
REMARK SMILES IDX 20 12 8 13 7 14 6 15 5 16 4 17 3 18 2 19 1 20
REMARK H PARENT
REMARK Flexibility Score: inf
ROOT
ATOM      1  C   UNL     1      60.964 -11.072  75.714  1.00  0.00    -0.031 C 
ATOM      2  C   UNL     1      61.282 -12.218  76.335  1.00  0.00    -0.031 C 
ENDROOT
BRANCH   1   3
ATOM      3  C   UNL     1      62.019 -10.087  75.294  1.00  0.00     0.027 C 
BRANCH   3   4
ATOM      4  C   UNL     1      61.952  -9.818  73.784  1.00  0.00     0.004 C 
BRANCH   4   5
ATOM      5  C   UNL     1      61.225  -8.507  73.437  1.00  0.00     0.000 C 
BRANCH   5   6
ATOM      6  C   UNL     1      59.767  -8.671  72.966  1.00  0.00     0.000 C 
BRANCH   6   7
ATOM      7  C   UNL     1      59.429 -10.108  72.548  1.00  0.00     0.000 C 
BRANCH   7   8
ATOM      8  C   UNL     1      58.067 -10.538  73.106  1.00  0.00     0.006 C 
BRANCH   8   9
ATOM      9  C   UNL     1      57.775  -9.840  74.437  1.00  0.00     0.053 C 
BRANCH   9  10
ATOM     10  C   UNL     1      56.477  -9.100  74.367  1.00  0.00     0.041 C 
ATOM     11  O   UNL     1      56.108  -8.374  75.325  1.00  0.00    -0.550 OA
ATOM     12  O   UNL     1      55.694  -9.179  73.223  1.00  0.00    -0.550 OA
ENDBRANCH   9  10
ENDBRANCH   8   9
ENDBRANCH   7   8
ENDBRANCH   6   7
ENDBRANCH   5   6
ENDBRANCH   4   5
ENDBRANCH   3   4
ENDBRANCH   1   3
BRANCH   2  13
ATOM     13  C   UNL     1      60.233 -13.232  76.708  1.00  0.00     0.027 C 
BRANCH  13  14
ATOM     14  C   UNL     1      60.310 -13.625  78.193  1.00  0.00     0.004 C 
BRANCH  14  15
ATOM     15  C   UNL     1      61.617 -13.209  78.895  1.00  0.00     0.000 C 
BRANCH  15  16
ATOM     16  C   UNL     1      61.382 -12.254  80.078  1.00  0.00     0.000 C 
BRANCH  16  17
ATOM     17  C   UNL     1      61.861 -10.819  79.767  1.00  0.00    -0.000 C 
BRANCH  17  18
ATOM     18  C   UNL     1      60.748  -9.900  79.234  1.00  0.00    -0.000 C 
BRANCH  18  19
ATOM     19  C   UNL     1      59.357 -10.287  79.751  1.00  0.00    -0.003 C 
ATOM     20  C   UNL     1      58.351 -10.383  78.606  1.00  0.00     0.004 C 
ENDBRANCH  18  19
ENDBRANCH  17  18
ENDBRANCH  16  17
ENDBRANCH  15  16
ENDBRANCH  14  15
ENDBRANCH  13  14
ENDBRANCH   2  13
TORSDOF 15
ENDMDL
MODEL 6
REMARK VINA RESULT:    -3.800      3.484      5.360
REMARK INTER + INTRA:          -9.899
REMARK INTER:                  -7.297
REMARK INTRA:                  -2.602
REMARK UNBOUND:                -2.767
REMARK SMILES CCCCCCCCC=CCCCCCCCC(=O)[O-]
REMARK SMILES IDX 10 1 9 2 11 3 12 4 13 5 14 6 15 7 16 8 17 9 18 10 19 11
REMARK SMILES IDX 20 12 8 13 7 14 6 15 5 16 4 17 3 18 2 19 1 20
REMARK H PARENT
REMARK Flexibility Score: inf
ROOT
ATOM      1  C   UNL     1      50.898  -2.765  76.080  1.00  0.00    -0.031 C 
ATOM      2  C   UNL     1      51.015  -3.967  75.498  1.00  0.00    -0.031 C 
ENDROOT
BRANCH   1   3
ATOM      3  C   UNL     1      49.690  -2.401  76.896  1.00  0.00     0.027 C 
BRANCH   3   4
ATOM      4  C   UNL     1      50.087  -2.021  78.330  1.00  0.00     0.004 C 
BRANCH   4   5
ATOM      5  C   UNL     1      49.639  -3.058  79.374  1.00  0.00     0.000 C 
BRANCH   5   6
ATOM      6  C   UNL     1      48.539  -4.029  78.903  1.00  0.00     0.000 C 
BRANCH   6   7
ATOM      7  C   UNL     1      49.007  -5.490  78.857  1.00  0.00     0.000 C 
BRANCH   7   8
ATOM      8  C   UNL     1      50.537  -5.575  78.797  1.00  0.00     0.006 C 
BRANCH   8   9
ATOM      9  C   UNL     1      50.990  -6.935  78.258  1.00  0.00     0.053 C 
BRANCH   9  10
ATOM     10  C   UNL     1      52.459  -6.924  77.975  1.00  0.00     0.041 C 
ATOM     11  O   UNL     1      52.883  -7.154  76.815  1.00  0.00    -0.550 OA
ATOM     12  O   UNL     1      53.358  -6.617  78.988  1.00  0.00    -0.550 OA
ENDBRANCH   9  10
ENDBRANCH   8   9
ENDBRANCH   7   8
ENDBRANCH   6   7
ENDBRANCH   5   6
ENDBRANCH   4   5
ENDBRANCH   3   4
ENDBRANCH   1   3
BRANCH   2  13
ATOM     13  C   UNL     1      52.249  -4.356  74.727  1.00  0.00     0.027 C 
BRANCH  13  14
ATOM     14  C   UNL     1      52.138  -3.990  73.236  1.00  0.00     0.004 C 
BRANCH  14  15
ATOM     15  C   UNL     1      52.740  -2.620  72.870  1.00  0.00     0.000 C 
BRANCH  15  16
ATOM     16  C   UNL     1      51.669  -1.554  72.584  1.00  0.00     0.000 C 
BRANCH  16  17
ATOM     17  C   UNL     1      50.432  -2.151  71.877  1.00  0.00    -0.000 C 
BRANCH  17  18
ATOM     18  C   UNL     1      49.095  -1.692  72.482  1.00  0.00    -0.000 C 
BRANCH  18  19
ATOM     19  C   UNL     1      48.419  -2.778  73.329  1.00  0.00    -0.003 C 
ATOM     20  C   UNL     1      48.506  -4.142  72.648  1.00  0.00     0.004 C 
ENDBRANCH  18  19
ENDBRANCH  17  18
ENDBRANCH  16  17
ENDBRANCH  15  16
ENDBRANCH  14  15
ENDBRANCH  13  14
ENDBRANCH   2  13
TORSDOF 15
ENDMDL
MODEL 7
REMARK VINA RESULT:    -3.794      2.040      5.221
REMARK INTER + INTRA:          -9.887
REMARK INTER:                  -7.431
REMARK INTRA:                  -2.456
REMARK UNBOUND:                -2.767
REMARK SMILES CCCCCCCCC=CCCCCCCCC(=O)[O-]
REMARK SMILES IDX 10 1 9 2 11 3 12 4 13 5 14 6 15 7 16 8 17 9 18 10 19 11
REMARK SMILES IDX 20 12 8 13 7 14 6 15 5 16 4 17 3 18 2 19 1 20
REMARK H PARENT
REMARK Flexibility Score: inf
ROOT
ATOM      1  C   UNL     1      49.948  -0.993  71.855  1.00  0.00    -0.031 C 
ATOM      2  C   UNL     1      51.031  -0.729  72.601  1.00  0.00    -0.031 C 
ENDROOT
BRANCH   1   3
ATOM      3  C   UNL     1      48.594  -0.450  72.215  1.00  0.00     0.027 C 
BRANCH   3   4
ATOM      4  C   UNL     1      48.701   0.599  73.332  1.00  0.00     0.004 C 
BRANCH   4   5
ATOM      5  C   UNL     1      47.935   0.202  74.606  1.00  0.00     0.000 C 
BRANCH   5   6
ATOM      6  C   UNL     1      48.245  -1.208  75.144  1.00  0.00     0.000 C 
BRANCH   6   7
ATOM      7  C   UNL     1      49.548  -1.269  75.953  1.00  0.00     0.000 C 
BRANCH   7   8
ATOM      8  C   UNL     1      49.876  -2.711  76.359  1.00  0.00     0.006 C 
BRANCH   8   9
ATOM      9  C   UNL     1      48.669  -3.382  77.022  1.00  0.00     0.053 C 
BRANCH   9  10
ATOM     10  C   UNL     1      49.077  -4.055  78.295  1.00  0.00     0.041 C 
ATOM     11  O   UNL     1      48.277  -4.815  78.895  1.00  0.00    -0.550 OA
ATOM     12  O   UNL     1      50.360  -3.874  78.794  1.00  0.00    -0.550 OA
ENDBRANCH   9  10
ENDBRANCH   8   9
ENDBRANCH   7   8
ENDBRANCH   6   7
ENDBRANCH   5   6
ENDBRANCH   4   5
ENDBRANCH   3   4
ENDBRANCH   1   3
BRANCH   2  13
ATOM     13  C   UNL     1      52.399  -1.225  72.213  1.00  0.00     0.027 C 
BRANCH  13  14
ATOM     14  C   UNL     1      52.848  -2.418  73.075  1.00  0.00     0.004 C 
BRANCH  14  15
ATOM     15  C   UNL     1      52.331  -3.785  72.588  1.00  0.00     0.000 C 
BRANCH  15  16
ATOM     16  C   UNL     1      51.080  -4.256  73.349  1.00  0.00     0.000 C 
BRANCH  16  17
ATOM     17  C   UNL     1      49.886  -4.508  72.401  1.00  0.00    -0.000 C 
BRANCH  17  18
ATOM     18  C   UNL     1      48.524  -4.147  73.017  1.00  0.00    -0.000 C 
BRANCH  18  19
ATOM     19  C   UNL     1      47.449  -5.208  72.750  1.00  0.00    -0.003 C 
ATOM     20  C   UNL     1      48.078  -6.567  72.451  1.00  0.00     0.004 C 
ENDBRANCH  18  19
ENDBRANCH  17  18
ENDBRANCH  16  17
ENDBRANCH  15  16
ENDBRANCH  14  15
ENDBRANCH  13  14
ENDBRANCH   2  13
TORSDOF 15
ENDMDL
MODEL 8
REMARK VINA RESULT:    -3.784      2.671      4.640
REMARK INTER + INTRA:          -9.869
REMARK INTER:                  -7.270
REMARK INTRA:                  -2.599
REMARK UNBOUND:                -2.767
REMARK SMILES CCCCCCCCC=CCCCCCCCC(=O)[O-]
REMARK SMILES IDX 10 1 9 2 11 3 12 4 13 5 14 6 15 7 16 8 17 9 18 10 19 11
REMARK SMILES IDX 20 12 8 13 7 14 6 15 5 16 4 17 3 18 2 19 1 20
REMARK H PARENT
REMARK Flexibility Score: inf
ROOT
ATOM      1  C   UNL     1      49.080  -3.197  74.930  1.00  0.00    -0.031 C 
ATOM      2  C   UNL     1      50.348  -3.288  75.357  1.00  0.00    -0.031 C 
ENDROOT
BRANCH   1   3
ATOM      3  C   UNL     1      47.995  -2.634  75.804  1.00  0.00     0.027 C 
BRANCH   3   4
ATOM      4  C   UNL     1      46.857  -3.648  75.992  1.00  0.00     0.004 C 
BRANCH   4   5
ATOM      5  C   UNL     1      47.243  -5.074  75.562  1.00  0.00     0.000 C 
BRANCH   5   6
ATOM      6  C   UNL     1      47.421  -6.080  76.715  1.00  0.00     0.000 C 
BRANCH   6   7
ATOM      7  C   UNL     1      48.893  -6.331  77.071  1.00  0.00     0.000 C 
BRANCH   7   8
ATOM      8  C   UNL     1      49.142  -6.105  78.567  1.00  0.00     0.006 C 
BRANCH   8   9
ATOM      9  C   UNL     1      50.130  -4.956  78.790  1.00  0.00     0.053 C 
BRANCH   9  10
ATOM     10  C   UNL     1      49.398  -3.685  79.086  1.00  0.00     0.041 C 
ATOM     11  O   UNL     1      48.183  -3.713  79.404  1.00  0.00    -0.550 OA
ATOM     12  O   UNL     1      50.073  -2.472  79.051  1.00  0.00    -0.550 OA
ENDBRANCH   9  10
ENDBRANCH   8   9
ENDBRANCH   7   8
ENDBRANCH   6   7
ENDBRANCH   5   6
ENDBRANCH   4   5
ENDBRANCH   3   4
ENDBRANCH   1   3
BRANCH   2  13
ATOM     13  C   UNL     1      51.447  -3.800  74.464  1.00  0.00     0.027 C 
BRANCH  13  14
ATOM     14  C   UNL     1      52.494  -2.715  74.155  1.00  0.00     0.004 C 
BRANCH  14  15
ATOM     15  C   UNL     1      52.826  -2.560  72.659  1.00  0.00     0.000 C 
BRANCH  15  16
ATOM     16  C   UNL     1      52.498  -1.158  72.117  1.00  0.00     0.000 C 
BRANCH  16  17
ATOM     17  C   UNL     1      51.061  -0.718  72.478  1.00  0.00    -0.000 C 
BRANCH  17  18
ATOM     18  C   UNL     1      49.977  -1.385  71.614  1.00  0.00    -0.000 C 
BRANCH  18  19
ATOM     19  C   UNL     1      48.557  -0.955  72.002  1.00  0.00    -0.003 C 
ATOM     20  C   UNL     1      48.584   0.178  73.025  1.00  0.00     0.004 C 
ENDBRANCH  18  19
ENDBRANCH  17  18
ENDBRANCH  16  17
ENDBRANCH  15  16
ENDBRANCH  14  15
ENDBRANCH  13  14
ENDBRANCH   2  13
TORSDOF 15
ENDMDL
MODEL 9
REMARK VINA RESULT:    -3.769      1.624      4.330
REMARK INTER + INTRA:          -9.842
REMARK INTER:                  -7.647
REMARK INTRA:                  -2.194
REMARK UNBOUND:                -2.767
REMARK SMILES CCCCCCCCC=CCCCCCCCC(=O)[O-]
REMARK SMILES IDX 10 1 9 2 11 3 12 4 13 5 14 6 15 7 16 8 17 9 18 10 19 11
REMARK SMILES IDX 20 12 8 13 7 14 6 15 5 16 4 17 3 18 2 19 1 20
REMARK H PARENT
REMARK Flexibility Score: inf
ROOT
ATOM      1  C   UNL     1      50.205  -1.385  71.808  1.00  0.00    -0.031 C 
ATOM      2  C   UNL     1      51.214  -0.861  72.521  1.00  0.00    -0.031 C 
ENDROOT
BRANCH   1   3
ATOM      3  C   UNL     1      48.848  -1.609  72.414  1.00  0.00     0.027 C 
BRANCH   3   4
ATOM      4  C   UNL     1      48.962  -1.964  73.904  1.00  0.00     0.004 C 
BRANCH   4   5
ATOM      5  C   UNL     1      48.351  -3.333  74.246  1.00  0.00     0.000 C 
BRANCH   5   6
ATOM      6  C   UNL     1      48.128  -4.270  73.043  1.00  0.00     0.000 C 
BRANCH   6   7
ATOM      7  C   UNL     1      46.933  -5.214  73.231  1.00  0.00     0.000 C 
BRANCH   7   8
ATOM      8  C   UNL     1      46.717  -5.540  74.713  1.00  0.00     0.006 C 
BRANCH   8   9
ATOM      9  C   UNL     1      45.279  -5.231  75.139  1.00  0.00     0.053 C 
BRANCH   9  10
ATOM     10  C   UNL     1      44.311  -6.064  74.359  1.00  0.00     0.041 C 
ATOM     11  O   UNL     1      44.439  -7.313  74.318  1.00  0.00    -0.550 OA
ATOM     12  O   UNL     1      43.241  -5.460  73.712  1.00  0.00    -0.550 OA
ENDBRANCH   9  10
ENDBRANCH   8   9
ENDBRANCH   7   8
ENDBRANCH   6   7
ENDBRANCH   5   6
ENDBRANCH   4   5
ENDBRANCH   3   4
ENDBRANCH   1   3
BRANCH   2  13
ATOM     13  C   UNL     1      52.558  -0.583  71.902  1.00  0.00     0.027 C 
BRANCH  13  14
ATOM     14  C   UNL     1      53.508  -1.788  72.016  1.00  0.00     0.004 C 
BRANCH  14  15
ATOM     15  C   UNL     1      53.690  -2.321  73.450  1.00  0.00     0.000 C 
BRANCH  15  16
ATOM     16  C   UNL     1      53.513  -3.846  73.548  1.00  0.00     0.000 C 
BRANCH  16  17
ATOM     17  C   UNL     1      52.033  -4.269  73.407  1.00  0.00    -0.000 C 
BRANCH  17  18
ATOM     18  C   UNL     1      51.661  -5.499  74.252  1.00  0.00    -0.000 C 
BRANCH  18  19
ATOM     19  C   UNL     1      51.154  -5.130  75.652  1.00  0.00    -0.003 C 
ATOM     20  C   UNL     1      50.097  -6.121  76.134  1.00  0.00     0.004 C 
ENDBRANCH  18  19
ENDBRANCH  17  18
ENDBRANCH  16  17
ENDBRANCH  15  16
ENDBRANCH  14  15
ENDBRANCH  13  14
ENDBRANCH   2  13
TORSDOF 15
ENDMDL
