MODEL 1
REMARK VINA RESULT:    -4.989      0.000      0.000
REMARK INTER + INTRA:         -13.764
REMARK INTER:                 -11.406
REMARK INTRA:                  -2.357
REMARK UNBOUND:                -2.357
REMARK SMILES CCCCCCCCCCCCCCCCCCCCCCCC(=O)[O-]
REMARK SMILES IDX 13 1 14 2 15 3 16 4 17 5 18 6 19 7 20 8 21 9 22 10 23 11
REMARK SMILES IDX 24 12 25 13 26 14 12 15 11 16 10 17 9 18 8 19 7 20 6 21 5 22
REMARK SMILES IDX 4 23 3 24 2 25 1 26
REMARK H PARENT
REMARK Flexibility Score: inf
ROOT
ATOM      1  C   UNL     1     -98.005 -59.246 -66.344  1.00  0.00     0.000 C 
ENDROOT
BRANCH   1   2
ATOM      2  C   UNL     1     -99.330 -58.987 -67.090  1.00  0.00     0.000 C 
BRANCH   2   3
ATOM      3  C   UNL     1    -100.557 -59.677 -66.457  1.00  0.00     0.000 C 
BRANCH   3   4
ATOM      4  C   UNL     1    -100.306 -61.173 -66.204  1.00  0.00     0.000 C 
BRANCH   4   5
ATOM      5  C   UNL     1    -100.823 -62.073 -67.336  1.00  0.00     0.000 C 
BRANCH   5   6
ATOM      6  C   UNL     1     -99.683 -62.685 -68.171  1.00  0.00     0.000 C 
BRANCH   6   7
ATOM      7  C   UNL     1    -100.185 -63.228 -69.524  1.00  0.00     0.000 C 
BRANCH   7   8
ATOM      8  C   UNL     1    -101.067 -64.485 -69.386  1.00  0.00     0.000 C 
BRANCH   8   9
ATOM      9  C   UNL     1    -101.829 -64.804 -70.688  1.00  0.00     0.000 C 
BRANCH   9  10
ATOM     10  C   UNL     1    -103.344 -64.985 -70.467  1.00  0.00     0.006 C 
BRANCH  10  11
ATOM     11  C   UNL     1    -104.190 -64.868 -71.746  1.00  0.00     0.053 C 
BRANCH  11  12
ATOM     12  C   UNL     1    -105.370 -63.963 -71.561  1.00  0.00     0.041 C 
ATOM     13  O   UNL     1    -106.508 -64.449 -71.332  1.00  0.00    -0.550 OA
ATOM     14  O   UNL     1    -105.224 -62.588 -71.706  1.00  0.00    -0.550 OA
ENDBRANCH  11  12
ENDBRANCH  10  11
ENDBRANCH   9  10
ENDBRANCH   8   9
ENDBRANCH   7   8
ENDBRANCH   6   7
ENDBRANCH   5   6
ENDBRANCH   4   5
ENDBRANCH   3   4
ENDBRANCH   2   3
ENDBRANCH   1   2
BRANCH   1  15
ATOM     15  C   UNL     1     -96.974 -60.091 -67.114  1.00  0.00     0.000 C 
BRANCH  15  16
ATOM     16  C   UNL     1     -97.345 -60.293 -68.593  1.00  0.00     0.000 C 
BRANCH  16  17
ATOM     17  C   UNL     1     -96.389 -61.262 -69.309  1.00  0.00     0.000 C 
BRANCH  17  18
ATOM     18  C   UNL     1     -96.540 -61.262 -70.844  1.00  0.00    -0.000 C 
BRANCH  18  19
ATOM     19  C   UNL     1     -95.663 -62.331 -71.522  1.00  0.00    -0.000 C 
BRANCH  19  20
ATOM     20  C   UNL     1     -94.182 -62.226 -71.113  1.00  0.00    -0.000 C 
BRANCH  20  21
ATOM     21  C   UNL     1     -93.438 -63.574 -70.988  1.00  0.00    -0.000 C 
BRANCH  21  22
ATOM     22  C   UNL     1     -93.096 -64.000 -69.548  1.00  0.00    -0.000 C 
BRANCH  22  23
ATOM     23  C   UNL     1     -93.210 -62.841 -68.543  1.00  0.00    -0.000 C 
BRANCH  23  24
ATOM     24  C   UNL     1     -93.651 -63.304 -67.144  1.00  0.00    -0.000 C 
BRANCH  24  25
ATOM     25  C   UNL     1     -93.458 -62.237 -66.046  1.00  0.00    -0.003 C 
ATOM     26  C   UNL     1     -93.235 -60.841 -66.629  1.00  0.00     0.004 C 
ENDBRANCH  24  25
ENDBRANCH  23  24
ENDBRANCH  22  23
ENDBRANCH  21  22
ENDBRANCH  20  21
ENDBRANCH  19  20
ENDBRANCH  18  19
ENDBRANCH  17  18
ENDBRANCH  16  17
ENDBRANCH  15  16
ENDBRANCH   1  15
TORSDOF 22
ENDMDL
MODEL 2
REMARK VINA RESULT:    -4.880      3.319      5.730
REMARK INTER + INTRA:         -13.513
REMARK INTER:                 -10.373
REMARK INTRA:                  -3.140
REMARK UNBOUND:                -2.357
REMARK SMILES CCCCCCCCCCCCCCCCCCCCCCCC(=O)[O-]
REMARK SMILES IDX 13 1 14 2 15 3 16 4 17 5 18 6 19 7 20 8 21 9 22 10 23 11
REMARK SMILES IDX 24 12 25 13 26 14 12 15 11 16 10 17 9 18 8 19 7 20 6 21 5 22
REMARK SMILES IDX 4 23 3 24 2 25 1 26
REMARK H PARENT
REMARK Flexibility Score: inf
ROOT
ATOM      1  C   UNL     1     -96.763 -61.010 -71.054  1.00  0.00     0.000 C 
ENDROOT
BRANCH   1   2
ATOM      2  C   UNL     1     -96.545 -61.132 -69.532  1.00  0.00     0.000 C 
BRANCH   2   3
ATOM      3  C   UNL     1     -97.719 -61.792 -68.775  1.00  0.00     0.000 C 
BRANCH   3   4
ATOM      4  C   UNL     1     -98.466 -62.809 -69.654  1.00  0.00     0.000 C 
BRANCH   4   5
ATOM      5  C   UNL     1     -99.782 -63.296 -69.029  1.00  0.00     0.000 C 
BRANCH   5   6
ATOM      6  C   UNL     1    -100.063 -62.646 -67.661  1.00  0.00     0.000 C 
BRANCH   6   7
ATOM      7  C   UNL     1    -101.158 -61.565 -67.749  1.00  0.00     0.000 C 
BRANCH   7   8
ATOM      8  C   UNL     1    -100.712 -60.200 -67.188  1.00  0.00     0.000 C 
BRANCH   8   9
ATOM      9  C   UNL     1    -101.520 -59.795 -65.938  1.00  0.00     0.000 C 
BRANCH   9  10
ATOM     10  C   UNL     1    -101.294 -60.745 -64.745  1.00  0.00     0.006 C 
BRANCH  10  11
ATOM     11  C   UNL     1     -99.821 -60.900 -64.328  1.00  0.00     0.053 C 
BRANCH  11  12
ATOM     12  C   UNL     1     -99.430 -62.337 -64.165  1.00  0.00     0.041 C 
ATOM     13  O   UNL     1     -98.216 -62.656 -64.086  1.00  0.00    -0.550 OA
ATOM     14  O   UNL     1    -100.404 -63.330 -64.167  1.00  0.00    -0.550 OA
ENDBRANCH  11  12
ENDBRANCH  10  11
ENDBRANCH   9  10
ENDBRANCH   8   9
ENDBRANCH   7   8
ENDBRANCH   6   7
ENDBRANCH   5   6
ENDBRANCH   4   5
ENDBRANCH   3   4
ENDBRANCH   2   3
ENDBRANCH   1   2
BRANCH   1  15
ATOM     15  C   UNL     1     -95.723 -61.737 -71.924  1.00  0.00     0.000 C 
BRANCH  15  16
ATOM     16  C   UNL     1     -95.069 -62.931 -71.210  1.00  0.00     0.000 C 
BRANCH  16  17
ATOM     17  C   UNL     1     -93.544 -62.775 -71.085  1.00  0.00     0.000 C 
BRANCH  17  18
ATOM     18  C   UNL     1     -92.880 -63.851 -70.202  1.00  0.00    -0.000 C 
BRANCH  18  19
ATOM     19  C   UNL     1     -93.466 -63.890 -68.779  1.00  0.00    -0.000 C 
BRANCH  19  20
ATOM     20  C   UNL     1     -93.214 -62.586 -68.000  1.00  0.00    -0.000 C 
BRANCH  20  21
ATOM     21  C   UNL     1     -94.000 -62.448 -66.677  1.00  0.00    -0.000 C 
BRANCH  21  22
ATOM     22  C   UNL     1     -94.594 -61.052 -66.413  1.00  0.00    -0.000 C 
BRANCH  22  23
ATOM     23  C   UNL     1     -95.998 -61.114 -65.787  1.00  0.00    -0.000 C 
BRANCH  23  24
ATOM     24  C   UNL     1     -96.583 -59.722 -65.491  1.00  0.00    -0.000 C 
BRANCH  24  25
ATOM     25  C   UNL     1     -97.319 -59.087 -66.690  1.00  0.00    -0.003 C 
ATOM     26  C   UNL     1     -97.888 -57.708 -66.354  1.00  0.00     0.004 C 
ENDBRANCH  24  25
ENDBRANCH  23  24
ENDBRANCH  22  23
ENDBRANCH  21  22
ENDBRANCH  20  21
ENDBRANCH  19  20
ENDBRANCH  18  19
ENDBRANCH  17  18
ENDBRANCH  16  17
ENDBRANCH  15  16
ENDBRANCH   1  15
TORSDOF 22
ENDMDL
MODEL 3
REMARK VINA RESULT:    -4.418      1.253      3.051
REMARK INTER + INTRA:         -12.458
REMARK INTER:                 -10.365
REMARK INTRA:                  -2.092
REMARK UNBOUND:                -2.357
REMARK SMILES CCCCCCCCCCCCCCCCCCCCCCCC(=O)[O-]
REMARK SMILES IDX 13 1 14 2 15 3 16 4 17 5 18 6 19 7 20 8 21 9 22 10 23 11
REMARK SMILES IDX 24 12 25 13 26 14 12 15 11 16 10 17 9 18 8 19 7 20 6 21 5 22
REMARK SMILES IDX 4 23 3 24 2 25 1 26
REMARK H PARENT
REMARK Flexibility Score: inf
ROOT
ATOM      1  C   UNL     1     -98.225 -58.334 -66.577  1.00  0.00     0.000 C 
ENDROOT
BRANCH   1   2
ATOM      2  C   UNL     1     -99.346 -58.903 -67.470  1.00  0.00     0.000 C 
BRANCH   2   3
ATOM      3  C   UNL     1    -100.495 -59.579 -66.689  1.00  0.00     0.000 C 
BRANCH   3   4
ATOM      4  C   UNL     1     -99.979 -60.342 -65.458  1.00  0.00     0.000 C 
BRANCH   4   5
ATOM      5  C   UNL     1    -100.684 -61.689 -65.242  1.00  0.00     0.000 C 
BRANCH   5   6
ATOM      6  C   UNL     1     -99.982 -62.848 -65.976  1.00  0.00     0.000 C 
BRANCH   6   7
ATOM      7  C   UNL     1     -99.110 -62.349 -67.144  1.00  0.00     0.000 C 
BRANCH   7   8
ATOM      8  C   UNL     1     -99.525 -62.935 -68.508  1.00  0.00     0.000 C 
BRANCH   8   9
ATOM      9  C   UNL     1    -101.040 -62.804 -68.760  1.00  0.00     0.000 C 
BRANCH   9  10
ATOM     10  C   UNL     1    -101.505 -63.555 -70.024  1.00  0.00     0.006 C 
BRANCH  10  11
ATOM     11  C   UNL     1    -102.316 -64.831 -69.741  1.00  0.00     0.053 C 
BRANCH  11  12
ATOM     12  C   UNL     1    -103.406 -65.041 -70.748  1.00  0.00     0.041 C 
ATOM     13  O   UNL     1    -103.127 -65.124 -71.972  1.00  0.00    -0.550 OA
ATOM     14  O   UNL     1    -104.734 -65.078 -70.340  1.00  0.00    -0.550 OA
ENDBRANCH  11  12
ENDBRANCH  10  11
ENDBRANCH   9  10
ENDBRANCH   8   9
ENDBRANCH   7   8
ENDBRANCH   6   7
ENDBRANCH   5   6
ENDBRANCH   4   5
ENDBRANCH   3   4
ENDBRANCH   2   3
ENDBRANCH   1   2
BRANCH   1  15
ATOM     15  C   UNL     1     -96.873 -59.062 -66.679  1.00  0.00     0.000 C 
BRANCH  15  16
ATOM     16  C   UNL     1     -96.898 -60.244 -67.663  1.00  0.00     0.000 C 
BRANCH  16  17
ATOM     17  C   UNL     1     -95.597 -61.063 -67.628  1.00  0.00     0.000 C 
BRANCH  17  18
ATOM     18  C   UNL     1     -94.883 -61.037 -66.261  1.00  0.00    -0.000 C 
BRANCH  18  19
ATOM     19  C   UNL     1     -93.563 -61.828 -66.271  1.00  0.00    -0.000 C 
BRANCH  19  20
ATOM     20  C   UNL     1     -93.618 -63.059 -67.195  1.00  0.00    -0.000 C 
BRANCH  20  21
ATOM     21  C   UNL     1     -92.964 -62.871 -68.581  1.00  0.00    -0.000 C 
BRANCH  21  22
ATOM     22  C   UNL     1     -93.432 -63.860 -69.665  1.00  0.00    -0.000 C 
BRANCH  22  23
ATOM     23  C   UNL     1     -94.149 -63.163 -70.834  1.00  0.00    -0.000 C 
BRANCH  23  24
ATOM     24  C   UNL     1     -95.678 -63.135 -70.668  1.00  0.00    -0.000 C 
BRANCH  24  25
ATOM     25  C   UNL     1     -96.336 -61.834 -71.174  1.00  0.00    -0.003 C 
ATOM     26  C   UNL     1     -95.321 -60.704 -71.349  1.00  0.00     0.004 C 
ENDBRANCH  24  25
ENDBRANCH  23  24
ENDBRANCH  22  23
ENDBRANCH  21  22
ENDBRANCH  20  21
ENDBRANCH  19  20
ENDBRANCH  18  19
ENDBRANCH  17  18
ENDBRANCH  16  17
ENDBRANCH  15  16
ENDBRANCH   1  15
TORSDOF 22
ENDMDL
MODEL 4
REMARK VINA RESULT:    -3.717     15.746     19.515
REMARK INTER + INTRA:         -10.856
REMARK INTER:                  -7.554
REMARK INTRA:                  -3.302
REMARK UNBOUND:                -2.357
REMARK SMILES CCCCCCCCCCCCCCCCCCCCCCCC(=O)[O-]
REMARK SMILES IDX 13 1 14 2 15 3 16 4 17 5 18 6 19 7 20 8 21 9 22 10 23 11
REMARK SMILES IDX 24 12 25 13 26 14 12 15 11 16 10 17 9 18 8 19 7 20 6 21 5 22
REMARK SMILES IDX 4 23 3 24 2 25 1 26
REMARK H PARENT
REMARK Flexibility Score: inf
ROOT
ATOM      1  C   UNL     1    -107.125 -48.849 -56.843  1.00  0.00     0.000 C 
ENDROOT
BRANCH   1   2
ATOM      2  C   UNL     1    -108.041 -48.641 -55.620  1.00  0.00     0.000 C 
BRANCH   2   3
ATOM      3  C   UNL     1    -109.547 -48.786 -55.926  1.00  0.00     0.000 C 
BRANCH   3   4
ATOM      4  C   UNL     1    -110.115 -47.535 -56.616  1.00  0.00     0.000 C 
BRANCH   4   5
ATOM      5  C   UNL     1    -110.521 -47.780 -58.077  1.00  0.00     0.000 C 
BRANCH   5   6
ATOM      6  C   UNL     1    -109.582 -47.079 -59.076  1.00  0.00     0.000 C 
BRANCH   6   7
ATOM      7  C   UNL     1    -108.725 -48.086 -59.869  1.00  0.00     0.000 C 
BRANCH   7   8
ATOM      8  C   UNL     1    -108.495 -47.668 -61.335  1.00  0.00     0.000 C 
BRANCH   8   9
ATOM      9  C   UNL     1    -109.359 -48.489 -62.314  1.00  0.00     0.000 C 
BRANCH   9  10
ATOM     10  C   UNL     1    -108.547 -49.063 -63.493  1.00  0.00     0.006 C 
BRANCH  10  11
ATOM     11  C   UNL     1    -108.312 -50.581 -63.421  1.00  0.00     0.053 C 
BRANCH  11  12
ATOM     12  C   UNL     1    -107.092 -50.999 -64.185  1.00  0.00     0.041 C 
ATOM     13  O   UNL     1    -107.087 -50.950 -65.442  1.00  0.00    -0.550 OA
ATOM     14  O   UNL     1    -105.987 -51.506 -63.510  1.00  0.00    -0.550 OA
ENDBRANCH  11  12
ENDBRANCH  10  11
ENDBRANCH   9  10
ENDBRANCH   8   9
ENDBRANCH   7   8
ENDBRANCH   6   7
ENDBRANCH   5   6
ENDBRANCH   4   5
ENDBRANCH   3   4
ENDBRANCH   2   3
ENDBRANCH   1   2
BRANCH   1  15
ATOM     15  C   UNL     1    -105.689 -49.298 -56.517  1.00  0.00     0.000 C 
BRANCH  15  16
ATOM     16  C   UNL     1    -105.508 -50.824 -56.575  1.00  0.00     0.000 C 
BRANCH  16  17
ATOM     17  C   UNL     1    -104.293 -51.301 -55.761  1.00  0.00     0.000 C 
BRANCH  17  18
ATOM     18  C   UNL     1    -104.636 -52.368 -54.701  1.00  0.00    -0.000 C 
BRANCH  18  19
ATOM     19  C   UNL     1    -106.035 -52.165 -54.091  1.00  0.00    -0.000 C 
BRANCH  19  20
ATOM     20  C   UNL     1    -106.774 -53.495 -53.851  1.00  0.00    -0.000 C 
BRANCH  20  21
ATOM     21  C   UNL     1    -108.122 -53.641 -54.591  1.00  0.00    -0.000 C 
BRANCH  21  22
ATOM     22  C   UNL     1    -108.623 -52.366 -55.293  1.00  0.00    -0.000 C 
BRANCH  22  23
ATOM     23  C   UNL     1    -109.414 -52.668 -56.577  1.00  0.00    -0.000 C 
BRANCH  23  24
ATOM     24  C   UNL     1    -108.835 -51.963 -57.817  1.00  0.00    -0.000 C 
BRANCH  24  25
ATOM     25  C   UNL     1    -109.893 -51.231 -58.668  1.00  0.00    -0.003 C 
ATOM     26  C   UNL     1    -109.751 -51.541 -60.159  1.00  0.00     0.004 C 
ENDBRANCH  24  25
ENDBRANCH  23  24
ENDBRANCH  22  23
ENDBRANCH  21  22
ENDBRANCH  20  21
ENDBRANCH  19  20
ENDBRANCH  18  19
ENDBRANCH  17  18
ENDBRANCH  16  17
ENDBRANCH  15  16
ENDBRANCH   1  15
TORSDOF 22
ENDMDL
MODEL 5
REMARK VINA RESULT:    -3.714     17.162     20.683
REMARK INTER + INTRA:         -10.847
REMARK INTER:                  -6.157
REMARK INTRA:                  -4.690
REMARK UNBOUND:                -2.357
REMARK SMILES CCCCCCCCCCCCCCCCCCCCCCCC(=O)[O-]
REMARK SMILES IDX 13 1 14 2 15 3 16 4 17 5 18 6 19 7 20 8 21 9 22 10 23 11
REMARK SMILES IDX 24 12 25 13 26 14 12 15 11 16 10 17 9 18 8 19 7 20 6 21 5 22
REMARK SMILES IDX 4 23 3 24 2 25 1 26
REMARK H PARENT
REMARK Flexibility Score: inf
ROOT
ATOM      1  C   UNL     1    -108.616 -47.890 -59.503  1.00  0.00     0.000 C 
ENDROOT
BRANCH   1   2
ATOM      2  C   UNL     1    -109.606 -47.108 -58.614  1.00  0.00     0.000 C 
BRANCH   2   3
ATOM      3  C   UNL     1    -110.462 -47.999 -57.687  1.00  0.00     0.000 C 
BRANCH   3   4
ATOM      4  C   UNL     1    -110.488 -47.465 -56.245  1.00  0.00     0.000 C 
BRANCH   4   5
ATOM      5  C   UNL     1    -109.602 -48.273 -55.285  1.00  0.00     0.000 C 
BRANCH   5   6
ATOM      6  C   UNL     1    -108.378 -47.475 -54.798  1.00  0.00     0.000 C 
BRANCH   6   7
ATOM      7  C   UNL     1    -107.066 -48.263 -54.977  1.00  0.00     0.000 C 
BRANCH   7   8
ATOM      8  C   UNL     1    -106.777 -48.640 -56.443  1.00  0.00     0.000 C 
BRANCH   8   9
ATOM      9  C   UNL     1    -106.083 -50.012 -56.563  1.00  0.00     0.000 C 
BRANCH   9  10
ATOM     10  C   UNL     1    -107.078 -51.190 -56.561  1.00  0.00     0.006 C 
BRANCH  10  11
ATOM     11  C   UNL     1    -108.309 -50.982 -57.461  1.00  0.00     0.053 C 
BRANCH  11  12
ATOM     12  C   UNL     1    -109.467 -51.831 -57.035  1.00  0.00     0.041 C 
ATOM     13  O   UNL     1    -110.599 -51.311 -56.858  1.00  0.00    -0.550 OA
ATOM     14  O   UNL     1    -109.282 -53.183 -56.771  1.00  0.00    -0.550 OA
ENDBRANCH  11  12
ENDBRANCH  10  11
ENDBRANCH   9  10
ENDBRANCH   8   9
ENDBRANCH   7   8
ENDBRANCH   6   7
ENDBRANCH   5   6
ENDBRANCH   4   5
ENDBRANCH   3   4
ENDBRANCH   2   3
ENDBRANCH   1   2
BRANCH   1  15
ATOM     15  C   UNL     1    -108.668 -47.544 -61.001  1.00  0.00     0.000 C 
BRANCH  15  16
ATOM     16  C   UNL     1    -109.740 -46.495 -61.341  1.00  0.00     0.000 C 
BRANCH  16  17
ATOM     17  C   UNL     1    -110.959 -47.111 -62.048  1.00  0.00     0.000 C 
BRANCH  17  18
ATOM     18  C   UNL     1    -112.254 -47.060 -61.213  1.00  0.00    -0.000 C 
BRANCH  18  19
ATOM     19  C   UNL     1    -112.609 -48.423 -60.592  1.00  0.00    -0.000 C 
BRANCH  19  20
ATOM     20  C   UNL     1    -111.926 -49.599 -61.315  1.00  0.00    -0.000 C 
BRANCH  20  21
ATOM     21  C   UNL     1    -111.115 -50.548 -60.406  1.00  0.00    -0.000 C 
BRANCH  21  22
ATOM     22  C   UNL     1    -109.770 -51.020 -60.989  1.00  0.00    -0.000 C 
BRANCH  22  23
ATOM     23  C   UNL     1    -109.680 -50.819 -62.511  1.00  0.00    -0.000 C 
BRANCH  23  24
ATOM     24  C   UNL     1    -108.231 -50.793 -63.027  1.00  0.00    -0.000 C 
BRANCH  24  25
ATOM     25  C   UNL     1    -107.934 -49.627 -63.993  1.00  0.00    -0.003 C 
ATOM     26  C   UNL     1    -109.212 -48.950 -64.491  1.00  0.00     0.004 C 
ENDBRANCH  24  25
ENDBRANCH  23  24
ENDBRANCH  22  23
ENDBRANCH  21  22
ENDBRANCH  20  21
ENDBRANCH  19  20
ENDBRANCH  18  19
ENDBRANCH  17  18
ENDBRANCH  16  17
ENDBRANCH  15  16
ENDBRANCH   1  15
TORSDOF 22
ENDMDL
MODEL 6
REMARK VINA RESULT:    -3.694     16.709     20.149
REMARK INTER + INTRA:         -10.802
REMARK INTER:                  -6.658
REMARK INTRA:                  -4.145
REMARK UNBOUND:                -2.357
REMARK SMILES CCCCCCCCCCCCCCCCCCCCCCCC(=O)[O-]
REMARK SMILES IDX 13 1 14 2 15 3 16 4 17 5 18 6 19 7 20 8 21 9 22 10 23 11
REMARK SMILES IDX 24 12 25 13 26 14 12 15 11 16 10 17 9 18 8 19 7 20 6 21 5 22
REMARK SMILES IDX 4 23 3 24 2 25 1 26
REMARK H PARENT
REMARK Flexibility Score: inf
ROOT
ATOM      1  C   UNL     1    -105.559 -49.684 -56.330  1.00  0.00     0.000 C 
ENDROOT
BRANCH   1   2
ATOM      2  C   UNL     1    -106.608 -48.563 -56.475  1.00  0.00     0.000 C 
BRANCH   2   3
ATOM      3  C   UNL     1    -107.066 -47.949 -55.133  1.00  0.00     0.000 C 
BRANCH   3   4
ATOM      4  C   UNL     1    -108.529 -48.297 -54.814  1.00  0.00     0.000 C 
BRANCH   4   5
ATOM      5  C   UNL     1    -109.531 -47.630 -55.768  1.00  0.00     0.000 C 
BRANCH   5   6
ATOM      6  C   UNL     1    -110.481 -48.645 -56.432  1.00  0.00     0.000 C 
BRANCH   6   7
ATOM      7  C   UNL     1    -110.642 -48.385 -57.942  1.00  0.00     0.000 C 
BRANCH   7   8
ATOM      8  C   UNL     1    -109.564 -47.445 -58.516  1.00  0.00     0.000 C 
BRANCH   8   9
ATOM      9  C   UNL     1    -108.538 -48.200 -59.385  1.00  0.00     0.000 C 
BRANCH   9  10
ATOM     10  C   UNL     1    -108.603 -47.798 -60.873  1.00  0.00     0.006 C 
BRANCH  10  11
ATOM     11  C   UNL     1    -109.522 -46.601 -61.168  1.00  0.00     0.053 C 
BRANCH  11  12
ATOM     12  C   UNL     1    -110.654 -46.970 -62.078  1.00  0.00     0.041 C 
ATOM     13  O   UNL     1    -111.706 -47.470 -61.605  1.00  0.00    -0.550 OA
ATOM     14  O   UNL     1    -110.519 -46.823 -63.454  1.00  0.00    -0.550 OA
ENDBRANCH  11  12
ENDBRANCH  10  11
ENDBRANCH   9  10
ENDBRANCH   8   9
ENDBRANCH   7   8
ENDBRANCH   6   7
ENDBRANCH   5   6
ENDBRANCH   4   5
ENDBRANCH   3   4
ENDBRANCH   2   3
ENDBRANCH   1   2
BRANCH   1  15
ATOM     15  C   UNL     1    -106.077 -51.106 -56.610  1.00  0.00     0.000 C 
BRANCH  15  16
ATOM     16  C   UNL     1    -107.192 -51.541 -55.644  1.00  0.00     0.000 C 
BRANCH  16  17
ATOM     17  C   UNL     1    -108.523 -51.806 -56.367  1.00  0.00     0.000 C 
BRANCH  17  18
ATOM     18  C   UNL     1    -108.473 -51.526 -57.883  1.00  0.00    -0.000 C 
BRANCH  18  19
ATOM     19  C   UNL     1    -109.838 -51.731 -58.565  1.00  0.00    -0.000 C 
BRANCH  19  20
ATOM     20  C   UNL     1    -109.756 -51.614 -60.099  1.00  0.00    -0.000 C 
BRANCH  20  21
ATOM     21  C   UNL     1    -110.861 -50.756 -60.752  1.00  0.00    -0.000 C 
BRANCH  21  22
ATOM     22  C   UNL     1    -111.152 -51.080 -62.229  1.00  0.00    -0.000 C 
BRANCH  22  23
ATOM     23  C   UNL     1    -110.121 -50.460 -63.188  1.00  0.00    -0.000 C 
BRANCH  23  24
ATOM     24  C   UNL     1    -108.970 -51.420 -63.531  1.00  0.00    -0.000 C 
BRANCH  24  25
ATOM     25  C   UNL     1    -107.626 -50.711 -63.800  1.00  0.00    -0.003 C 
ATOM     26  C   UNL     1    -107.819 -49.291 -64.336  1.00  0.00     0.004 C 
ENDBRANCH  24  25
ENDBRANCH  23  24
ENDBRANCH  22  23
ENDBRANCH  21  22
ENDBRANCH  20  21
ENDBRANCH  19  20
ENDBRANCH  18  19
ENDBRANCH  17  18
ENDBRANCH  16  17
ENDBRANCH  15  16
ENDBRANCH   1  15
TORSDOF 22
ENDMDL
MODEL 7
REMARK VINA RESULT:    -3.674     15.670     19.399
REMARK INTER + INTRA:         -10.757
REMARK INTER:                  -6.991
REMARK INTRA:                  -3.766
REMARK UNBOUND:                -2.357
REMARK SMILES CCCCCCCCCCCCCCCCCCCCCCCC(=O)[O-]
REMARK SMILES IDX 13 1 14 2 15 3 16 4 17 5 18 6 19 7 20 8 21 9 22 10 23 11
REMARK SMILES IDX 24 12 25 13 26 14 12 15 11 16 10 17 9 18 8 19 7 20 6 21 5 22
REMARK SMILES IDX 4 23 3 24 2 25 1 26
REMARK H PARENT
REMARK Flexibility Score: inf
ROOT
ATOM      1  C   UNL     1    -109.735 -51.408 -60.248  1.00  0.00     0.000 C 
ENDROOT
BRANCH   1   2
ATOM      2  C   UNL     1    -111.215 -51.335 -60.676  1.00  0.00     0.000 C 
BRANCH   2   3
ATOM      3  C   UNL     1    -111.663 -49.941 -61.168  1.00  0.00     0.000 C 
BRANCH   3   4
ATOM      4  C   UNL     1    -111.931 -48.980 -59.998  1.00  0.00     0.000 C 
BRANCH   4   5
ATOM      5  C   UNL     1    -111.181 -47.646 -60.126  1.00  0.00     0.000 C 
BRANCH   5   6
ATOM      6  C   UNL     1    -109.670 -47.789 -59.859  1.00  0.00     0.000 C 
BRANCH   6   7
ATOM      7  C   UNL     1    -108.829 -47.480 -61.112  1.00  0.00     0.000 C 
BRANCH   7   8
ATOM      8  C   UNL     1    -109.683 -47.172 -62.358  1.00  0.00     0.000 C 
BRANCH   8   9
ATOM      9  C   UNL     1    -109.337 -48.098 -63.542  1.00  0.00     0.000 C 
BRANCH   9  10
ATOM     10  C   UNL     1    -108.417 -49.268 -63.138  1.00  0.00     0.006 C 
BRANCH  10  11
ATOM     11  C   UNL     1    -107.704 -49.950 -64.318  1.00  0.00     0.053 C 
BRANCH  11  12
ATOM     12  C   UNL     1    -107.342 -51.371 -64.011  1.00  0.00     0.041 C 
ATOM     13  O   UNL     1    -108.235 -52.256 -63.972  1.00  0.00    -0.550 OA
ATOM     14  O   UNL     1    -106.027 -51.706 -63.704  1.00  0.00    -0.550 OA
ENDBRANCH  11  12
ENDBRANCH  10  11
ENDBRANCH   9  10
ENDBRANCH   8   9
ENDBRANCH   7   8
ENDBRANCH   6   7
ENDBRANCH   5   6
ENDBRANCH   4   5
ENDBRANCH   3   4
ENDBRANCH   2   3
ENDBRANCH   1   2
BRANCH   1  15
ATOM     15  C   UNL     1    -109.489 -51.960 -58.833  1.00  0.00     0.000 C 
BRANCH  15  16
ATOM     16  C   UNL     1    -108.606 -51.041 -57.973  1.00  0.00     0.000 C 
BRANCH  16  17
ATOM     17  C   UNL     1    -109.413 -50.292 -56.899  1.00  0.00     0.000 C 
BRANCH  17  18
ATOM     18  C   UNL     1    -108.851 -48.896 -56.561  1.00  0.00    -0.000 C 
BRANCH  18  19
ATOM     19  C   UNL     1    -107.451 -48.663 -57.158  1.00  0.00    -0.000 C 
BRANCH  19  20
ATOM     20  C   UNL     1    -106.323 -48.936 -56.146  1.00  0.00    -0.000 C 
BRANCH  20  21
ATOM     21  C   UNL     1    -105.273 -49.976 -56.595  1.00  0.00    -0.000 C 
BRANCH  21  22
ATOM     22  C   UNL     1    -105.300 -51.307 -55.820  1.00  0.00    -0.000 C 
BRANCH  22  23
ATOM     23  C   UNL     1    -106.456 -51.381 -54.808  1.00  0.00    -0.000 C 
BRANCH  23  24
ATOM     24  C   UNL     1    -106.885 -52.825 -54.495  1.00  0.00    -0.000 C 
BRANCH  24  25
ATOM     25  C   UNL     1    -108.395 -53.081 -54.685  1.00  0.00    -0.003 C 
ATOM     26  C   UNL     1    -109.250 -52.200 -53.773  1.00  0.00     0.004 C 
ENDBRANCH  24  25
ENDBRANCH  23  24
ENDBRANCH  22  23
ENDBRANCH  21  22
ENDBRANCH  20  21
ENDBRANCH  19  20
ENDBRANCH  18  19
ENDBRANCH  17  18
ENDBRANCH  16  17
ENDBRANCH  15  16
ENDBRANCH   1  15
TORSDOF 22
ENDMDL
MODEL 8
REMARK VINA RESULT:    -3.664     16.128     19.981
REMARK INTER + INTRA:         -10.733
REMARK INTER:                  -6.824
REMARK INTRA:                  -3.909
REMARK UNBOUND:                -2.357
REMARK SMILES CCCCCCCCCCCCCCCCCCCCCCCC(=O)[O-]
REMARK SMILES IDX 13 1 14 2 15 3 16 4 17 5 18 6 19 7 20 8 21 9 22 10 23 11
REMARK SMILES IDX 24 12 25 13 26 14 12 15 11 16 10 17 9 18 8 19 7 20 6 21 5 22
REMARK SMILES IDX 4 23 3 24 2 25 1 26
REMARK H PARENT
REMARK Flexibility Score: inf
ROOT
ATOM      1  C   UNL     1    -106.404 -48.372 -56.128  1.00  0.00     0.000 C 
ENDROOT
BRANCH   1   2
ATOM      2  C   UNL     1    -107.391 -47.932 -55.026  1.00  0.00     0.000 C 
BRANCH   2   3
ATOM      3  C   UNL     1    -108.817 -48.502 -55.190  1.00  0.00     0.000 C 
BRANCH   3   4
ATOM      4  C   UNL     1    -109.677 -47.633 -56.121  1.00  0.00     0.000 C 
BRANCH   4   5
ATOM      5  C   UNL     1    -109.925 -48.278 -57.493  1.00  0.00     0.000 C 
BRANCH   5   6
ATOM      6  C   UNL     1    -109.146 -47.580 -58.624  1.00  0.00     0.000 C 
BRANCH   6   7
ATOM      7  C   UNL     1    -110.086 -46.940 -59.664  1.00  0.00     0.000 C 
BRANCH   7   8
ATOM      8  C   UNL     1    -109.745 -47.332 -61.115  1.00  0.00     0.000 C 
BRANCH   8   9
ATOM      9  C   UNL     1    -108.656 -48.420 -61.182  1.00  0.00     0.000 C 
BRANCH   9  10
ATOM     10  C   UNL     1    -108.954 -49.503 -62.239  1.00  0.00     0.006 C 
BRANCH  10  11
ATOM     11  C   UNL     1    -107.899 -49.609 -63.353  1.00  0.00     0.053 C 
BRANCH  11  12
ATOM     12  C   UNL     1    -107.566 -51.033 -63.680  1.00  0.00     0.041 C 
ATOM     13  O   UNL     1    -106.366 -51.410 -63.705  1.00  0.00    -0.550 OA
ATOM     14  O   UNL     1    -108.576 -51.924 -64.023  1.00  0.00    -0.550 OA
ENDBRANCH  11  12
ENDBRANCH  10  11
ENDBRANCH   9  10
ENDBRANCH   8   9
ENDBRANCH   7   8
ENDBRANCH   6   7
ENDBRANCH   5   6
ENDBRANCH   4   5
ENDBRANCH   3   4
ENDBRANCH   2   3
ENDBRANCH   1   2
BRANCH   1  15
ATOM     15  C   UNL     1    -106.565 -49.825 -56.608  1.00  0.00     0.000 C 
BRANCH  15  16
ATOM     16  C   UNL     1    -105.345 -50.704 -56.289  1.00  0.00     0.000 C 
BRANCH  16  17
ATOM     17  C   UNL     1    -105.701 -51.895 -55.384  1.00  0.00     0.000 C 
BRANCH  17  18
ATOM     18  C   UNL     1    -106.904 -51.631 -54.455  1.00  0.00    -0.000 C 
BRANCH  18  19
ATOM     19  C   UNL     1    -108.072 -52.600 -54.714  1.00  0.00    -0.000 C 
BRANCH  19  20
ATOM     20  C   UNL     1    -109.402 -51.867 -54.974  1.00  0.00    -0.000 C 
BRANCH  20  21
ATOM     21  C   UNL     1    -110.002 -52.074 -56.382  1.00  0.00    -0.000 C 
BRANCH  21  22
ATOM     22  C   UNL     1    -108.973 -52.319 -57.501  1.00  0.00    -0.000 C 
BRANCH  22  23
ATOM     23  C   UNL     1    -109.244 -51.466 -58.752  1.00  0.00    -0.000 C 
BRANCH  23  24
ATOM     24  C   UNL     1    -110.266 -52.109 -59.705  1.00  0.00    -0.000 C 
BRANCH  24  25
ATOM     25  C   UNL     1    -111.377 -51.145 -60.170  1.00  0.00    -0.003 C 
ATOM     26  C   UNL     1    -112.154 -50.550 -58.994  1.00  0.00     0.004 C 
ENDBRANCH  24  25
ENDBRANCH  23  24
ENDBRANCH  22  23
ENDBRANCH  21  22
ENDBRANCH  20  21
ENDBRANCH  19  20
ENDBRANCH  18  19
ENDBRANCH  17  18
ENDBRANCH  16  17
ENDBRANCH  15  16
ENDBRANCH   1  15
TORSDOF 22
ENDMDL
MODEL 9
REMARK VINA RESULT:    -3.662     15.504     19.804
REMARK INTER + INTRA:         -10.729
REMARK INTER:                  -6.126
REMARK INTRA:                  -4.603
REMARK UNBOUND:                -2.357
REMARK SMILES CCCCCCCCCCCCCCCCCCCCCCCC(=O)[O-]
REMARK SMILES IDX 13 1 14 2 15 3 16 4 17 5 18 6 19 7 20 8 21 9 22 10 23 11
REMARK SMILES IDX 24 12 25 13 26 14 12 15 11 16 10 17 9 18 8 19 7 20 6 21 5 22
REMARK SMILES IDX 4 23 3 24 2 25 1 26
REMARK H PARENT
REMARK Flexibility Score: inf
ROOT
ATOM      1  C   UNL     1    -110.424 -47.551 -57.595  1.00  0.00     0.000 C 
ENDROOT
BRANCH   1   2
ATOM      2  C   UNL     1    -109.732 -46.969 -58.845  1.00  0.00     0.000 C 
BRANCH   2   3
ATOM      3  C   UNL     1    -108.562 -47.825 -59.376  1.00  0.00     0.000 C 
BRANCH   3   4
ATOM      4  C   UNL     1    -108.551 -47.889 -60.913  1.00  0.00     0.000 C 
BRANCH   4   5
ATOM      5  C   UNL     1    -109.520 -46.893 -61.566  1.00  0.00     0.000 C 
BRANCH   5   6
ATOM      6  C   UNL     1    -109.816 -47.236 -63.039  1.00  0.00     0.000 C 
BRANCH   6   7
ATOM      7  C   UNL     1    -110.946 -48.275 -63.175  1.00  0.00     0.000 C 
BRANCH   7   8
ATOM      8  C   UNL     1    -110.492 -49.585 -63.848  1.00  0.00     0.000 C 
BRANCH   8   9
ATOM      9  C   UNL     1    -110.300 -50.725 -62.828  1.00  0.00     0.000 C 
BRANCH   9  10
ATOM     10  C   UNL     1    -108.894 -51.357 -62.894  1.00  0.00     0.006 C 
BRANCH  10  11
ATOM     11  C   UNL     1    -107.796 -50.408 -63.403  1.00  0.00     0.053 C 
BRANCH  11  12
ATOM     12  C   UNL     1    -106.861 -51.089 -64.356  1.00  0.00     0.041 C 
ATOM     13  O   UNL     1    -106.958 -50.881 -65.593  1.00  0.00    -0.550 OA
ATOM     14  O   UNL     1    -105.927 -52.004 -63.883  1.00  0.00    -0.550 OA
ENDBRANCH  11  12
ENDBRANCH  10  11
ENDBRANCH   9  10
ENDBRANCH   8   9
ENDBRANCH   7   8
ENDBRANCH   6   7
ENDBRANCH   5   6
ENDBRANCH   4   5
ENDBRANCH   3   4
ENDBRANCH   2   3
ENDBRANCH   1   2
BRANCH   1  15
ATOM     15  C   UNL     1    -111.752 -48.280 -57.862  1.00  0.00     0.000 C 
BRANCH  15  16
ATOM     16  C   UNL     1    -112.127 -48.323 -59.352  1.00  0.00     0.000 C 
BRANCH  16  17
ATOM     17  C   UNL     1    -112.161 -49.757 -59.907  1.00  0.00     0.000 C 
BRANCH  17  18
ATOM     18  C   UNL     1    -112.253 -50.843 -58.816  1.00  0.00    -0.000 C 
BRANCH  18  19
ATOM     19  C   UNL     1    -111.150 -51.909 -58.951  1.00  0.00    -0.000 C 
BRANCH  19  20
ATOM     20  C   UNL     1    -109.766 -51.296 -59.235  1.00  0.00    -0.000 C 
BRANCH  20  21
ATOM     21  C   UNL     1    -108.869 -51.095 -57.995  1.00  0.00    -0.000 C 
BRANCH  21  22
ATOM     22  C   UNL     1    -109.509 -51.497 -56.653  1.00  0.00    -0.000 C 
BRANCH  22  23
ATOM     23  C   UNL     1    -109.409 -50.387 -55.592  1.00  0.00    -0.000 C 
BRANCH  23  24
ATOM     24  C   UNL     1    -107.961 -50.104 -55.157  1.00  0.00    -0.000 C 
BRANCH  24  25
ATOM     25  C   UNL     1    -107.473 -48.682 -55.503  1.00  0.00    -0.003 C 
ATOM     26  C   UNL     1    -106.306 -48.696 -56.492  1.00  0.00     0.004 C 
ENDBRANCH  24  25
ENDBRANCH  23  24
ENDBRANCH  22  23
ENDBRANCH  21  22
ENDBRANCH  20  21
ENDBRANCH  19  20
ENDBRANCH  18  19
ENDBRANCH  17  18
ENDBRANCH  16  17
ENDBRANCH  15  16
ENDBRANCH   1  15
TORSDOF 22
ENDMDL
