MODEL 1
REMARK VINA RESULT:    -1.969      0.000      0.000
REMARK INTER + INTRA:          -6.933
REMARK INTER:                  -4.963
REMARK INTRA:                  -1.970
REMARK UNBOUND:                -1.970
REMARK SMILES CCCCCCCCCCCCCCCCCCCCCCCCCCCC(=O)[O-]
REMARK SMILES IDX 15 1 16 2 17 3 18 4 19 5 20 6 21 7 22 8 23 9 24 10 25 11
REMARK SMILES IDX 26 12 27 13 28 14 29 15 30 16 14 17 13 18 12 19 11 20 10 21
REMARK SMILES IDX 9 22 8 23 7 24 6 25 5 26 4 27 3 28 2 29 1 30
REMARK H PARENT
REMARK Flexibility Score: inf
ROOT
ATOM      1  C   UNL     1      -5.587   6.491  -4.577  1.00  0.00     0.000 C 
ENDROOT
BRANCH   1   2
ATOM      2  C   UNL     1      -6.450   5.768  -5.628  1.00  0.00     0.000 C 
BRANCH   2   3
ATOM      3  C   UNL     1      -7.438   6.687  -6.373  1.00  0.00     0.000 C 
BRANCH   3   4
ATOM      4  C   UNL     1      -7.281   6.701  -7.907  1.00  0.00     0.000 C 
BRANCH   4   5
ATOM      5  C   UNL     1      -8.619   6.864  -8.658  1.00  0.00     0.000 C 
BRANCH   5   6
ATOM      6  C   UNL     1      -9.105   8.325  -8.689  1.00  0.00     0.000 C 
BRANCH   6   7
ATOM      7  C   UNL     1      -8.026   9.299  -9.195  1.00  0.00     0.000 C 
BRANCH   7   8
ATOM      8  C   UNL     1      -7.315  10.104  -8.088  1.00  0.00     0.000 C 
BRANCH   8   9
ATOM      9  C   UNL     1      -5.778  10.085  -8.158  1.00  0.00     0.000 C 
BRANCH   9  10
ATOM     10  C   UNL     1      -5.253   9.837  -9.584  1.00  0.00     0.000 C 
BRANCH  10  11
ATOM     11  C   UNL     1      -3.728   9.656  -9.638  1.00  0.00     0.000 C 
BRANCH  11  12
ATOM     12  C   UNL     1      -3.316   8.251 -10.120  1.00  0.00     0.006 C 
BRANCH  12  13
ATOM     13  C   UNL     1      -4.245   7.157  -9.584  1.00  0.00     0.053 C 
BRANCH  13  14
ATOM     14  C   UNL     1      -3.586   5.815  -9.584  1.00  0.00     0.041 C 
ATOM     15  O   UNL     1      -2.405   5.689 -10.003  1.00  0.00    -0.550 OA
ATOM     16  O   UNL     1      -4.270   4.706  -9.104  1.00  0.00    -0.550 OA
ENDBRANCH  13  14
ENDBRANCH  12  13
ENDBRANCH  11  12
ENDBRANCH  10  11
ENDBRANCH   9  10
ENDBRANCH   8   9
ENDBRANCH   7   8
ENDBRANCH   6   7
ENDBRANCH   5   6
ENDBRANCH   4   5
ENDBRANCH   3   4
ENDBRANCH   2   3
ENDBRANCH   1   2
BRANCH   1  17
ATOM     17  C   UNL     1      -5.028   5.532  -3.514  1.00  0.00     0.000 C 
BRANCH  17  18
ATOM     18  C   UNL     1      -3.653   4.958  -3.887  1.00  0.00     0.000 C 
BRANCH  18  19
ATOM     19  C   UNL     1      -2.886   4.425  -2.665  1.00  0.00     0.000 C 
BRANCH  19  20
ATOM     20  C   UNL     1      -3.152   5.244  -1.387  1.00  0.00     0.000 C 
BRANCH  20  21
ATOM     21  C   UNL     1      -2.916   4.496  -0.058  1.00  0.00     0.000 C 
BRANCH  21  22
ATOM     22  C   UNL     1      -2.857   2.969  -0.235  1.00  0.00    -0.000 C 
BRANCH  22  23
ATOM     23  C   UNL     1      -3.934   2.226   0.577  1.00  0.00    -0.000 C 
BRANCH  23  24
ATOM     24  C   UNL     1      -3.987   0.699   0.366  1.00  0.00    -0.000 C 
BRANCH  24  25
ATOM     25  C   UNL     1      -4.189   0.248  -1.090  1.00  0.00    -0.000 C 
BRANCH  25  26
ATOM     26  C   UNL     1      -3.142  -0.786  -1.545  1.00  0.00    -0.000 C 
BRANCH  26  27
ATOM     27  C   UNL     1      -3.744  -1.882  -2.436  1.00  0.00    -0.000 C 
BRANCH  27  28
ATOM     28  C   UNL     1      -3.682  -3.274  -1.783  1.00  0.00    -0.000 C 
BRANCH  28  29
ATOM     29  C   UNL     1      -4.112  -3.249  -0.309  1.00  0.00    -0.003 C 
ATOM     30  C   UNL     1      -4.401  -4.644   0.247  1.00  0.00     0.004 C 
ENDBRANCH  28  29
ENDBRANCH  27  28
ENDBRANCH  26  27
ENDBRANCH  25  26
ENDBRANCH  24  25
ENDBRANCH  23  24
ENDBRANCH  22  23
ENDBRANCH  21  22
ENDBRANCH  20  21
ENDBRANCH  19  20
ENDBRANCH  18  19
ENDBRANCH  17  18
ENDBRANCH   1  17
TORSDOF 26
ENDMDL
MODEL 2
REMARK VINA RESULT:    -1.679      0.833      2.003
REMARK INTER + INTRA:          -6.202
REMARK INTER:                  -4.169
REMARK INTRA:                  -2.033
REMARK UNBOUND:                -1.970
REMARK SMILES CCCCCCCCCCCCCCCCCCCCCCCCCCCC(=O)[O-]
REMARK SMILES IDX 15 1 16 2 17 3 18 4 19 5 20 6 21 7 22 8 23 9 24 10 25 11
REMARK SMILES IDX 26 12 27 13 28 14 29 15 30 16 14 17 13 18 12 19 11 20 10 21
REMARK SMILES IDX 9 22 8 23 7 24 6 25 5 26 4 27 3 28 2 29 1 30
REMARK H PARENT
REMARK Flexibility Score: inf
ROOT
ATOM      1  C   UNL     1      -4.611   5.759  -2.670  1.00  0.00     0.000 C 
ENDROOT
BRANCH   1   2
ATOM      2  C   UNL     1      -4.900   5.475  -4.156  1.00  0.00     0.000 C 
BRANCH   2   3
ATOM      3  C   UNL     1      -6.108   6.246  -4.723  1.00  0.00     0.000 C 
BRANCH   3   4
ATOM      4  C   UNL     1      -6.402   5.985  -6.214  1.00  0.00     0.000 C 
BRANCH   4   5
ATOM      5  C   UNL     1      -7.718   6.629  -6.700  1.00  0.00     0.000 C 
BRANCH   5   6
ATOM      6  C   UNL     1      -7.828   6.661  -8.236  1.00  0.00     0.000 C 
BRANCH   6   7
ATOM      7  C   UNL     1      -8.540   7.924  -8.753  1.00  0.00     0.000 C 
BRANCH   7   8
ATOM      8  C   UNL     1      -7.905   9.254  -8.298  1.00  0.00     0.000 C 
BRANCH   8   9
ATOM      9  C   UNL     1      -6.914   9.875  -9.297  1.00  0.00     0.000 C 
BRANCH   9  10
ATOM     10  C   UNL     1      -5.492  10.001  -8.720  1.00  0.00     0.000 C 
BRANCH  10  11
ATOM     11  C   UNL     1      -4.442   9.241  -9.546  1.00  0.00     0.000 C 
BRANCH  11  12
ATOM     12  C   UNL     1      -4.480   7.720  -9.295  1.00  0.00     0.006 C 
BRANCH  12  13
ATOM     13  C   UNL     1      -3.303   6.992  -9.953  1.00  0.00     0.053 C 
BRANCH  13  14
ATOM     14  C   UNL     1      -3.339   5.521  -9.688  1.00  0.00     0.041 C 
ATOM     15  O   UNL     1      -2.319   4.813  -9.902  1.00  0.00    -0.550 OA
ATOM     16  O   UNL     1      -4.494   4.934  -9.188  1.00  0.00    -0.550 OA
ENDBRANCH  13  14
ENDBRANCH  12  13
ENDBRANCH  11  12
ENDBRANCH  10  11
ENDBRANCH   9  10
ENDBRANCH   8   9
ENDBRANCH   7   8
ENDBRANCH   6   7
ENDBRANCH   5   6
ENDBRANCH   4   5
ENDBRANCH   3   4
ENDBRANCH   2   3
ENDBRANCH   1   2
BRANCH   1  17
ATOM     17  C   UNL     1      -3.467   4.895  -2.117  1.00  0.00     0.000 C 
BRANCH  17  18
ATOM     18  C   UNL     1      -2.993   5.344  -0.727  1.00  0.00     0.000 C 
BRANCH  18  19
ATOM     19  C   UNL     1      -2.662   4.158   0.195  1.00  0.00     0.000 C 
BRANCH  19  20
ATOM     20  C   UNL     1      -3.920   3.452   0.739  1.00  0.00     0.000 C 
BRANCH  20  21
ATOM     21  C   UNL     1      -3.826   1.915   0.839  1.00  0.00     0.000 C 
BRANCH  21  22
ATOM     22  C   UNL     1      -4.037   1.214  -0.513  1.00  0.00    -0.000 C 
BRANCH  22  23
ATOM     23  C   UNL     1      -3.970  -0.321  -0.413  1.00  0.00    -0.000 C 
BRANCH  23  24
ATOM     24  C   UNL     1      -3.131  -1.020  -1.503  1.00  0.00    -0.000 C 
BRANCH  24  25
ATOM     25  C   UNL     1      -3.859  -1.253  -2.837  1.00  0.00    -0.000 C 
BRANCH  25  26
ATOM     26  C   UNL     1      -4.335  -2.707  -3.011  1.00  0.00    -0.000 C 
BRANCH  26  27
ATOM     27  C   UNL     1      -3.458  -3.711  -2.249  1.00  0.00    -0.000 C 
BRANCH  27  28
ATOM     28  C   UNL     1      -4.251  -4.520  -1.209  1.00  0.00    -0.000 C 
BRANCH  28  29
ATOM     29  C   UNL     1      -3.841  -4.182   0.232  1.00  0.00    -0.003 C 
ATOM     30  C   UNL     1      -4.989  -4.353   1.229  1.00  0.00     0.004 C 
ENDBRANCH  28  29
ENDBRANCH  27  28
ENDBRANCH  26  27
ENDBRANCH  25  26
ENDBRANCH  24  25
ENDBRANCH  23  24
ENDBRANCH  22  23
ENDBRANCH  21  22
ENDBRANCH  20  21
ENDBRANCH  19  20
ENDBRANCH  18  19
ENDBRANCH  17  18
ENDBRANCH   1  17
TORSDOF 26
ENDMDL
MODEL 3
REMARK VINA RESULT:    -1.479      3.881     11.882
REMARK INTER + INTRA:          -5.697
REMARK INTER:                  -4.187
REMARK INTRA:                  -1.510
REMARK UNBOUND:                -1.970
REMARK SMILES CCCCCCCCCCCCCCCCCCCCCCCCCCCC(=O)[O-]
REMARK SMILES IDX 15 1 16 2 17 3 18 4 19 5 20 6 21 7 22 8 23 9 24 10 25 11
REMARK SMILES IDX 26 12 27 13 28 14 29 15 30 16 14 17 13 18 12 19 11 20 10 21
REMARK SMILES IDX 9 22 8 23 7 24 6 25 5 26 4 27 3 28 2 29 1 30
REMARK H PARENT
REMARK Flexibility Score: inf
ROOT
ATOM      1  C   UNL     1      -3.078   5.135  -2.925  1.00  0.00     0.000 C 
ENDROOT
BRANCH   1   2
ATOM      2  C   UNL     1      -2.761   5.029  -1.421  1.00  0.00     0.000 C 
BRANCH   2   3
ATOM      3  C   UNL     1      -3.199   3.699  -0.777  1.00  0.00     0.000 C 
BRANCH   3   4
ATOM      4  C   UNL     1      -3.464   3.770   0.741  1.00  0.00     0.000 C 
BRANCH   4   5
ATOM      5  C   UNL     1      -4.672   2.922   1.192  1.00  0.00     0.000 C 
BRANCH   5   6
ATOM      6  C   UNL     1      -4.352   1.416   1.237  1.00  0.00     0.000 C 
BRANCH   6   7
ATOM      7  C   UNL     1      -4.262   0.786  -0.164  1.00  0.00     0.000 C 
BRANCH   7   8
ATOM      8  C   UNL     1      -2.868   0.240  -0.536  1.00  0.00     0.000 C 
BRANCH   8   9
ATOM      9  C   UNL     1      -2.833  -0.643  -1.795  1.00  0.00     0.000 C 
BRANCH   9  10
ATOM     10  C   UNL     1      -4.090  -1.521  -1.938  1.00  0.00     0.000 C 
BRANCH  10  11
ATOM     11  C   UNL     1      -3.880  -2.717  -2.880  1.00  0.00     0.000 C 
BRANCH  11  12
ATOM     12  C   UNL     1      -3.893  -4.067  -2.134  1.00  0.00     0.006 C 
BRANCH  12  13
ATOM     13  C   UNL     1      -3.744  -3.895  -0.619  1.00  0.00     0.053 C 
BRANCH  13  14
ATOM     14  C   UNL     1      -4.680  -4.780   0.138  1.00  0.00     0.041 C 
ATOM     15  O   UNL     1      -5.060  -5.874  -0.358  1.00  0.00    -0.550 OA
ATOM     16  O   UNL     1      -5.121  -4.404   1.400  1.00  0.00    -0.550 OA
ENDBRANCH  13  14
ENDBRANCH  12  13
ENDBRANCH  11  12
ENDBRANCH  10  11
ENDBRANCH   9  10
ENDBRANCH   8   9
ENDBRANCH   7   8
ENDBRANCH   6   7
ENDBRANCH   5   6
ENDBRANCH   4   5
ENDBRANCH   3   4
ENDBRANCH   2   3
ENDBRANCH   1   2
BRANCH   1  17
ATOM     17  C   UNL     1      -4.586   5.068  -3.215  1.00  0.00     0.000 C 
BRANCH  17  18
ATOM     18  C   UNL     1      -5.083   6.233  -4.083  1.00  0.00     0.000 C 
BRANCH  18  19
ATOM     19  C   UNL     1      -6.494   5.989  -4.645  1.00  0.00     0.000 C 
BRANCH  19  20
ATOM     20  C   UNL     1      -6.652   6.476  -6.099  1.00  0.00     0.000 C 
BRANCH  20  21
ATOM     21  C   UNL     1      -7.962   6.059  -6.799  1.00  0.00     0.000 C 
BRANCH  21  22
ATOM     22  C   UNL     1      -7.945   6.335  -8.311  1.00  0.00    -0.000 C 
BRANCH  22  23
ATOM     23  C   UNL     1      -9.171   7.134  -8.792  1.00  0.00    -0.000 C 
BRANCH  23  24
ATOM     24  C   UNL     1      -8.925   8.635  -9.049  1.00  0.00    -0.000 C 
BRANCH  24  25
ATOM     25  C   UNL     1      -8.787   9.499  -7.785  1.00  0.00    -0.000 C 
BRANCH  25  26
ATOM     26  C   UNL     1      -7.322   9.694  -7.353  1.00  0.00    -0.000 C 
BRANCH  26  27
ATOM     27  C   UNL     1      -6.410  10.093  -8.522  1.00  0.00    -0.000 C 
BRANCH  27  28
ATOM     28  C   UNL     1      -5.209   9.145  -8.686  1.00  0.00    -0.000 C 
BRANCH  28  29
ATOM     29  C   UNL     1      -4.498   9.329 -10.034  1.00  0.00    -0.003 C 
ATOM     30  C   UNL     1      -3.187   8.546 -10.123  1.00  0.00     0.004 C 
ENDBRANCH  28  29
ENDBRANCH  27  28
ENDBRANCH  26  27
ENDBRANCH  25  26
ENDBRANCH  24  25
ENDBRANCH  23  24
ENDBRANCH  22  23
ENDBRANCH  21  22
ENDBRANCH  20  21
ENDBRANCH  19  20
ENDBRANCH  18  19
ENDBRANCH  17  18
ENDBRANCH   1  17
TORSDOF 26
ENDMDL
MODEL 4
REMARK VINA RESULT:    -1.126      1.207      2.663
REMARK INTER + INTRA:          -4.808
REMARK INTER:                  -4.381
REMARK INTRA:                  -0.427
REMARK UNBOUND:                -1.970
REMARK SMILES CCCCCCCCCCCCCCCCCCCCCCCCCCCC(=O)[O-]
REMARK SMILES IDX 15 1 16 2 17 3 18 4 19 5 20 6 21 7 22 8 23 9 24 10 25 11
REMARK SMILES IDX 26 12 27 13 28 14 29 15 30 16 14 17 13 18 12 19 11 20 10 21
REMARK SMILES IDX 9 22 8 23 7 24 6 25 5 26 4 27 3 28 2 29 1 30
REMARK H PARENT
REMARK Flexibility Score: inf
ROOT
ATOM      1  C   UNL     1      -3.090   4.826  -3.816  1.00  0.00     0.000 C 
ENDROOT
BRANCH   1   2
ATOM      2  C   UNL     1      -4.505   4.834  -4.425  1.00  0.00     0.000 C 
BRANCH   2   3
ATOM      3  C   UNL     1      -5.319   6.105  -4.113  1.00  0.00     0.000 C 
BRANCH   3   4
ATOM      4  C   UNL     1      -6.106   6.680  -5.307  1.00  0.00     0.000 C 
BRANCH   4   5
ATOM      5  C   UNL     1      -6.765   5.596  -6.186  1.00  0.00     0.000 C 
BRANCH   5   6
ATOM      6  C   UNL     1      -7.148   6.119  -7.583  1.00  0.00     0.000 C 
BRANCH   6   7
ATOM      7  C   UNL     1      -8.645   6.455  -7.700  1.00  0.00     0.000 C 
BRANCH   7   8
ATOM      8  C   UNL     1      -9.052   7.135  -9.023  1.00  0.00     0.000 C 
BRANCH   8   9
ATOM      9  C   UNL     1      -8.121   8.271  -9.481  1.00  0.00     0.000 C 
BRANCH   9  10
ATOM     10  C   UNL     1      -8.113   9.460  -8.503  1.00  0.00     0.000 C 
BRANCH  10  11
ATOM     11  C   UNL     1      -6.912   9.438  -7.544  1.00  0.00     0.000 C 
BRANCH  11  12
ATOM     12  C   UNL     1      -5.662  10.112  -8.146  1.00  0.00     0.006 C 
BRANCH  12  13
ATOM     13  C   UNL     1      -5.451   9.737  -9.616  1.00  0.00     0.053 C 
BRANCH  13  14
ATOM     14  C   UNL     1      -4.278   8.829  -9.798  1.00  0.00     0.041 C 
ATOM     15  O   UNL     1      -3.128   9.307  -9.985  1.00  0.00    -0.550 OA
ATOM     16  O   UNL     1      -4.452   7.452  -9.742  1.00  0.00    -0.550 OA
ENDBRANCH  13  14
ENDBRANCH  12  13
ENDBRANCH  11  12
ENDBRANCH  10  11
ENDBRANCH   9  10
ENDBRANCH   8   9
ENDBRANCH   7   8
ENDBRANCH   6   7
ENDBRANCH   5   6
ENDBRANCH   4   5
ENDBRANCH   3   4
ENDBRANCH   2   3
ENDBRANCH   1   2
BRANCH   1  17
ATOM     17  C   UNL     1      -3.075   4.301  -2.371  1.00  0.00     0.000 C 
BRANCH  17  18
ATOM     18  C   UNL     1      -3.581   5.333  -1.352  1.00  0.00     0.000 C 
BRANCH  18  19
ATOM     19  C   UNL     1      -2.953   5.144   0.039  1.00  0.00     0.000 C 
BRANCH  19  20
ATOM     20  C   UNL     1      -2.901   3.667   0.477  1.00  0.00     0.000 C 
BRANCH  20  21
ATOM     21  C   UNL     1      -1.904   2.781  -0.297  1.00  0.00     0.000 C 
BRANCH  21  22
ATOM     22  C   UNL     1      -2.272   1.288  -0.253  1.00  0.00    -0.000 C 
BRANCH  22  23
ATOM     23  C   UNL     1      -3.767   1.043   0.020  1.00  0.00    -0.000 C 
BRANCH  23  24
ATOM     24  C   UNL     1      -4.397  -0.138  -0.746  1.00  0.00    -0.000 C 
BRANCH  24  25
ATOM     25  C   UNL     1      -3.400  -1.024  -1.512  1.00  0.00    -0.000 C 
BRANCH  25  26
ATOM     26  C   UNL     1      -4.061  -1.811  -2.659  1.00  0.00    -0.000 C 
BRANCH  26  27
ATOM     27  C   UNL     1      -4.166  -3.313  -2.360  1.00  0.00    -0.000 C 
BRANCH  27  28
ATOM     28  C   UNL     1      -3.339  -3.731  -1.131  1.00  0.00    -0.000 C 
BRANCH  28  29
ATOM     29  C   UNL     1      -4.194  -3.837   0.140  1.00  0.00    -0.003 C 
ATOM     30  C   UNL     1      -4.891  -5.192   0.273  1.00  0.00     0.004 C 
ENDBRANCH  28  29
ENDBRANCH  27  28
ENDBRANCH  26  27
ENDBRANCH  25  26
ENDBRANCH  24  25
ENDBRANCH  23  24
ENDBRANCH  22  23
ENDBRANCH  21  22
ENDBRANCH  20  21
ENDBRANCH  19  20
ENDBRANCH  18  19
ENDBRANCH  17  18
ENDBRANCH   1  17
TORSDOF 26
ENDMDL
MODEL 5
REMARK VINA RESULT:    -1.108      3.823     11.708
REMARK INTER + INTRA:          -4.763
REMARK INTER:                  -4.365
REMARK INTRA:                  -0.398
REMARK UNBOUND:                -1.970
REMARK SMILES CCCCCCCCCCCCCCCCCCCCCCCCCCCC(=O)[O-]
REMARK SMILES IDX 15 1 16 2 17 3 18 4 19 5 20 6 21 7 22 8 23 9 24 10 25 11
REMARK SMILES IDX 26 12 27 13 28 14 29 15 30 16 14 17 13 18 12 19 11 20 10 21
REMARK SMILES IDX 9 22 8 23 7 24 6 25 5 26 4 27 3 28 2 29 1 30
REMARK H PARENT
REMARK Flexibility Score: inf
ROOT
ATOM      1  C   UNL     1      -3.150   4.303  -1.990  1.00  0.00     0.000 C 
ENDROOT
BRANCH   1   2
ATOM      2  C   UNL     1      -3.142   5.607  -1.169  1.00  0.00     0.000 C 
BRANCH   2   3
ATOM      3  C   UNL     1      -2.689   5.428   0.293  1.00  0.00     0.000 C 
BRANCH   3   4
ATOM      4  C   UNL     1      -2.645   3.967   0.785  1.00  0.00     0.000 C 
BRANCH   4   5
ATOM      5  C   UNL     1      -4.022   3.270   0.755  1.00  0.00     0.000 C 
BRANCH   5   6
ATOM      6  C   UNL     1      -3.911   1.738   0.863  1.00  0.00     0.000 C 
BRANCH   6   7
ATOM      7  C   UNL     1      -3.188   1.110  -0.342  1.00  0.00     0.000 C 
BRANCH   7   8
ATOM      8  C   UNL     1      -3.616  -0.335  -0.669  1.00  0.00     0.000 C 
BRANCH   8   9
ATOM      9  C   UNL     1      -4.122  -0.552  -2.106  1.00  0.00     0.000 C 
BRANCH   9  10
ATOM     10  C   UNL     1      -3.461  -1.764  -2.789  1.00  0.00     0.000 C 
BRANCH  10  11
ATOM     11  C   UNL     1      -4.306  -3.043  -2.688  1.00  0.00     0.000 C 
BRANCH  11  12
ATOM     12  C   UNL     1      -3.622  -4.139  -1.845  1.00  0.00     0.006 C 
BRANCH  12  13
ATOM     13  C   UNL     1      -3.566  -3.778  -0.357  1.00  0.00     0.053 C 
BRANCH  13  14
ATOM     14  C   UNL     1      -4.675  -4.417   0.414  1.00  0.00     0.041 C 
ATOM     15  O   UNL     1      -5.041  -5.592   0.144  1.00  0.00    -0.550 OA
ATOM     16  O   UNL     1      -5.295  -3.721   1.444  1.00  0.00    -0.550 OA
ENDBRANCH  13  14
ENDBRANCH  12  13
ENDBRANCH  11  12
ENDBRANCH  10  11
ENDBRANCH   9  10
ENDBRANCH   8   9
ENDBRANCH   7   8
ENDBRANCH   6   7
ENDBRANCH   5   6
ENDBRANCH   4   5
ENDBRANCH   3   4
ENDBRANCH   2   3
ENDBRANCH   1   2
BRANCH   1  17
ATOM     17  C   UNL     1      -2.845   4.543  -3.477  1.00  0.00     0.000 C 
BRANCH  17  18
ATOM     18  C   UNL     1      -4.097   4.882  -4.299  1.00  0.00     0.000 C 
BRANCH  18  19
ATOM     19  C   UNL     1      -5.159   5.630  -3.474  1.00  0.00     0.000 C 
BRANCH  19  20
ATOM     20  C   UNL     1      -6.383   6.050  -4.312  1.00  0.00     0.000 C 
BRANCH  20  21
ATOM     21  C   UNL     1      -6.161   6.084  -5.838  1.00  0.00     0.000 C 
BRANCH  21  22
ATOM     22  C   UNL     1      -7.477   6.093  -6.633  1.00  0.00    -0.000 C 
BRANCH  22  23
ATOM     23  C   UNL     1      -7.281   6.443  -8.120  1.00  0.00    -0.000 C 
BRANCH  23  24
ATOM     24  C   UNL     1      -8.570   6.782  -8.897  1.00  0.00    -0.000 C 
BRANCH  24  25
ATOM     25  C   UNL     1      -9.233   8.115  -8.512  1.00  0.00    -0.000 C 
BRANCH  25  26
ATOM     26  C   UNL     1      -8.863   9.264  -9.468  1.00  0.00    -0.000 C 
BRANCH  26  27
ATOM     27  C   UNL     1      -7.707  10.125  -8.937  1.00  0.00    -0.000 C 
BRANCH  27  28
ATOM     28  C   UNL     1      -6.468   9.291  -8.571  1.00  0.00    -0.000 C 
BRANCH  28  29
ATOM     29  C   UNL     1      -5.521   9.095  -9.764  1.00  0.00    -0.003 C 
ATOM     30  C   UNL     1      -4.192   8.452  -9.365  1.00  0.00     0.004 C 
ENDBRANCH  28  29
ENDBRANCH  27  28
ENDBRANCH  26  27
ENDBRANCH  25  26
ENDBRANCH  24  25
ENDBRANCH  23  24
ENDBRANCH  22  23
ENDBRANCH  21  22
ENDBRANCH  20  21
ENDBRANCH  19  20
ENDBRANCH  18  19
ENDBRANCH  17  18
ENDBRANCH   1  17
TORSDOF 26
ENDMDL
MODEL 6
REMARK VINA RESULT:    -0.917      3.630     11.485
REMARK INTER + INTRA:          -4.281
REMARK INTER:                  -2.338
REMARK INTRA:                  -1.943
REMARK UNBOUND:                -1.970
REMARK SMILES CCCCCCCCCCCCCCCCCCCCCCCCCCCC(=O)[O-]
REMARK SMILES IDX 15 1 16 2 17 3 18 4 19 5 20 6 21 7 22 8 23 9 24 10 25 11
REMARK SMILES IDX 26 12 27 13 28 14 29 15 30 16 14 17 13 18 12 19 11 20 10 21
REMARK SMILES IDX 9 22 8 23 7 24 6 25 5 26 4 27 3 28 2 29 1 30
REMARK H PARENT
REMARK Flexibility Score: inf
ROOT
ATOM      1  C   UNL     1      -3.561   5.144  -4.162  1.00  0.00     0.000 C 
ENDROOT
BRANCH   1   2
ATOM      2  C   UNL     1      -2.857   4.580  -2.912  1.00  0.00     0.000 C 
BRANCH   2   3
ATOM      3  C   UNL     1      -3.729   4.586  -1.641  1.00  0.00     0.000 C 
BRANCH   3   4
ATOM      4  C   UNL     1      -3.104   5.308  -0.430  1.00  0.00     0.000 C 
BRANCH   4   5
ATOM      5  C   UNL     1      -2.618   4.344   0.673  1.00  0.00     0.000 C 
BRANCH   5   6
ATOM      6  C   UNL     1      -2.834   2.865   0.303  1.00  0.00     0.000 C 
BRANCH   6   7
ATOM      7  C   UNL     1      -1.543   2.033   0.408  1.00  0.00     0.000 C 
BRANCH   7   8
ATOM      8  C   UNL     1      -1.519   0.767  -0.472  1.00  0.00     0.000 C 
BRANCH   8   9
ATOM      9  C   UNL     1      -2.900   0.165  -0.782  1.00  0.00     0.000 C 
BRANCH   9  10
ATOM     10  C   UNL     1      -2.806  -1.188  -1.510  1.00  0.00     0.000 C 
BRANCH  10  11
ATOM     11  C   UNL     1      -4.023  -1.473  -2.405  1.00  0.00     0.000 C 
BRANCH  11  12
ATOM     12  C   UNL     1      -4.534  -2.921  -2.265  1.00  0.00     0.006 C 
BRANCH  12  13
ATOM     13  C   UNL     1      -3.651  -3.762  -1.338  1.00  0.00     0.053 C 
BRANCH  13  14
ATOM     14  C   UNL     1      -4.428  -4.343  -0.202  1.00  0.00     0.041 C 
ATOM     15  O   UNL     1      -4.687  -3.644   0.814  1.00  0.00    -0.550 OA
ATOM     16  O   UNL     1      -4.884  -5.653  -0.271  1.00  0.00    -0.550 OA
ENDBRANCH  13  14
ENDBRANCH  12  13
ENDBRANCH  11  12
ENDBRANCH  10  11
ENDBRANCH   9  10
ENDBRANCH   8   9
ENDBRANCH   7   8
ENDBRANCH   6   7
ENDBRANCH   5   6
ENDBRANCH   4   5
ENDBRANCH   3   4
ENDBRANCH   2   3
ENDBRANCH   1   2
BRANCH   1  17
ATOM     17  C   UNL     1      -5.011   5.567  -3.878  1.00  0.00     0.000 C 
BRANCH  17  18
ATOM     18  C   UNL     1      -5.640   6.362  -5.032  1.00  0.00     0.000 C 
BRANCH  18  19
ATOM     19  C   UNL     1      -6.958   5.741  -5.526  1.00  0.00     0.000 C 
BRANCH  19  20
ATOM     20  C   UNL     1      -7.745   6.675  -6.467  1.00  0.00     0.000 C 
BRANCH  20  21
ATOM     21  C   UNL     1      -7.202   6.775  -7.907  1.00  0.00     0.000 C 
BRANCH  21  22
ATOM     22  C   UNL     1      -8.149   7.535  -8.851  1.00  0.00    -0.000 C 
BRANCH  22  23
ATOM     23  C   UNL     1      -7.557   8.863  -9.357  1.00  0.00    -0.000 C 
BRANCH  23  24
ATOM     24  C   UNL     1      -6.840   9.719  -8.293  1.00  0.00    -0.000 C 
BRANCH  24  25
ATOM     25  C   UNL     1      -5.306   9.731  -8.391  1.00  0.00    -0.000 C 
BRANCH  25  26
ATOM     26  C   UNL     1      -4.801   9.816  -9.843  1.00  0.00    -0.000 C 
BRANCH  26  27
ATOM     27  C   UNL     1      -3.636   8.855 -10.121  1.00  0.00    -0.000 C 
BRANCH  27  28
ATOM     28  C   UNL     1      -3.937   7.415  -9.668  1.00  0.00    -0.000 C 
BRANCH  28  29
ATOM     29  C   UNL     1      -2.774   6.456  -9.960  1.00  0.00    -0.003 C 
ATOM     30  C   UNL     1      -3.171   4.985  -9.818  1.00  0.00     0.004 C 
ENDBRANCH  28  29
ENDBRANCH  27  28
ENDBRANCH  26  27
ENDBRANCH  25  26
ENDBRANCH  24  25
ENDBRANCH  23  24
ENDBRANCH  22  23
ENDBRANCH  21  22
ENDBRANCH  20  21
ENDBRANCH  19  20
ENDBRANCH  18  19
ENDBRANCH  17  18
ENDBRANCH   1  17
TORSDOF 26
ENDMDL
MODEL 7
REMARK VINA RESULT:    -0.548      2.094      3.890
REMARK INTER + INTRA:          -3.352
REMARK INTER:                  -3.456
REMARK INTRA:                   0.104
REMARK UNBOUND:                -1.970
REMARK SMILES CCCCCCCCCCCCCCCCCCCCCCCCCCCC(=O)[O-]
REMARK SMILES IDX 15 1 16 2 17 3 18 4 19 5 20 6 21 7 22 8 23 9 24 10 25 11
REMARK SMILES IDX 26 12 27 13 28 14 29 15 30 16 14 17 13 18 12 19 11 20 10 21
REMARK SMILES IDX 9 22 8 23 7 24 6 25 5 26 4 27 3 28 2 29 1 30
REMARK H PARENT
REMARK Flexibility Score: inf
ROOT
ATOM      1  C   UNL     1      -3.603   4.385  -2.027  1.00  0.00     0.000 C 
ENDROOT
BRANCH   1   2
ATOM      2  C   UNL     1      -3.071   4.341  -3.472  1.00  0.00     0.000 C 
BRANCH   2   3
ATOM      3  C   UNL     1      -4.014   4.981  -4.511  1.00  0.00     0.000 C 
BRANCH   3   4
ATOM      4  C   UNL     1      -5.281   5.633  -3.921  1.00  0.00     0.000 C 
BRANCH   4   5
ATOM      5  C   UNL     1      -6.036   6.524  -4.930  1.00  0.00     0.000 C 
BRANCH   5   6
ATOM      6  C   UNL     1      -6.420   5.768  -6.216  1.00  0.00     0.000 C 
BRANCH   6   7
ATOM      7  C   UNL     1      -7.846   6.097  -6.694  1.00  0.00     0.000 C 
BRANCH   7   8
ATOM      8  C   UNL     1      -7.964   6.415  -8.198  1.00  0.00     0.000 C 
BRANCH   8   9
ATOM      9  C   UNL     1      -9.277   7.099  -8.616  1.00  0.00     0.000 C 
BRANCH   9  10
ATOM     10  C   UNL     1      -9.174   7.789  -9.989  1.00  0.00     0.000 C 
BRANCH  10  11
ATOM     11  C   UNL     1      -9.422   9.304  -9.917  1.00  0.00     0.000 C 
BRANCH  11  12
ATOM     12  C   UNL     1      -8.119  10.122 -10.022  1.00  0.00     0.006 C 
BRANCH  12  13
ATOM     13  C   UNL     1      -6.881   9.290  -9.673  1.00  0.00     0.053 C 
BRANCH  13  14
ATOM     14  C   UNL     1      -6.306   9.674  -8.347  1.00  0.00     0.041 C 
ATOM     15  O   UNL     1      -7.034   9.685  -7.319  1.00  0.00    -0.550 OA
ATOM     16  O   UNL     1      -4.961  10.004  -8.244  1.00  0.00    -0.550 OA
ENDBRANCH  13  14
ENDBRANCH  12  13
ENDBRANCH  11  12
ENDBRANCH  10  11
ENDBRANCH   9  10
ENDBRANCH   8   9
ENDBRANCH   7   8
ENDBRANCH   6   7
ENDBRANCH   5   6
ENDBRANCH   4   5
ENDBRANCH   3   4
ENDBRANCH   2   3
ENDBRANCH   1   2
BRANCH   1  17
ATOM     17  C   UNL     1      -2.809   5.355  -1.138  1.00  0.00     0.000 C 
BRANCH  17  18
ATOM     18  C   UNL     1      -3.006   5.091   0.362  1.00  0.00     0.000 C 
BRANCH  18  19
ATOM     19  C   UNL     1      -2.646   3.649   0.759  1.00  0.00     0.000 C 
BRANCH  19  20
ATOM     20  C   UNL     1      -2.452   2.724  -0.458  1.00  0.00     0.000 C 
BRANCH  20  21
ATOM     21  C   UNL     1      -1.427   1.586  -0.269  1.00  0.00     0.000 C 
BRANCH  21  22
ATOM     22  C   UNL     1      -2.075   0.192  -0.267  1.00  0.00    -0.000 C 
BRANCH  22  23
ATOM     23  C   UNL     1      -3.601   0.236  -0.472  1.00  0.00    -0.000 C 
BRANCH  23  24
ATOM     24  C   UNL     1      -4.215  -1.007  -1.150  1.00  0.00    -0.000 C 
BRANCH  24  25
ATOM     25  C   UNL     1      -3.457  -1.516  -2.387  1.00  0.00    -0.000 C 
BRANCH  25  26
ATOM     26  C   UNL     1      -4.101  -2.770  -3.007  1.00  0.00    -0.000 C 
BRANCH  26  27
ATOM     27  C   UNL     1      -4.031  -3.990  -2.078  1.00  0.00    -0.000 C 
BRANCH  27  28
ATOM     28  C   UNL     1      -3.389  -3.663  -0.719  1.00  0.00    -0.000 C 
BRANCH  28  29
ATOM     29  C   UNL     1      -4.007  -4.472   0.430  1.00  0.00    -0.003 C 
ATOM     30  C   UNL     1      -5.229  -3.786   1.046  1.00  0.00     0.004 C 
ENDBRANCH  28  29
ENDBRANCH  27  28
ENDBRANCH  26  27
ENDBRANCH  25  26
ENDBRANCH  24  25
ENDBRANCH  23  24
ENDBRANCH  22  23
ENDBRANCH  21  22
ENDBRANCH  20  21
ENDBRANCH  19  20
ENDBRANCH  18  19
ENDBRANCH  17  18
ENDBRANCH   1  17
TORSDOF 26
ENDMDL
MODEL 8
REMARK VINA RESULT:    -0.454      4.128     11.622
REMARK INTER + INTRA:          -3.114
REMARK INTER:                  -2.903
REMARK INTRA:                  -0.211
REMARK UNBOUND:                -1.970
REMARK SMILES CCCCCCCCCCCCCCCCCCCCCCCCCCCC(=O)[O-]
REMARK SMILES IDX 15 1 16 2 17 3 18 4 19 5 20 6 21 7 22 8 23 9 24 10 25 11
REMARK SMILES IDX 26 12 27 13 28 14 29 15 30 16 14 17 13 18 12 19 11 20 10 21
REMARK SMILES IDX 9 22 8 23 7 24 6 25 5 26 4 27 3 28 2 29 1 30
REMARK H PARENT
REMARK Flexibility Score: inf
ROOT
ATOM      1  C   UNL     1      -2.686   5.437  -0.067  1.00  0.00     0.000 C 
ENDROOT
BRANCH   1   2
ATOM      2  C   UNL     1      -2.927   4.357   1.005  1.00  0.00     0.000 C 
BRANCH   2   3
ATOM      3  C   UNL     1      -4.379   3.842   1.066  1.00  0.00     0.000 C 
BRANCH   3   4
ATOM      4  C   UNL     1      -4.519   2.325   1.304  1.00  0.00     0.000 C 
BRANCH   4   5
ATOM      5  C   UNL     1      -3.875   1.469   0.194  1.00  0.00     0.000 C 
BRANCH   5   6
ATOM      6  C   UNL     1      -2.385   1.182   0.458  1.00  0.00     0.000 C 
BRANCH   6   7
ATOM      7  C   UNL     1      -1.665   0.604  -0.773  1.00  0.00     0.000 C 
BRANCH   7   8
ATOM      8  C   UNL     1      -2.248  -0.724  -1.296  1.00  0.00     0.000 C 
BRANCH   8   9
ATOM      9  C   UNL     1      -3.772  -0.726  -1.505  1.00  0.00     0.000 C 
BRANCH   9  10
ATOM     10  C   UNL     1      -4.208  -1.625  -2.677  1.00  0.00     0.000 C 
BRANCH  10  11
ATOM     11  C   UNL     1      -3.380  -2.915  -2.782  1.00  0.00     0.000 C 
BRANCH  11  12
ATOM     12  C   UNL     1      -3.973  -4.067  -1.946  1.00  0.00     0.006 C 
BRANCH  12  13
ATOM     13  C   UNL     1      -3.654  -3.927  -0.454  1.00  0.00     0.053 C 
BRANCH  13  14
ATOM     14  C   UNL     1      -4.666  -4.619   0.401  1.00  0.00     0.041 C 
ATOM     15  O   UNL     1      -5.091  -4.071   1.452  1.00  0.00    -0.550 OA
ATOM     16  O   UNL     1      -5.153  -5.865   0.027  1.00  0.00    -0.550 OA
ENDBRANCH  13  14
ENDBRANCH  12  13
ENDBRANCH  11  12
ENDBRANCH  10  11
ENDBRANCH   9  10
ENDBRANCH   8   9
ENDBRANCH   7   8
ENDBRANCH   6   7
ENDBRANCH   5   6
ENDBRANCH   4   5
ENDBRANCH   3   4
ENDBRANCH   2   3
ENDBRANCH   1   2
BRANCH   1  17
ATOM     17  C   UNL     1      -3.526   5.206  -1.333  1.00  0.00     0.000 C 
BRANCH  17  18
ATOM     18  C   UNL     1      -2.929   4.140  -2.264  1.00  0.00     0.000 C 
BRANCH  18  19
ATOM     19  C   UNL     1      -2.868   4.604  -3.729  1.00  0.00     0.000 C 
BRANCH  19  20
ATOM     20  C   UNL     1      -4.262   4.759  -4.368  1.00  0.00     0.000 C 
BRANCH  20  21
ATOM     21  C   UNL     1      -5.055   6.009  -3.931  1.00  0.00     0.000 C 
BRANCH  21  22
ATOM     22  C   UNL     1      -6.381   6.170  -4.693  1.00  0.00    -0.000 C 
BRANCH  22  23
ATOM     23  C   UNL     1      -6.292   5.716  -6.162  1.00  0.00    -0.000 C 
BRANCH  23  24
ATOM     24  C   UNL     1      -7.556   5.963  -7.011  1.00  0.00    -0.000 C 
BRANCH  24  25
ATOM     25  C   UNL     1      -7.353   6.871  -8.236  1.00  0.00    -0.000 C 
BRANCH  25  26
ATOM     26  C   UNL     1      -8.675   7.433  -8.788  1.00  0.00    -0.000 C 
BRANCH  26  27
ATOM     27  C   UNL     1      -8.457   8.533  -9.837  1.00  0.00    -0.000 C 
BRANCH  27  28
ATOM     28  C   UNL     1      -8.720   9.942  -9.279  1.00  0.00    -0.000 C 
BRANCH  28  29
ATOM     29  C   UNL     1      -8.346  10.063  -7.795  1.00  0.00    -0.003 C 
ATOM     30  C   UNL     1      -6.834  10.125  -7.569  1.00  0.00     0.004 C 
ENDBRANCH  28  29
ENDBRANCH  27  28
ENDBRANCH  26  27
ENDBRANCH  25  26
ENDBRANCH  24  25
ENDBRANCH  23  24
ENDBRANCH  22  23
ENDBRANCH  21  22
ENDBRANCH  20  21
ENDBRANCH  19  20
ENDBRANCH  18  19
ENDBRANCH  17  18
ENDBRANCH   1  17
TORSDOF 26
ENDMDL
MODEL 9
REMARK VINA RESULT:    -0.269      2.794     11.474
REMARK INTER + INTRA:          -2.647
REMARK INTER:                  -1.186
REMARK INTRA:                  -1.461
REMARK UNBOUND:                -1.970
REMARK SMILES CCCCCCCCCCCCCCCCCCCCCCCCCCCC(=O)[O-]
REMARK SMILES IDX 15 1 16 2 17 3 18 4 19 5 20 6 21 7 22 8 23 9 24 10 25 11
REMARK SMILES IDX 26 12 27 13 28 14 29 15 30 16 14 17 13 18 12 19 11 20 10 21
REMARK SMILES IDX 9 22 8 23 7 24 6 25 5 26 4 27 3 28 2 29 1 30
REMARK H PARENT
REMARK Flexibility Score: inf
ROOT
ATOM      1  C   UNL     1      -3.113   4.622  -2.715  1.00  0.00     0.000 C 
ENDROOT
BRANCH   1   2
ATOM      2  C   UNL     1      -2.319   5.452  -1.689  1.00  0.00     0.000 C 
BRANCH   2   3
ATOM      3  C   UNL     1      -3.103   5.785  -0.404  1.00  0.00     0.000 C 
BRANCH   3   4
ATOM      4  C   UNL     1      -2.313   5.594   0.906  1.00  0.00     0.000 C 
BRANCH   4   5
ATOM      5  C   UNL     1      -2.406   4.162   1.474  1.00  0.00     0.000 C 
BRANCH   5   6
ATOM      6  C   UNL     1      -3.568   3.358   0.862  1.00  0.00     0.000 C 
BRANCH   6   7
ATOM      7  C   UNL     1      -3.092   2.313  -0.163  1.00  0.00     0.000 C 
BRANCH   7   8
ATOM      8  C   UNL     1      -3.820   0.956  -0.084  1.00  0.00     0.000 C 
BRANCH   8   9
ATOM      9  C   UNL     1      -3.217  -0.155  -0.963  1.00  0.00     0.000 C 
BRANCH   9  10
ATOM     10  C   UNL     1      -4.259  -1.210  -1.379  1.00  0.00     0.000 C 
BRANCH  10  11
ATOM     11  C   UNL     1      -4.113  -2.532  -0.608  1.00  0.00     0.000 C 
BRANCH  11  12
ATOM     12  C   UNL     1      -3.647  -3.693  -1.510  1.00  0.00     0.006 C 
BRANCH  12  13
ATOM     13  C   UNL     1      -4.099  -3.519  -2.963  1.00  0.00     0.053 C 
BRANCH  13  14
ATOM     14  C   UNL     1      -2.979  -3.744  -3.927  1.00  0.00     0.041 C 
ATOM     15  O   UNL     1      -2.015  -2.935  -3.979  1.00  0.00    -0.550 OA
ATOM     16  O   UNL     1      -2.991  -4.858  -4.756  1.00  0.00    -0.550 OA
ENDBRANCH  13  14
ENDBRANCH  12  13
ENDBRANCH  11  12
ENDBRANCH  10  11
ENDBRANCH   9  10
ENDBRANCH   8   9
ENDBRANCH   7   8
ENDBRANCH   6   7
ENDBRANCH   5   6
ENDBRANCH   4   5
ENDBRANCH   3   4
ENDBRANCH   2   3
ENDBRANCH   1   2
BRANCH   1  17
ATOM     17  C   UNL     1      -4.472   5.253  -3.056  1.00  0.00     0.000 C 
BRANCH  17  18
ATOM     18  C   UNL     1      -4.754   5.291  -4.565  1.00  0.00     0.000 C 
BRANCH  18  19
ATOM     19  C   UNL     1      -6.054   6.041  -4.903  1.00  0.00     0.000 C 
BRANCH  19  20
ATOM     20  C   UNL     1      -6.225   6.295  -6.413  1.00  0.00     0.000 C 
BRANCH  20  21
ATOM     21  C   UNL     1      -7.583   6.892  -6.836  1.00  0.00     0.000 C 
BRANCH  21  22
ATOM     22  C   UNL     1      -8.335   6.011  -7.847  1.00  0.00    -0.000 C 
BRANCH  22  23
ATOM     23  C   UNL     1      -8.708   6.760  -9.140  1.00  0.00    -0.000 C 
BRANCH  23  24
ATOM     24  C   UNL     1      -9.954   7.664  -9.046  1.00  0.00    -0.000 C 
BRANCH  24  25
ATOM     25  C   UNL     1      -9.711   9.147  -9.375  1.00  0.00    -0.000 C 
BRANCH  25  26
ATOM     26  C   UNL     1      -8.682   9.805  -8.438  1.00  0.00    -0.000 C 
BRANCH  26  27
ATOM     27  C   UNL     1      -7.358  10.125  -9.146  1.00  0.00    -0.000 C 
BRANCH  27  28
ATOM     28  C   UNL     1      -6.207   9.211  -8.691  1.00  0.00    -0.000 C 
BRANCH  28  29
ATOM     29  C   UNL     1      -4.893   9.514  -9.426  1.00  0.00    -0.003 C 
ATOM     30  C   UNL     1      -4.059   8.259  -9.689  1.00  0.00     0.004 C 
ENDBRANCH  28  29
ENDBRANCH  27  28
ENDBRANCH  26  27
ENDBRANCH  25  26
ENDBRANCH  24  25
ENDBRANCH  23  24
ENDBRANCH  22  23
ENDBRANCH  21  22
ENDBRANCH  20  21
ENDBRANCH  19  20
ENDBRANCH  18  19
ENDBRANCH  17  18
ENDBRANCH   1  17
TORSDOF 26
ENDMDL
