MODEL 1
REMARK VINA RESULT:    -3.594      0.000      0.000
REMARK INTER + INTRA:          -9.627
REMARK INTER:                  -6.745
REMARK INTRA:                  -2.882
REMARK UNBOUND:                -2.882
REMARK SMILES CCCCCCCCC=CCCCCCCCC(=O)[O-]
REMARK SMILES IDX 10 1 9 2 11 3 12 4 13 5 14 6 15 7 16 8 17 9 18 10 19 11
REMARK SMILES IDX 20 12 8 13 7 14 6 15 5 16 4 17 3 18 2 19 1 20
REMARK H PARENT
REMARK Flexibility Score: inf
ROOT
ATOM      1  C   UNL     1      55.252 -41.756 -26.017  1.00  0.00    -0.031 C 
ATOM      2  C   UNL     1      56.194 -41.053 -26.674  1.00  0.00    -0.031 C 
ENDROOT
BRANCH   1   3
ATOM      3  C   UNL     1      53.955 -42.251 -26.611  1.00  0.00     0.027 C 
BRANCH   3   4
ATOM      4  C   UNL     1      52.812 -41.240 -26.418  1.00  0.00     0.004 C 
BRANCH   4   5
ATOM      5  C   UNL     1      51.830 -41.140 -27.599  1.00  0.00     0.000 C 
BRANCH   5   6
ATOM      6  C   UNL     1      52.458 -40.495 -28.847  1.00  0.00     0.000 C 
BRANCH   6   7
ATOM      7  C   UNL     1      51.606 -40.702 -30.110  1.00  0.00     0.000 C 
BRANCH   7   8
ATOM      8  C   UNL     1      52.432 -41.208 -31.306  1.00  0.00     0.006 C 
BRANCH   8   9
ATOM      9  C   UNL     1      53.928 -41.300 -30.977  1.00  0.00     0.053 C 
BRANCH   9  10
ATOM     10  C   UNL     1      54.779 -40.817 -32.111  1.00  0.00     0.041 C 
ATOM     11  O   UNL     1      54.429 -41.027 -33.301  1.00  0.00    -0.550 OA
ATOM     12  O   UNL     1      55.946 -40.108 -31.851  1.00  0.00    -0.550 OA
ENDBRANCH   9  10
ENDBRANCH   8   9
ENDBRANCH   7   8
ENDBRANCH   6   7
ENDBRANCH   5   6
ENDBRANCH   4   5
ENDBRANCH   3   4
ENDBRANCH   1   3
BRANCH   2  13
ATOM     13  C   UNL     1      56.102 -40.591 -28.110  1.00  0.00     0.027 C 
BRANCH  13  14
ATOM     14  C   UNL     1      55.814 -39.086 -28.256  1.00  0.00     0.004 C 
BRANCH  14  15
ATOM     15  C   UNL     1      55.860 -38.294 -26.934  1.00  0.00     0.000 C 
BRANCH  15  16
ATOM     16  C   UNL     1      54.483 -37.912 -26.356  1.00  0.00     0.000 C 
BRANCH  16  17
ATOM     17  C   UNL     1      54.281 -38.261 -24.870  1.00  0.00    -0.000 C 
BRANCH  17  18
ATOM     18  C   UNL     1      55.579 -38.170 -24.053  1.00  0.00    -0.000 C 
BRANCH  18  19
ATOM     19  C   UNL     1      55.802 -39.447 -23.234  1.00  0.00    -0.003 C 
ATOM     20  C   UNL     1      54.474 -40.052 -22.786  1.00  0.00     0.004 C 
ENDBRANCH  18  19
ENDBRANCH  17  18
ENDBRANCH  16  17
ENDBRANCH  15  16
ENDBRANCH  14  15
ENDBRANCH  13  14
ENDBRANCH   2  13
TORSDOF 15
ENDMDL
MODEL 2
REMARK VINA RESULT:    -3.579      1.371      3.291
REMARK INTER + INTRA:          -9.599
REMARK INTER:                  -6.668
REMARK INTRA:                  -2.931
REMARK UNBOUND:                -2.882
REMARK SMILES CCCCCCCCC=CCCCCCCCC(=O)[O-]
REMARK SMILES IDX 10 1 9 2 11 3 12 4 13 5 14 6 15 7 16 8 17 9 18 10 19 11
REMARK SMILES IDX 20 12 8 13 7 14 6 15 5 16 4 17 3 18 2 19 1 20
REMARK H PARENT
REMARK Flexibility Score: inf
ROOT
ATOM      1  C   UNL     1      54.167 -42.368 -25.623  1.00  0.00    -0.031 C 
ATOM      2  C   UNL     1      53.323 -41.422 -25.169  1.00  0.00    -0.031 C 
ENDROOT
BRANCH   1   3
ATOM      3  C   UNL     1      55.674 -42.290 -25.583  1.00  0.00     0.027 C 
BRANCH   3   4
ATOM      4  C   UNL     1      56.265 -41.888 -26.945  1.00  0.00     0.004 C 
BRANCH   4   5
ATOM      5  C   UNL     1      56.471 -40.375 -27.140  1.00  0.00     0.000 C 
BRANCH   5   6
ATOM      6  C   UNL     1      55.822 -39.843 -28.429  1.00  0.00     0.000 C 
BRANCH   6   7
ATOM      7  C   UNL     1      54.288 -39.794 -28.340  1.00  0.00     0.000 C 
BRANCH   7   8
ATOM      8  C   UNL     1      53.607 -40.800 -29.284  1.00  0.00     0.006 C 
BRANCH   8   9
ATOM      9  C   UNL     1      54.607 -41.464 -30.240  1.00  0.00     0.053 C 
BRANCH   9  10
ATOM     10  C   UNL     1      54.480 -40.934 -31.635  1.00  0.00     0.041 C 
ATOM     11  O   UNL     1      55.495 -40.517 -32.252  1.00  0.00    -0.550 OA
ATOM     12  O   UNL     1      53.241 -40.928 -32.266  1.00  0.00    -0.550 OA
ENDBRANCH   9  10
ENDBRANCH   8   9
ENDBRANCH   7   8
ENDBRANCH   6   7
ENDBRANCH   5   6
ENDBRANCH   4   5
ENDBRANCH   3   4
ENDBRANCH   1   3
BRANCH   2  13
ATOM     13  C   UNL     1      53.730 -40.091 -24.582  1.00  0.00     0.027 C 
BRANCH  13  14
ATOM     14  C   UNL     1      54.219 -40.185 -23.125  1.00  0.00     0.004 C 
BRANCH  14  15
ATOM     15  C   UNL     1      55.363 -39.214 -22.770  1.00  0.00     0.000 C 
BRANCH  15  16
ATOM     16  C   UNL     1      56.614 -39.326 -23.665  1.00  0.00     0.000 C 
BRANCH  16  17
ATOM     17  C   UNL     1      57.183 -37.984 -24.159  1.00  0.00    -0.000 C 
BRANCH  17  18
ATOM     18  C   UNL     1      56.096 -36.926 -24.400  1.00  0.00    -0.000 C 
BRANCH  18  19
ATOM     19  C   UNL     1      55.497 -37.065 -25.804  1.00  0.00    -0.003 C 
ATOM     20  C   UNL     1      54.018 -36.689 -25.812  1.00  0.00     0.004 C 
ENDBRANCH  18  19
ENDBRANCH  17  18
ENDBRANCH  16  17
ENDBRANCH  15  16
ENDBRANCH  14  15
ENDBRANCH  13  14
ENDBRANCH   2  13
TORSDOF 15
ENDMDL
MODEL 3
REMARK VINA RESULT:    -3.527      2.527      5.163
REMARK INTER + INTRA:          -9.502
REMARK INTER:                  -6.563
REMARK INTRA:                  -2.939
REMARK UNBOUND:                -2.882
REMARK SMILES CCCCCCCCC=CCCCCCCCC(=O)[O-]
REMARK SMILES IDX 10 1 9 2 11 3 12 4 13 5 14 6 15 7 16 8 17 9 18 10 19 11
REMARK SMILES IDX 20 12 8 13 7 14 6 15 5 16 4 17 3 18 2 19 1 20
REMARK H PARENT
REMARK Flexibility Score: inf
ROOT
ATOM      1  C   UNL     1      55.420 -42.984 -26.105  1.00  0.00    -0.031 C 
ATOM      2  C   UNL     1      55.338 -41.716 -25.660  1.00  0.00    -0.031 C 
ENDROOT
BRANCH   1   3
ATOM      3  C   UNL     1      54.271 -43.795 -26.655  1.00  0.00     0.027 C 
BRANCH   3   4
ATOM      4  C   UNL     1      54.460 -44.119 -28.148  1.00  0.00     0.004 C 
BRANCH   4   5
ATOM      5  C   UNL     1      55.743 -43.547 -28.777  1.00  0.00     0.000 C 
BRANCH   5   6
ATOM      6  C   UNL     1      55.495 -42.882 -30.142  1.00  0.00     0.000 C 
BRANCH   6   7
ATOM      7  C   UNL     1      56.558 -41.824 -30.483  1.00  0.00     0.000 C 
BRANCH   7   8
ATOM      8  C   UNL     1      56.954 -40.968 -29.268  1.00  0.00     0.006 C 
BRANCH   8   9
ATOM      9  C   UNL     1      56.656 -39.479 -29.487  1.00  0.00     0.053 C 
BRANCH   9  10
ATOM     10  C   UNL     1      57.093 -38.646 -28.321  1.00  0.00     0.041 C 
ATOM     11  O   UNL     1      57.427 -39.195 -27.239  1.00  0.00    -0.550 OA
ATOM     12  O   UNL     1      57.158 -37.263 -28.441  1.00  0.00    -0.550 OA
ENDBRANCH   9  10
ENDBRANCH   8   9
ENDBRANCH   7   8
ENDBRANCH   6   7
ENDBRANCH   5   6
ENDBRANCH   4   5
ENDBRANCH   3   4
ENDBRANCH   1   3
BRANCH   2  13
ATOM     13  C   UNL     1      54.075 -40.892 -25.586  1.00  0.00     0.027 C 
BRANCH  13  14
ATOM     14  C   UNL     1      54.000 -39.781 -26.649  1.00  0.00     0.004 C 
BRANCH  14  15
ATOM     15  C   UNL     1      53.417 -40.230 -28.004  1.00  0.00     0.000 C 
BRANCH  15  16
ATOM     16  C   UNL     1      52.124 -41.064 -27.912  1.00  0.00     0.000 C 
BRANCH  16  17
ATOM     17  C   UNL     1      51.295 -41.124 -29.207  1.00  0.00    -0.000 C 
BRANCH  17  18
ATOM     18  C   UNL     1      51.974 -40.410 -30.385  1.00  0.00    -0.000 C 
BRANCH  18  19
ATOM     19  C   UNL     1      52.513 -41.423 -31.403  1.00  0.00    -0.003 C 
ATOM     20  C   UNL     1      53.430 -40.748 -32.419  1.00  0.00     0.004 C 
ENDBRANCH  18  19
ENDBRANCH  17  18
ENDBRANCH  16  17
ENDBRANCH  15  16
ENDBRANCH  14  15
ENDBRANCH  13  14
ENDBRANCH   2  13
TORSDOF 15
ENDMDL
MODEL 4
REMARK VINA RESULT:    -3.522      2.340      4.148
REMARK INTER + INTRA:          -9.493
REMARK INTER:                  -6.621
REMARK INTRA:                  -2.872
REMARK UNBOUND:                -2.882
REMARK SMILES CCCCCCCCC=CCCCCCCCC(=O)[O-]
REMARK SMILES IDX 10 1 9 2 11 3 12 4 13 5 14 6 15 7 16 8 17 9 18 10 19 11
REMARK SMILES IDX 20 12 8 13 7 14 6 15 5 16 4 17 3 18 2 19 1 20
REMARK H PARENT
REMARK Flexibility Score: inf
ROOT
ATOM      1  C   UNL     1      54.912 -40.379 -23.470  1.00  0.00    -0.031 C 
ATOM      2  C   UNL     1      55.100 -39.238 -22.779  1.00  0.00    -0.031 C 
ENDROOT
BRANCH   1   3
ATOM      3  C   UNL     1      53.870 -40.593 -24.541  1.00  0.00     0.027 C 
BRANCH   3   4
ATOM      4  C   UNL     1      54.211 -41.791 -25.444  1.00  0.00     0.004 C 
BRANCH   4   5
ATOM      5  C   UNL     1      55.713 -42.108 -25.556  1.00  0.00     0.000 C 
BRANCH   5   6
ATOM      6  C   UNL     1      55.990 -43.463 -26.232  1.00  0.00     0.000 C 
BRANCH   6   7
ATOM      7  C   UNL     1      56.486 -43.309 -27.679  1.00  0.00     0.000 C 
BRANCH   7   8
ATOM      8  C   UNL     1      56.950 -41.877 -27.998  1.00  0.00     0.006 C 
BRANCH   8   9
ATOM      9  C   UNL     1      57.170 -41.661 -29.501  1.00  0.00     0.053 C 
BRANCH   9  10
ATOM     10  C   UNL     1      56.184 -40.691 -30.075  1.00  0.00     0.041 C 
ATOM     11  O   UNL     1      56.583 -39.636 -30.633  1.00  0.00    -0.550 OA
ATOM     12  O   UNL     1      54.823 -40.968 -30.018  1.00  0.00    -0.550 OA
ENDBRANCH   9  10
ENDBRANCH   8   9
ENDBRANCH   7   8
ENDBRANCH   6   7
ENDBRANCH   5   6
ENDBRANCH   4   5
ENDBRANCH   3   4
ENDBRANCH   1   3
BRANCH   2  13
ATOM     13  C   UNL     1      54.272 -37.982 -22.918  1.00  0.00     0.027 C 
BRANCH  13  14
ATOM     14  C   UNL     1      54.909 -36.922 -23.834  1.00  0.00     0.004 C 
BRANCH  14  15
ATOM     15  C   UNL     1      56.350 -36.529 -23.454  1.00  0.00     0.000 C 
BRANCH  15  16
ATOM     16  C   UNL     1      57.383 -36.664 -24.591  1.00  0.00     0.000 C 
BRANCH  16  17
ATOM     17  C   UNL     1      58.083 -38.032 -24.675  1.00  0.00    -0.000 C 
BRANCH  17  18
ATOM     18  C   UNL     1      57.484 -38.945 -25.755  1.00  0.00    -0.000 C 
BRANCH  18  19
ATOM     19  C   UNL     1      56.871 -38.119 -26.892  1.00  0.00    -0.003 C 
ATOM     20  C   UNL     1      55.431 -38.542 -27.165  1.00  0.00     0.004 C 
ENDBRANCH  18  19
ENDBRANCH  17  18
ENDBRANCH  16  17
ENDBRANCH  15  16
ENDBRANCH  14  15
ENDBRANCH  13  14
ENDBRANCH   2  13
TORSDOF 15
ENDMDL
MODEL 5
REMARK VINA RESULT:    -3.518      1.527      5.139
REMARK INTER + INTRA:          -9.484
REMARK INTER:                  -6.834
REMARK INTRA:                  -2.650
REMARK UNBOUND:                -2.882
REMARK SMILES CCCCCCCCC=CCCCCCCCC(=O)[O-]
REMARK SMILES IDX 10 1 9 2 11 3 12 4 13 5 14 6 15 7 16 8 17 9 18 10 19 11
REMARK SMILES IDX 20 12 8 13 7 14 6 15 5 16 4 17 3 18 2 19 1 20
REMARK H PARENT
REMARK Flexibility Score: inf
ROOT
ATOM      1  C   UNL     1      55.714 -38.816 -22.869  1.00  0.00    -0.031 C 
ATOM      2  C   UNL     1      55.086 -39.992 -23.057  1.00  0.00    -0.031 C 
ENDROOT
BRANCH   1   3
ATOM      3  C   UNL     1      56.255 -37.926 -23.962  1.00  0.00     0.027 C 
BRANCH   3   4
ATOM      4  C   UNL     1      57.692 -38.309 -24.356  1.00  0.00     0.004 C 
BRANCH   4   5
ATOM      5  C   UNL     1      57.852 -38.824 -25.798  1.00  0.00     0.000 C 
BRANCH   5   6
ATOM      6  C   UNL     1      57.006 -38.036 -26.813  1.00  0.00     0.000 C 
BRANCH   6   7
ATOM      7  C   UNL     1      55.991 -38.925 -27.551  1.00  0.00     0.000 C 
BRANCH   7   8
ATOM      8  C   UNL     1      56.409 -39.222 -29.002  1.00  0.00     0.006 C 
BRANCH   8   9
ATOM      9  C   UNL     1      57.310 -40.459 -29.102  1.00  0.00     0.053 C 
BRANCH   9  10
ATOM     10  C   UNL     1      56.887 -41.368 -30.215  1.00  0.00     0.041 C 
ATOM     11  O   UNL     1      57.055 -42.611 -30.118  1.00  0.00    -0.550 OA
ATOM     12  O   UNL     1      56.280 -40.842 -31.349  1.00  0.00    -0.550 OA
ENDBRANCH   9  10
ENDBRANCH   8   9
ENDBRANCH   7   8
ENDBRANCH   6   7
ENDBRANCH   5   6
ENDBRANCH   4   5
ENDBRANCH   3   4
ENDBRANCH   1   3
BRANCH   2  13
ATOM     13  C   UNL     1      54.853 -40.657 -24.393  1.00  0.00     0.027 C 
BRANCH  13  14
ATOM     14  C   UNL     1      55.868 -41.769 -24.714  1.00  0.00     0.004 C 
BRANCH  14  15
ATOM     15  C   UNL     1      55.851 -42.248 -26.179  1.00  0.00     0.000 C 
BRANCH  15  16
ATOM     16  C   UNL     1      54.532 -42.904 -26.634  1.00  0.00     0.000 C 
BRANCH  16  17
ATOM     17  C   UNL     1      54.142 -42.634 -28.098  1.00  0.00    -0.000 C 
BRANCH  17  18
ATOM     18  C   UNL     1      53.252 -41.394 -28.261  1.00  0.00    -0.000 C 
BRANCH  18  19
ATOM     19  C   UNL     1      53.190 -40.951 -29.727  1.00  0.00    -0.003 C 
ATOM     20  C   UNL     1      51.768 -40.563 -30.126  1.00  0.00     0.004 C 
ENDBRANCH  18  19
ENDBRANCH  17  18
ENDBRANCH  16  17
ENDBRANCH  15  16
ENDBRANCH  14  15
ENDBRANCH  13  14
ENDBRANCH   2  13
TORSDOF 15
ENDMDL
MODEL 6
REMARK VINA RESULT:    -3.499      4.281      6.188
REMARK INTER + INTRA:          -9.450
REMARK INTER:                  -6.805
REMARK INTRA:                  -2.645
REMARK UNBOUND:                -2.882
REMARK SMILES CCCCCCCCC=CCCCCCCCC(=O)[O-]
REMARK SMILES IDX 10 1 9 2 11 3 12 4 13 5 14 6 15 7 16 8 17 9 18 10 19 11
REMARK SMILES IDX 20 12 8 13 7 14 6 15 5 16 4 17 3 18 2 19 1 20
REMARK H PARENT
REMARK Flexibility Score: inf
ROOT
ATOM      1  C   UNL     1      52.131 -40.394 -30.014  1.00  0.00    -0.031 C 
ATOM      2  C   UNL     1      52.771 -40.339 -28.830  1.00  0.00    -0.031 C 
ENDROOT
BRANCH   1   3
ATOM      3  C   UNL     1      52.299 -41.479 -31.050  1.00  0.00     0.027 C 
BRANCH   3   4
ATOM      4  C   UNL     1      51.107 -42.452 -31.062  1.00  0.00     0.004 C 
BRANCH   4   5
ATOM      5  C   UNL     1      51.094 -43.471 -29.908  1.00  0.00     0.000 C 
BRANCH   5   6
ATOM      6  C   UNL     1      49.780 -43.452 -29.107  1.00  0.00     0.000 C 
BRANCH   6   7
ATOM      7  C   UNL     1      49.044 -42.106 -29.214  1.00  0.00     0.000 C 
BRANCH   7   8
ATOM      8  C   UNL     1      49.238 -41.224 -27.968  1.00  0.00     0.006 C 
BRANCH   8   9
ATOM      9  C   UNL     1      47.902 -40.794 -27.349  1.00  0.00     0.053 C 
BRANCH   9  10
ATOM     10  C   UNL     1      47.569 -41.597 -26.129  1.00  0.00     0.041 C 
ATOM     11  O   UNL     1      47.599 -42.854 -26.168  1.00  0.00    -0.550 OA
ATOM     12  O   UNL     1      47.252 -40.953 -24.938  1.00  0.00    -0.550 OA
ENDBRANCH   9  10
ENDBRANCH   8   9
ENDBRANCH   7   8
ENDBRANCH   6   7
ENDBRANCH   5   6
ENDBRANCH   4   5
ENDBRANCH   3   4
ENDBRANCH   1   3
BRANCH   2  13
ATOM     13  C   UNL     1      53.807 -41.326 -28.346  1.00  0.00     0.027 C 
BRANCH  13  14
ATOM     14  C   UNL     1      53.569 -41.812 -26.905  1.00  0.00     0.004 C 
BRANCH  14  15
ATOM     15  C   UNL     1      53.662 -43.340 -26.721  1.00  0.00     0.000 C 
BRANCH  15  16
ATOM     16  C   UNL     1      52.318 -44.046 -26.455  1.00  0.00     0.000 C 
BRANCH  16  17
ATOM     17  C   UNL     1      51.297 -43.221 -25.650  1.00  0.00    -0.000 C 
BRANCH  17  18
ATOM     18  C   UNL     1      50.505 -44.068 -24.644  1.00  0.00    -0.000 C 
BRANCH  18  19
ATOM     19  C   UNL     1      50.062 -43.222 -23.444  1.00  0.00    -0.003 C 
ATOM     20  C   UNL     1      50.990 -42.028 -23.240  1.00  0.00     0.004 C 
ENDBRANCH  18  19
ENDBRANCH  17  18
ENDBRANCH  16  17
ENDBRANCH  15  16
ENDBRANCH  14  15
ENDBRANCH  13  14
ENDBRANCH   2  13
TORSDOF 15
ENDMDL
MODEL 7
REMARK VINA RESULT:    -3.492      2.837      5.988
REMARK INTER + INTRA:          -9.436
REMARK INTER:                  -6.406
REMARK INTRA:                  -3.030
REMARK UNBOUND:                -2.882
REMARK SMILES CCCCCCCCC=CCCCCCCCC(=O)[O-]
REMARK SMILES IDX 10 1 9 2 11 3 12 4 13 5 14 6 15 7 16 8 17 9 18 10 19 11
REMARK SMILES IDX 20 12 8 13 7 14 6 15 5 16 4 17 3 18 2 19 1 20
REMARK H PARENT
REMARK Flexibility Score: inf
ROOT
ATOM      1  C   UNL     1      51.661 -43.796 -26.777  1.00  0.00    -0.031 C 
ATOM      2  C   UNL     1      52.873 -44.044 -27.310  1.00  0.00    -0.031 C 
ENDROOT
BRANCH   1   3
ATOM      3  C   UNL     1      51.399 -43.402 -25.344  1.00  0.00     0.027 C 
BRANCH   3   4
ATOM      4  C   UNL     1      51.232 -41.880 -25.187  1.00  0.00     0.004 C 
BRANCH   4   5
ATOM      5  C   UNL     1      51.790 -41.300 -23.875  1.00  0.00     0.000 C 
BRANCH   5   6
ATOM      6  C   UNL     1      53.220 -40.751 -24.023  1.00  0.00     0.000 C 
BRANCH   6   7
ATOM      7  C   UNL     1      53.596 -39.776 -22.895  1.00  0.00     0.000 C 
BRANCH   7   8
ATOM      8  C   UNL     1      55.109 -39.506 -22.826  1.00  0.00     0.006 C 
BRANCH   8   9
ATOM      9  C   UNL     1      55.872 -40.195 -23.965  1.00  0.00     0.053 C 
BRANCH   9  10
ATOM     10  C   UNL     1      56.481 -39.202 -24.908  1.00  0.00     0.041 C 
ATOM     11  O   UNL     1      56.988 -39.587 -25.994  1.00  0.00    -0.550 OA
ATOM     12  O   UNL     1      56.461 -37.848 -24.599  1.00  0.00    -0.550 OA
ENDBRANCH   9  10
ENDBRANCH   8   9
ENDBRANCH   7   8
ENDBRANCH   6   7
ENDBRANCH   5   6
ENDBRANCH   4   5
ENDBRANCH   3   4
ENDBRANCH   1   3
BRANCH   2  13
ATOM     13  C   UNL     1      54.183 -44.019 -26.559  1.00  0.00     0.027 C 
BRANCH  13  14
ATOM     14  C   UNL     1      54.878 -42.646 -26.577  1.00  0.00     0.004 C 
BRANCH  14  15
ATOM     15  C   UNL     1      54.592 -41.800 -27.834  1.00  0.00     0.000 C 
BRANCH  15  16
ATOM     16  C   UNL     1      53.834 -40.483 -27.575  1.00  0.00     0.000 C 
BRANCH  16  17
ATOM     17  C   UNL     1      52.475 -40.365 -28.288  1.00  0.00    -0.000 C 
BRANCH  17  18
ATOM     18  C   UNL     1      52.461 -41.045 -29.665  1.00  0.00    -0.000 C 
BRANCH  18  19
ATOM     19  C   UNL     1      51.113 -41.729 -29.925  1.00  0.00    -0.003 C 
ATOM     20  C   UNL     1      50.053 -41.251 -28.936  1.00  0.00     0.004 C 
ENDBRANCH  18  19
ENDBRANCH  17  18
ENDBRANCH  16  17
ENDBRANCH  15  16
ENDBRANCH  14  15
ENDBRANCH  13  14
ENDBRANCH   2  13
TORSDOF 15
ENDMDL
MODEL 8
REMARK VINA RESULT:    -3.486      3.930      5.669
REMARK INTER + INTRA:          -9.424
REMARK INTER:                  -6.835
REMARK INTRA:                  -2.589
REMARK UNBOUND:                -2.882
REMARK SMILES CCCCCCCCC=CCCCCCCCC(=O)[O-]
REMARK SMILES IDX 10 1 9 2 11 3 12 4 13 5 14 6 15 7 16 8 17 9 18 10 19 11
REMARK SMILES IDX 20 12 8 13 7 14 6 15 5 16 4 17 3 18 2 19 1 20
REMARK H PARENT
REMARK Flexibility Score: inf
ROOT
ATOM      1  C   UNL     1      52.597 -40.415 -28.126  1.00  0.00    -0.031 C 
ATOM      2  C   UNL     1      52.276 -41.306 -27.169  1.00  0.00    -0.031 C 
ENDROOT
BRANCH   1   3
ATOM      3  C   UNL     1      53.087 -40.757 -29.513  1.00  0.00     0.027 C 
BRANCH   3   4
ATOM      4  C   UNL     1      51.927 -40.906 -30.513  1.00  0.00     0.004 C 
BRANCH   4   5
ATOM      5  C   UNL     1      51.506 -42.358 -30.803  1.00  0.00     0.000 C 
BRANCH   5   6
ATOM      6  C   UNL     1      50.103 -42.693 -30.268  1.00  0.00     0.000 C 
BRANCH   6   7
ATOM      7  C   UNL     1      49.411 -41.479 -29.626  1.00  0.00     0.000 C 
BRANCH   7   8
ATOM      8  C   UNL     1      48.733 -41.823 -28.288  1.00  0.00     0.006 C 
BRANCH   8   9
ATOM      9  C   UNL     1      47.985 -40.622 -27.694  1.00  0.00     0.053 C 
BRANCH   9  10
ATOM     10  C   UNL     1      47.226 -40.995 -26.457  1.00  0.00     0.041 C 
ATOM     11  O   UNL     1      47.653 -40.655 -25.323  1.00  0.00    -0.550 OA
ATOM     12  O   UNL     1      46.029 -41.695 -26.561  1.00  0.00    -0.550 OA
ENDBRANCH   9  10
ENDBRANCH   8   9
ENDBRANCH   7   8
ENDBRANCH   6   7
ENDBRANCH   5   6
ENDBRANCH   4   5
ENDBRANCH   3   4
ENDBRANCH   1   3
BRANCH   2  13
ATOM     13  C   UNL     1      52.394 -42.807 -27.293  1.00  0.00     0.027 C 
BRANCH  13  14
ATOM     14  C   UNL     1      53.200 -43.457 -26.154  1.00  0.00     0.004 C 
BRANCH  14  15
ATOM     15  C   UNL     1      54.519 -44.120 -26.600  1.00  0.00     0.000 C 
BRANCH  15  16
ATOM     16  C   UNL     1      55.799 -43.420 -26.103  1.00  0.00     0.000 C 
BRANCH  16  17
ATOM     17  C   UNL     1      56.170 -42.130 -26.857  1.00  0.00    -0.000 C 
BRANCH  17  18
ATOM     18  C   UNL     1      55.803 -40.857 -26.079  1.00  0.00    -0.000 C 
BRANCH  18  19
ATOM     19  C   UNL     1      55.787 -41.122 -24.569  1.00  0.00    -0.003 C 
ATOM     20  C   UNL     1      54.633 -40.387 -23.893  1.00  0.00     0.004 C 
ENDBRANCH  18  19
ENDBRANCH  17  18
ENDBRANCH  16  17
ENDBRANCH  15  16
ENDBRANCH  14  15
ENDBRANCH  13  14
ENDBRANCH   2  13
TORSDOF 15
ENDMDL
MODEL 9
REMARK VINA RESULT:    -3.479      3.611      6.512
REMARK INTER + INTRA:          -9.411
REMARK INTER:                  -6.061
REMARK INTRA:                  -3.350
REMARK UNBOUND:                -2.882
REMARK SMILES CCCCCCCCC=CCCCCCCCC(=O)[O-]
REMARK SMILES IDX 10 1 9 2 11 3 12 4 13 5 14 6 15 7 16 8 17 9 18 10 19 11
REMARK SMILES IDX 20 12 8 13 7 14 6 15 5 16 4 17 3 18 2 19 1 20
REMARK H PARENT
REMARK Flexibility Score: inf
ROOT
ATOM      1  C   UNL     1      56.001 -42.842 -29.934  1.00  0.00    -0.031 C 
ATOM      2  C   UNL     1      56.003 -43.788 -28.976  1.00  0.00    -0.031 C 
ENDROOT
BRANCH   1   3
ATOM      3  C   UNL     1      56.684 -41.499 -29.840  1.00  0.00     0.027 C 
BRANCH   3   4
ATOM      4  C   UNL     1      55.690 -40.370 -29.516  1.00  0.00     0.004 C 
BRANCH   4   5
ATOM      5  C   UNL     1      55.513 -40.074 -28.016  1.00  0.00     0.000 C 
BRANCH   5   6
ATOM      6  C   UNL     1      56.853 -39.936 -27.271  1.00  0.00     0.000 C 
BRANCH   6   7
ATOM      7  C   UNL     1      56.669 -39.775 -25.753  1.00  0.00     0.000 C 
BRANCH   7   8
ATOM      8  C   UNL     1      55.221 -40.030 -25.301  1.00  0.00     0.006 C 
BRANCH   8   9
ATOM      9  C   UNL     1      55.154 -40.693 -23.919  1.00  0.00     0.053 C 
BRANCH   9  10
ATOM     10  C   UNL     1      54.722 -39.729 -22.858  1.00  0.00     0.041 C 
ATOM     11  O   UNL     1      53.517 -39.681 -22.496  1.00  0.00    -0.550 OA
ATOM     12  O   UNL     1      55.657 -38.902 -22.248  1.00  0.00    -0.550 OA
ENDBRANCH   9  10
ENDBRANCH   8   9
ENDBRANCH   7   8
ENDBRANCH   6   7
ENDBRANCH   5   6
ENDBRANCH   4   5
ENDBRANCH   3   4
ENDBRANCH   1   3
BRANCH   2  13
ATOM     13  C   UNL     1      56.648 -43.658 -27.616  1.00  0.00     0.027 C 
BRANCH  13  14
ATOM     14  C   UNL     1      55.635 -43.533 -26.463  1.00  0.00     0.004 C 
BRANCH  14  15
ATOM     15  C   UNL     1      54.190 -43.921 -26.835  1.00  0.00     0.000 C 
BRANCH  15  16
ATOM     16  C   UNL     1      53.117 -42.885 -26.447  1.00  0.00     0.000 C 
BRANCH  16  17
ATOM     17  C   UNL     1      52.496 -42.118 -27.628  1.00  0.00    -0.000 C 
BRANCH  17  18
ATOM     18  C   UNL     1      52.320 -42.989 -28.880  1.00  0.00    -0.000 C 
BRANCH  18  19
ATOM     19  C   UNL     1      52.420 -42.144 -30.155  1.00  0.00    -0.003 C 
ATOM     20  C   UNL     1      51.853 -40.744 -29.934  1.00  0.00     0.004 C 
ENDBRANCH  18  19
ENDBRANCH  17  18
ENDBRANCH  16  17
ENDBRANCH  15  16
ENDBRANCH  14  15
ENDBRANCH  13  14
ENDBRANCH   2  13
TORSDOF 15
ENDMDL
