MODEL 1
REMARK VINA RESULT:    -4.059      0.000      0.000
REMARK INTER + INTRA:         -10.002
REMARK INTER:                  -7.856
REMARK INTRA:                  -2.147
REMARK UNBOUND:                -2.147
REMARK SMILES CCCCCCCCCCCCCCCCCC(=O)[O-]
REMARK SMILES IDX 10 1 11 2 12 3 13 4 14 5 15 6 16 7 17 8 18 9 19 10 20 11
REMARK SMILES IDX 9 12 8 13 7 14 6 15 5 16 4 17 3 18 2 19 1 20
REMARK H PARENT
REMARK Flexibility Score: inf
ROOT
ATOM      1  C   UNL     1      32.498 -10.460  17.394  1.00  0.00     0.000 C 
ENDROOT
BRANCH   1   2
ATOM      2  C   UNL     1      33.562 -10.018  18.413  1.00  0.00     0.000 C 
BRANCH   2   3
ATOM      3  C   UNL     1      33.169 -10.352  19.860  1.00  0.00     0.000 C 
BRANCH   3   4
ATOM      4  C   UNL     1      31.700 -10.789  19.942  1.00  0.00     0.000 C 
BRANCH   4   5
ATOM      5  C   UNL     1      31.484 -11.989  20.882  1.00  0.00     0.000 C 
BRANCH   5   6
ATOM      6  C   UNL     1      30.824 -13.220  20.228  1.00  0.00     0.000 C 
BRANCH   6   7
ATOM      7  C   UNL     1      29.284 -13.253  20.300  1.00  0.00     0.006 C 
BRANCH   7   8
ATOM      8  C   UNL     1      28.713 -14.397  21.150  1.00  0.00     0.053 C 
BRANCH   8   9
ATOM      9  C   UNL     1      28.417 -13.963  22.552  1.00  0.00     0.041 C 
ATOM     10  O   UNL     1      29.338 -13.919  23.409  1.00  0.00    -0.550 OA
ATOM     11  O   UNL     1      27.131 -13.570  22.903  1.00  0.00    -0.550 OA
ENDBRANCH   8   9
ENDBRANCH   7   8
ENDBRANCH   6   7
ENDBRANCH   5   6
ENDBRANCH   4   5
ENDBRANCH   3   4
ENDBRANCH   2   3
ENDBRANCH   1   2
BRANCH   1  12
ATOM     12  C   UNL     1      32.467  -9.559  16.146  1.00  0.00     0.000 C 
BRANCH  12  13
ATOM     13  C   UNL     1      32.838  -8.101  16.459  1.00  0.00    -0.000 C 
BRANCH  13  14
ATOM     14  C   UNL     1      31.658  -7.305  17.044  1.00  0.00    -0.000 C 
BRANCH  14  15
ATOM     15  C   UNL     1      32.119  -6.154  17.954  1.00  0.00    -0.000 C 
BRANCH  15  16
ATOM     16  C   UNL     1      32.390  -6.612  19.398  1.00  0.00    -0.000 C 
BRANCH  16  17
ATOM     17  C   UNL     1      31.149  -7.228  20.072  1.00  0.00    -0.000 C 
BRANCH  17  18
ATOM     18  C   UNL     1      31.237  -7.344  21.603  1.00  0.00    -0.000 C 
BRANCH  18  19
ATOM     19  C   UNL     1      30.091  -8.169  22.208  1.00  0.00    -0.003 C 
ATOM     20  C   UNL     1      30.616  -9.171  23.232  1.00  0.00     0.004 C 
ENDBRANCH  18  19
ENDBRANCH  17  18
ENDBRANCH  16  17
ENDBRANCH  15  16
ENDBRANCH  14  15
ENDBRANCH  13  14
ENDBRANCH  12  13
ENDBRANCH   1  12
TORSDOF 16
ENDMDL
MODEL 2
REMARK VINA RESULT:    -4.013      2.391      6.448
REMARK INTER + INTRA:          -9.913
REMARK INTER:                  -8.490
REMARK INTRA:                  -1.423
REMARK UNBOUND:                -2.147
REMARK SMILES CCCCCCCCCCCCCCCCCC(=O)[O-]
REMARK SMILES IDX 10 1 11 2 12 3 13 4 14 5 15 6 16 7 17 8 18 9 19 10 20 11
REMARK SMILES IDX 9 12 8 13 7 14 6 15 5 16 4 17 3 18 2 19 1 20
REMARK H PARENT
REMARK Flexibility Score: inf
ROOT
ATOM      1  C   UNL     1      32.469 -11.014  18.245  1.00  0.00     0.000 C 
ENDROOT
BRANCH   1   2
ATOM      2  C   UNL     1      33.101  -9.742  17.657  1.00  0.00     0.000 C 
BRANCH   2   3
ATOM      3  C   UNL     1      32.467  -9.331  16.320  1.00  0.00     0.000 C 
BRANCH   3   4
ATOM      4  C   UNL     1      32.152  -7.829  16.301  1.00  0.00     0.000 C 
BRANCH   4   5
ATOM      5  C   UNL     1      31.388  -7.362  17.554  1.00  0.00     0.000 C 
BRANCH   5   6
ATOM      6  C   UNL     1      32.143  -6.350  18.439  1.00  0.00     0.000 C 
BRANCH   6   7
ATOM      7  C   UNL     1      32.232  -6.727  19.932  1.00  0.00     0.006 C 
BRANCH   7   8
ATOM      8  C   UNL     1      31.057  -7.573  20.444  1.00  0.00     0.053 C 
BRANCH   8   9
ATOM      9  C   UNL     1      30.804  -7.358  21.905  1.00  0.00     0.041 C 
ATOM     10  O   UNL     1      29.821  -7.910  22.465  1.00  0.00    -0.550 OA
ATOM     11  O   UNL     1      31.675  -6.578  22.655  1.00  0.00    -0.550 OA
ENDBRANCH   8   9
ENDBRANCH   7   8
ENDBRANCH   6   7
ENDBRANCH   5   6
ENDBRANCH   4   5
ENDBRANCH   3   4
ENDBRANCH   2   3
ENDBRANCH   1   2
BRANCH   1  12
ATOM     12  C   UNL     1      32.470 -11.016  19.785  1.00  0.00     0.000 C 
BRANCH  12  13
ATOM     13  C   UNL     1      31.162 -11.567  20.376  1.00  0.00    -0.000 C 
BRANCH  13  14
ATOM     14  C   UNL     1      31.102 -13.104  20.345  1.00  0.00    -0.000 C 
BRANCH  14  15
ATOM     15  C   UNL     1      29.687 -13.632  20.056  1.00  0.00    -0.000 C 
BRANCH  15  16
ATOM     16  C   UNL     1      29.211 -14.655  21.101  1.00  0.00    -0.000 C 
BRANCH  16  17
ATOM     17  C   UNL     1      27.755 -14.418  21.548  1.00  0.00    -0.000 C 
BRANCH  17  18
ATOM     18  C   UNL     1      27.601 -13.803  22.950  1.00  0.00    -0.000 C 
BRANCH  18  19
ATOM     19  C   UNL     1      28.654 -14.311  23.946  1.00  0.00    -0.003 C 
ATOM     20  C   UNL     1      28.167 -15.563  24.669  1.00  0.00     0.004 C 
ENDBRANCH  18  19
ENDBRANCH  17  18
ENDBRANCH  16  17
ENDBRANCH  15  16
ENDBRANCH  14  15
ENDBRANCH  13  14
ENDBRANCH  12  13
ENDBRANCH   1  12
TORSDOF 16
ENDMDL
MODEL 3
REMARK VINA RESULT:    -4.011      6.528     10.718
REMARK INTER + INTRA:          -9.908
REMARK INTER:                  -8.215
REMARK INTRA:                  -1.693
REMARK UNBOUND:                -2.147
REMARK SMILES CCCCCCCCCCCCCCCCCC(=O)[O-]
REMARK SMILES IDX 10 1 11 2 12 3 13 4 14 5 15 6 16 7 17 8 18 9 19 10 20 11
REMARK SMILES IDX 9 12 8 13 7 14 6 15 5 16 4 17 3 18 2 19 1 20
REMARK H PARENT
REMARK Flexibility Score: inf
ROOT
ATOM      1  C   UNL     1      28.716 -19.149  26.706  1.00  0.00     0.000 C 
ENDROOT
BRANCH   1   2
ATOM      2  C   UNL     1      28.431 -20.032  25.480  1.00  0.00     0.000 C 
BRANCH   2   3
ATOM      3  C   UNL     1      27.155 -20.872  25.640  1.00  0.00     0.000 C 
BRANCH   3   4
ATOM      4  C   UNL     1      27.490 -22.289  26.126  1.00  0.00     0.000 C 
BRANCH   4   5
ATOM      5  C   UNL     1      28.841 -22.801  25.594  1.00  0.00     0.000 C 
BRANCH   5   6
ATOM      6  C   UNL     1      28.745 -23.906  24.524  1.00  0.00     0.000 C 
BRANCH   6   7
ATOM      7  C   UNL     1      29.383 -23.558  23.164  1.00  0.00     0.006 C 
BRANCH   7   8
ATOM      8  C   UNL     1      30.258 -22.295  23.179  1.00  0.00     0.053 C 
BRANCH   8   9
ATOM      9  C   UNL     1      29.794 -21.279  22.182  1.00  0.00     0.041 C 
ATOM     10  O   UNL     1      30.623 -20.711  21.424  1.00  0.00    -0.550 OA
ATOM     11  O   UNL     1      28.441 -20.985  22.065  1.00  0.00    -0.550 OA
ENDBRANCH   8   9
ENDBRANCH   7   8
ENDBRANCH   6   7
ENDBRANCH   5   6
ENDBRANCH   4   5
ENDBRANCH   3   4
ENDBRANCH   2   3
ENDBRANCH   1   2
BRANCH   1  12
ATOM     12  C   UNL     1      29.479 -17.862  26.343  1.00  0.00     0.000 C 
BRANCH  12  13
ATOM     13  C   UNL     1      29.185 -17.384  24.912  1.00  0.00    -0.000 C 
BRANCH  13  14
ATOM     14  C   UNL     1      28.493 -16.010  24.881  1.00  0.00    -0.000 C 
BRANCH  14  15
ATOM     15  C   UNL     1      29.466 -14.869  24.542  1.00  0.00    -0.000 C 
BRANCH  15  16
ATOM     16  C   UNL     1      28.767 -13.670  23.878  1.00  0.00    -0.000 C 
BRANCH  16  17
ATOM     17  C   UNL     1      27.696 -14.095  22.855  1.00  0.00    -0.000 C 
BRANCH  17  18
ATOM     18  C   UNL     1      28.093 -13.891  21.382  1.00  0.00    -0.000 C 
BRANCH  18  19
ATOM     19  C   UNL     1      28.770 -15.125  20.768  1.00  0.00    -0.003 C 
ATOM     20  C   UNL     1      28.014 -16.402  21.125  1.00  0.00     0.004 C 
ENDBRANCH  18  19
ENDBRANCH  17  18
ENDBRANCH  16  17
ENDBRANCH  15  16
ENDBRANCH  14  15
ENDBRANCH  13  14
ENDBRANCH  12  13
ENDBRANCH   1  12
TORSDOF 16
ENDMDL
MODEL 4
REMARK VINA RESULT:    -3.970     10.432     13.298
REMARK INTER + INTRA:          -9.830
REMARK INTER:                  -7.654
REMARK INTRA:                  -2.176
REMARK UNBOUND:                -2.147
REMARK SMILES CCCCCCCCCCCCCCCCCC(=O)[O-]
REMARK SMILES IDX 10 1 11 2 12 3 13 4 14 5 15 6 16 7 17 8 18 9 19 10 20 11
REMARK SMILES IDX 9 12 8 13 7 14 6 15 5 16 4 17 3 18 2 19 1 20
REMARK H PARENT
REMARK Flexibility Score: inf
ROOT
ATOM      1  C   UNL     1      27.539 -22.157  26.317  1.00  0.00     0.000 C 
ENDROOT
BRANCH   1   2
ATOM      2  C   UNL     1      28.260 -23.148  25.389  1.00  0.00     0.000 C 
BRANCH   2   3
ATOM      3  C   UNL     1      29.380 -22.485  24.572  1.00  0.00     0.000 C 
BRANCH   3   4
ATOM      4  C   UNL     1      29.230 -22.803  23.078  1.00  0.00     0.000 C 
BRANCH   4   5
ATOM      5  C   UNL     1      28.719 -21.604  22.259  1.00  0.00     0.000 C 
BRANCH   5   6
ATOM      6  C   UNL     1      29.144 -20.221  22.792  1.00  0.00     0.000 C 
BRANCH   6   7
ATOM      7  C   UNL     1      30.318 -19.562  22.040  1.00  0.00     0.006 C 
BRANCH   7   8
ATOM      8  C   UNL     1      31.202 -20.545  21.257  1.00  0.00     0.053 C 
BRANCH   8   9
ATOM      9  C   UNL     1      32.510 -20.792  21.942  1.00  0.00     0.041 C 
ATOM     10  O   UNL     1      33.578 -20.342  21.448  1.00  0.00    -0.550 OA
ATOM     11  O   UNL     1      32.548 -21.489  23.143  1.00  0.00    -0.550 OA
ENDBRANCH   8   9
ENDBRANCH   7   8
ENDBRANCH   6   7
ENDBRANCH   5   6
ENDBRANCH   4   5
ENDBRANCH   3   4
ENDBRANCH   2   3
ENDBRANCH   1   2
BRANCH   1  12
ATOM     12  C   UNL     1      27.089 -20.881  25.584  1.00  0.00     0.000 C 
BRANCH  12  13
ATOM     13  C   UNL     1      27.184 -19.626  26.467  1.00  0.00    -0.000 C 
BRANCH  13  14
ATOM     14  C   UNL     1      28.412 -18.761  26.132  1.00  0.00    -0.000 C 
BRANCH  14  15
ATOM     15  C   UNL     1      29.718 -19.354  26.685  1.00  0.00    -0.000 C 
BRANCH  15  16
ATOM     16  C   UNL     1      29.968 -18.972  28.154  1.00  0.00    -0.000 C 
BRANCH  16  17
ATOM     17  C   UNL     1      29.638 -20.116  29.132  1.00  0.00    -0.000 C 
BRANCH  17  18
ATOM     18  C   UNL     1      30.261 -21.475  28.771  1.00  0.00    -0.000 C 
BRANCH  18  19
ATOM     19  C   UNL     1      31.164 -22.034  29.881  1.00  0.00    -0.003 C 
ATOM     20  C   UNL     1      30.779 -23.467  30.235  1.00  0.00     0.004 C 
ENDBRANCH  18  19
ENDBRANCH  17  18
ENDBRANCH  16  17
ENDBRANCH  15  16
ENDBRANCH  14  15
ENDBRANCH  13  14
ENDBRANCH  12  13
ENDBRANCH   1  12
TORSDOF 16
ENDMDL
MODEL 5
REMARK VINA RESULT:    -3.960      6.968     11.808
REMARK INTER + INTRA:          -9.810
REMARK INTER:                  -7.249
REMARK INTRA:                  -2.561
REMARK UNBOUND:                -2.147
REMARK SMILES CCCCCCCCCCCCCCCCCC(=O)[O-]
REMARK SMILES IDX 10 1 11 2 12 3 13 4 14 5 15 6 16 7 17 8 18 9 19 10 20 11
REMARK SMILES IDX 9 12 8 13 7 14 6 15 5 16 4 17 3 18 2 19 1 20
REMARK H PARENT
REMARK Flexibility Score: inf
ROOT
ATOM      1  C   UNL     1      29.564 -22.960  23.171  1.00  0.00     0.000 C 
ENDROOT
BRANCH   1   2
ATOM      2  C   UNL     1      29.896 -21.464  23.302  1.00  0.00     0.000 C 
BRANCH   2   3
ATOM      3  C   UNL     1      28.848 -20.565  22.630  1.00  0.00     0.000 C 
BRANCH   3   4
ATOM      4  C   UNL     1      29.515 -19.369  21.937  1.00  0.00     0.000 C 
BRANCH   4   5
ATOM      5  C   UNL     1      30.784 -18.888  22.665  1.00  0.00     0.000 C 
BRANCH   5   6
ATOM      6  C   UNL     1      30.607 -17.611  23.511  1.00  0.00     0.000 C 
BRANCH   6   7
ATOM      7  C   UNL     1      30.096 -16.379  22.738  1.00  0.00     0.006 C 
BRANCH   7   8
ATOM      8  C   UNL     1      28.705 -15.890  23.171  1.00  0.00     0.053 C 
BRANCH   8   9
ATOM      9  C   UNL     1      28.169 -14.835  22.254  1.00  0.00     0.041 C 
ATOM     10  O   UNL     1      27.357 -13.975  22.684  1.00  0.00    -0.550 OA
ATOM     11  O   UNL     1      28.595 -14.779  20.932  1.00  0.00    -0.550 OA
ENDBRANCH   8   9
ENDBRANCH   7   8
ENDBRANCH   6   7
ENDBRANCH   5   6
ENDBRANCH   4   5
ENDBRANCH   3   4
ENDBRANCH   2   3
ENDBRANCH   1   2
BRANCH   1  12
ATOM     12  C   UNL     1      28.620 -23.454  24.282  1.00  0.00     0.000 C 
BRANCH  12  13
ATOM     13  C   UNL     1      28.854 -22.736  25.621  1.00  0.00    -0.000 C 
BRANCH  13  14
ATOM     14  C   UNL     1      27.546 -22.236  26.258  1.00  0.00    -0.000 C 
BRANCH  14  15
ATOM     15  C   UNL     1      26.991 -20.985  25.558  1.00  0.00    -0.000 C 
BRANCH  15  16
ATOM     16  C   UNL     1      27.174 -19.707  26.393  1.00  0.00    -0.000 C 
BRANCH  16  17
ATOM     17  C   UNL     1      28.344 -18.834  25.899  1.00  0.00    -0.000 C 
BRANCH  17  18
ATOM     18  C   UNL     1      29.463 -18.610  26.932  1.00  0.00    -0.000 C 
BRANCH  18  19
ATOM     19  C   UNL     1      30.232 -19.895  27.271  1.00  0.00    -0.003 C 
ATOM     20  C   UNL     1      31.442 -20.069  26.357  1.00  0.00     0.004 C 
ENDBRANCH  18  19
ENDBRANCH  17  18
ENDBRANCH  16  17
ENDBRANCH  15  16
ENDBRANCH  14  15
ENDBRANCH  13  14
ENDBRANCH  12  13
ENDBRANCH   1  12
TORSDOF 16
ENDMDL
MODEL 6
REMARK VINA RESULT:    -3.948      1.371      1.719
REMARK INTER + INTRA:          -9.787
REMARK INTER:                  -8.124
REMARK INTRA:                  -1.663
REMARK UNBOUND:                -2.147
REMARK SMILES CCCCCCCCCCCCCCCCCC(=O)[O-]
REMARK SMILES IDX 10 1 11 2 12 3 13 4 14 5 15 6 16 7 17 8 18 9 19 10 20 11
REMARK SMILES IDX 9 12 8 13 7 14 6 15 5 16 4 17 3 18 2 19 1 20
REMARK H PARENT
REMARK Flexibility Score: inf
ROOT
ATOM      1  C   UNL     1      33.697 -10.253  18.069  1.00  0.00     0.000 C 
ENDROOT
BRANCH   1   2
ATOM      2  C   UNL     1      33.293 -10.864  19.421  1.00  0.00     0.000 C 
BRANCH   2   3
ATOM      3  C   UNL     1      31.771 -10.908  19.618  1.00  0.00     0.000 C 
BRANCH   3   4
ATOM      4  C   UNL     1      31.383 -11.965  20.661  1.00  0.00     0.000 C 
BRANCH   4   5
ATOM      5  C   UNL     1      31.037 -13.328  20.032  1.00  0.00     0.000 C 
BRANCH   5   6
ATOM      6  C   UNL     1      29.543 -13.703  20.071  1.00  0.00     0.000 C 
BRANCH   6   7
ATOM      7  C   UNL     1      28.848 -13.485  21.430  1.00  0.00     0.006 C 
BRANCH   7   8
ATOM      8  C   UNL     1      27.915 -14.629  21.857  1.00  0.00     0.053 C 
BRANCH   8   9
ATOM      9  C   UNL     1      28.423 -15.964  21.409  1.00  0.00     0.041 C 
ATOM     10  O   UNL     1      29.382 -16.513  22.013  1.00  0.00    -0.550 OA
ATOM     11  O   UNL     1      27.815 -16.621  20.346  1.00  0.00    -0.550 OA
ENDBRANCH   8   9
ENDBRANCH   7   8
ENDBRANCH   6   7
ENDBRANCH   5   6
ENDBRANCH   4   5
ENDBRANCH   3   4
ENDBRANCH   2   3
ENDBRANCH   1   2
BRANCH   1  12
ATOM     12  C   UNL     1      32.482  -9.902  17.193  1.00  0.00     0.000 C 
BRANCH  12  13
ATOM     13  C   UNL     1      32.775  -8.763  16.203  1.00  0.00    -0.000 C 
BRANCH  13  14
ATOM     14  C   UNL     1      31.871  -7.538  16.428  1.00  0.00    -0.000 C 
BRANCH  14  15
ATOM     15  C   UNL     1      31.390  -7.422  17.884  1.00  0.00    -0.000 C 
BRANCH  15  16
ATOM     16  C   UNL     1      32.230  -6.433  18.709  1.00  0.00    -0.000 C 
BRANCH  16  17
ATOM     17  C   UNL     1      32.366  -6.852  20.185  1.00  0.00    -0.000 C 
BRANCH  17  18
ATOM     18  C   UNL     1      31.098  -7.468  20.802  1.00  0.00    -0.000 C 
BRANCH  18  19
ATOM     19  C   UNL     1      31.237  -7.748  22.305  1.00  0.00    -0.003 C 
ATOM     20  C   UNL     1      30.126  -7.064  23.097  1.00  0.00     0.004 C 
ENDBRANCH  18  19
ENDBRANCH  17  18
ENDBRANCH  16  17
ENDBRANCH  15  16
ENDBRANCH  14  15
ENDBRANCH  13  14
ENDBRANCH  12  13
ENDBRANCH   1  12
TORSDOF 16
ENDMDL
MODEL 7
REMARK VINA RESULT:    -3.910      6.492     11.818
REMARK INTER + INTRA:          -9.713
REMARK INTER:                  -7.642
REMARK INTRA:                  -2.072
REMARK UNBOUND:                -2.147
REMARK SMILES CCCCCCCCCCCCCCCCCC(=O)[O-]
REMARK SMILES IDX 10 1 11 2 12 3 13 4 14 5 15 6 16 7 17 8 18 9 19 10 20 11
REMARK SMILES IDX 9 12 8 13 7 14 6 15 5 16 4 17 3 18 2 19 1 20
REMARK H PARENT
REMARK Flexibility Score: inf
ROOT
ATOM      1  C   UNL     1      27.470 -19.485  26.408  1.00  0.00     0.000 C 
ENDROOT
BRANCH   1   2
ATOM      2  C   UNL     1      28.518 -18.722  25.581  1.00  0.00     0.000 C 
BRANCH   2   3
ATOM      3  C   UNL     1      29.745 -18.316  26.412  1.00  0.00     0.000 C 
BRANCH   3   4
ATOM      4  C   UNL     1      30.450 -17.104  25.790  1.00  0.00     0.000 C 
BRANCH   4   5
ATOM      5  C   UNL     1      29.742 -16.580  24.527  1.00  0.00     0.000 C 
BRANCH   5   6
ATOM      6  C   UNL     1      29.346 -15.091  24.570  1.00  0.00     0.000 C 
BRANCH   6   7
ATOM      7  C   UNL     1      28.025 -14.744  23.856  1.00  0.00     0.006 C 
BRANCH   7   8
ATOM      8  C   UNL     1      28.199 -13.964  22.543  1.00  0.00     0.053 C 
BRANCH   8   9
ATOM      9  C   UNL     1      28.431 -14.874  21.376  1.00  0.00     0.041 C 
ATOM     10  O   UNL     1      29.181 -14.514  20.432  1.00  0.00    -0.550 OA
ATOM     11  O   UNL     1      27.846 -16.134  21.348  1.00  0.00    -0.550 OA
ENDBRANCH   8   9
ENDBRANCH   7   8
ENDBRANCH   6   7
ENDBRANCH   5   6
ENDBRANCH   4   5
ENDBRANCH   3   4
ENDBRANCH   2   3
ENDBRANCH   1   2
BRANCH   1  12
ATOM     12  C   UNL     1      27.030 -20.798  25.735  1.00  0.00     0.000 C 
BRANCH  12  13
ATOM     13  C   UNL     1      27.791 -22.022  26.271  1.00  0.00    -0.000 C 
BRANCH  13  14
ATOM     14  C   UNL     1      29.041 -22.350  25.437  1.00  0.00    -0.000 C 
BRANCH  14  15
ATOM     15  C   UNL     1      28.788 -23.470  24.414  1.00  0.00    -0.000 C 
BRANCH  15  16
ATOM     16  C   UNL     1      29.003 -23.007  22.963  1.00  0.00    -0.000 C 
BRANCH  16  17
ATOM     17  C   UNL     1      28.813 -21.488  22.786  1.00  0.00    -0.000 C 
BRANCH  17  18
ATOM     18  C   UNL     1      29.798 -20.823  21.810  1.00  0.00    -0.000 C 
BRANCH  18  19
ATOM     19  C   UNL     1      30.428 -19.541  22.375  1.00  0.00    -0.003 C 
ATOM     20  C   UNL     1      31.459 -19.863  23.453  1.00  0.00     0.004 C 
ENDBRANCH  18  19
ENDBRANCH  17  18
ENDBRANCH  16  17
ENDBRANCH  15  16
ENDBRANCH  14  15
ENDBRANCH  13  14
ENDBRANCH  12  13
ENDBRANCH   1  12
TORSDOF 16
ENDMDL
MODEL 8
REMARK VINA RESULT:    -3.892      1.737      3.255
REMARK INTER + INTRA:          -9.678
REMARK INTER:                  -7.196
REMARK INTRA:                  -2.483
REMARK UNBOUND:                -2.147
REMARK SMILES CCCCCCCCCCCCCCCCCC(=O)[O-]
REMARK SMILES IDX 10 1 11 2 12 3 13 4 14 5 15 6 16 7 17 8 18 9 19 10 20 11
REMARK SMILES IDX 9 12 8 13 7 14 6 15 5 16 4 17 3 18 2 19 1 20
REMARK H PARENT
REMARK Flexibility Score: inf
ROOT
ATOM      1  C   UNL     1      32.102  -9.239  17.226  1.00  0.00     0.000 C 
ENDROOT
BRANCH   1   2
ATOM      2  C   UNL     1      32.728 -10.266  16.267  1.00  0.00     0.000 C 
BRANCH   2   3
ATOM      3  C   UNL     1      32.915 -11.645  16.918  1.00  0.00     0.000 C 
BRANCH   3   4
ATOM      4  C   UNL     1      33.050 -11.518  18.441  1.00  0.00     0.000 C 
BRANCH   4   5
ATOM      5  C   UNL     1      31.936 -12.259  19.205  1.00  0.00     0.000 C 
BRANCH   5   6
ATOM      6  C   UNL     1      31.444 -11.555  20.485  1.00  0.00     0.000 C 
BRANCH   6   7
ATOM      7  C   UNL     1      30.189 -12.176  21.131  1.00  0.00     0.006 C 
BRANCH   7   8
ATOM      8  C   UNL     1      29.508 -13.259  20.281  1.00  0.00     0.053 C 
BRANCH   8   9
ATOM      9  C   UNL     1      28.695 -14.200  21.116  1.00  0.00     0.041 C 
ATOM     10  O   UNL     1      28.687 -15.432  20.854  1.00  0.00    -0.550 OA
ATOM     11  O   UNL     1      27.976 -13.723  22.204  1.00  0.00    -0.550 OA
ENDBRANCH   8   9
ENDBRANCH   7   8
ENDBRANCH   6   7
ENDBRANCH   5   6
ENDBRANCH   4   5
ENDBRANCH   3   4
ENDBRANCH   2   3
ENDBRANCH   1   2
BRANCH   1  12
ATOM     12  C   UNL     1      32.118  -7.811  16.653  1.00  0.00     0.000 C 
BRANCH  12  13
ATOM     13  C   UNL     1      31.845  -6.741  17.723  1.00  0.00    -0.000 C 
BRANCH  13  14
ATOM     14  C   UNL     1      31.279  -7.338  19.023  1.00  0.00    -0.000 C 
BRANCH  14  15
ATOM     15  C   UNL     1      32.105  -6.945  20.259  1.00  0.00    -0.000 C 
BRANCH  15  16
ATOM     16  C   UNL     1      32.903  -8.126  20.839  1.00  0.00    -0.000 C 
BRANCH  16  17
ATOM     17  C   UNL     1      34.425  -7.959  20.668  1.00  0.00    -0.000 C 
BRANCH  17  18
ATOM     18  C   UNL     1      35.010  -8.623  19.409  1.00  0.00    -0.000 C 
BRANCH  18  19
ATOM     19  C   UNL     1      35.537  -7.607  18.385  1.00  0.00    -0.003 C 
ATOM     20  C   UNL     1      35.803  -8.272  17.037  1.00  0.00     0.004 C 
ENDBRANCH  18  19
ENDBRANCH  17  18
ENDBRANCH  16  17
ENDBRANCH  15  16
ENDBRANCH  14  15
ENDBRANCH  13  14
ENDBRANCH  12  13
ENDBRANCH   1  12
TORSDOF 16
ENDMDL
MODEL 9
REMARK VINA RESULT:    -3.889      1.275      2.345
REMARK INTER + INTRA:          -9.673
REMARK INTER:                  -7.697
REMARK INTRA:                  -1.976
REMARK UNBOUND:                -2.147
REMARK SMILES CCCCCCCCCCCCCCCCCC(=O)[O-]
REMARK SMILES IDX 10 1 11 2 12 3 13 4 14 5 15 6 16 7 17 8 18 9 19 10 20 11
REMARK SMILES IDX 9 12 8 13 7 14 6 15 5 16 4 17 3 18 2 19 1 20
REMARK H PARENT
REMARK Flexibility Score: inf
ROOT
ATOM      1  C   UNL     1      33.284 -10.247  19.463  1.00  0.00     0.000 C 
ENDROOT
BRANCH   1   2
ATOM      2  C   UNL     1      31.845 -10.778  19.579  1.00  0.00     0.000 C 
BRANCH   2   3
ATOM      3  C   UNL     1      31.347 -10.825  21.031  1.00  0.00     0.000 C 
BRANCH   3   4
ATOM      4  C   UNL     1      30.930 -12.250  21.421  1.00  0.00     0.000 C 
BRANCH   4   5
ATOM      5  C   UNL     1      29.569 -12.658  20.830  1.00  0.00     0.000 C 
BRANCH   5   6
ATOM      6  C   UNL     1      29.459 -14.135  20.402  1.00  0.00     0.000 C 
BRANCH   6   7
ATOM      7  C   UNL     1      29.231 -15.135  21.554  1.00  0.00     0.006 C 
BRANCH   7   8
ATOM      8  C   UNL     1      28.018 -14.816  22.440  1.00  0.00     0.053 C 
BRANCH   8   9
ATOM      9  C   UNL     1      28.407 -14.604  23.870  1.00  0.00     0.041 C 
ATOM     10  O   UNL     1      29.138 -13.630  24.190  1.00  0.00    -0.550 OA
ATOM     11  O   UNL     1      27.933 -15.460  24.856  1.00  0.00    -0.550 OA
ENDBRANCH   8   9
ENDBRANCH   7   8
ENDBRANCH   6   7
ENDBRANCH   5   6
ENDBRANCH   4   5
ENDBRANCH   3   4
ENDBRANCH   2   3
ENDBRANCH   1   2
BRANCH   1  12
ATOM     12  C   UNL     1      33.722 -10.040  18.002  1.00  0.00     0.000 C 
BRANCH  12  13
ATOM     13  C   UNL     1      32.557 -10.184  17.010  1.00  0.00    -0.000 C 
BRANCH  13  14
ATOM     14  C   UNL     1      32.592  -9.118  15.901  1.00  0.00    -0.000 C 
BRANCH  14  15
ATOM     15  C   UNL     1      31.759  -7.875  16.254  1.00  0.00    -0.000 C 
BRANCH  15  16
ATOM     16  C   UNL     1      32.625  -6.695  16.728  1.00  0.00    -0.000 C 
BRANCH  16  17
ATOM     17  C   UNL     1      32.423  -6.367  18.220  1.00  0.00    -0.000 C 
BRANCH  17  18
ATOM     18  C   UNL     1      31.309  -7.172  18.913  1.00  0.00    -0.000 C 
BRANCH  18  19
ATOM     19  C   UNL     1      31.425  -7.159  20.444  1.00  0.00    -0.003 C 
ATOM     20  C   UNL     1      32.621  -6.327  20.898  1.00  0.00     0.004 C 
ENDBRANCH  18  19
ENDBRANCH  17  18
ENDBRANCH  16  17
ENDBRANCH  15  16
ENDBRANCH  14  15
ENDBRANCH  13  14
ENDBRANCH  12  13
ENDBRANCH   1  12
TORSDOF 16
ENDMDL
