MODEL 1
REMARK VINA RESULT:    -0.327      0.000      0.000
REMARK INTER + INTRA:          -2.020
REMARK INTER:                  -0.824
REMARK INTRA:                  -1.196
REMARK UNBOUND:                -1.196
REMARK SMILES CCCCCCCCCCCCCCCCCCCCCCCCCCCC(=O)[O-]
REMARK SMILES IDX 15 1 16 2 17 3 18 4 19 5 20 6 21 7 22 8 23 9 24 10 25 11
REMARK SMILES IDX 26 12 27 13 28 14 29 15 30 16 14 17 13 18 12 19 11 20 10 21
REMARK SMILES IDX 9 22 8 23 7 24 6 25 5 26 4 27 3 28 2 29 1 30
REMARK H PARENT
REMARK Flexibility Score: inf
ROOT
ATOM      1  C   UNL     1     -20.142  44.471  -8.655  1.00  0.00     0.000 C 
ENDROOT
BRANCH   1   2
ATOM      2  C   UNL     1     -18.897  43.992  -7.891  1.00  0.00     0.000 C 
BRANCH   2   3
ATOM      3  C   UNL     1     -18.700  44.724  -6.553  1.00  0.00     0.000 C 
BRANCH   3   4
ATOM      4  C   UNL     1     -18.051  43.849  -5.458  1.00  0.00     0.000 C 
BRANCH   4   5
ATOM      5  C   UNL     1     -18.804  43.944  -4.119  1.00  0.00     0.000 C 
BRANCH   5   6
ATOM      6  C   UNL     1     -18.738  42.631  -3.311  1.00  0.00     0.000 C 
BRANCH   6   7
ATOM      7  C   UNL     1     -20.079  42.226  -2.673  1.00  0.00     0.000 C 
BRANCH   7   8
ATOM      8  C   UNL     1     -19.906  41.329  -1.437  1.00  0.00     0.000 C 
BRANCH   8   9
ATOM      9  C   UNL     1     -21.055  41.485  -0.428  1.00  0.00     0.000 C 
BRANCH   9  10
ATOM     10  C   UNL     1     -21.150  40.301   0.549  1.00  0.00     0.000 C 
BRANCH  10  11
ATOM     11  C   UNL     1     -22.035  39.165   0.013  1.00  0.00     0.000 C 
BRANCH  11  12
ATOM     12  C   UNL     1     -21.972  37.901   0.887  1.00  0.00     0.006 C 
BRANCH  12  13
ATOM     13  C   UNL     1     -20.538  37.380   1.050  1.00  0.00     0.053 C 
BRANCH  13  14
ATOM     14  C   UNL     1     -20.514  35.910   1.343  1.00  0.00     0.041 C 
ATOM     15  O   UNL     1     -20.829  35.079   0.449  1.00  0.00    -0.550 OA
ATOM     16  O   UNL     1     -20.193  35.461   2.617  1.00  0.00    -0.550 OA
ENDBRANCH  13  14
ENDBRANCH  12  13
ENDBRANCH  11  12
ENDBRANCH  10  11
ENDBRANCH   9  10
ENDBRANCH   8   9
ENDBRANCH   7   8
ENDBRANCH   6   7
ENDBRANCH   5   6
ENDBRANCH   4   5
ENDBRANCH   3   4
ENDBRANCH   2   3
ENDBRANCH   1   2
BRANCH   1  17
ATOM     17  C   UNL     1     -20.183  43.958 -10.107  1.00  0.00     0.000 C 
BRANCH  17  18
ATOM     18  C   UNL     1     -18.805  43.797 -10.780  1.00  0.00     0.000 C 
BRANCH  18  19
ATOM     19  C   UNL     1     -17.872  45.020 -10.666  1.00  0.00     0.000 C 
BRANCH  19  20
ATOM     20  C   UNL     1     -16.386  44.739 -10.969  1.00  0.00     0.000 C 
BRANCH  20  21
ATOM     21  C   UNL     1     -15.511  44.478  -9.729  1.00  0.00     0.000 C 
BRANCH  21  22
ATOM     22  C   UNL     1     -14.157  45.201  -9.793  1.00  0.00    -0.000 C 
BRANCH  22  23
ATOM     23  C   UNL     1     -14.219  46.396 -10.757  1.00  0.00    -0.000 C 
BRANCH  23  24
ATOM     24  C   UNL     1     -14.024  47.748 -10.045  1.00  0.00    -0.000 C 
BRANCH  24  25
ATOM     25  C   UNL     1     -14.136  47.693  -8.507  1.00  0.00    -0.000 C 
BRANCH  25  26
ATOM     26  C   UNL     1     -14.957  48.838  -7.874  1.00  0.00    -0.000 C 
BRANCH  26  27
ATOM     27  C   UNL     1     -14.619  50.242  -8.410  1.00  0.00    -0.000 C 
BRANCH  27  28
ATOM     28  C   UNL     1     -14.559  51.300  -7.296  1.00  0.00    -0.000 C 
BRANCH  28  29
ATOM     29  C   UNL     1     -14.641  52.733  -7.847  1.00  0.00    -0.003 C 
ATOM     30  C   UNL     1     -13.904  52.888  -9.177  1.00  0.00     0.004 C 
ENDBRANCH  28  29
ENDBRANCH  27  28
ENDBRANCH  26  27
ENDBRANCH  25  26
ENDBRANCH  24  25
ENDBRANCH  23  24
ENDBRANCH  22  23
ENDBRANCH  21  22
ENDBRANCH  20  21
ENDBRANCH  19  20
ENDBRANCH  18  19
ENDBRANCH  17  18
ENDBRANCH   1  17
TORSDOF 26
ENDMDL
MODEL 2
REMARK VINA RESULT:    -0.264      5.049     13.251
REMARK INTER + INTRA:          -1.860
REMARK INTER:                   0.345
REMARK INTRA:                  -2.205
REMARK UNBOUND:                -1.196
REMARK SMILES CCCCCCCCCCCCCCCCCCCCCCCCCCCC(=O)[O-]
REMARK SMILES IDX 15 1 16 2 17 3 18 4 19 5 20 6 21 7 22 8 23 9 24 10 25 11
REMARK SMILES IDX 26 12 27 13 28 14 29 15 30 16 14 17 13 18 12 19 11 20 10 21
REMARK SMILES IDX 9 22 8 23 7 24 6 25 5 26 4 27 3 28 2 29 1 30
REMARK H PARENT
REMARK Flexibility Score: inf
ROOT
ATOM      1  C   UNL     1     -16.450  43.620  -4.380  1.00  0.00     0.000 C 
ENDROOT
BRANCH   1   2
ATOM      2  C   UNL     1     -16.306  42.932  -5.747  1.00  0.00     0.000 C 
BRANCH   2   3
ATOM      3  C   UNL     1     -16.736  43.834  -6.917  1.00  0.00     0.000 C 
BRANCH   3   4
ATOM      4  C   UNL     1     -18.265  43.884  -7.129  1.00  0.00     0.000 C 
BRANCH   4   5
ATOM      5  C   UNL     1     -18.661  44.852  -8.259  1.00  0.00     0.000 C 
BRANCH   5   6
ATOM      6  C   UNL     1     -19.708  44.245  -9.217  1.00  0.00     0.000 C 
BRANCH   6   7
ATOM      7  C   UNL     1     -19.112  43.715 -10.533  1.00  0.00     0.000 C 
BRANCH   7   8
ATOM      8  C   UNL     1     -18.052  42.624 -10.314  1.00  0.00     0.000 C 
BRANCH   8   9
ATOM      9  C   UNL     1     -16.768  42.877 -11.119  1.00  0.00     0.000 C 
BRANCH   9  10
ATOM     10  C   UNL     1     -16.279  44.332 -11.011  1.00  0.00     0.000 C 
BRANCH  10  11
ATOM     11  C   UNL     1     -14.867  44.435 -10.414  1.00  0.00     0.000 C 
BRANCH  11  12
ATOM     12  C   UNL     1     -14.762  45.516  -9.324  1.00  0.00     0.006 C 
BRANCH  12  13
ATOM     13  C   UNL     1     -15.730  46.681  -9.567  1.00  0.00     0.053 C 
BRANCH  13  14
ATOM     14  C   UNL     1     -14.998  47.953  -9.873  1.00  0.00     0.041 C 
ATOM     15  O   UNL     1     -14.005  48.297  -9.177  1.00  0.00    -0.550 OA
ATOM     16  O   UNL     1     -15.445  48.784 -10.892  1.00  0.00    -0.550 OA
ENDBRANCH  13  14
ENDBRANCH  12  13
ENDBRANCH  11  12
ENDBRANCH  10  11
ENDBRANCH   9  10
ENDBRANCH   8   9
ENDBRANCH   7   8
ENDBRANCH   6   7
ENDBRANCH   5   6
ENDBRANCH   4   5
ENDBRANCH   3   4
ENDBRANCH   2   3
ENDBRANCH   1   2
BRANCH   1  17
ATOM     17  C   UNL     1     -17.522  42.959  -3.493  1.00  0.00     0.000 C 
BRANCH  17  18
ATOM     18  C   UNL     1     -18.712  42.343  -4.256  1.00  0.00     0.000 C 
BRANCH  18  19
ATOM     19  C   UNL     1     -19.957  42.041  -3.397  1.00  0.00     0.000 C 
BRANCH  19  20
ATOM     20  C   UNL     1     -19.727  42.092  -1.873  1.00  0.00     0.000 C 
BRANCH  20  21
ATOM     21  C   UNL     1     -20.340  40.918  -1.086  1.00  0.00     0.000 C 
BRANCH  21  22
ATOM     22  C   UNL     1     -21.237  41.382   0.071  1.00  0.00    -0.000 C 
BRANCH  22  23
ATOM     23  C   UNL     1     -21.765  40.180   0.869  1.00  0.00    -0.000 C 
BRANCH  23  24
ATOM     24  C   UNL     1     -21.789  38.879   0.045  1.00  0.00    -0.000 C 
BRANCH  24  25
ATOM     25  C   UNL     1     -21.774  37.582   0.882  1.00  0.00    -0.000 C 
BRANCH  25  26
ATOM     26  C   UNL     1     -20.393  37.193   1.453  1.00  0.00    -0.000 C 
BRANCH  26  27
ATOM     27  C   UNL     1     -19.761  35.945   0.808  1.00  0.00    -0.000 C 
BRANCH  27  28
ATOM     28  C   UNL     1     -20.700  35.262  -0.201  1.00  0.00    -0.000 C 
BRANCH  28  29
ATOM     29  C   UNL     1     -19.978  34.197  -1.042  1.00  0.00    -0.003 C 
ATOM     30  C   UNL     1     -20.951  33.233  -1.721  1.00  0.00     0.004 C 
ENDBRANCH  28  29
ENDBRANCH  27  28
ENDBRANCH  26  27
ENDBRANCH  25  26
ENDBRANCH  24  25
ENDBRANCH  23  24
ENDBRANCH  22  23
ENDBRANCH  21  22
ENDBRANCH  20  21
ENDBRANCH  19  20
ENDBRANCH  18  19
ENDBRANCH  17  18
ENDBRANCH   1  17
TORSDOF 26
ENDMDL
MODEL 3
REMARK VINA RESULT:    -0.259      3.252      7.478
REMARK INTER + INTRA:          -1.848
REMARK INTER:                   0.559
REMARK INTRA:                  -2.407
REMARK UNBOUND:                -1.196
REMARK SMILES CCCCCCCCCCCCCCCCCCCCCCCCCCCC(=O)[O-]
REMARK SMILES IDX 15 1 16 2 17 3 18 4 19 5 20 6 21 7 22 8 23 9 24 10 25 11
REMARK SMILES IDX 26 12 27 13 28 14 29 15 30 16 14 17 13 18 12 19 11 20 10 21
REMARK SMILES IDX 9 22 8 23 7 24 6 25 5 26 4 27 3 28 2 29 1 30
REMARK H PARENT
REMARK Flexibility Score: inf
ROOT
ATOM      1  C   UNL     1     -16.852  42.355 -11.117  1.00  0.00     0.000 C 
ENDROOT
BRANCH   1   2
ATOM      2  C   UNL     1     -18.279  41.893 -10.777  1.00  0.00     0.000 C 
BRANCH   2   3
ATOM      3  C   UNL     1     -18.823  42.536  -9.490  1.00  0.00     0.000 C 
BRANCH   3   4
ATOM      4  C   UNL     1     -20.098  43.378  -9.710  1.00  0.00     0.000 C 
BRANCH   4   5
ATOM      5  C   UNL     1     -19.954  44.805  -9.150  1.00  0.00     0.000 C 
BRANCH   5   6
ATOM      6  C   UNL     1     -19.003  44.868  -7.936  1.00  0.00     0.000 C 
BRANCH   6   7
ATOM      7  C   UNL     1     -19.728  45.016  -6.586  1.00  0.00     0.000 C 
BRANCH   7   8
ATOM      8  C   UNL     1     -19.275  43.978  -5.547  1.00  0.00     0.000 C 
BRANCH   8   9
ATOM      9  C   UNL     1     -19.413  44.487  -4.104  1.00  0.00     0.000 C 
BRANCH   9  10
ATOM     10  C   UNL     1     -18.839  43.502  -3.071  1.00  0.00     0.000 C 
BRANCH  10  11
ATOM     11  C   UNL     1     -19.761  42.295  -2.835  1.00  0.00     0.000 C 
BRANCH  11  12
ATOM     12  C   UNL     1     -20.125  42.108  -1.352  1.00  0.00     0.006 C 
BRANCH  12  13
ATOM     13  C   UNL     1     -20.953  40.839  -1.114  1.00  0.00     0.053 C 
BRANCH  13  14
ATOM     14  C   UNL     1     -21.260  40.643   0.340  1.00  0.00     0.041 C 
ATOM     15  O   UNL     1     -21.253  39.486   0.841  1.00  0.00    -0.550 OA
ATOM     16  O   UNL     1     -21.605  41.732   1.130  1.00  0.00    -0.550 OA
ENDBRANCH  13  14
ENDBRANCH  12  13
ENDBRANCH  11  12
ENDBRANCH  10  11
ENDBRANCH   9  10
ENDBRANCH   8   9
ENDBRANCH   7   8
ENDBRANCH   6   7
ENDBRANCH   5   6
ENDBRANCH   4   5
ENDBRANCH   3   4
ENDBRANCH   2   3
ENDBRANCH   1   2
BRANCH   1  17
ATOM     17  C   UNL     1     -16.627  43.851 -10.825  1.00  0.00     0.000 C 
BRANCH  17  18
ATOM     18  C   UNL     1     -15.169  44.331 -10.971  1.00  0.00     0.000 C 
BRANCH  18  19
ATOM     19  C   UNL     1     -14.636  45.175  -9.795  1.00  0.00     0.000 C 
BRANCH  19  20
ATOM     20  C   UNL     1     -15.570  45.252  -8.570  1.00  0.00     0.000 C 
BRANCH  20  21
ATOM     21  C   UNL     1     -15.131  44.398  -7.366  1.00  0.00     0.000 C 
BRANCH  21  22
ATOM     22  C   UNL     1     -16.258  43.504  -6.828  1.00  0.00    -0.000 C 
BRANCH  22  23
ATOM     23  C   UNL     1     -16.102  43.275  -5.317  1.00  0.00    -0.000 C 
BRANCH  23  24
ATOM     24  C   UNL     1     -16.634  41.901  -4.864  1.00  0.00    -0.000 C 
BRANCH  24  25
ATOM     25  C   UNL     1     -17.640  41.244  -5.832  1.00  0.00    -0.000 C 
BRANCH  25  26
ATOM     26  C   UNL     1     -18.089  39.821  -5.434  1.00  0.00    -0.000 C 
BRANCH  26  27
ATOM     27  C   UNL     1     -18.117  38.810  -6.596  1.00  0.00    -0.000 C 
BRANCH  27  28
ATOM     28  C   UNL     1     -17.741  37.387  -6.149  1.00  0.00    -0.000 C 
BRANCH  28  29
ATOM     29  C   UNL     1     -18.390  36.308  -7.029  1.00  0.00    -0.003 C 
ATOM     30  C   UNL     1     -19.817  35.978  -6.591  1.00  0.00     0.004 C 
ENDBRANCH  28  29
ENDBRANCH  27  28
ENDBRANCH  26  27
ENDBRANCH  25  26
ENDBRANCH  24  25
ENDBRANCH  23  24
ENDBRANCH  22  23
ENDBRANCH  21  22
ENDBRANCH  20  21
ENDBRANCH  19  20
ENDBRANCH  18  19
ENDBRANCH  17  18
ENDBRANCH   1  17
TORSDOF 26
ENDMDL
MODEL 4
REMARK VINA RESULT:    -0.139      3.445      4.214
REMARK INTER + INTRA:          -1.545
REMARK INTER:                  -0.590
REMARK INTRA:                  -0.955
REMARK UNBOUND:                -1.196
REMARK SMILES CCCCCCCCCCCCCCCCCCCCCCCCCCCC(=O)[O-]
REMARK SMILES IDX 15 1 16 2 17 3 18 4 19 5 20 6 21 7 22 8 23 9 24 10 25 11
REMARK SMILES IDX 26 12 27 13 28 14 29 15 30 16 14 17 13 18 12 19 11 20 10 21
REMARK SMILES IDX 9 22 8 23 7 24 6 25 5 26 4 27 3 28 2 29 1 30
REMARK H PARENT
REMARK Flexibility Score: inf
ROOT
ATOM      1  C   UNL     1     -19.551  43.938  -9.920  1.00  0.00     0.000 C 
ENDROOT
BRANCH   1   2
ATOM      2  C   UNL     1     -18.837  43.639  -8.592  1.00  0.00     0.000 C 
BRANCH   2   3
ATOM      3  C   UNL     1     -19.015  44.760  -7.553  1.00  0.00     0.000 C 
BRANCH   3   4
ATOM      4  C   UNL     1     -19.928  44.368  -6.371  1.00  0.00     0.000 C 
BRANCH   4   5
ATOM      5  C   UNL     1     -19.419  44.936  -5.034  1.00  0.00     0.000 C 
BRANCH   5   6
ATOM      6  C   UNL     1     -18.368  44.023  -4.367  1.00  0.00     0.000 C 
BRANCH   6   7
ATOM      7  C   UNL     1     -18.857  43.361  -3.066  1.00  0.00     0.000 C 
BRANCH   7   8
ATOM      8  C   UNL     1     -19.800  42.174  -3.316  1.00  0.00     0.000 C 
BRANCH   8   9
ATOM      9  C   UNL     1     -19.055  40.917  -3.792  1.00  0.00     0.000 C 
BRANCH   9  10
ATOM     10  C   UNL     1     -18.080  41.208  -4.946  1.00  0.00     0.000 C 
BRANCH  10  11
ATOM     11  C   UNL     1     -17.443  39.930  -5.514  1.00  0.00     0.000 C 
BRANCH  11  12
ATOM     12  C   UNL     1     -18.487  38.862  -5.883  1.00  0.00     0.006 C 
BRANCH  12  13
ATOM     13  C   UNL     1     -17.838  37.527  -6.272  1.00  0.00     0.053 C 
BRANCH  13  14
ATOM     14  C   UNL     1     -18.767  36.677  -7.086  1.00  0.00     0.041 C 
ATOM     15  O   UNL     1     -19.092  35.528  -6.683  1.00  0.00    -0.550 OA
ATOM     16  O   UNL     1     -19.229  37.132  -8.313  1.00  0.00    -0.550 OA
ENDBRANCH  13  14
ENDBRANCH  12  13
ENDBRANCH  11  12
ENDBRANCH  10  11
ENDBRANCH   9  10
ENDBRANCH   8   9
ENDBRANCH   7   8
ENDBRANCH   6   7
ENDBRANCH   5   6
ENDBRANCH   4   5
ENDBRANCH   3   4
ENDBRANCH   2   3
ENDBRANCH   1   2
BRANCH   1  17
ATOM     17  C   UNL     1     -19.030  43.073 -11.083  1.00  0.00     0.000 C 
BRANCH  17  18
ATOM     18  C   UNL     1     -17.540  42.685 -10.991  1.00  0.00     0.000 C 
BRANCH  18  19
ATOM     19  C   UNL     1     -16.550  43.864 -11.074  1.00  0.00     0.000 C 
BRANCH  19  20
ATOM     20  C   UNL     1     -15.851  44.226  -9.748  1.00  0.00     0.000 C 
BRANCH  20  21
ATOM     21  C   UNL     1     -14.325  44.410  -9.848  1.00  0.00     0.000 C 
BRANCH  21  22
ATOM     22  C   UNL     1     -13.898  45.884  -9.793  1.00  0.00    -0.000 C 
BRANCH  22  23
ATOM     23  C   UNL     1     -15.106  46.812  -9.992  1.00  0.00    -0.000 C 
BRANCH  23  24
ATOM     24  C   UNL     1     -14.737  48.128 -10.704  1.00  0.00    -0.000 C 
BRANCH  24  25
ATOM     25  C   UNL     1     -13.879  49.100  -9.865  1.00  0.00    -0.000 C 
BRANCH  25  26
ATOM     26  C   UNL     1     -14.254  49.172  -8.369  1.00  0.00    -0.000 C 
BRANCH  26  27
ATOM     27  C   UNL     1     -13.994  50.539  -7.708  1.00  0.00    -0.000 C 
BRANCH  27  28
ATOM     28  C   UNL     1     -14.749  51.684  -8.403  1.00  0.00    -0.000 C 
BRANCH  28  29
ATOM     29  C   UNL     1     -14.796  52.958  -7.545  1.00  0.00    -0.003 C 
ATOM     30  C   UNL     1     -13.923  52.851  -6.295  1.00  0.00     0.004 C 
ENDBRANCH  28  29
ENDBRANCH  27  28
ENDBRANCH  26  27
ENDBRANCH  25  26
ENDBRANCH  24  25
ENDBRANCH  23  24
ENDBRANCH  22  23
ENDBRANCH  21  22
ENDBRANCH  20  21
ENDBRANCH  19  20
ENDBRANCH  18  19
ENDBRANCH  17  18
ENDBRANCH   1  17
TORSDOF 26
ENDMDL
MODEL 5
REMARK VINA RESULT:    -0.058      5.137     13.465
REMARK INTER + INTRA:          -1.342
REMARK INTER:                   0.394
REMARK INTRA:                  -1.736
REMARK UNBOUND:                -1.196
REMARK SMILES CCCCCCCCCCCCCCCCCCCCCCCCCCCC(=O)[O-]
REMARK SMILES IDX 15 1 16 2 17 3 18 4 19 5 20 6 21 7 22 8 23 9 24 10 25 11
REMARK SMILES IDX 26 12 27 13 28 14 29 15 30 16 14 17 13 18 12 19 11 20 10 21
REMARK SMILES IDX 9 22 8 23 7 24 6 25 5 26 4 27 3 28 2 29 1 30
REMARK H PARENT
REMARK Flexibility Score: inf
ROOT
ATOM      1  C   UNL     1     -18.813  44.491  -6.309  1.00  0.00     0.000 C 
ENDROOT
BRANCH   1   2
ATOM      2  C   UNL     1     -18.435  44.098  -7.746  1.00  0.00     0.000 C 
BRANCH   2   3
ATOM      3  C   UNL     1     -19.637  44.118  -8.706  1.00  0.00     0.000 C 
BRANCH   3   4
ATOM      4  C   UNL     1     -19.259  44.458 -10.164  1.00  0.00     0.000 C 
BRANCH   4   5
ATOM      5  C   UNL     1     -18.199  45.572 -10.242  1.00  0.00     0.000 C 
BRANCH   5   6
ATOM      6  C   UNL     1     -16.961  45.152 -11.062  1.00  0.00     0.000 C 
BRANCH   6   7
ATOM      7  C   UNL     1     -16.079  44.102 -10.362  1.00  0.00     0.000 C 
BRANCH   7   8
ATOM      8  C   UNL     1     -14.601  44.516 -10.287  1.00  0.00     0.000 C 
BRANCH   8   9
ATOM      9  C   UNL     1     -14.088  44.615  -8.842  1.00  0.00     0.000 C 
BRANCH   9  10
ATOM     10  C   UNL     1     -14.954  45.538  -7.968  1.00  0.00     0.000 C 
BRANCH  10  11
ATOM     11  C   UNL     1     -14.198  46.797  -7.513  1.00  0.00     0.000 C 
BRANCH  11  12
ATOM     12  C   UNL     1     -15.065  48.066  -7.580  1.00  0.00     0.006 C 
BRANCH  12  13
ATOM     13  C   UNL     1     -14.220  49.339  -7.712  1.00  0.00     0.053 C 
BRANCH  13  14
ATOM     14  C   UNL     1     -14.563  50.105  -8.954  1.00  0.00     0.041 C 
ATOM     15  O   UNL     1     -14.390  51.353  -8.999  1.00  0.00    -0.550 OA
ATOM     16  O   UNL     1     -15.123  49.449 -10.043  1.00  0.00    -0.550 OA
ENDBRANCH  13  14
ENDBRANCH  12  13
ENDBRANCH  11  12
ENDBRANCH  10  11
ENDBRANCH   9  10
ENDBRANCH   8   9
ENDBRANCH   7   8
ENDBRANCH   6   7
ENDBRANCH   5   6
ENDBRANCH   4   5
ENDBRANCH   3   4
ENDBRANCH   2   3
ENDBRANCH   1   2
BRANCH   1  17
ATOM     17  C   UNL     1     -18.295  43.488  -5.261  1.00  0.00     0.000 C 
BRANCH  17  18
ATOM     18  C   UNL     1     -19.078  43.468  -3.933  1.00  0.00     0.000 C 
BRANCH  18  19
ATOM     19  C   UNL     1     -19.482  42.067  -3.431  1.00  0.00     0.000 C 
BRANCH  19  20
ATOM     20  C   UNL     1     -19.470  41.893  -1.899  1.00  0.00     0.000 C 
BRANCH  20  21
ATOM     21  C   UNL     1     -20.782  41.352  -1.299  1.00  0.00     0.000 C 
BRANCH  21  22
ATOM     22  C   UNL     1     -20.756  41.298   0.236  1.00  0.00    -0.000 C 
BRANCH  22  23
ATOM     23  C   UNL     1     -21.819  40.326   0.768  1.00  0.00    -0.000 C 
BRANCH  23  24
ATOM     24  C   UNL     1     -21.807  38.969   0.039  1.00  0.00    -0.000 C 
BRANCH  24  25
ATOM     25  C   UNL     1     -20.745  37.970   0.545  1.00  0.00    -0.000 C 
BRANCH  25  26
ATOM     26  C   UNL     1     -21.306  36.780   1.354  1.00  0.00    -0.000 C 
BRANCH  26  27
ATOM     27  C   UNL     1     -20.654  35.422   1.032  1.00  0.00    -0.000 C 
BRANCH  27  28
ATOM     28  C   UNL     1     -19.914  35.427  -0.316  1.00  0.00    -0.000 C 
BRANCH  28  29
ATOM     29  C   UNL     1     -20.455  34.362  -1.283  1.00  0.00    -0.003 C 
ATOM     30  C   UNL     1     -19.842  32.984  -1.036  1.00  0.00     0.004 C 
ENDBRANCH  28  29
ENDBRANCH  27  28
ENDBRANCH  26  27
ENDBRANCH  25  26
ENDBRANCH  24  25
ENDBRANCH  23  24
ENDBRANCH  22  23
ENDBRANCH  21  22
ENDBRANCH  20  21
ENDBRANCH  19  20
ENDBRANCH  18  19
ENDBRANCH  17  18
ENDBRANCH   1  17
TORSDOF 26
ENDMDL
MODEL 6
REMARK VINA RESULT:     0.051      1.150      2.180
REMARK INTER + INTRA:          -1.067
REMARK INTER:                   0.412
REMARK INTRA:                  -1.478
REMARK UNBOUND:                -1.196
REMARK SMILES CCCCCCCCCCCCCCCCCCCCCCCCCCCC(=O)[O-]
REMARK SMILES IDX 15 1 16 2 17 3 18 4 19 5 20 6 21 7 22 8 23 9 24 10 25 11
REMARK SMILES IDX 26 12 27 13 28 14 29 15 30 16 14 17 13 18 12 19 11 20 10 21
REMARK SMILES IDX 9 22 8 23 7 24 6 25 5 26 4 27 3 28 2 29 1 30
REMARK H PARENT
REMARK Flexibility Score: inf
ROOT
ATOM      1  C   UNL     1     -16.645  43.836  -6.596  1.00  0.00     0.000 C 
ENDROOT
BRANCH   1   2
ATOM      2  C   UNL     1     -16.898  42.911  -5.394  1.00  0.00     0.000 C 
BRANCH   2   3
ATOM      3  C   UNL     1     -18.209  43.236  -4.657  1.00  0.00     0.000 C 
BRANCH   3   4
ATOM      4  C   UNL     1     -18.455  42.353  -3.415  1.00  0.00     0.000 C 
BRANCH   4   5
ATOM      5  C   UNL     1     -19.906  42.456  -2.910  1.00  0.00     0.000 C 
BRANCH   5   6
ATOM      6  C   UNL     1     -20.187  41.509  -1.724  1.00  0.00     0.000 C 
BRANCH   6   7
ATOM      7  C   UNL     1     -20.823  42.207  -0.509  1.00  0.00     0.000 C 
BRANCH   7   8
ATOM      8  C   UNL     1     -21.373  41.217   0.530  1.00  0.00     0.000 C 
BRANCH   8   9
ATOM      9  C   UNL     1     -21.304  39.759   0.052  1.00  0.00     0.000 C 
BRANCH   9  10
ATOM     10  C   UNL     1     -22.439  38.893   0.626  1.00  0.00     0.000 C 
BRANCH  10  11
ATOM     11  C   UNL     1     -21.977  37.467   0.963  1.00  0.00     0.000 C 
BRANCH  11  12
ATOM     12  C   UNL     1     -20.542  37.181   0.486  1.00  0.00     0.006 C 
BRANCH  12  13
ATOM     13  C   UNL     1     -20.033  35.815   0.966  1.00  0.00     0.053 C 
BRANCH  13  14
ATOM     14  C   UNL     1     -19.839  35.789   2.453  1.00  0.00     0.041 C 
ATOM     15  O   UNL     1     -20.796  35.479   3.212  1.00  0.00    -0.550 OA
ATOM     16  O   UNL     1     -18.617  36.156   3.001  1.00  0.00    -0.550 OA
ENDBRANCH  13  14
ENDBRANCH  12  13
ENDBRANCH  11  12
ENDBRANCH  10  11
ENDBRANCH   9  10
ENDBRANCH   8   9
ENDBRANCH   7   8
ENDBRANCH   6   7
ENDBRANCH   5   6
ENDBRANCH   4   5
ENDBRANCH   3   4
ENDBRANCH   2   3
ENDBRANCH   1   2
BRANCH   1  17
ATOM     17  C   UNL     1     -17.947  44.283  -7.286  1.00  0.00     0.000 C 
BRANCH  17  18
ATOM     18  C   UNL     1     -18.670  43.183  -8.089  1.00  0.00     0.000 C 
BRANCH  18  19
ATOM     19  C   UNL     1     -18.658  43.373  -9.620  1.00  0.00     0.000 C 
BRANCH  19  20
ATOM     20  C   UNL     1     -17.302  43.807 -10.213  1.00  0.00     0.000 C 
BRANCH  20  21
ATOM     21  C   UNL     1     -17.095  45.330 -10.309  1.00  0.00     0.000 C 
BRANCH  21  22
ATOM     22  C   UNL     1     -15.736  45.709 -10.916  1.00  0.00    -0.000 C 
BRANCH  22  23
ATOM     23  C   UNL     1     -14.936  46.600  -9.955  1.00  0.00    -0.000 C 
BRANCH  23  24
ATOM     24  C   UNL     1     -14.518  45.866  -8.666  1.00  0.00    -0.000 C 
BRANCH  24  25
ATOM     25  C   UNL     1     -14.132  46.789  -7.491  1.00  0.00    -0.000 C 
BRANCH  25  26
ATOM     26  C   UNL     1     -15.011  48.049  -7.337  1.00  0.00    -0.000 C 
BRANCH  26  27
ATOM     27  C   UNL     1     -14.240  49.327  -6.959  1.00  0.00    -0.000 C 
BRANCH  27  28
ATOM     28  C   UNL     1     -14.103  50.305  -8.139  1.00  0.00    -0.000 C 
BRANCH  28  29
ATOM     29  C   UNL     1     -14.626  51.709  -7.798  1.00  0.00    -0.003 C 
ATOM     30  C   UNL     1     -14.058  52.783  -8.725  1.00  0.00     0.004 C 
ENDBRANCH  28  29
ENDBRANCH  27  28
ENDBRANCH  26  27
ENDBRANCH  25  26
ENDBRANCH  24  25
ENDBRANCH  23  24
ENDBRANCH  22  23
ENDBRANCH  21  22
ENDBRANCH  20  21
ENDBRANCH  19  20
ENDBRANCH  18  19
ENDBRANCH  17  18
ENDBRANCH   1  17
TORSDOF 26
ENDMDL
MODEL 7
REMARK VINA RESULT:     0.084      3.335      8.211
REMARK INTER + INTRA:          -0.984
REMARK INTER:                   1.572
REMARK INTRA:                  -2.556
REMARK UNBOUND:                -1.196
REMARK SMILES CCCCCCCCCCCCCCCCCCCCCCCCCCCC(=O)[O-]
REMARK SMILES IDX 15 1 16 2 17 3 18 4 19 5 20 6 21 7 22 8 23 9 24 10 25 11
REMARK SMILES IDX 26 12 27 13 28 14 29 15 30 16 14 17 13 18 12 19 11 20 10 21
REMARK SMILES IDX 9 22 8 23 7 24 6 25 5 26 4 27 3 28 2 29 1 30
REMARK H PARENT
REMARK Flexibility Score: inf
ROOT
ATOM      1  C   UNL     1     -16.423  44.464 -10.763  1.00  0.00     0.000 C 
ENDROOT
BRANCH   1   2
ATOM      2  C   UNL     1     -16.544  45.875 -10.164  1.00  0.00     0.000 C 
BRANCH   2   3
ATOM      3  C   UNL     1     -15.283  46.305  -9.394  1.00  0.00     0.000 C 
BRANCH   3   4
ATOM      4  C   UNL     1     -15.319  45.939  -7.894  1.00  0.00     0.000 C 
BRANCH   4   5
ATOM      5  C   UNL     1     -15.058  44.440  -7.659  1.00  0.00     0.000 C 
BRANCH   5   6
ATOM      6  C   UNL     1     -16.186  43.765  -6.849  1.00  0.00     0.000 C 
BRANCH   6   7
ATOM      7  C   UNL     1     -15.927  43.731  -5.332  1.00  0.00     0.000 C 
BRANCH   7   8
ATOM      8  C   UNL     1     -16.606  42.541  -4.636  1.00  0.00     0.000 C 
BRANCH   8   9
ATOM      9  C   UNL     1     -16.604  41.270  -5.499  1.00  0.00     0.000 C 
BRANCH   9  10
ATOM     10  C   UNL     1     -17.926  40.490  -5.407  1.00  0.00     0.000 C 
BRANCH  10  11
ATOM     11  C   UNL     1     -18.021  39.368  -6.454  1.00  0.00     0.000 C 
BRANCH  11  12
ATOM     12  C   UNL     1     -18.175  37.976  -5.818  1.00  0.00     0.006 C 
BRANCH  12  13
ATOM     13  C   UNL     1     -17.987  36.847  -6.840  1.00  0.00     0.053 C 
BRANCH  13  14
ATOM     14  C   UNL     1     -19.237  36.035  -7.003  1.00  0.00     0.041 C 
ATOM     15  O   UNL     1     -20.204  36.487  -7.673  1.00  0.00    -0.550 OA
ATOM     16  O   UNL     1     -19.352  34.803  -6.372  1.00  0.00    -0.550 OA
ENDBRANCH  13  14
ENDBRANCH  12  13
ENDBRANCH  11  12
ENDBRANCH  10  11
ENDBRANCH   9  10
ENDBRANCH   8   9
ENDBRANCH   7   8
ENDBRANCH   6   7
ENDBRANCH   5   6
ENDBRANCH   4   5
ENDBRANCH   3   4
ENDBRANCH   2   3
ENDBRANCH   1   2
BRANCH   1  17
ATOM     17  C   UNL     1     -17.791  43.848 -11.111  1.00  0.00     0.000 C 
BRANCH  17  18
ATOM     18  C   UNL     1     -18.104  42.514 -10.404  1.00  0.00     0.000 C 
BRANCH  18  19
ATOM     19  C   UNL     1     -19.013  42.627  -9.163  1.00  0.00     0.000 C 
BRANCH  19  20
ATOM     20  C   UNL     1     -19.622  44.024  -8.925  1.00  0.00     0.000 C 
BRANCH  20  21
ATOM     21  C   UNL     1     -19.001  44.811  -7.755  1.00  0.00     0.000 C 
BRANCH  21  22
ATOM     22  C   UNL     1     -19.992  45.054  -6.608  1.00  0.00    -0.000 C 
BRANCH  22  23
ATOM     23  C   UNL     1     -19.321  44.825  -5.246  1.00  0.00    -0.000 C 
BRANCH  23  24
ATOM     24  C   UNL     1     -19.826  43.553  -4.537  1.00  0.00    -0.000 C 
BRANCH  24  25
ATOM     25  C   UNL     1     -19.173  43.272  -3.167  1.00  0.00    -0.000 C 
BRANCH  25  26
ATOM     26  C   UNL     1     -19.581  41.933  -2.515  1.00  0.00    -0.000 C 
BRANCH  26  27
ATOM     27  C   UNL     1     -20.504  42.070  -1.290  1.00  0.00    -0.000 C 
BRANCH  27  28
ATOM     28  C   UNL     1     -20.266  40.967  -0.245  1.00  0.00    -0.000 C 
BRANCH  28  29
ATOM     29  C   UNL     1     -21.543  40.616   0.534  1.00  0.00    -0.003 C 
ATOM     30  C   UNL     1     -22.006  39.182   0.278  1.00  0.00     0.004 C 
ENDBRANCH  28  29
ENDBRANCH  27  28
ENDBRANCH  26  27
ENDBRANCH  25  26
ENDBRANCH  24  25
ENDBRANCH  23  24
ENDBRANCH  22  23
ENDBRANCH  21  22
ENDBRANCH  20  21
ENDBRANCH  19  20
ENDBRANCH  18  19
ENDBRANCH  17  18
ENDBRANCH   1  17
TORSDOF 26
ENDMDL
MODEL 8
REMARK VINA RESULT:     0.127      4.293      6.560
REMARK INTER + INTRA:          -0.876
REMARK INTER:                   1.472
REMARK INTRA:                  -2.349
REMARK UNBOUND:                -1.196
REMARK SMILES CCCCCCCCCCCCCCCCCCCCCCCCCCCC(=O)[O-]
REMARK SMILES IDX 15 1 16 2 17 3 18 4 19 5 20 6 21 7 22 8 23 9 24 10 25 11
REMARK SMILES IDX 26 12 27 13 28 14 29 15 30 16 14 17 13 18 12 19 11 20 10 21
REMARK SMILES IDX 9 22 8 23 7 24 6 25 5 26 4 27 3 28 2 29 1 30
REMARK H PARENT
REMARK Flexibility Score: inf
ROOT
ATOM      1  C   UNL     1     -17.602  43.677  -7.398  1.00  0.00     0.000 C 
ENDROOT
BRANCH   1   2
ATOM      2  C   UNL     1     -18.633  44.634  -6.778  1.00  0.00     0.000 C 
BRANCH   2   3
ATOM      3  C   UNL     1     -18.483  44.765  -5.252  1.00  0.00     0.000 C 
BRANCH   3   4
ATOM      4  C   UNL     1     -19.626  44.095  -4.459  1.00  0.00     0.000 C 
BRANCH   4   5
ATOM      5  C   UNL     1     -19.095  43.160  -3.357  1.00  0.00     0.000 C 
BRANCH   5   6
ATOM      6  C   UNL     1     -18.014  42.188  -3.878  1.00  0.00     0.000 C 
BRANCH   6   7
ATOM      7  C   UNL     1     -18.574  41.043  -4.741  1.00  0.00     0.000 C 
BRANCH   7   8
ATOM      8  C   UNL     1     -17.485  40.307  -5.537  1.00  0.00     0.000 C 
BRANCH   8   9
ATOM      9  C   UNL     1     -18.045  39.144  -6.370  1.00  0.00     0.000 C 
BRANCH   9  10
ATOM     10  C   UNL     1     -17.872  37.781  -5.677  1.00  0.00     0.000 C 
BRANCH  10  11
ATOM     11  C   UNL     1     -17.447  36.674  -6.654  1.00  0.00     0.000 C 
BRANCH  11  12
ATOM     12  C   UNL     1     -18.491  35.550  -6.767  1.00  0.00     0.006 C 
BRANCH  12  13
ATOM     13  C   UNL     1     -19.928  36.086  -6.712  1.00  0.00     0.053 C 
BRANCH  13  14
ATOM     14  C   UNL     1     -20.454  36.400  -8.080  1.00  0.00     0.041 C 
ATOM     15  O   UNL     1     -19.708  36.283  -9.089  1.00  0.00    -0.550 OA
ATOM     16  O   UNL     1     -21.751  36.871  -8.234  1.00  0.00    -0.550 OA
ENDBRANCH  13  14
ENDBRANCH  12  13
ENDBRANCH  11  12
ENDBRANCH  10  11
ENDBRANCH   9  10
ENDBRANCH   8   9
ENDBRANCH   7   8
ENDBRANCH   6   7
ENDBRANCH   5   6
ENDBRANCH   4   5
ENDBRANCH   3   4
ENDBRANCH   2   3
ENDBRANCH   1   2
BRANCH   1  17
ATOM     17  C   UNL     1     -16.244  43.716  -6.673  1.00  0.00     0.000 C 
BRANCH  17  18
ATOM     18  C   UNL     1     -15.171  44.597  -7.345  1.00  0.00     0.000 C 
BRANCH  18  19
ATOM     19  C   UNL     1     -15.480  46.108  -7.360  1.00  0.00     0.000 C 
BRANCH  19  20
ATOM     20  C   UNL     1     -14.342  47.003  -7.892  1.00  0.00     0.000 C 
BRANCH  20  21
ATOM     21  C   UNL     1     -14.721  47.883  -9.098  1.00  0.00     0.000 C 
BRANCH  21  22
ATOM     22  C   UNL     1     -14.879  47.079 -10.396  1.00  0.00    -0.000 C 
BRANCH  22  23
ATOM     23  C   UNL     1     -16.084  46.130 -10.309  1.00  0.00    -0.000 C 
BRANCH  23  24
ATOM     24  C   UNL     1     -15.885  44.835 -11.119  1.00  0.00    -0.000 C 
BRANCH  24  25
ATOM     25  C   UNL     1     -16.199  43.534 -10.349  1.00  0.00    -0.000 C 
BRANCH  25  26
ATOM     26  C   UNL     1     -17.058  42.512 -11.124  1.00  0.00    -0.000 C 
BRANCH  26  27
ATOM     27  C   UNL     1     -18.270  41.970 -10.343  1.00  0.00    -0.000 C 
BRANCH  27  28
ATOM     28  C   UNL     1     -19.585  42.663 -10.739  1.00  0.00    -0.000 C 
BRANCH  28  29
ATOM     29  C   UNL     1     -19.397  44.164 -11.006  1.00  0.00    -0.003 C 
ATOM     30  C   UNL     1     -20.727  44.912 -11.095  1.00  0.00     0.004 C 
ENDBRANCH  28  29
ENDBRANCH  27  28
ENDBRANCH  26  27
ENDBRANCH  25  26
ENDBRANCH  24  25
ENDBRANCH  23  24
ENDBRANCH  22  23
ENDBRANCH  21  22
ENDBRANCH  20  21
ENDBRANCH  19  20
ENDBRANCH  18  19
ENDBRANCH  17  18
ENDBRANCH   1  17
TORSDOF 26
ENDMDL
MODEL 9
REMARK VINA RESULT:     0.136      1.367      2.747
REMARK INTER + INTRA:          -0.854
REMARK INTER:                   1.040
REMARK INTRA:                  -1.894
REMARK UNBOUND:                -1.196
REMARK SMILES CCCCCCCCCCCCCCCCCCCCCCCCCCCC(=O)[O-]
REMARK SMILES IDX 15 1 16 2 17 3 18 4 19 5 20 6 21 7 22 8 23 9 24 10 25 11
REMARK SMILES IDX 26 12 27 13 28 14 29 15 30 16 14 17 13 18 12 19 11 20 10 21
REMARK SMILES IDX 9 22 8 23 7 24 6 25 5 26 4 27 3 28 2 29 1 30
REMARK H PARENT
REMARK Flexibility Score: inf
ROOT
ATOM      1  C   UNL     1     -17.598  43.855  -6.539  1.00  0.00     0.000 C 
ENDROOT
BRANCH   1   2
ATOM      2  C   UNL     1     -17.852  42.744  -5.508  1.00  0.00     0.000 C 
BRANCH   2   3
ATOM      3  C   UNL     1     -18.724  43.213  -4.330  1.00  0.00     0.000 C 
BRANCH   3   4
ATOM      4  C   UNL     1     -18.701  42.250  -3.122  1.00  0.00     0.000 C 
BRANCH   4   5
ATOM      5  C   UNL     1     -20.050  42.222  -2.380  1.00  0.00     0.000 C 
BRANCH   5   6
ATOM      6  C   UNL     1     -20.092  41.144  -1.275  1.00  0.00     0.000 C 
BRANCH   6   7
ATOM      7  C   UNL     1     -21.066  41.470  -0.128  1.00  0.00     0.000 C 
BRANCH   7   8
ATOM      8  C   UNL     1     -21.362  40.256   0.768  1.00  0.00     0.000 C 
BRANCH   8   9
ATOM      9  C   UNL     1     -22.237  39.204   0.068  1.00  0.00     0.000 C 
BRANCH   9  10
ATOM     10  C   UNL     1     -22.089  37.804   0.688  1.00  0.00     0.000 C 
BRANCH  10  11
ATOM     11  C   UNL     1     -20.624  37.445   0.986  1.00  0.00     0.000 C 
BRANCH  11  12
ATOM     12  C   UNL     1     -20.034  36.464  -0.042  1.00  0.00     0.006 C 
BRANCH  12  13
ATOM     13  C   UNL     1     -20.490  35.021   0.206  1.00  0.00     0.053 C 
BRANCH  13  14
ATOM     14  C   UNL     1     -20.280  34.159  -1.002  1.00  0.00     0.041 C 
ATOM     15  O   UNL     1     -19.274  34.336  -1.741  1.00  0.00    -0.550 OA
ATOM     16  O   UNL     1     -21.221  33.195  -1.340  1.00  0.00    -0.550 OA
ENDBRANCH  13  14
ENDBRANCH  12  13
ENDBRANCH  11  12
ENDBRANCH  10  11
ENDBRANCH   9  10
ENDBRANCH   8   9
ENDBRANCH   7   8
ENDBRANCH   6   7
ENDBRANCH   5   6
ENDBRANCH   4   5
ENDBRANCH   3   4
ENDBRANCH   2   3
ENDBRANCH   1   2
BRANCH   1  17
ATOM     17  C   UNL     1     -18.850  44.710  -6.813  1.00  0.00     0.000 C 
BRANCH  17  18
ATOM     18  C   UNL     1     -19.818  44.130  -7.863  1.00  0.00     0.000 C 
BRANCH  18  19
ATOM     19  C   UNL     1     -19.476  44.467  -9.328  1.00  0.00     0.000 C 
BRANCH  19  20
ATOM     20  C   UNL     1     -18.653  43.394 -10.071  1.00  0.00     0.000 C 
BRANCH  20  21
ATOM     21  C   UNL     1     -17.582  43.948 -11.030  1.00  0.00     0.000 C 
BRANCH  21  22
ATOM     22  C   UNL     1     -16.190  43.354 -10.772  1.00  0.00    -0.000 C 
BRANCH  22  23
ATOM     23  C   UNL     1     -15.189  44.453 -10.383  1.00  0.00    -0.000 C 
BRANCH  23  24
ATOM     24  C   UNL     1     -15.828  45.854 -10.336  1.00  0.00    -0.000 C 
BRANCH  24  25
ATOM     25  C   UNL     1     -15.807  46.529  -8.948  1.00  0.00    -0.000 C 
BRANCH  25  26
ATOM     26  C   UNL     1     -14.864  47.745  -8.830  1.00  0.00    -0.000 C 
BRANCH  26  27
ATOM     27  C   UNL     1     -15.049  48.809  -9.928  1.00  0.00    -0.000 C 
BRANCH  27  28
ATOM     28  C   UNL     1     -14.557  50.200  -9.492  1.00  0.00    -0.000 C 
BRANCH  28  29
ATOM     29  C   UNL     1     -14.826  50.474  -8.004  1.00  0.00    -0.003 C 
ATOM     30  C   UNL     1     -14.948  51.967  -7.700  1.00  0.00     0.004 C 
ENDBRANCH  28  29
ENDBRANCH  27  28
ENDBRANCH  26  27
ENDBRANCH  25  26
ENDBRANCH  24  25
ENDBRANCH  23  24
ENDBRANCH  22  23
ENDBRANCH  21  22
ENDBRANCH  20  21
ENDBRANCH  19  20
ENDBRANCH  18  19
ENDBRANCH  17  18
ENDBRANCH   1  17
TORSDOF 26
ENDMDL
