MODEL 1
REMARK VINA RESULT:    -8.612      0.000      0.000
REMARK INTER + INTRA:         -10.395
REMARK INTER:                 -10.374
REMARK INTRA:                  -0.020
REMARK UNBOUND:                -0.020
REMARK SMILES O=c1c(O)c(-c2ccc(O)cc2O)oc2cc(O)cc(O)c12
REMARK SMILES IDX 5 1 3 2 2 3 1 4 22 5 20 6 19 7 17 8 16 9 15 10 14 11 6 12
REMARK SMILES IDX 8 13 7 14 9 15 11 16 12 17 10 18 13 20 4 22 21 24 18 26
REMARK H PARENT 10 19 13 21 4 23 21 25 18 27
REMARK Flexibility Score: inf
ROOT
ATOM      1  C   UNL     1     140.194 -18.771  80.769  1.00  0.00     0.184 A 
ATOM      2  C   UNL     1     140.104 -17.371  80.742  1.00  0.00     0.208 A 
ATOM      3  C   UNL     1     140.301 -16.699  79.525  1.00  0.00     0.238 A 
ATOM      4  O   UNL     1     140.159 -15.449  79.495  1.00  0.00    -0.285 OA
ATOM      5  C   UNL     1     140.613 -17.436  78.356  1.00  0.00     0.111 A 
ATOM      6  C   UNL     1     140.872 -16.858  77.077  1.00  0.00     0.134 A 
ATOM      7  C   UNL     1     141.050 -17.691  75.966  1.00  0.00     0.093 A 
ATOM      8  C   UNL     1     141.043 -19.081  76.099  1.00  0.00     0.123 A 
ATOM      9  C   UNL     1     140.849 -19.655  77.352  1.00  0.00     0.094 A 
ATOM     10  C   UNL     1     140.632 -18.852  78.474  1.00  0.00     0.146 A 
ATOM     11  O   UNL     1     140.437 -19.440  79.649  1.00  0.00    -0.451 OA
ENDROOT
BRANCH   1  12
ATOM     12  C   UNL     1     140.020 -19.530  82.025  1.00  0.00     0.063 A 
ATOM     13  C   UNL     1     140.461 -19.744  84.408  1.00  0.00     0.047 A 
ATOM     14  C   UNL     1     140.563 -19.022  83.218  1.00  0.00     0.020 A 
ATOM     15  C   UNL     1     139.821 -20.989  84.423  1.00  0.00     0.119 A 
ATOM     16  C   UNL     1     139.279 -21.504  83.242  1.00  0.00     0.093 A 
ATOM     17  C   UNL     1     139.365 -20.784  82.044  1.00  0.00     0.130 A 
BRANCH  15  18
ATOM     18  O   UNL     1     139.717 -21.721  85.603  1.00  0.00    -0.508 OA
ATOM     19  H   UNL     1     140.352 -21.567  86.379  1.00  0.00     0.293 HD
ENDBRANCH  15  18
BRANCH  17  20
ATOM     20  O   UNL     1     138.775 -21.331  80.902  1.00  0.00    -0.507 OA
ATOM     21  H   UNL     1     137.773 -21.378  80.767  1.00  0.00     0.293 HD
ENDBRANCH  17  20
ENDBRANCH   1  12
BRANCH   2  22
ATOM     22  O   UNL     1     139.799 -16.669  81.911  1.00  0.00    -0.502 OA
ATOM     23  H   UNL     1     138.895 -16.735  82.363  1.00  0.00     0.293 HD
ENDBRANCH   2  22
BRANCH   6  24
ATOM     24  O   UNL     1     140.990 -15.483  76.851  1.00  0.00    -0.507 OA
ATOM     25  H   UNL     1     140.256 -14.809  77.006  1.00  0.00     0.293 HD
ENDBRANCH   6  24
BRANCH   8  26
ATOM     26  O   UNL     1     141.237 -19.903  74.990  1.00  0.00    -0.508 OA
ATOM     27  H   UNL     1     141.192 -19.538  74.046  1.00  0.00     0.293 HD
ENDBRANCH   8  26
TORSDOF 6
ENDMDL
MODEL 2
REMARK VINA RESULT:    -8.139      0.933      1.527
REMARK INTER + INTRA:          -9.825
REMARK INTER:                  -9.651
REMARK INTRA:                  -0.174
REMARK UNBOUND:                -0.020
REMARK SMILES O=c1c(O)c(-c2ccc(O)cc2O)oc2cc(O)cc(O)c12
REMARK SMILES IDX 5 1 3 2 2 3 1 4 22 5 20 6 19 7 17 8 16 9 15 10 14 11 6 12
REMARK SMILES IDX 8 13 7 14 9 15 11 16 12 17 10 18 13 20 4 22 21 24 18 26
REMARK H PARENT 10 19 13 21 4 23 21 25 18 27
REMARK Flexibility Score: inf
ROOT
ATOM      1  C   UNL     1     140.149 -19.135  80.526  1.00  0.00     0.184 A 
ATOM      2  C   UNL     1     140.009 -17.746  80.656  1.00  0.00     0.208 A 
ATOM      3  C   UNL     1     140.335 -16.923  79.567  1.00  0.00     0.238 A 
ATOM      4  O   UNL     1     140.149 -15.683  79.669  1.00  0.00    -0.285 OA
ATOM      5  C   UNL     1     140.823 -17.501  78.369  1.00  0.00     0.111 A 
ATOM      6  C   UNL     1     141.222 -16.762  77.215  1.00  0.00     0.134 A 
ATOM      7  C   UNL     1     141.573 -17.446  76.045  1.00  0.00     0.093 A 
ATOM      8  C   UNL     1     141.603 -18.842  76.007  1.00  0.00     0.123 A 
ATOM      9  C   UNL     1     141.272 -19.572  77.145  1.00  0.00     0.094 A 
ATOM     10  C   UNL     1     140.881 -18.920  78.317  1.00  0.00     0.146 A 
ATOM     11  O   UNL     1     140.560 -19.655  79.376  1.00  0.00    -0.451 OA
ENDROOT
BRANCH   1  12
ATOM     12  C   UNL     1     139.844 -20.049  81.647  1.00  0.00     0.063 A 
ATOM     13  C   UNL     1     138.497 -21.865  82.547  1.00  0.00     0.047 A 
ATOM     14  C   UNL     1     138.843 -21.024  81.488  1.00  0.00     0.020 A 
ATOM     15  C   UNL     1     139.140 -21.740  83.784  1.00  0.00     0.119 A 
ATOM     16  C   UNL     1     140.135 -20.773  83.952  1.00  0.00     0.093 A 
ATOM     17  C   UNL     1     140.499 -19.932  82.895  1.00  0.00     0.130 A 
BRANCH  15  18
ATOM     18  O   UNL     1     138.800 -22.570  84.849  1.00  0.00    -0.508 OA
ATOM     19  H   UNL     1     138.117 -23.313  84.745  1.00  0.00     0.293 HD
ENDBRANCH  15  18
BRANCH  17  20
ATOM     20  O   UNL     1     141.525 -19.008  83.110  1.00  0.00    -0.507 OA
ATOM     21  H   UNL     1     141.889 -18.408  82.381  1.00  0.00     0.293 HD
ENDBRANCH  17  20
ENDBRANCH   1  12
BRANCH   2  22
ATOM     22  O   UNL     1     139.529 -17.202  81.851  1.00  0.00    -0.502 OA
ATOM     23  H   UNL     1     139.946 -17.413  82.750  1.00  0.00     0.293 HD
ENDBRANCH   2  22
BRANCH   6  24
ATOM     24  O   UNL     1     141.314 -15.368  77.174  1.00  0.00    -0.507 OA
ATOM     25  H   UNL     1     141.025 -14.750  77.917  1.00  0.00     0.293 HD
ENDBRANCH   6  24
BRANCH   8  26
ATOM     26  O   UNL     1     141.970 -19.514  74.843  1.00  0.00    -0.508 OA
ATOM     27  H   UNL     1     142.748 -20.163  74.828  1.00  0.00     0.293 HD
ENDBRANCH   8  26
TORSDOF 6
ENDMDL
MODEL 3
REMARK VINA RESULT:    -8.042      1.369      7.053
REMARK INTER + INTRA:          -9.708
REMARK INTER:                  -9.385
REMARK INTRA:                  -0.323
REMARK UNBOUND:                -0.020
REMARK SMILES O=c1c(O)c(-c2ccc(O)cc2O)oc2cc(O)cc(O)c12
REMARK SMILES IDX 5 1 3 2 2 3 1 4 22 5 20 6 19 7 17 8 16 9 15 10 14 11 6 12
REMARK SMILES IDX 8 13 7 14 9 15 11 16 12 17 10 18 13 20 4 22 21 24 18 26
REMARK H PARENT 10 19 13 21 4 23 21 25 18 27
REMARK Flexibility Score: inf
ROOT
ATOM      1  C   UNL     1     139.998 -19.274  80.486  1.00  0.00     0.184 A 
ATOM      2  C   UNL     1     139.139 -20.383  80.475  1.00  0.00     0.208 A 
ATOM      3  C   UNL     1     138.937 -21.101  81.664  1.00  0.00     0.238 A 
ATOM      4  O   UNL     1     138.119 -22.057  81.663  1.00  0.00    -0.285 OA
ATOM      5  C   UNL     1     139.621 -20.714  82.844  1.00  0.00     0.111 A 
ATOM      6  C   UNL     1     139.524 -21.392  84.096  1.00  0.00     0.134 A 
ATOM      7  C   UNL     1     140.148 -20.848  85.225  1.00  0.00     0.093 A 
ATOM      8  C   UNL     1     140.921 -19.687  85.133  1.00  0.00     0.123 A 
ATOM      9  C   UNL     1     141.070 -19.052  83.904  1.00  0.00     0.094 A 
ATOM     10  C   UNL     1     140.428 -19.548  82.766  1.00  0.00     0.146 A 
ATOM     11  O   UNL     1     140.586 -18.903  81.616  1.00  0.00    -0.451 OA
ENDROOT
BRANCH   1  12
ATOM     12  C   UNL     1     140.267 -18.495  79.258  1.00  0.00     0.063 A 
ATOM     13  C   UNL     1     141.158 -18.416  76.995  1.00  0.00     0.047 A 
ATOM     14  C   UNL     1     140.843 -19.137  78.148  1.00  0.00     0.020 A 
ATOM     15  C   UNL     1     140.909 -17.040  76.937  1.00  0.00     0.119 A 
ATOM     16  C   UNL     1     140.338 -16.392  78.036  1.00  0.00     0.093 A 
ATOM     17  C   UNL     1     140.007 -17.106  79.193  1.00  0.00     0.130 A 
BRANCH  15  18
ATOM     18  O   UNL     1     141.224 -16.308  75.795  1.00  0.00    -0.508 OA
ATOM     19  H   UNL     1     141.095 -16.694  74.866  1.00  0.00     0.293 HD
ENDBRANCH  15  18
BRANCH  17  20
ATOM     20  O   UNL     1     139.405 -16.414  80.247  1.00  0.00    -0.507 OA
ATOM     21  H   UNL     1     139.933 -15.924  80.958  1.00  0.00     0.293 HD
ENDBRANCH  17  20
ENDBRANCH   1  12
BRANCH   2  22
ATOM     22  O   UNL     1     138.481 -20.744  79.296  1.00  0.00    -0.502 OA
ATOM     23  H   UNL     1     137.722 -20.197  78.909  1.00  0.00     0.293 HD
ENDBRANCH   2  22
BRANCH   6  24
ATOM     24  O   UNL     1     138.853 -22.605  84.279  1.00  0.00    -0.507 OA
ATOM     25  H   UNL     1     137.861 -22.738  84.154  1.00  0.00     0.293 HD
ENDBRANCH   6  24
BRANCH   8  26
ATOM     26  O   UNL     1     141.553 -19.163  86.259  1.00  0.00    -0.508 OA
ATOM     27  H   UNL     1     141.208 -18.329  86.721  1.00  0.00     0.293 HD
ENDBRANCH   8  26
TORSDOF 6
ENDMDL
MODEL 4
REMARK VINA RESULT:    -7.950      2.194      6.388
REMARK INTER + INTRA:          -9.597
REMARK INTER:                  -9.180
REMARK INTRA:                  -0.417
REMARK UNBOUND:                -0.020
REMARK SMILES O=c1c(O)c(-c2ccc(O)cc2O)oc2cc(O)cc(O)c12
REMARK SMILES IDX 5 1 3 2 2 3 1 4 22 5 20 6 19 7 17 8 16 9 15 10 14 11 6 12
REMARK SMILES IDX 8 13 7 14 9 15 11 16 12 17 10 18 13 20 4 22 21 24 18 26
REMARK H PARENT 10 19 13 21 4 23 21 25 18 27
REMARK Flexibility Score: inf
ROOT
ATOM      1  C   UNL     1     139.018 -18.295  78.766  1.00  0.00     0.184 A 
ATOM      2  C   UNL     1     139.153 -17.015  79.325  1.00  0.00     0.208 A 
ATOM      3  C   UNL     1     139.543 -16.896  80.668  1.00  0.00     0.238 A 
ATOM      4  O   UNL     1     139.722 -15.746  81.146  1.00  0.00    -0.285 OA
ATOM      5  C   UNL     1     139.766 -18.061  81.443  1.00  0.00     0.111 A 
ATOM      6  C   UNL     1     140.125 -18.061  82.824  1.00  0.00     0.134 A 
ATOM      7  C   UNL     1     140.440 -19.270  83.456  1.00  0.00     0.093 A 
ATOM      8  C   UNL     1     140.344 -20.486  82.774  1.00  0.00     0.123 A 
ATOM      9  C   UNL     1     139.938 -20.502  81.443  1.00  0.00     0.094 A 
ATOM     10  C   UNL     1     139.653 -19.309  80.774  1.00  0.00     0.146 A 
ATOM     11  O   UNL     1     139.282 -19.369  79.500  1.00  0.00    -0.451 OA
ENDROOT
BRANCH   1  12
ATOM     12  C   UNL     1     138.587 -18.483  77.365  1.00  0.00     0.063 A 
ATOM     13  C   UNL     1     136.785 -18.847  75.770  1.00  0.00     0.047 A 
ATOM     14  C   UNL     1     137.217 -18.615  77.078  1.00  0.00     0.020 A 
ATOM     15  C   UNL     1     137.716 -18.958  74.731  1.00  0.00     0.119 A 
ATOM     16  C   UNL     1     139.081 -18.830  75.007  1.00  0.00     0.093 A 
ATOM     17  C   UNL     1     139.526 -18.586  76.312  1.00  0.00     0.130 A 
BRANCH  15  18
ATOM     18  O   UNL     1     137.298 -19.196  73.425  1.00  0.00    -0.508 OA
ATOM     19  H   UNL     1     137.611 -20.010  72.908  1.00  0.00     0.293 HD
ENDBRANCH  15  18
BRANCH  17  20
ATOM     20  O   UNL     1     140.898 -18.431  76.523  1.00  0.00    -0.507 OA
ATOM     21  H   UNL     1     141.581 -19.122  76.240  1.00  0.00     0.293 HD
ENDBRANCH  17  20
ENDBRANCH   1  12
BRANCH   2  22
ATOM     22  O   UNL     1     138.923 -15.883  78.539  1.00  0.00    -0.502 OA
ATOM     23  H   UNL     1     137.990 -15.575  78.291  1.00  0.00     0.293 HD
ENDBRANCH   2  22
BRANCH   6  24
ATOM     24  O   UNL     1     140.163 -16.913  83.621  1.00  0.00    -0.507 OA
ATOM     25  H   UNL     1     139.358 -16.360  83.872  1.00  0.00     0.293 HD
ENDBRANCH   6  24
BRANCH   8  26
ATOM     26  O   UNL     1     140.643 -21.686  83.416  1.00  0.00    -0.508 OA
ATOM     27  H   UNL     1     140.698 -22.561  82.907  1.00  0.00     0.293 HD
ENDBRANCH   8  26
TORSDOF 6
ENDMDL
MODEL 5
REMARK VINA RESULT:    -7.803      1.944      6.424
REMARK INTER + INTRA:          -9.420
REMARK INTER:                  -9.133
REMARK INTRA:                  -0.288
REMARK UNBOUND:                -0.020
REMARK SMILES O=c1c(O)c(-c2ccc(O)cc2O)oc2cc(O)cc(O)c12
REMARK SMILES IDX 5 1 3 2 2 3 1 4 22 5 20 6 19 7 17 8 16 9 15 10 14 11 6 12
REMARK SMILES IDX 8 13 7 14 9 15 11 16 12 17 10 18 13 20 4 22 21 24 18 26
REMARK H PARENT 10 19 13 21 4 23 21 25 18 27
REMARK Flexibility Score: inf
ROOT
ATOM      1  C   UNL     1     139.642 -19.537  80.587  1.00  0.00     0.184 A 
ATOM      2  C   UNL     1     140.093 -19.651  81.910  1.00  0.00     0.208 A 
ATOM      3  C   UNL     1     139.630 -20.717  82.698  1.00  0.00     0.238 A 
ATOM      4  O   UNL     1     140.086 -20.850  83.864  1.00  0.00    -0.285 OA
ATOM      5  C   UNL     1     138.699 -21.638  82.159  1.00  0.00     0.111 A 
ATOM      6  C   UNL     1     138.132 -22.733  82.878  1.00  0.00     0.134 A 
ATOM      7  C   UNL     1     137.315 -23.651  82.206  1.00  0.00     0.093 A 
ATOM      8  C   UNL     1     136.993 -23.477  80.858  1.00  0.00     0.123 A 
ATOM      9  C   UNL     1     137.494 -22.380  80.163  1.00  0.00     0.094 A 
ATOM     10  C   UNL     1     138.342 -21.467  80.795  1.00  0.00     0.146 A 
ATOM     11  O   UNL     1     138.809 -20.443  80.091  1.00  0.00    -0.451 OA
ENDROOT
BRANCH   1  12
ATOM     12  C   UNL     1     140.076 -18.422  79.718  1.00  0.00     0.063 A 
ATOM     13  C   UNL     1     140.201 -16.027  79.309  1.00  0.00     0.047 A 
ATOM     14  C   UNL     1     139.850 -17.098  80.133  1.00  0.00     0.020 A 
ATOM     15  C   UNL     1     140.776 -16.263  78.055  1.00  0.00     0.119 A 
ATOM     16  C   UNL     1     141.003 -17.576  77.633  1.00  0.00     0.093 A 
ATOM     17  C   UNL     1     140.666 -18.658  78.455  1.00  0.00     0.130 A 
BRANCH  15  18
ATOM     18  O   UNL     1     141.124 -15.203  77.221  1.00  0.00    -0.508 OA
ATOM     19  H   UNL     1     141.482 -14.331  77.595  1.00  0.00     0.293 HD
ENDBRANCH  15  18
BRANCH  17  20
ATOM     20  O   UNL     1     140.949 -19.948  77.997  1.00  0.00    -0.507 OA
ATOM     21  H   UNL     1     141.281 -20.141  77.061  1.00  0.00     0.293 HD
ENDBRANCH  17  20
ENDBRANCH   1  12
BRANCH   2  22
ATOM     22  O   UNL     1     141.009 -18.725  82.418  1.00  0.00    -0.502 OA
ATOM     23  H   UNL     1     141.056 -17.770  82.084  1.00  0.00     0.293 HD
ENDBRANCH   2  22
BRANCH   6  24
ATOM     24  O   UNL     1     138.316 -22.948  84.247  1.00  0.00    -0.507 OA
ATOM     25  H   UNL     1     138.766 -22.300  84.876  1.00  0.00     0.293 HD
ENDBRANCH   6  24
BRANCH   8  26
ATOM     26  O   UNL     1     136.165 -24.387  80.202  1.00  0.00    -0.508 OA
ATOM     27  H   UNL     1     136.460 -25.341  80.026  1.00  0.00     0.293 HD
ENDBRANCH   8  26
TORSDOF 6
ENDMDL
MODEL 6
REMARK VINA RESULT:    -7.770      3.200      5.349
REMARK INTER + INTRA:          -9.380
REMARK INTER:                  -9.012
REMARK INTRA:                  -0.369
REMARK UNBOUND:                -0.020
REMARK SMILES O=c1c(O)c(-c2ccc(O)cc2O)oc2cc(O)cc(O)c12
REMARK SMILES IDX 5 1 3 2 2 3 1 4 22 5 20 6 19 7 17 8 16 9 15 10 14 11 6 12
REMARK SMILES IDX 8 13 7 14 9 15 11 16 12 17 10 18 13 20 4 22 21 24 18 26
REMARK H PARENT 10 19 13 21 4 23 21 25 18 27
REMARK Flexibility Score: inf
ROOT
ATOM      1  C   UNL     1     138.664 -19.844  77.807  1.00  0.00     0.184 A 
ATOM      2  C   UNL     1     139.376 -19.451  76.664  1.00  0.00     0.208 A 
ATOM      3  C   UNL     1     140.121 -18.261  76.701  1.00  0.00     0.238 A 
ATOM      4  O   UNL     1     140.807 -17.946  75.695  1.00  0.00    -0.285 OA
ATOM      5  C   UNL     1     140.120 -17.466  77.874  1.00  0.00     0.111 A 
ATOM      6  C   UNL     1     140.806 -16.222  78.011  1.00  0.00     0.134 A 
ATOM      7  C   UNL     1     140.834 -15.583  79.257  1.00  0.00     0.093 A 
ATOM      8  C   UNL     1     140.146 -16.110  80.353  1.00  0.00     0.123 A 
ATOM      9  C   UNL     1     139.425 -17.293  80.214  1.00  0.00     0.094 A 
ATOM     10  C   UNL     1     139.409 -17.974  78.994  1.00  0.00     0.146 A 
ATOM     11  O   UNL     1     138.720 -19.106  78.909  1.00  0.00    -0.451 OA
ENDROOT
BRANCH   1  12
ATOM     12  C   UNL     1     137.843 -21.073  77.818  1.00  0.00     0.063 A 
ATOM     13  C   UNL     1     137.641 -23.437  78.358  1.00  0.00     0.047 A 
ATOM     14  C   UNL     1     138.372 -22.248  78.381  1.00  0.00     0.020 A 
ATOM     15  C   UNL     1     136.373 -23.472  77.765  1.00  0.00     0.119 A 
ATOM     16  C   UNL     1     135.840 -22.310  77.201  1.00  0.00     0.093 A 
ATOM     17  C   UNL     1     136.558 -21.109  77.228  1.00  0.00     0.130 A 
BRANCH  15  18
ATOM     18  O   UNL     1     135.637 -24.654  77.731  1.00  0.00    -0.508 OA
ATOM     19  H   UNL     1     135.704 -25.297  76.950  1.00  0.00     0.293 HD
ENDBRANCH  15  18
BRANCH  17  20
ATOM     20  O   UNL     1     135.961 -19.970  76.682  1.00  0.00    -0.507 OA
ATOM     21  H   UNL     1     135.122 -20.004  76.117  1.00  0.00     0.293 HD
ENDBRANCH  17  20
ENDBRANCH   1  12
BRANCH   2  22
ATOM     22  O   UNL     1     139.357 -20.253  75.520  1.00  0.00    -0.502 OA
ATOM     23  H   UNL     1     138.740 -20.068  74.738  1.00  0.00     0.293 HD
ENDBRANCH   2  22
BRANCH   6  24
ATOM     24  O   UNL     1     141.448 -15.564  76.958  1.00  0.00    -0.507 OA
ATOM     25  H   UNL     1     141.202 -14.646  76.618  1.00  0.00     0.293 HD
ENDBRANCH   6  24
BRANCH   8  26
ATOM     26  O   UNL     1     140.166 -15.458  81.585  1.00  0.00    -0.508 OA
ATOM     27  H   UNL     1     139.355 -15.449  82.193  1.00  0.00     0.293 HD
ENDBRANCH   8  26
TORSDOF 6
ENDMDL
MODEL 7
REMARK VINA RESULT:    -7.736      3.017      6.202
REMARK INTER + INTRA:          -9.339
REMARK INTER:                  -8.923
REMARK INTRA:                  -0.416
REMARK UNBOUND:                -0.020
REMARK SMILES O=c1c(O)c(-c2ccc(O)cc2O)oc2cc(O)cc(O)c12
REMARK SMILES IDX 5 1 3 2 2 3 1 4 22 5 20 6 19 7 17 8 16 9 15 10 14 11 6 12
REMARK SMILES IDX 8 13 7 14 9 15 11 16 12 17 10 18 13 20 4 22 21 24 18 26
REMARK H PARENT 10 19 13 21 4 23 21 25 18 27
REMARK Flexibility Score: inf
ROOT
ATOM      1  C   UNL     1     139.689 -17.582  77.929  1.00  0.00     0.184 A 
ATOM      2  C   UNL     1     138.784 -17.562  76.857  1.00  0.00     0.208 A 
ATOM      3  C   UNL     1     137.867 -18.616  76.719  1.00  0.00     0.238 A 
ATOM      4  O   UNL     1     137.019 -18.561  75.791  1.00  0.00    -0.285 OA
ATOM      5  C   UNL     1     137.888 -19.691  77.641  1.00  0.00     0.111 A 
ATOM      6  C   UNL     1     137.032 -20.832  77.575  1.00  0.00     0.134 A 
ATOM      7  C   UNL     1     137.058 -21.774  78.611  1.00  0.00     0.093 A 
ATOM      8  C   UNL     1     137.953 -21.651  79.676  1.00  0.00     0.123 A 
ATOM      9  C   UNL     1     138.833 -20.573  79.719  1.00  0.00     0.094 A 
ATOM     10  C   UNL     1     138.806 -19.596  78.720  1.00  0.00     0.146 A 
ATOM     11  O   UNL     1     139.652 -18.576  78.807  1.00  0.00    -0.451 OA
ENDROOT
BRANCH   1  12
ATOM     12  C   UNL     1     140.692 -16.512  78.111  1.00  0.00     0.063 A 
ATOM     13  C   UNL     1     142.967 -15.711  77.784  1.00  0.00     0.047 A 
ATOM     14  C   UNL     1     141.983 -16.681  77.581  1.00  0.00     0.020 A 
ATOM     15  C   UNL     1     142.677 -14.561  78.527  1.00  0.00     0.119 A 
ATOM     16  C   UNL     1     141.397 -14.384  79.060  1.00  0.00     0.093 A 
ATOM     17  C   UNL     1     140.399 -15.344  78.854  1.00  0.00     0.130 A 
BRANCH  15  18
ATOM     18  O   UNL     1     143.651 -13.589  78.741  1.00  0.00    -0.508 OA
ATOM     19  H   UNL     1     144.031 -13.042  77.977  1.00  0.00     0.293 HD
ENDBRANCH  15  18
BRANCH  17  20
ATOM     20  O   UNL     1     139.128 -15.098  79.379  1.00  0.00    -0.507 OA
ATOM     21  H   UNL     1     138.676 -14.195  79.330  1.00  0.00     0.293 HD
ENDBRANCH  17  20
ENDBRANCH   1  12
BRANCH   2  22
ATOM     22  O   UNL     1     138.790 -16.490  75.960  1.00  0.00    -0.502 OA
ATOM     23  H   UNL     1     138.773 -15.525  76.268  1.00  0.00     0.293 HD
ENDBRANCH   2  22
BRANCH   6  24
ATOM     24  O   UNL     1     136.165 -21.098  76.512  1.00  0.00    -0.507 OA
ATOM     25  H   UNL     1     136.128 -20.569  75.653  1.00  0.00     0.293 HD
ENDBRANCH   6  24
BRANCH   8  26
ATOM     26  O   UNL     1     137.983 -22.603  80.693  1.00  0.00    -0.508 OA
ATOM     27  H   UNL     1     137.387 -23.422  80.671  1.00  0.00     0.293 HD
ENDBRANCH   8  26
TORSDOF 6
ENDMDL
MODEL 8
REMARK VINA RESULT:    -7.619      3.363      5.074
REMARK INTER + INTRA:          -9.198
REMARK INTER:                  -8.834
REMARK INTRA:                  -0.364
REMARK UNBOUND:                -0.020
REMARK SMILES O=c1c(O)c(-c2ccc(O)cc2O)oc2cc(O)cc(O)c12
REMARK SMILES IDX 5 1 3 2 2 3 1 4 22 5 20 6 19 7 17 8 16 9 15 10 14 11 6 12
REMARK SMILES IDX 8 13 7 14 9 15 11 16 12 17 10 18 13 20 4 22 21 24 18 26
REMARK H PARENT 10 19 13 21 4 23 21 25 18 27
REMARK Flexibility Score: inf
ROOT
ATOM      1  C   UNL     1     138.261 -20.073  78.054  1.00  0.00     0.184 A 
ATOM      2  C   UNL     1     139.517 -20.424  77.538  1.00  0.00     0.208 A 
ATOM      3  C   UNL     1     140.456 -19.412  77.282  1.00  0.00     0.238 A 
ATOM      4  O   UNL     1     141.602 -19.739  76.878  1.00  0.00    -0.285 OA
ATOM      5  C   UNL     1     140.114 -18.058  77.521  1.00  0.00     0.111 A 
ATOM      6  C   UNL     1     140.971 -16.947  77.261  1.00  0.00     0.134 A 
ATOM      7  C   UNL     1     140.573 -15.662  77.650  1.00  0.00     0.093 A 
ATOM      8  C   UNL     1     139.322 -15.440  78.230  1.00  0.00     0.123 A 
ATOM      9  C   UNL     1     138.454 -16.509  78.434  1.00  0.00     0.094 A 
ATOM     10  C   UNL     1     138.837 -17.808  78.091  1.00  0.00     0.146 A 
ATOM     11  O   UNL     1     137.985 -18.801  78.316  1.00  0.00    -0.451 OA
ENDROOT
BRANCH   1  12
ATOM     12  C   UNL     1     137.225 -21.093  78.320  1.00  0.00     0.063 A 
ATOM     13  C   UNL     1     135.146 -22.172  77.660  1.00  0.00     0.047 A 
ATOM     14  C   UNL     1     136.168 -21.254  77.407  1.00  0.00     0.020 A 
ATOM     15  C   UNL     1     135.161 -22.936  78.832  1.00  0.00     0.119 A 
ATOM     16  C   UNL     1     136.206 -22.781  79.747  1.00  0.00     0.093 A 
ATOM     17  C   UNL     1     137.242 -21.873  79.500  1.00  0.00     0.130 A 
BRANCH  15  18
ATOM     18  O   UNL     1     134.144 -23.850  79.098  1.00  0.00    -0.508 OA
ATOM     19  H   UNL     1     133.235 -23.549  79.431  1.00  0.00     0.293 HD
ENDBRANCH  15  18
BRANCH  17  20
ATOM     20  O   UNL     1     138.280 -21.786  80.432  1.00  0.00    -0.507 OA
ATOM     21  H   UNL     1     138.671 -22.593  80.900  1.00  0.00     0.293 HD
ENDBRANCH  17  20
ENDBRANCH   1  12
BRANCH   2  22
ATOM     22  O   UNL     1     139.826 -21.768  77.309  1.00  0.00    -0.502 OA
ATOM     23  H   UNL     1     139.171 -22.409  76.879  1.00  0.00     0.293 HD
ENDBRANCH   2  22
BRANCH   6  24
ATOM     24  O   UNL     1     142.202 -17.046  76.605  1.00  0.00    -0.507 OA
ATOM     25  H   UNL     1     142.403 -17.687  75.852  1.00  0.00     0.293 HD
ENDBRANCH   6  24
BRANCH   8  26
ATOM     26  O   UNL     1     138.927 -14.155  78.599  1.00  0.00    -0.508 OA
ATOM     27  H   UNL     1     137.949 -13.901  78.671  1.00  0.00     0.293 HD
ENDBRANCH   8  26
TORSDOF 6
ENDMDL
MODEL 9
REMARK VINA RESULT:    -7.519      2.773      6.858
REMARK INTER + INTRA:          -9.077
REMARK INTER:                  -8.693
REMARK INTRA:                  -0.384
REMARK UNBOUND:                -0.020
REMARK SMILES O=c1c(O)c(-c2ccc(O)cc2O)oc2cc(O)cc(O)c12
REMARK SMILES IDX 5 1 3 2 2 3 1 4 22 5 20 6 19 7 17 8 16 9 15 10 14 11 6 12
REMARK SMILES IDX 8 13 7 14 9 15 11 16 12 17 10 18 13 20 4 22 21 24 18 26
REMARK H PARENT 10 19 13 21 4 23 21 25 18 27
REMARK Flexibility Score: inf
ROOT
ATOM      1  C   UNL     1     139.155 -20.248  78.717  1.00  0.00     0.184 A 
ATOM      2  C   UNL     1     139.416 -19.965  80.065  1.00  0.00     0.208 A 
ATOM      3  C   UNL     1     138.850 -20.783  81.056  1.00  0.00     0.238 A 
ATOM      4  O   UNL     1     139.138 -20.560  82.261  1.00  0.00    -0.285 OA
ATOM      5  C   UNL     1     138.007 -21.858  80.683  1.00  0.00     0.111 A 
ATOM      6  C   UNL     1     137.347 -22.728  81.603  1.00  0.00     0.134 A 
ATOM      7  C   UNL     1     136.636 -23.832  81.119  1.00  0.00     0.093 A 
ATOM      8  C   UNL     1     136.505 -24.061  79.747  1.00  0.00     0.123 A 
ATOM      9  C   UNL     1     137.096 -23.185  78.840  1.00  0.00     0.094 A 
ATOM     10  C   UNL     1     137.844 -22.096  79.292  1.00  0.00     0.146 A 
ATOM     11  O   UNL     1     138.402 -21.293  78.394  1.00  0.00    -0.451 OA
ENDROOT
BRANCH   1  12
ATOM     12  C   UNL     1     139.704 -19.408  77.632  1.00  0.00     0.063 A 
ATOM     13  C   UNL     1     141.569 -18.847  76.172  1.00  0.00     0.047 A 
ATOM     14  C   UNL     1     141.004 -19.658  77.158  1.00  0.00     0.020 A 
ATOM     15  C   UNL     1     140.845 -17.769  75.649  1.00  0.00     0.119 A 
ATOM     16  C   UNL     1     139.552 -17.511  76.115  1.00  0.00     0.093 A 
ATOM     17  C   UNL     1     138.972 -18.324  77.095  1.00  0.00     0.130 A 
BRANCH  15  18
ATOM     18  O   UNL     1     141.399 -16.949  74.669  1.00  0.00    -0.508 OA
ATOM     19  H   UNL     1     141.791 -16.041  74.897  1.00  0.00     0.293 HD
ENDBRANCH  15  18
BRANCH  17  20
ATOM     20  O   UNL     1     137.664 -18.041  77.497  1.00  0.00    -0.507 OA
ATOM     21  H   UNL     1     137.393 -17.944  78.467  1.00  0.00     0.293 HD
ENDBRANCH  17  20
ENDBRANCH   1  12
BRANCH   2  22
ATOM     22  O   UNL     1     140.249 -18.895  80.404  1.00  0.00    -0.502 OA
ATOM     23  H   UNL     1     141.224 -18.859  80.132  1.00  0.00     0.293 HD
ENDBRANCH   2  22
BRANCH   6  24
ATOM     24  O   UNL     1     137.338 -22.538  82.988  1.00  0.00    -0.507 OA
ATOM     25  H   UNL     1     137.984 -21.950  83.493  1.00  0.00     0.293 HD
ENDBRANCH   6  24
BRANCH   8  26
ATOM     26  O   UNL     1     135.781 -25.154  79.274  1.00  0.00    -0.508 OA
ATOM     27  H   UNL     1     135.733 -25.371  78.285  1.00  0.00     0.293 HD
ENDBRANCH   8  26
TORSDOF 6
ENDMDL
