MODEL 1
REMARK VINA RESULT:    -4.417      0.000      0.000
REMARK INTER + INTRA:         -13.675
REMARK INTER:                  -9.582
REMARK INTRA:                  -4.093
REMARK UNBOUND:                -4.093
REMARK SMILES CCCCCCCCCCCCCCCCCCCCCC(=O)[O-]
REMARK SMILES IDX 12 1 11 2 10 3 9 4 8 5 7 6 6 7 5 8 4 9 3 10 2 11 1 12 13 13
REMARK SMILES IDX 14 14 15 15 16 16 17 17 18 18 19 19 20 20 21 21 22 22 23 23
REMARK SMILES IDX 24 24
REMARK H PARENT
REMARK Flexibility Score: inf
ROOT
ATOM      1  C   UNL     1      19.816  -4.177  22.491  1.00  0.00     0.000 C 
ENDROOT
BRANCH   1   2
ATOM      2  C   UNL     1      19.352  -5.641  22.375  1.00  0.00     0.000 C 
BRANCH   2   3
ATOM      3  C   UNL     1      19.131  -6.080  20.917  1.00  0.00     0.000 C 
BRANCH   3   4
ATOM      4  C   UNL     1      20.404  -5.963  20.064  1.00  0.00    -0.000 C 
BRANCH   4   5
ATOM      5  C   UNL     1      20.104  -5.920  18.555  1.00  0.00    -0.000 C 
BRANCH   5   6
ATOM      6  C   UNL     1      20.791  -4.741  17.842  1.00  0.00    -0.000 C 
BRANCH   6   7
ATOM      7  C   UNL     1      21.197  -3.571  18.757  1.00  0.00    -0.000 C 
BRANCH   7   8
ATOM      8  C   UNL     1      20.516  -2.249  18.376  1.00  0.00    -0.000 C 
BRANCH   8   9
ATOM      9  C   UNL     1      19.802  -1.632  19.588  1.00  0.00    -0.000 C 
BRANCH   9  10
ATOM     10  C   UNL     1      18.268  -1.646  19.451  1.00  0.00    -0.000 C 
BRANCH  10  11
ATOM     11  C   UNL     1      17.599  -2.986  19.811  1.00  0.00    -0.003 C 
ATOM     12  C   UNL     1      17.011  -3.706  18.598  1.00  0.00     0.004 C 
ENDBRANCH  10  11
ENDBRANCH   9  10
ENDBRANCH   8   9
ENDBRANCH   7   8
ENDBRANCH   6   7
ENDBRANCH   5   6
ENDBRANCH   4   5
ENDBRANCH   3   4
ENDBRANCH   2   3
ENDBRANCH   1   2
BRANCH   1  13
ATOM     13  C   UNL     1      21.202  -3.980  23.139  1.00  0.00     0.000 C 
BRANCH  13  14
ATOM     14  C   UNL     1      22.289  -3.415  22.202  1.00  0.00     0.000 C 
BRANCH  14  15
ATOM     15  C   UNL     1      22.400  -1.877  22.194  1.00  0.00     0.000 C 
BRANCH  15  16
ATOM     16  C   UNL     1      22.153  -1.198  23.555  1.00  0.00     0.000 C 
BRANCH  16  17
ATOM     17  C   UNL     1      21.118  -0.058  23.534  1.00  0.00     0.000 C 
BRANCH  17  18
ATOM     18  C   UNL     1      19.774  -0.462  24.158  1.00  0.00     0.000 C 
BRANCH  18  19
ATOM     19  C   UNL     1      18.760  -0.854  23.074  1.00  0.00     0.000 C 
BRANCH  19  20
ATOM     20  C   UNL     1      17.360  -1.158  23.637  1.00  0.00     0.006 C 
BRANCH  20  21
ATOM     21  C   UNL     1      17.355  -1.531  25.131  1.00  0.00     0.053 C 
BRANCH  21  22
ATOM     22  C   UNL     1      17.071  -2.985  25.364  1.00  0.00     0.041 C 
ATOM     23  O   UNL     1      18.016  -3.796  25.548  1.00  0.00    -0.550 OA
ATOM     24  O   UNL     1      15.762  -3.450  25.340  1.00  0.00    -0.550 OA
ENDBRANCH  21  22
ENDBRANCH  20  21
ENDBRANCH  19  20
ENDBRANCH  18  19
ENDBRANCH  17  18
ENDBRANCH  16  17
ENDBRANCH  15  16
ENDBRANCH  14  15
ENDBRANCH  13  14
ENDBRANCH   1  13
TORSDOF 20
ENDMDL
MODEL 2
REMARK VINA RESULT:    -4.413     10.639     13.555
REMARK INTER + INTRA:         -13.666
REMARK INTER:                 -11.280
REMARK INTRA:                  -2.386
REMARK UNBOUND:                -4.093
REMARK SMILES CCCCCCCCCCCCCCCCCCCCCC(=O)[O-]
REMARK SMILES IDX 12 1 11 2 10 3 9 4 8 5 7 6 6 7 5 8 4 9 3 10 2 11 1 12 13 13
REMARK SMILES IDX 14 14 15 15 16 16 17 17 18 18 19 19 20 20 21 21 22 22 23 23
REMARK SMILES IDX 24 24
REMARK H PARENT
REMARK Flexibility Score: inf
ROOT
ATOM      1  C   UNL     1       5.750   1.763  15.089  1.00  0.00     0.000 C 
ENDROOT
BRANCH   1   2
ATOM      2  C   UNL     1       5.483   1.072  16.438  1.00  0.00     0.000 C 
BRANCH   2   3
ATOM      3  C   UNL     1       6.491  -0.050  16.741  1.00  0.00     0.000 C 
BRANCH   3   4
ATOM      4  C   UNL     1       7.008  -0.005  18.188  1.00  0.00    -0.000 C 
BRANCH   4   5
ATOM      5  C   UNL     1       8.521  -0.271  18.285  1.00  0.00    -0.000 C 
BRANCH   5   6
ATOM      6  C   UNL     1       9.011  -1.313  17.263  1.00  0.00    -0.000 C 
BRANCH   6   7
ATOM      7  C   UNL     1       8.591  -2.765  17.557  1.00  0.00    -0.000 C 
BRANCH   7   8
ATOM      8  C   UNL     1       9.256  -3.782  16.619  1.00  0.00    -0.000 C 
BRANCH   8   9
ATOM      9  C   UNL     1      10.571  -3.227  16.051  1.00  0.00    -0.000 C 
BRANCH   9  10
ATOM     10  C   UNL     1      11.696  -4.277  16.008  1.00  0.00    -0.000 C 
BRANCH  10  11
ATOM     11  C   UNL     1      13.100  -3.709  15.728  1.00  0.00    -0.003 C 
ATOM     12  C   UNL     1      14.205  -4.443  16.487  1.00  0.00     0.004 C 
ENDBRANCH  10  11
ENDBRANCH   9  10
ENDBRANCH   8   9
ENDBRANCH   7   8
ENDBRANCH   6   7
ENDBRANCH   5   6
ENDBRANCH   4   5
ENDBRANCH   3   4
ENDBRANCH   2   3
ENDBRANCH   1   2
BRANCH   1  13
ATOM     13  C   UNL     1       7.090   1.396  14.420  1.00  0.00     0.000 C 
BRANCH  13  14
ATOM     14  C   UNL     1       8.224   2.422  14.619  1.00  0.00     0.000 C 
BRANCH  14  15
ATOM     15  C   UNL     1       7.759   3.889  14.715  1.00  0.00     0.000 C 
BRANCH  15  16
ATOM     16  C   UNL     1       8.070   4.586  16.055  1.00  0.00     0.000 C 
BRANCH  16  17
ATOM     17  C   UNL     1       7.939   3.688  17.299  1.00  0.00     0.000 C 
BRANCH  17  18
ATOM     18  C   UNL     1       7.085   4.325  18.405  1.00  0.00     0.000 C 
BRANCH  18  19
ATOM     19  C   UNL     1       6.813   3.322  19.535  1.00  0.00     0.000 C 
BRANCH  19  20
ATOM     20  C   UNL     1       7.978   3.207  20.535  1.00  0.00     0.006 C 
BRANCH  20  21
ATOM     21  C   UNL     1       8.546   4.564  20.991  1.00  0.00     0.053 C 
BRANCH  21  22
ATOM     22  C   UNL     1       7.671   5.249  21.997  1.00  0.00     0.041 C 
ATOM     23  O   UNL     1       7.602   4.818  23.178  1.00  0.00    -0.550 OA
ATOM     24  O   UNL     1       6.900   6.342  21.619  1.00  0.00    -0.550 OA
ENDBRANCH  21  22
ENDBRANCH  20  21
ENDBRANCH  19  20
ENDBRANCH  18  19
ENDBRANCH  17  18
ENDBRANCH  16  17
ENDBRANCH  15  16
ENDBRANCH  14  15
ENDBRANCH  13  14
ENDBRANCH   1  13
TORSDOF 20
ENDMDL
MODEL 3
REMARK VINA RESULT:    -4.373      2.352      5.496
REMARK INTER + INTRA:         -13.579
REMARK INTER:                  -9.546
REMARK INTRA:                  -4.033
REMARK UNBOUND:                -4.093
REMARK SMILES CCCCCCCCCCCCCCCCCCCCCC(=O)[O-]
REMARK SMILES IDX 12 1 11 2 10 3 9 4 8 5 7 6 6 7 5 8 4 9 3 10 2 11 1 12 13 13
REMARK SMILES IDX 14 14 15 15 16 16 17 17 18 18 19 19 20 20 21 21 22 22 23 23
REMARK SMILES IDX 24 24
REMARK H PARENT
REMARK Flexibility Score: inf
ROOT
ATOM      1  C   UNL     1      19.395  -4.686  21.798  1.00  0.00     0.000 C 
ENDROOT
BRANCH   1   2
ATOM      2  C   UNL     1      19.794  -4.945  23.262  1.00  0.00     0.000 C 
BRANCH   2   3
ATOM      3  C   UNL     1      21.176  -4.367  23.614  1.00  0.00     0.000 C 
BRANCH   3   4
ATOM      4  C   UNL     1      22.037  -4.095  22.370  1.00  0.00    -0.000 C 
BRANCH   4   5
ATOM      5  C   UNL     1      22.350  -2.600  22.181  1.00  0.00    -0.000 C 
BRANCH   5   6
ATOM      6  C   UNL     1      21.705  -1.713  23.262  1.00  0.00    -0.000 C 
BRANCH   6   7
ATOM      7  C   UNL     1      20.925  -0.498  22.729  1.00  0.00    -0.000 C 
BRANCH   7   8
ATOM      8  C   UNL     1      19.403  -0.700  22.766  1.00  0.00    -0.000 C 
BRANCH   8   9
ATOM      9  C   UNL     1      18.944  -1.147  24.162  1.00  0.00    -0.000 C 
BRANCH   9  10
ATOM     10  C   UNL     1      17.653  -1.987  24.128  1.00  0.00    -0.000 C 
BRANCH  10  11
ATOM     11  C   UNL     1      17.429  -2.877  25.365  1.00  0.00    -0.003 C 
ATOM     12  C   UNL     1      16.549  -4.093  25.076  1.00  0.00     0.004 C 
ENDBRANCH  10  11
ENDBRANCH   9  10
ENDBRANCH   8   9
ENDBRANCH   7   8
ENDBRANCH   6   7
ENDBRANCH   5   6
ENDBRANCH   4   5
ENDBRANCH   3   4
ENDBRANCH   2   3
ENDBRANCH   1   2
BRANCH   1  13
ATOM     13  C   UNL     1      19.062  -5.949  20.978  1.00  0.00     0.000 C 
BRANCH  13  14
ATOM     14  C   UNL     1      20.187  -6.438  20.043  1.00  0.00     0.000 C 
BRANCH  14  15
ATOM     15  C   UNL     1      19.922  -6.219  18.540  1.00  0.00     0.000 C 
BRANCH  15  16
ATOM     16  C   UNL     1      20.872  -5.220  17.850  1.00  0.00     0.000 C 
BRANCH  16  17
ATOM     17  C   UNL     1      21.914  -4.569  18.777  1.00  0.00     0.000 C 
BRANCH  17  18
ATOM     18  C   UNL     1      22.164  -3.090  18.445  1.00  0.00     0.000 C 
BRANCH  18  19
ATOM     19  C   UNL     1      20.848  -2.369  18.120  1.00  0.00     0.000 C 
BRANCH  19  20
ATOM     20  C   UNL     1      20.065  -1.947  19.377  1.00  0.00     0.006 C 
BRANCH  20  21
ATOM     21  C   UNL     1      18.546  -1.827  19.156  1.00  0.00     0.053 C 
BRANCH  21  22
ATOM     22  C   UNL     1      18.078  -0.403  19.111  1.00  0.00     0.041 C 
ATOM     23  O   UNL     1      18.888   0.538  19.318  1.00  0.00    -0.550 OA
ATOM     24  O   UNL     1      16.738  -0.118  18.879  1.00  0.00    -0.550 OA
ENDBRANCH  21  22
ENDBRANCH  20  21
ENDBRANCH  19  20
ENDBRANCH  18  19
ENDBRANCH  17  18
ENDBRANCH  16  17
ENDBRANCH  15  16
ENDBRANCH  14  15
ENDBRANCH  13  14
ENDBRANCH   1  13
TORSDOF 20
ENDMDL
MODEL 4
REMARK VINA RESULT:    -4.321     13.422     15.817
REMARK INTER + INTRA:         -13.467
REMARK INTER:                 -10.202
REMARK INTRA:                  -3.265
REMARK UNBOUND:                -4.093
REMARK SMILES CCCCCCCCCCCCCCCCCCCCCC(=O)[O-]
REMARK SMILES IDX 12 1 11 2 10 3 9 4 8 5 7 6 6 7 5 8 4 9 3 10 2 11 1 12 13 13
REMARK SMILES IDX 14 14 15 15 16 16 17 17 18 18 19 19 20 20 21 21 22 22 23 23
REMARK SMILES IDX 24 24
REMARK H PARENT
REMARK Flexibility Score: inf
ROOT
ATOM      1  C   UNL     1      15.989   1.534   9.972  1.00  0.00     0.000 C 
ENDROOT
BRANCH   1   2
ATOM      2  C   UNL     1      14.963   0.572   9.347  1.00  0.00     0.000 C 
BRANCH   2   3
ATOM      3  C   UNL     1      14.006   1.277   8.369  1.00  0.00     0.000 C 
BRANCH   3   4
ATOM      4  C   UNL     1      14.489   2.683   7.980  1.00  0.00    -0.000 C 
BRANCH   4   5
ATOM      5  C   UNL     1      14.003   3.111   6.584  1.00  0.00    -0.000 C 
BRANCH   5   6
ATOM      6  C   UNL     1      13.986   4.639   6.399  1.00  0.00    -0.000 C 
BRANCH   6   7
ATOM      7  C   UNL     1      13.346   5.430   7.556  1.00  0.00    -0.000 C 
BRANCH   7   8
ATOM      8  C   UNL     1      12.279   6.427   7.081  1.00  0.00    -0.000 C 
BRANCH   8   9
ATOM      9  C   UNL     1      10.868   5.915   7.405  1.00  0.00    -0.000 C 
BRANCH   9  10
ATOM     10  C   UNL     1      10.179   5.250   6.198  1.00  0.00    -0.000 C 
BRANCH  10  11
ATOM     11  C   UNL     1       9.910   3.742   6.357  1.00  0.00    -0.003 C 
ATOM     12  C   UNL     1      10.379   3.190   7.703  1.00  0.00     0.004 C 
ENDBRANCH  10  11
ENDBRANCH   9  10
ENDBRANCH   8   9
ENDBRANCH   7   8
ENDBRANCH   6   7
ENDBRANCH   5   6
ENDBRANCH   4   5
ENDBRANCH   3   4
ENDBRANCH   2   3
ENDBRANCH   1   2
BRANCH   1  13
ATOM     13  C   UNL     1      16.025   1.539  11.515  1.00  0.00     0.000 C 
BRANCH  13  14
ATOM     14  C   UNL     1      15.769   2.911  12.170  1.00  0.00     0.000 C 
BRANCH  14  15
ATOM     15  C   UNL     1      14.858   3.855  11.361  1.00  0.00     0.000 C 
BRANCH  15  16
ATOM     16  C   UNL     1      13.399   3.934  11.855  1.00  0.00     0.000 C 
BRANCH  16  17
ATOM     17  C   UNL     1      12.338   3.992  10.740  1.00  0.00     0.000 C 
BRANCH  17  18
ATOM     18  C   UNL     1      11.082   4.771  11.154  1.00  0.00     0.000 C 
BRANCH  18  19
ATOM     19  C   UNL     1      11.315   6.285  11.049  1.00  0.00     0.000 C 
BRANCH  19  20
ATOM     20  C   UNL     1      10.561   7.088  12.125  1.00  0.00     0.006 C 
BRANCH  20  21
ATOM     21  C   UNL     1      10.569   6.429  13.517  1.00  0.00     0.053 C 
BRANCH  21  22
ATOM     22  C   UNL     1       9.195   6.056  13.989  1.00  0.00     0.041 C 
ATOM     23  O   UNL     1       8.916   6.086  15.216  1.00  0.00    -0.550 OA
ATOM     24  O   UNL     1       8.235   5.639  13.075  1.00  0.00    -0.550 OA
ENDBRANCH  21  22
ENDBRANCH  20  21
ENDBRANCH  19  20
ENDBRANCH  18  19
ENDBRANCH  17  18
ENDBRANCH  16  17
ENDBRANCH  15  16
ENDBRANCH  14  15
ENDBRANCH  13  14
ENDBRANCH   1  13
TORSDOF 20
ENDMDL
MODEL 5
REMARK VINA RESULT:    -4.262      2.664      5.080
REMARK INTER + INTRA:         -13.339
REMARK INTER:                  -9.384
REMARK INTRA:                  -3.955
REMARK UNBOUND:                -4.093
REMARK SMILES CCCCCCCCCCCCCCCCCCCCCC(=O)[O-]
REMARK SMILES IDX 12 1 11 2 10 3 9 4 8 5 7 6 6 7 5 8 4 9 3 10 2 11 1 12 13 13
REMARK SMILES IDX 14 14 15 15 16 16 17 17 18 18 19 19 20 20 21 21 22 22 23 23
REMARK SMILES IDX 24 24
REMARK H PARENT
REMARK Flexibility Score: inf
ROOT
ATOM      1  C   UNL     1      16.717  -2.361  24.283  1.00  0.00     0.000 C 
ENDROOT
BRANCH   1   2
ATOM      2  C   UNL     1      17.198  -2.988  25.604  1.00  0.00     0.000 C 
BRANCH   2   3
ATOM      3  C   UNL     1      18.341  -3.998  25.402  1.00  0.00     0.000 C 
BRANCH   3   4
ATOM      4  C   UNL     1      19.274  -3.610  24.243  1.00  0.00    -0.000 C 
BRANCH   4   5
ATOM      5  C   UNL     1      19.921  -4.832  23.568  1.00  0.00    -0.000 C 
BRANCH   5   6
ATOM      6  C   UNL     1      19.534  -4.971  22.085  1.00  0.00    -0.000 C 
BRANCH   6   7
ATOM      7  C   UNL     1      18.341  -4.106  21.637  1.00  0.00    -0.000 C 
BRANCH   7   8
ATOM      8  C   UNL     1      18.768  -2.856  20.853  1.00  0.00    -0.000 C 
BRANCH   8   9
ATOM      9  C   UNL     1      17.881  -2.657  19.615  1.00  0.00    -0.000 C 
BRANCH   9  10
ATOM     10  C   UNL     1      17.905  -1.210  19.087  1.00  0.00    -0.000 C 
BRANCH  10  11
ATOM     11  C   UNL     1      19.098  -0.365  19.572  1.00  0.00    -0.003 C 
ATOM     12  C   UNL     1      18.748   1.110  19.762  1.00  0.00     0.004 C 
ENDBRANCH  10  11
ENDBRANCH   9  10
ENDBRANCH   8   9
ENDBRANCH   7   8
ENDBRANCH   6   7
ENDBRANCH   5   6
ENDBRANCH   4   5
ENDBRANCH   3   4
ENDBRANCH   2   3
ENDBRANCH   1   2
BRANCH   1  13
ATOM     13  C   UNL     1      16.710  -0.818  24.256  1.00  0.00     0.000 C 
BRANCH  13  14
ATOM     14  C   UNL     1      17.712  -0.177  23.276  1.00  0.00     0.000 C 
BRANCH  14  15
ATOM     15  C   UNL     1      19.113   0.090  23.864  1.00  0.00     0.000 C 
BRANCH  15  16
ATOM     16  C   UNL     1      20.289  -0.244  22.925  1.00  0.00     0.000 C 
BRANCH  16  17
ATOM     17  C   UNL     1      21.657  -0.375  23.618  1.00  0.00     0.000 C 
BRANCH  17  18
ATOM     18  C   UNL     1      22.400  -1.663  23.232  1.00  0.00     0.000 C 
BRANCH  18  19
ATOM     19  C   UNL     1      22.208  -1.982  21.742  1.00  0.00     0.000 C 
BRANCH  19  20
ATOM     20  C   UNL     1      22.720  -3.381  21.354  1.00  0.00     0.006 C 
BRANCH  20  21
ATOM     21  C   UNL     1      23.097  -3.518  19.867  1.00  0.00     0.053 C 
BRANCH  21  22
ATOM     22  C   UNL     1      21.897  -3.557  18.968  1.00  0.00     0.041 C 
ATOM     23  O   UNL     1      21.551  -2.531  18.326  1.00  0.00    -0.550 OA
ATOM     24  O   UNL     1      21.140  -4.718  18.868  1.00  0.00    -0.550 OA
ENDBRANCH  21  22
ENDBRANCH  20  21
ENDBRANCH  19  20
ENDBRANCH  18  19
ENDBRANCH  17  18
ENDBRANCH  16  17
ENDBRANCH  15  16
ENDBRANCH  14  15
ENDBRANCH  13  14
ENDBRANCH   1  13
TORSDOF 20
ENDMDL
MODEL 6
REMARK VINA RESULT:    -4.258      2.315      5.292
REMARK INTER + INTRA:         -13.329
REMARK INTER:                  -9.260
REMARK INTRA:                  -4.069
REMARK UNBOUND:                -4.093
REMARK SMILES CCCCCCCCCCCCCCCCCCCCCC(=O)[O-]
REMARK SMILES IDX 12 1 11 2 10 3 9 4 8 5 7 6 6 7 5 8 4 9 3 10 2 11 1 12 13 13
REMARK SMILES IDX 14 14 15 15 16 16 17 17 18 18 19 19 20 20 21 21 22 22 23 23
REMARK SMILES IDX 24 24
REMARK H PARENT
REMARK Flexibility Score: inf
ROOT
ATOM      1  C   UNL     1      18.759  -3.729  23.459  1.00  0.00     0.000 C 
ENDROOT
BRANCH   1   2
ATOM      2  C   UNL     1      17.366  -4.376  23.564  1.00  0.00     0.000 C 
BRANCH   2   3
ATOM      3  C   UNL     1      16.572  -3.883  24.786  1.00  0.00     0.000 C 
BRANCH   3   4
ATOM      4  C   UNL     1      17.357  -2.868  25.632  1.00  0.00    -0.000 C 
BRANCH   4   5
ATOM      5  C   UNL     1      16.721  -1.468  25.619  1.00  0.00    -0.000 C 
BRANCH   5   6
ATOM      6  C   UNL     1      17.730  -0.355  25.281  1.00  0.00    -0.000 C 
BRANCH   6   7
ATOM      7  C   UNL     1      17.442   0.415  23.979  1.00  0.00    -0.000 C 
BRANCH   7   8
ATOM      8  C   UNL     1      17.929  -0.325  22.725  1.00  0.00    -0.000 C 
BRANCH   8   9
ATOM      9  C   UNL     1      16.743  -0.881  21.922  1.00  0.00    -0.000 C 
BRANCH   9  10
ATOM     10  C   UNL     1      17.182  -1.761  20.736  1.00  0.00    -0.000 C 
BRANCH  10  11
ATOM     11  C   UNL     1      18.675  -1.654  20.370  1.00  0.00    -0.003 C 
ATOM     12  C   UNL     1      18.919  -0.875  19.078  1.00  0.00     0.004 C 
ENDBRANCH  10  11
ENDBRANCH   9  10
ENDBRANCH   8   9
ENDBRANCH   7   8
ENDBRANCH   6   7
ENDBRANCH   5   6
ENDBRANCH   4   5
ENDBRANCH   3   4
ENDBRANCH   2   3
ENDBRANCH   1   2
BRANCH   1  13
ATOM     13  C   UNL     1      19.931  -4.625  23.910  1.00  0.00     0.000 C 
BRANCH  13  14
ATOM     14  C   UNL     1      21.245  -3.878  24.217  1.00  0.00     0.000 C 
BRANCH  14  15
ATOM     15  C   UNL     1      21.244  -2.384  23.836  1.00  0.00     0.000 C 
BRANCH  15  16
ATOM     16  C   UNL     1      22.270  -1.986  22.756  1.00  0.00     0.000 C 
BRANCH  16  17
ATOM     17  C   UNL     1      21.956  -2.503  21.340  1.00  0.00     0.000 C 
BRANCH  17  18
ATOM     18  C   UNL     1      22.840  -3.690  20.930  1.00  0.00     0.000 C 
BRANCH  18  19
ATOM     19  C   UNL     1      22.003  -4.966  20.764  1.00  0.00     0.000 C 
BRANCH  19  20
ATOM     20  C   UNL     1      20.777  -4.770  19.853  1.00  0.00     0.006 C 
BRANCH  20  21
ATOM     21  C   UNL     1      19.528  -5.543  20.312  1.00  0.00     0.053 C 
BRANCH  21  22
ATOM     22  C   UNL     1      18.290  -5.135  19.570  1.00  0.00     0.041 C 
ATOM     23  O   UNL     1      17.155  -5.293  20.092  1.00  0.00    -0.550 OA
ATOM     24  O   UNL     1      18.388  -4.615  18.285  1.00  0.00    -0.550 OA
ENDBRANCH  21  22
ENDBRANCH  20  21
ENDBRANCH  19  20
ENDBRANCH  18  19
ENDBRANCH  17  18
ENDBRANCH  16  17
ENDBRANCH  15  16
ENDBRANCH  14  15
ENDBRANCH  13  14
ENDBRANCH   1  13
TORSDOF 20
ENDMDL
MODEL 7
REMARK VINA RESULT:    -4.253      2.734      4.435
REMARK INTER + INTRA:         -13.319
REMARK INTER:                  -9.471
REMARK INTRA:                  -3.848
REMARK UNBOUND:                -4.093
REMARK SMILES CCCCCCCCCCCCCCCCCCCCCC(=O)[O-]
REMARK SMILES IDX 12 1 11 2 10 3 9 4 8 5 7 6 6 7 5 8 4 9 3 10 2 11 1 12 13 13
REMARK SMILES IDX 14 14 15 15 16 16 17 17 18 18 19 19 20 20 21 21 22 22 23 23
REMARK SMILES IDX 24 24
REMARK H PARENT
REMARK Flexibility Score: inf
ROOT
ATOM      1  C   UNL     1      20.730  -3.721  17.504  1.00  0.00     0.000 C 
ENDROOT
BRANCH   1   2
ATOM      2  C   UNL     1      21.573  -5.009  17.480  1.00  0.00     0.000 C 
BRANCH   2   3
ATOM      3  C   UNL     1      20.735  -6.273  17.736  1.00  0.00     0.000 C 
BRANCH   3   4
ATOM      4  C   UNL     1      21.030  -6.911  19.103  1.00  0.00    -0.000 C 
BRANCH   4   5
ATOM      5  C   UNL     1      20.161  -6.325  20.230  1.00  0.00    -0.000 C 
BRANCH   5   6
ATOM      6  C   UNL     1      18.664  -6.288  19.873  1.00  0.00    -0.000 C 
BRANCH   6   7
ATOM      7  C   UNL     1      17.973  -4.930  20.096  1.00  0.00    -0.000 C 
BRANCH   7   8
ATOM      8  C   UNL     1      18.716  -4.038  21.102  1.00  0.00    -0.000 C 
BRANCH   8   9
ATOM      9  C   UNL     1      17.881  -3.835  22.375  1.00  0.00    -0.000 C 
BRANCH   9  10
ATOM     10  C   UNL     1      18.503  -4.507  23.613  1.00  0.00    -0.000 C 
BRANCH  10  11
ATOM     11  C   UNL     1      19.967  -4.953  23.440  1.00  0.00    -0.003 C 
ATOM     12  C   UNL     1      20.751  -4.953  24.752  1.00  0.00     0.004 C 
ENDBRANCH  10  11
ENDBRANCH   9  10
ENDBRANCH   8   9
ENDBRANCH   7   8
ENDBRANCH   6   7
ENDBRANCH   5   6
ENDBRANCH   4   5
ENDBRANCH   3   4
ENDBRANCH   2   3
ENDBRANCH   1   2
BRANCH   1  13
ATOM     13  C   UNL     1      21.265  -2.605  18.425  1.00  0.00     0.000 C 
BRANCH  13  14
ATOM     14  C   UNL     1      22.306  -3.061  19.467  1.00  0.00     0.000 C 
BRANCH  14  15
ATOM     15  C   UNL     1      21.806  -3.056  20.926  1.00  0.00     0.000 C 
BRANCH  15  16
ATOM     16  C   UNL     1      22.865  -2.668  21.977  1.00  0.00     0.000 C 
BRANCH  16  17
ATOM     17  C   UNL     1      22.577  -1.361  22.737  1.00  0.00     0.000 C 
BRANCH  17  18
ATOM     18  C   UNL     1      21.618  -1.559  23.921  1.00  0.00     0.000 C 
BRANCH  18  19
ATOM     19  C   UNL     1      20.188  -1.147  23.545  1.00  0.00     0.000 C 
BRANCH  19  20
ATOM     20  C   UNL     1      20.140   0.026  22.548  1.00  0.00     0.006 C 
BRANCH  20  21
ATOM     21  C   UNL     1      19.426  -0.308  21.225  1.00  0.00     0.053 C 
BRANCH  21  22
ATOM     22  C   UNL     1      18.929   0.914  20.512  1.00  0.00     0.041 C 
ATOM     23  O   UNL     1      19.047   2.050  21.040  1.00  0.00    -0.550 OA
ATOM     24  O   UNL     1      18.301   0.792  19.278  1.00  0.00    -0.550 OA
ENDBRANCH  21  22
ENDBRANCH  20  21
ENDBRANCH  19  20
ENDBRANCH  18  19
ENDBRANCH  17  18
ENDBRANCH  16  17
ENDBRANCH  15  16
ENDBRANCH  14  15
ENDBRANCH  13  14
ENDBRANCH   1  13
TORSDOF 20
ENDMDL
MODEL 8
REMARK VINA RESULT:    -4.232      1.734      3.426
REMARK INTER + INTRA:         -13.272
REMARK INTER:                  -9.029
REMARK INTRA:                  -4.244
REMARK UNBOUND:                -4.093
REMARK SMILES CCCCCCCCCCCCCCCCCCCCCC(=O)[O-]
REMARK SMILES IDX 12 1 11 2 10 3 9 4 8 5 7 6 6 7 5 8 4 9 3 10 2 11 1 12 13 13
REMARK SMILES IDX 14 14 15 15 16 16 17 17 18 18 19 19 20 20 21 21 22 22 23 23
REMARK SMILES IDX 24 24
REMARK H PARENT
REMARK Flexibility Score: inf
ROOT
ATOM      1  C   UNL     1      17.891  -4.142  22.674  1.00  0.00     0.000 C 
ENDROOT
BRANCH   1   2
ATOM      2  C   UNL     1      17.602  -3.235  21.465  1.00  0.00     0.000 C 
BRANCH   2   3
ATOM      3  C   UNL     1      18.759  -3.210  20.450  1.00  0.00     0.000 C 
BRANCH   3   4
ATOM      4  C   UNL     1      18.792  -1.915  19.623  1.00  0.00    -0.000 C 
BRANCH   4   5
ATOM      5  C   UNL     1      20.178  -1.637  19.014  1.00  0.00    -0.000 C 
BRANCH   5   6
ATOM      6  C   UNL     1      20.549  -2.626  17.894  1.00  0.00    -0.000 C 
BRANCH   6   7
ATOM      7  C   UNL     1      21.902  -3.339  18.074  1.00  0.00    -0.000 C 
BRANCH   7   8
ATOM      8  C   UNL     1      21.891  -4.784  17.553  1.00  0.00    -0.000 C 
BRANCH   8   9
ATOM      9  C   UNL     1      20.577  -5.489  17.919  1.00  0.00    -0.000 C 
BRANCH   9  10
ATOM     10  C   UNL     1      20.615  -6.142  19.313  1.00  0.00    -0.000 C 
BRANCH  10  11
ATOM     11  C   UNL     1      19.492  -7.163  19.580  1.00  0.00    -0.003 C 
ATOM     12  C   UNL     1      18.096  -6.598  19.315  1.00  0.00     0.004 C 
ENDBRANCH  10  11
ENDBRANCH   9  10
ENDBRANCH   8   9
ENDBRANCH   7   8
ENDBRANCH   6   7
ENDBRANCH   5   6
ENDBRANCH   4   5
ENDBRANCH   3   4
ENDBRANCH   2   3
ENDBRANCH   1   2
BRANCH   1  13
ATOM     13  C   UNL     1      19.221  -4.922  22.604  1.00  0.00     0.000 C 
BRANCH  13  14
ATOM     14  C   UNL     1      20.129  -4.778  23.842  1.00  0.00     0.000 C 
BRANCH  14  15
ATOM     15  C   UNL     1      21.612  -4.496  23.527  1.00  0.00     0.000 C 
BRANCH  15  16
ATOM     16  C   UNL     1      21.920  -4.204  22.045  1.00  0.00     0.000 C 
BRANCH  16  17
ATOM     17  C   UNL     1      22.417  -2.775  21.754  1.00  0.00     0.000 C 
BRANCH  17  18
ATOM     18  C   UNL     1      22.128  -1.799  22.904  1.00  0.00     0.000 C 
BRANCH  18  19
ATOM     19  C   UNL     1      20.861  -0.979  22.625  1.00  0.00     0.000 C 
BRANCH  19  20
ATOM     20  C   UNL     1      19.797  -1.117  23.729  1.00  0.00     0.006 C 
BRANCH  20  21
ATOM     21  C   UNL     1      19.157   0.218  24.150  1.00  0.00     0.053 C 
BRANCH  21  22
ATOM     22  C   UNL     1      17.732   0.344  23.701  1.00  0.00     0.041 C 
ATOM     23  O   UNL     1      17.340   1.388  23.117  1.00  0.00    -0.550 OA
ATOM     24  O   UNL     1      16.827  -0.678  23.961  1.00  0.00    -0.550 OA
ENDBRANCH  21  22
ENDBRANCH  20  21
ENDBRANCH  19  20
ENDBRANCH  18  19
ENDBRANCH  17  18
ENDBRANCH  16  17
ENDBRANCH  15  16
ENDBRANCH  14  15
ENDBRANCH  13  14
ENDBRANCH   1  13
TORSDOF 20
ENDMDL
MODEL 9
REMARK VINA RESULT:    -4.229      2.346      4.976
REMARK INTER + INTRA:         -13.267
REMARK INTER:                  -9.058
REMARK INTRA:                  -4.209
REMARK UNBOUND:                -4.093
REMARK SMILES CCCCCCCCCCCCCCCCCCCCCC(=O)[O-]
REMARK SMILES IDX 12 1 11 2 10 3 9 4 8 5 7 6 6 7 5 8 4 9 3 10 2 11 1 12 13 13
REMARK SMILES IDX 14 14 15 15 16 16 17 17 18 18 19 19 20 20 21 21 22 22 23 23
REMARK SMILES IDX 24 24
REMARK H PARENT
REMARK Flexibility Score: inf
ROOT
ATOM      1  C   UNL     1      20.066  -6.121  20.081  1.00  0.00     0.000 C 
ENDROOT
BRANCH   1   2
ATOM      2  C   UNL     1      19.332  -6.058  21.433  1.00  0.00     0.000 C 
BRANCH   2   3
ATOM      3  C   UNL     1      19.534  -4.715  22.157  1.00  0.00     0.000 C 
BRANCH   3   4
ATOM      4  C   UNL     1      20.282  -4.868  23.491  1.00  0.00    -0.000 C 
BRANCH   4   5
ATOM      5  C   UNL     1      21.553  -4.004  23.560  1.00  0.00    -0.000 C 
BRANCH   5   6
ATOM      6  C   UNL     1      21.564  -2.871  22.517  1.00  0.00    -0.000 C 
BRANCH   6   7
ATOM      7  C   UNL     1      21.414  -1.451  23.093  1.00  0.00    -0.000 C 
BRANCH   7   8
ATOM      8  C   UNL     1      20.020  -0.852  22.853  1.00  0.00    -0.000 C 
BRANCH   8   9
ATOM      9  C   UNL     1      19.008  -1.393  23.874  1.00  0.00    -0.000 C 
BRANCH   9  10
ATOM     10  C   UNL     1      17.654  -1.760  23.239  1.00  0.00    -0.000 C 
BRANCH  10  11
ATOM     11  C   UNL     1      16.630  -2.375  24.212  1.00  0.00    -0.003 C 
ATOM     12  C   UNL     1      16.700  -3.901  24.268  1.00  0.00     0.004 C 
ENDBRANCH  10  11
ENDBRANCH   9  10
ENDBRANCH   8   9
ENDBRANCH   7   8
ENDBRANCH   6   7
ENDBRANCH   5   6
ENDBRANCH   4   5
ENDBRANCH   3   4
ENDBRANCH   2   3
ENDBRANCH   1   2
BRANCH   1  13
ATOM     13  C   UNL     1      21.570  -5.784  20.137  1.00  0.00     0.000 C 
BRANCH  13  14
ATOM     14  C   UNL     1      22.038  -4.715  19.129  1.00  0.00     0.000 C 
BRANCH  14  15
ATOM     15  C   UNL     1      21.242  -4.678  17.809  1.00  0.00     0.000 C 
BRANCH  15  16
ATOM     16  C   UNL     1      20.507  -3.352  17.529  1.00  0.00     0.000 C 
BRANCH  16  17
ATOM     17  C   UNL     1      20.836  -2.208  18.505  1.00  0.00     0.000 C 
BRANCH  17  18
ATOM     18  C   UNL     1      19.580  -1.525  19.067  1.00  0.00     0.000 C 
BRANCH  18  19
ATOM     19  C   UNL     1      18.735  -2.514  19.883  1.00  0.00     0.000 C 
BRANCH  19  20
ATOM     20  C   UNL     1      17.283  -2.625  19.382  1.00  0.00     0.006 C 
BRANCH  20  21
ATOM     21  C   UNL     1      16.553  -3.894  19.857  1.00  0.00     0.053 C 
BRANCH  21  22
ATOM     22  C   UNL     1      16.689  -5.035  18.894  1.00  0.00     0.041 C 
ATOM     23  O   UNL     1      16.370  -6.202  19.242  1.00  0.00    -0.550 OA
ATOM     24  O   UNL     1      17.205  -4.815  17.623  1.00  0.00    -0.550 OA
ENDBRANCH  21  22
ENDBRANCH  20  21
ENDBRANCH  19  20
ENDBRANCH  18  19
ENDBRANCH  17  18
ENDBRANCH  16  17
ENDBRANCH  15  16
ENDBRANCH  14  15
ENDBRANCH  13  14
ENDBRANCH   1  13
TORSDOF 20
ENDMDL
