MODEL 1
REMARK VINA RESULT:    -4.670      0.000      0.000
REMARK INTER + INTRA:         -10.055
REMARK INTER:                  -8.493
REMARK INTRA:                  -1.563
REMARK UNBOUND:                -1.563
REMARK SMILES CCCCCCCCCCCCCCCC(=O)[O-]
REMARK SMILES IDX 9 1 10 2 11 3 12 4 13 5 14 6 15 7 16 8 17 9 18 10 8 11 7 12
REMARK SMILES IDX 6 13 5 14 4 15 3 16 2 17 1 18
REMARK H PARENT
REMARK Flexibility Score: inf
ROOT
ATOM      1  C   UNL     1      10.378   7.457  26.701  1.00  0.00     0.000 C 
ENDROOT
BRANCH   1   2
ATOM      2  C   UNL     1      11.538   6.976  25.815  1.00  0.00     0.000 C 
BRANCH   2   3
ATOM      3  C   UNL     1      12.740   6.550  26.667  1.00  0.00     0.000 C 
BRANCH   3   4
ATOM      4  C   UNL     1      14.043   7.147  26.117  1.00  0.00     0.000 C 
BRANCH   4   5
ATOM      5  C   UNL     1      13.969   7.469  24.613  1.00  0.00     0.000 C 
BRANCH   5   6
ATOM      6  C   UNL     1      15.307   7.867  23.966  1.00  0.00     0.006 C 
BRANCH   6   7
ATOM      7  C   UNL     1      16.062   8.941  24.762  1.00  0.00     0.053 C 
BRANCH   7   8
ATOM      8  C   UNL     1      17.537   8.701  24.695  1.00  0.00     0.041 C 
ATOM      9  O   UNL     1      17.982   7.535  24.529  1.00  0.00    -0.550 OA
ATOM     10  O   UNL     1      18.422   9.758  24.864  1.00  0.00    -0.550 OA
ENDBRANCH   7   8
ENDBRANCH   6   7
ENDBRANCH   5   6
ENDBRANCH   4   5
ENDBRANCH   3   4
ENDBRANCH   2   3
ENDBRANCH   1   2
BRANCH   1  11
ATOM     11  C   UNL     1      10.804   8.559  27.683  1.00  0.00     0.000 C 
BRANCH  11  12
ATOM     12  C   UNL     1       9.816   8.726  28.851  1.00  0.00    -0.000 C 
BRANCH  12  13
ATOM     13  C   UNL     1       9.030   7.429  29.142  1.00  0.00    -0.000 C 
BRANCH  13  14
ATOM     14  C   UNL     1       9.149   6.947  30.601  1.00  0.00    -0.000 C 
BRANCH  14  15
ATOM     15  C   UNL     1       9.690   5.515  30.768  1.00  0.00    -0.000 C 
BRANCH  15  16
ATOM     16  C   UNL     1      10.499   4.985  29.568  1.00  0.00    -0.000 C 
BRANCH  16  17
ATOM     17  C   UNL     1       9.855   3.763  28.879  1.00  0.00    -0.003 C 
ATOM     18  C   UNL     1       9.710   3.953  27.369  1.00  0.00     0.004 C 
ENDBRANCH  16  17
ENDBRANCH  15  16
ENDBRANCH  14  15
ENDBRANCH  13  14
ENDBRANCH  12  13
ENDBRANCH  11  12
ENDBRANCH   1  11
TORSDOF 14
ENDMDL
MODEL 2
REMARK VINA RESULT:    -4.527      3.022      3.892
REMARK INTER + INTRA:          -9.794
REMARK INTER:                  -7.760
REMARK INTRA:                  -2.034
REMARK UNBOUND:                -1.563
REMARK SMILES CCCCCCCCCCCCCCCC(=O)[O-]
REMARK SMILES IDX 9 1 10 2 11 3 12 4 13 5 14 6 15 7 16 8 17 9 18 10 8 11 7 12
REMARK SMILES IDX 6 13 5 14 4 15 3 16 2 17 1 18
REMARK H PARENT
REMARK Flexibility Score: inf
ROOT
ATOM      1  C   UNL     1      11.132   5.971  26.736  1.00  0.00     0.000 C 
ENDROOT
BRANCH   1   2
ATOM      2  C   UNL     1      12.550   6.352  27.188  1.00  0.00     0.000 C 
BRANCH   2   3
ATOM      3  C   UNL     1      13.542   6.260  26.023  1.00  0.00     0.000 C 
BRANCH   3   4
ATOM      4  C   UNL     1      14.028   7.654  25.602  1.00  0.00     0.000 C 
BRANCH   4   5
ATOM      5  C   UNL     1      13.054   8.366  24.646  1.00  0.00     0.000 C 
BRANCH   5   6
ATOM      6  C   UNL     1      12.784   7.628  23.323  1.00  0.00     0.006 C 
BRANCH   6   7
ATOM      7  C   UNL     1      11.343   7.114  23.206  1.00  0.00     0.053 C 
BRANCH   7   8
ATOM      8  C   UNL     1      10.954   6.969  21.769  1.00  0.00     0.041 C 
ATOM      9  O   UNL     1       9.741   7.011  21.434  1.00  0.00    -0.550 OA
ATOM     10  O   UNL     1      11.927   6.740  20.805  1.00  0.00    -0.550 OA
ENDBRANCH   7   8
ENDBRANCH   6   7
ENDBRANCH   5   6
ENDBRANCH   4   5
ENDBRANCH   3   4
ENDBRANCH   2   3
ENDBRANCH   1   2
BRANCH   1  11
ATOM     11  C   UNL     1      10.131   7.126  26.897  1.00  0.00     0.000 C 
BRANCH  11  12
ATOM     12  C   UNL     1      10.769   8.378  27.524  1.00  0.00    -0.000 C 
BRANCH  12  13
ATOM     13  C   UNL     1      10.084   8.782  28.848  1.00  0.00    -0.000 C 
BRANCH  13  14
ATOM     14  C   UNL     1       8.962   7.820  29.285  1.00  0.00    -0.000 C 
BRANCH  14  15
ATOM     15  C   UNL     1       9.018   7.387  30.761  1.00  0.00    -0.000 C 
BRANCH  15  16
ATOM     16  C   UNL     1       9.671   6.012  31.008  1.00  0.00    -0.000 C 
BRANCH  16  17
ATOM     17  C   UNL     1       9.334   4.963  29.927  1.00  0.00    -0.003 C 
ATOM     18  C   UNL     1      10.482   3.984  29.685  1.00  0.00     0.004 C 
ENDBRANCH  16  17
ENDBRANCH  15  16
ENDBRANCH  14  15
ENDBRANCH  13  14
ENDBRANCH  12  13
ENDBRANCH  11  12
ENDBRANCH   1  11
TORSDOF 14
ENDMDL
MODEL 3
REMARK VINA RESULT:    -4.523     12.801     14.045
REMARK INTER + INTRA:          -9.787
REMARK INTER:                  -7.931
REMARK INTRA:                  -1.856
REMARK UNBOUND:                -1.563
REMARK SMILES CCCCCCCCCCCCCCCC(=O)[O-]
REMARK SMILES IDX 9 1 10 2 11 3 12 4 13 5 14 6 15 7 16 8 17 9 18 10 8 11 7 12
REMARK SMILES IDX 6 13 5 14 4 15 3 16 2 17 1 18
REMARK H PARENT
REMARK Flexibility Score: inf
ROOT
ATOM      1  C   UNL     1       4.885   6.874  14.849  1.00  0.00     0.000 C 
ENDROOT
BRANCH   1   2
ATOM      2  C   UNL     1       6.231   6.555  15.518  1.00  0.00     0.000 C 
BRANCH   2   3
ATOM      3  C   UNL     1       7.148   7.784  15.522  1.00  0.00     0.000 C 
BRANCH   3   4
ATOM      4  C   UNL     1       8.309   7.607  14.533  1.00  0.00     0.000 C 
BRANCH   4   5
ATOM      5  C   UNL     1       8.249   8.594  13.353  1.00  0.00     0.000 C 
BRANCH   5   6
ATOM      6  C   UNL     1       7.377   8.142  12.169  1.00  0.00     0.006 C 
BRANCH   6   7
ATOM      7  C   UNL     1       7.817   6.795  11.581  1.00  0.00     0.053 C 
BRANCH   7   8
ATOM      8  C   UNL     1       6.792   5.742  11.861  1.00  0.00     0.041 C 
ATOM      9  O   UNL     1       7.035   4.827  12.692  1.00  0.00    -0.550 OA
ATOM     10  O   UNL     1       5.587   5.742  11.170  1.00  0.00    -0.550 OA
ENDBRANCH   7   8
ENDBRANCH   6   7
ENDBRANCH   5   6
ENDBRANCH   4   5
ENDBRANCH   3   4
ENDBRANCH   2   3
ENDBRANCH   1   2
BRANCH   1  11
ATOM     11  C   UNL     1       4.362   8.271  15.216  1.00  0.00     0.000 C 
BRANCH  11  12
ATOM     12  C   UNL     1       2.858   8.273  15.543  1.00  0.00    -0.000 C 
BRANCH  12  13
ATOM     13  C   UNL     1       2.536   9.091  16.813  1.00  0.00    -0.000 C 
BRANCH  13  14
ATOM     14  C   UNL     1       2.384   8.232  18.082  1.00  0.00    -0.000 C 
BRANCH  14  15
ATOM     15  C   UNL     1       2.960   8.860  19.364  1.00  0.00    -0.000 C 
BRANCH  15  16
ATOM     16  C   UNL     1       4.499   8.854  19.452  1.00  0.00    -0.000 C 
BRANCH  16  17
ATOM     17  C   UNL     1       5.150   7.592  18.847  1.00  0.00    -0.003 C 
ATOM     18  C   UNL     1       6.579   7.377  19.343  1.00  0.00     0.004 C 
ENDBRANCH  16  17
ENDBRANCH  15  16
ENDBRANCH  14  15
ENDBRANCH  13  14
ENDBRANCH  12  13
ENDBRANCH  11  12
ENDBRANCH   1  11
TORSDOF 14
ENDMDL
MODEL 4
REMARK VINA RESULT:    -4.472      1.576      2.835
REMARK INTER + INTRA:          -9.695
REMARK INTER:                  -8.237
REMARK INTRA:                  -1.458
REMARK UNBOUND:                -1.563
REMARK SMILES CCCCCCCCCCCCCCCC(=O)[O-]
REMARK SMILES IDX 9 1 10 2 11 3 12 4 13 5 14 6 15 7 16 8 17 9 18 10 8 11 7 12
REMARK SMILES IDX 6 13 5 14 4 15 3 16 2 17 1 18
REMARK H PARENT
REMARK Flexibility Score: inf
ROOT
ATOM      1  C   UNL     1      11.877   7.387  25.473  1.00  0.00     0.000 C 
ENDROOT
BRANCH   1   2
ATOM      2  C   UNL     1      12.057   8.893  25.227  1.00  0.00     0.000 C 
BRANCH   2   3
ATOM      3  C   UNL     1      12.247   9.187  23.734  1.00  0.00     0.000 C 
BRANCH   3   4
ATOM      4  C   UNL     1      13.360   8.313  23.138  1.00  0.00     0.000 C 
BRANCH   4   5
ATOM      5  C   UNL     1      14.650   9.100  22.847  1.00  0.00     0.000 C 
BRANCH   5   6
ATOM      6  C   UNL     1      15.553   9.345  24.069  1.00  0.00     0.006 C 
BRANCH   6   7
ATOM      7  C   UNL     1      15.800   8.076  24.895  1.00  0.00     0.053 C 
BRANCH   7   8
ATOM      8  C   UNL     1      16.389   8.425  26.225  1.00  0.00     0.041 C 
ATOM      9  O   UNL     1      16.126   7.725  27.238  1.00  0.00    -0.550 OA
ATOM     10  O   UNL     1      17.191   9.551  26.357  1.00  0.00    -0.550 OA
ENDBRANCH   7   8
ENDBRANCH   6   7
ENDBRANCH   5   6
ENDBRANCH   4   5
ENDBRANCH   3   4
ENDBRANCH   2   3
ENDBRANCH   1   2
BRANCH   1  11
ATOM     11  C   UNL     1      12.671   6.889  26.690  1.00  0.00     0.000 C 
BRANCH  11  12
ATOM     12  C   UNL     1      11.906   5.832  27.505  1.00  0.00    -0.000 C 
BRANCH  12  13
ATOM     13  C   UNL     1      10.497   5.559  26.933  1.00  0.00    -0.000 C 
BRANCH  13  14
ATOM     14  C   UNL     1       9.742   4.428  27.658  1.00  0.00    -0.000 C 
BRANCH  14  15
ATOM     15  C   UNL     1      10.209   4.158  29.100  1.00  0.00    -0.000 C 
BRANCH  15  16
ATOM     16  C   UNL     1       9.316   4.774  30.196  1.00  0.00    -0.000 C 
BRANCH  16  17
ATOM     17  C   UNL     1       9.786   6.166  30.670  1.00  0.00    -0.003 C 
ATOM     18  C   UNL     1       8.959   7.299  30.065  1.00  0.00     0.004 C 
ENDBRANCH  16  17
ENDBRANCH  15  16
ENDBRANCH  14  15
ENDBRANCH  13  14
ENDBRANCH  12  13
ENDBRANCH  11  12
ENDBRANCH   1  11
TORSDOF 14
ENDMDL
MODEL 5
REMARK VINA RESULT:    -4.469     12.322     14.567
REMARK INTER + INTRA:          -9.689
REMARK INTER:                  -7.942
REMARK INTRA:                  -1.746
REMARK UNBOUND:                -1.563
REMARK SMILES CCCCCCCCCCCCCCCC(=O)[O-]
REMARK SMILES IDX 9 1 10 2 11 3 12 4 13 5 14 6 15 7 16 8 17 9 18 10 8 11 7 12
REMARK SMILES IDX 6 13 5 14 4 15 3 16 2 17 1 18
REMARK H PARENT
REMARK Flexibility Score: inf
ROOT
ATOM      1  C   UNL     1       4.538   7.237  15.107  1.00  0.00     0.000 C 
ENDROOT
BRANCH   1   2
ATOM      2  C   UNL     1       3.190   7.974  15.120  1.00  0.00     0.000 C 
BRANCH   2   3
ATOM      3  C   UNL     1       3.025   8.795  16.405  1.00  0.00     0.000 C 
BRANCH   3   4
ATOM      4  C   UNL     1       2.804   7.879  17.617  1.00  0.00     0.000 C 
BRANCH   4   5
ATOM      5  C   UNL     1       3.169   8.552  18.953  1.00  0.00     0.000 C 
BRANCH   5   6
ATOM      6  C   UNL     1       4.674   8.784  19.175  1.00  0.00     0.006 C 
BRANCH   6   7
ATOM      7  C   UNL     1       5.497   7.491  19.100  1.00  0.00     0.053 C 
BRANCH   7   8
ATOM      8  C   UNL     1       6.049   7.144  20.446  1.00  0.00     0.041 C 
ATOM      9  O   UNL     1       7.245   6.769  20.563  1.00  0.00    -0.550 OA
ATOM     10  O   UNL     1       5.229   7.188  21.567  1.00  0.00    -0.550 OA
ENDBRANCH   7   8
ENDBRANCH   6   7
ENDBRANCH   5   6
ENDBRANCH   4   5
ENDBRANCH   3   4
ENDBRANCH   2   3
ENDBRANCH   1   2
BRANCH   1  11
ATOM     11  C   UNL     1       5.734   8.194  15.225  1.00  0.00     0.000 C 
BRANCH  11  12
ATOM     12  C   UNL     1       7.016   7.484  15.696  1.00  0.00    -0.000 C 
BRANCH  12  13
ATOM     13  C   UNL     1       8.130   7.518  14.627  1.00  0.00    -0.000 C 
BRANCH  13  14
ATOM     14  C   UNL     1       7.871   8.529  13.493  1.00  0.00    -0.000 C 
BRANCH  14  15
ATOM     15  C   UNL     1       8.039   7.965  12.071  1.00  0.00    -0.000 C 
BRANCH  15  16
ATOM     16  C   UNL     1       7.882   6.436  11.958  1.00  0.00    -0.000 C 
BRANCH  16  17
ATOM     17  C   UNL     1       6.706   5.998  11.058  1.00  0.00    -0.003 C 
ATOM     18  C   UNL     1       5.348   6.390  11.640  1.00  0.00     0.004 C 
ENDBRANCH  16  17
ENDBRANCH  15  16
ENDBRANCH  14  15
ENDBRANCH  13  14
ENDBRANCH  12  13
ENDBRANCH  11  12
ENDBRANCH   1  11
TORSDOF 14
ENDMDL
MODEL 6
REMARK VINA RESULT:    -4.446      1.276      2.079
REMARK INTER + INTRA:          -9.648
REMARK INTER:                  -8.375
REMARK INTRA:                  -1.273
REMARK UNBOUND:                -1.563
REMARK SMILES CCCCCCCCCCCCCCCC(=O)[O-]
REMARK SMILES IDX 9 1 10 2 11 3 12 4 13 5 14 6 15 7 16 8 17 9 18 10 8 11 7 12
REMARK SMILES IDX 6 13 5 14 4 15 3 16 2 17 1 18
REMARK H PARENT
REMARK Flexibility Score: inf
ROOT
ATOM      1  C   UNL     1      12.400   5.844  26.969  1.00  0.00     0.000 C 
ENDROOT
BRANCH   1   2
ATOM      2  C   UNL     1      13.641   6.500  26.345  1.00  0.00     0.000 C 
BRANCH   2   3
ATOM      3  C   UNL     1      13.271   7.804  25.629  1.00  0.00     0.000 C 
BRANCH   3   4
ATOM      4  C   UNL     1      13.598   7.721  24.131  1.00  0.00     0.000 C 
BRANCH   4   5
ATOM      5  C   UNL     1      14.999   8.260  23.790  1.00  0.00     0.000 C 
BRANCH   5   6
ATOM      6  C   UNL     1      15.568   9.275  24.797  1.00  0.00     0.006 C 
BRANCH   6   7
ATOM      7  C   UNL     1      16.973   9.766  24.424  1.00  0.00     0.053 C 
BRANCH   7   8
ATOM      8  C   UNL     1      17.983   9.251  25.400  1.00  0.00     0.041 C 
ATOM      9  O   UNL     1      18.466  10.017  26.275  1.00  0.00    -0.550 OA
ATOM     10  O   UNL     1      18.428   7.938  25.313  1.00  0.00    -0.550 OA
ENDBRANCH   7   8
ENDBRANCH   6   7
ENDBRANCH   5   6
ENDBRANCH   4   5
ENDBRANCH   3   4
ENDBRANCH   2   3
ENDBRANCH   1   2
BRANCH   1  11
ATOM     11  C   UNL     1      11.336   6.871  27.385  1.00  0.00     0.000 C 
BRANCH  11  12
ATOM     12  C   UNL     1       9.923   6.482  26.916  1.00  0.00    -0.000 C 
BRANCH  12  13
ATOM     13  C   UNL     1       8.896   6.505  28.070  1.00  0.00    -0.000 C 
BRANCH  13  14
ATOM     14  C   UNL     1       9.384   7.266  29.318  1.00  0.00    -0.000 C 
BRANCH  14  15
ATOM     15  C   UNL     1       9.507   6.410  30.592  1.00  0.00    -0.000 C 
BRANCH  15  16
ATOM     16  C   UNL     1       9.400   4.889  30.362  1.00  0.00    -0.000 C 
BRANCH  16  17
ATOM     17  C   UNL     1      10.580   4.089  30.954  1.00  0.00    -0.003 C 
ATOM     18  C   UNL     1      11.932   4.554  30.413  1.00  0.00     0.004 C 
ENDBRANCH  16  17
ENDBRANCH  15  16
ENDBRANCH  14  15
ENDBRANCH  13  14
ENDBRANCH  12  13
ENDBRANCH  11  12
ENDBRANCH   1  11
TORSDOF 14
ENDMDL
MODEL 7
REMARK VINA RESULT:    -4.445      3.614      7.354
REMARK INTER + INTRA:          -9.645
REMARK INTER:                  -7.653
REMARK INTRA:                  -1.992
REMARK UNBOUND:                -1.563
REMARK SMILES CCCCCCCCCCCCCCCC(=O)[O-]
REMARK SMILES IDX 9 1 10 2 11 3 12 4 13 5 14 6 15 7 16 8 17 9 18 10 8 11 7 12
REMARK SMILES IDX 6 13 5 14 4 15 3 16 2 17 1 18
REMARK H PARENT
REMARK Flexibility Score: inf
ROOT
ATOM      1  C   UNL     1      13.471   5.796  26.154  1.00  0.00     0.000 C 
ENDROOT
BRANCH   1   2
ATOM      2  C   UNL     1      12.438   5.611  27.276  1.00  0.00     0.000 C 
BRANCH   2   3
ATOM      3  C   UNL     1      11.412   6.751  27.272  1.00  0.00     0.000 C 
BRANCH   3   4
ATOM      4  C   UNL     1      10.004   6.223  26.961  1.00  0.00     0.000 C 
BRANCH   4   5
ATOM      5  C   UNL     1       8.969   6.603  28.036  1.00  0.00     0.000 C 
BRANCH   5   6
ATOM      6  C   UNL     1       9.557   6.910  29.425  1.00  0.00     0.006 C 
BRANCH   6   7
ATOM      7  C   UNL     1       9.334   5.776  30.435  1.00  0.00     0.053 C 
BRANCH   7   8
ATOM      8  C   UNL     1      10.407   4.743  30.305  1.00  0.00     0.041 C 
ATOM      9  O   UNL     1      11.487   4.868  30.941  1.00  0.00    -0.550 OA
ATOM     10  O   UNL     1      10.236   3.665  29.446  1.00  0.00    -0.550 OA
ENDBRANCH   7   8
ENDBRANCH   6   7
ENDBRANCH   5   6
ENDBRANCH   4   5
ENDBRANCH   3   4
ENDBRANCH   2   3
ENDBRANCH   1   2
BRANCH   1  11
ATOM     11  C   UNL     1      14.116   7.190  26.171  1.00  0.00     0.000 C 
BRANCH  11  12
ATOM     12  C   UNL     1      14.920   7.486  24.893  1.00  0.00    -0.000 C 
BRANCH  12  13
ATOM     13  C   UNL     1      14.824   8.969  24.471  1.00  0.00    -0.000 C 
BRANCH  13  14
ATOM     14  C   UNL     1      14.571   9.170  22.964  1.00  0.00    -0.000 C 
BRANCH  14  15
ATOM     15  C   UNL     1      13.088   9.170  22.551  1.00  0.00    -0.000 C 
BRANCH  15  16
ATOM     16  C   UNL     1      12.095   9.416  23.703  1.00  0.00    -0.000 C 
BRANCH  16  17
ATOM     17  C   UNL     1      11.094   8.260  23.917  1.00  0.00    -0.003 C 
ATOM     18  C   UNL     1      11.535   6.971  23.225  1.00  0.00     0.004 C 
ENDBRANCH  16  17
ENDBRANCH  15  16
ENDBRANCH  14  15
ENDBRANCH  13  14
ENDBRANCH  12  13
ENDBRANCH  11  12
ENDBRANCH   1  11
TORSDOF 14
ENDMDL
MODEL 8
REMARK VINA RESULT:    -4.417     11.618     12.813
REMARK INTER + INTRA:          -9.595
REMARK INTER:                  -7.391
REMARK INTRA:                  -2.204
REMARK UNBOUND:                -1.563
REMARK SMILES CCCCCCCCCCCCCCCC(=O)[O-]
REMARK SMILES IDX 9 1 10 2 11 3 12 4 13 5 14 6 15 7 16 8 17 9 18 10 8 11 7 12
REMARK SMILES IDX 6 13 5 14 4 15 3 16 2 17 1 18
REMARK H PARENT
REMARK Flexibility Score: inf
ROOT
ATOM      1  C   UNL     1       3.110   7.974  17.601  1.00  0.00     0.000 C 
ENDROOT
BRANCH   1   2
ATOM      2  C   UNL     1       4.022   8.989  16.894  1.00  0.00     0.000 C 
BRANCH   2   3
ATOM      3  C   UNL     1       4.669   8.373  15.648  1.00  0.00     0.000 C 
BRANCH   3   4
ATOM      4  C   UNL     1       6.171   8.686  15.597  1.00  0.00     0.000 C 
BRANCH   4   5
ATOM      5  C   UNL     1       7.045   7.422  15.497  1.00  0.00     0.000 C 
BRANCH   5   6
ATOM      6  C   UNL     1       8.134   7.467  14.411  1.00  0.00     0.006 C 
BRANCH   6   7
ATOM      7  C   UNL     1       7.562   7.437  12.987  1.00  0.00     0.053 C 
BRANCH   7   8
ATOM      8  C   UNL     1       6.702   6.229  12.795  1.00  0.00     0.041 C 
ATOM      9  O   UNL     1       7.216   5.080  12.786  1.00  0.00    -0.550 OA
ATOM     10  O   UNL     1       5.337   6.373  12.577  1.00  0.00    -0.550 OA
ENDBRANCH   7   8
ENDBRANCH   6   7
ENDBRANCH   5   6
ENDBRANCH   4   5
ENDBRANCH   3   4
ENDBRANCH   2   3
ENDBRANCH   1   2
BRANCH   1  11
ATOM     11  C   UNL     1       2.374   8.581  18.805  1.00  0.00     0.000 C 
BRANCH  11  12
ATOM     12  C   UNL     1       2.979   9.922  19.254  1.00  0.00    -0.000 C 
BRANCH  12  13
ATOM     13  C   UNL     1       3.468   9.882  20.718  1.00  0.00    -0.000 C 
BRANCH  13  14
ATOM     14  C   UNL     1       3.738   8.459  21.243  1.00  0.00    -0.000 C 
BRANCH  14  15
ATOM     15  C   UNL     1       5.220   8.042  21.253  1.00  0.00    -0.000 C 
BRANCH  15  16
ATOM     16  C   UNL     1       5.609   7.009  20.176  1.00  0.00    -0.000 C 
BRANCH  16  17
ATOM     17  C   UNL     1       6.671   7.522  19.180  1.00  0.00    -0.003 C 
ATOM     18  C   UNL     1       6.867   9.036  19.264  1.00  0.00     0.004 C 
ENDBRANCH  16  17
ENDBRANCH  15  16
ENDBRANCH  14  15
ENDBRANCH  13  14
ENDBRANCH  12  13
ENDBRANCH  11  12
ENDBRANCH   1  11
TORSDOF 14
ENDMDL
MODEL 9
REMARK VINA RESULT:    -4.376      3.928      7.799
REMARK INTER + INTRA:          -9.520
REMARK INTER:                  -8.162
REMARK INTRA:                  -1.358
REMARK UNBOUND:                -1.563
REMARK SMILES CCCCCCCCCCCCCCCC(=O)[O-]
REMARK SMILES IDX 9 1 10 2 11 3 12 4 13 5 14 6 15 7 16 8 17 9 18 10 8 11 7 12
REMARK SMILES IDX 6 13 5 14 4 15 3 16 2 17 1 18
REMARK H PARENT
REMARK Flexibility Score: inf
ROOT
ATOM      1  C   UNL     1      11.985   7.109  23.922  1.00  0.00     0.000 C 
ENDROOT
BRANCH   1   2
ATOM      2  C   UNL     1      11.186   8.080  24.805  1.00  0.00     0.000 C 
BRANCH   2   3
ATOM      3  C   UNL     1      11.581   7.935  26.279  1.00  0.00     0.000 C 
BRANCH   3   4
ATOM      4  C   UNL     1      12.320   6.611  26.523  1.00  0.00     0.000 C 
BRANCH   4   5
ATOM      5  C   UNL     1      11.576   5.679  27.497  1.00  0.00     0.000 C 
BRANCH   5   6
ATOM      6  C   UNL     1      10.192   5.208  27.017  1.00  0.00     0.006 C 
BRANCH   6   7
ATOM      7  C   UNL     1       9.592   4.109  27.905  1.00  0.00     0.053 C 
BRANCH   7   8
ATOM      8  C   UNL     1       9.668   4.501  29.346  1.00  0.00     0.041 C 
ATOM      9  O   UNL     1       9.021   5.496  29.767  1.00  0.00    -0.550 OA
ATOM     10  O   UNL     1      10.492   3.798  30.216  1.00  0.00    -0.550 OA
ENDBRANCH   7   8
ENDBRANCH   6   7
ENDBRANCH   5   6
ENDBRANCH   4   5
ENDBRANCH   3   4
ENDBRANCH   2   3
ENDBRANCH   1   2
BRANCH   1  11
ATOM     11  C   UNL     1      11.957   7.502  22.438  1.00  0.00     0.000 C 
BRANCH  11  12
ATOM     12  C   UNL     1      13.223   8.261  22.002  1.00  0.00    -0.000 C 
BRANCH  12  13
ATOM     13  C   UNL     1      14.379   8.099  23.013  1.00  0.00    -0.000 C 
BRANCH  13  14
ATOM     14  C   UNL     1      14.819   9.423  23.668  1.00  0.00    -0.000 C 
BRANCH  14  15
ATOM     15  C   UNL     1      15.245   9.306  25.143  1.00  0.00    -0.000 C 
BRANCH  15  16
ATOM     16  C   UNL     1      16.640   9.878  25.461  1.00  0.00    -0.000 C 
BRANCH  16  17
ATOM     17  C   UNL     1      17.758   9.330  24.548  1.00  0.00    -0.003 C 
ATOM     18  C   UNL     1      18.014   7.839  24.769  1.00  0.00     0.004 C 
ENDBRANCH  16  17
ENDBRANCH  15  16
ENDBRANCH  14  15
ENDBRANCH  13  14
ENDBRANCH  12  13
ENDBRANCH  11  12
ENDBRANCH   1  11
TORSDOF 14
ENDMDL
