MODEL 1
REMARK VINA RESULT:    -4.698      0.000      0.000
REMARK INTER + INTRA:          -8.295
REMARK INTER:                  -7.444
REMARK INTRA:                  -0.851
REMARK UNBOUND:                -0.851
REMARK SMILES CCCCCCCCCCCC(=O)[O-]
REMARK SMILES IDX 7 1 8 2 9 3 10 4 11 5 12 6 13 7 14 8 6 9 5 10 4 11 3 12 2 13
REMARK SMILES IDX 1 14
REMARK H PARENT
REMARK Flexibility Score: inf
ROOT
ATOM      1  C   UNL     1      -7.319 -20.564  -3.492  1.00  0.00     0.000 C 
ENDROOT
BRANCH   1   2
ATOM      2  C   UNL     1      -6.761 -19.867  -4.739  1.00  0.00     0.000 C 
BRANCH   2   3
ATOM      3  C   UNL     1      -7.743 -19.974  -5.915  1.00  0.00     0.000 C 
BRANCH   3   4
ATOM      4  C   UNL     1      -9.045 -19.193  -5.674  1.00  0.00     0.006 C 
BRANCH   4   5
ATOM      5  C   UNL     1      -9.667 -18.667  -6.973  1.00  0.00     0.053 C 
BRANCH   5   6
ATOM      6  C   UNL     1     -10.454 -19.745  -7.649  1.00  0.00     0.041 C 
ATOM      7  O   UNL     1     -10.482 -19.817  -8.906  1.00  0.00    -0.550 OA
ATOM      8  O   UNL     1     -11.118 -20.700  -6.890  1.00  0.00    -0.550 OA
ENDBRANCH   5   6
ENDBRANCH   4   5
ENDBRANCH   3   4
ENDBRANCH   2   3
ENDBRANCH   1   2
BRANCH   1   9
ATOM      9  C   UNL     1      -6.211 -20.816  -2.460  1.00  0.00     0.000 C 
BRANCH   9  10
ATOM     10  C   UNL     1      -5.487 -22.157  -2.676  1.00  0.00    -0.000 C 
BRANCH  10  11
ATOM     11  C   UNL     1      -6.319 -23.237  -3.398  1.00  0.00    -0.000 C 
BRANCH  11  12
ATOM     12  C   UNL     1      -5.668 -23.829  -4.664  1.00  0.00    -0.000 C 
BRANCH  12  13
ATOM     13  C   UNL     1      -6.332 -23.412  -5.987  1.00  0.00    -0.003 C 
ATOM     14  C   UNL     1      -6.748 -24.605  -6.847  1.00  0.00     0.004 C 
ENDBRANCH  12  13
ENDBRANCH  11  12
ENDBRANCH  10  11
ENDBRANCH   9  10
ENDBRANCH   1   9
TORSDOF 10
ENDMDL
MODEL 2
REMARK VINA RESULT:    -4.648     11.621     13.398
REMARK INTER + INTRA:          -8.217
REMARK INTER:                  -6.926
REMARK INTRA:                  -1.291
REMARK UNBOUND:                -0.851
REMARK SMILES CCCCCCCCCCCC(=O)[O-]
REMARK SMILES IDX 7 1 8 2 9 3 10 4 11 5 12 6 13 7 14 8 6 9 5 10 4 11 3 12 2 13
REMARK SMILES IDX 1 14
REMARK H PARENT
REMARK Flexibility Score: inf
ROOT
ATOM      1  C   UNL     1      -0.121 -21.825 -15.812  1.00  0.00     0.000 C 
ENDROOT
BRANCH   1   2
ATOM      2  C   UNL     1       1.308 -21.741 -15.261  1.00  0.00     0.000 C 
BRANCH   2   3
ATOM      3  C   UNL     1       1.474 -20.520 -14.344  1.00  0.00     0.000 C 
BRANCH   3   4
ATOM      4  C   UNL     1       2.801 -20.538 -13.569  1.00  0.00     0.006 C 
BRANCH   4   5
ATOM      5  C   UNL     1       2.694 -21.284 -12.233  1.00  0.00     0.053 C 
BRANCH   5   6
ATOM      6  C   UNL     1       4.057 -21.591 -11.697  1.00  0.00     0.041 C 
ATOM      7  O   UNL     1       4.189 -22.091 -10.549  1.00  0.00    -0.550 OA
ATOM      8  O   UNL     1       5.180 -21.371 -12.484  1.00  0.00    -0.550 OA
ENDBRANCH   5   6
ENDBRANCH   4   5
ENDBRANCH   3   4
ENDBRANCH   2   3
ENDBRANCH   1   2
BRANCH   1   9
ATOM      9  C   UNL     1      -0.500 -23.276 -16.140  1.00  0.00     0.000 C 
BRANCH   9  10
ATOM     10  C   UNL     1       0.405 -24.304 -15.437  1.00  0.00    -0.000 C 
BRANCH  10  11
ATOM     11  C   UNL     1      -0.184 -24.917 -14.150  1.00  0.00    -0.000 C 
BRANCH  11  12
ATOM     12  C   UNL     1       0.603 -24.614 -12.860  1.00  0.00    -0.000 C 
BRANCH  12  13
ATOM     13  C   UNL     1      -0.214 -23.924 -11.753  1.00  0.00    -0.003 C 
ATOM     14  C   UNL     1      -0.839 -22.605 -12.209  1.00  0.00     0.004 C 
ENDBRANCH  12  13
ENDBRANCH  11  12
ENDBRANCH  10  11
ENDBRANCH   9  10
ENDBRANCH   1   9
TORSDOF 10
ENDMDL
MODEL 3
REMARK VINA RESULT:    -4.535      1.507      2.462
REMARK INTER + INTRA:          -8.038
REMARK INTER:                  -7.406
REMARK INTRA:                  -0.632
REMARK UNBOUND:                -0.851
REMARK SMILES CCCCCCCCCCCC(=O)[O-]
REMARK SMILES IDX 7 1 8 2 9 3 10 4 11 5 12 6 13 7 14 8 6 9 5 10 4 11 3 12 2 13
REMARK SMILES IDX 1 14
REMARK H PARENT
REMARK Flexibility Score: inf
ROOT
ATOM      1  C   UNL     1      -6.291 -20.624  -5.083  1.00  0.00     0.000 C 
ENDROOT
BRANCH   1   2
ATOM      2  C   UNL     1      -7.112 -19.908  -6.163  1.00  0.00     0.000 C 
BRANCH   2   3
ATOM      3  C   UNL     1      -7.847 -18.691  -5.580  1.00  0.00     0.000 C 
BRANCH   3   4
ATOM      4  C   UNL     1      -9.336 -18.661  -5.959  1.00  0.00     0.006 C 
BRANCH   4   5
ATOM      5  C   UNL     1      -9.559 -18.637  -7.477  1.00  0.00     0.053 C 
BRANCH   5   6
ATOM      6  C   UNL     1     -10.360 -19.825  -7.906  1.00  0.00     0.041 C 
ATOM      7  O   UNL     1     -10.407 -20.152  -9.121  1.00  0.00    -0.550 OA
ATOM      8  O   UNL     1     -11.016 -20.600  -6.959  1.00  0.00    -0.550 OA
ENDBRANCH   5   6
ENDBRANCH   4   5
ENDBRANCH   3   4
ENDBRANCH   2   3
ENDBRANCH   1   2
BRANCH   1   9
ATOM      9  C   UNL     1      -6.844 -20.324  -3.683  1.00  0.00     0.000 C 
BRANCH   9  10
ATOM     10  C   UNL     1      -6.565 -21.454  -2.676  1.00  0.00    -0.000 C 
BRANCH  10  11
ATOM     11  C   UNL     1      -6.088 -22.781  -3.302  1.00  0.00    -0.000 C 
BRANCH  11  12
ATOM     12  C   UNL     1      -4.569 -23.033  -3.226  1.00  0.00    -0.000 C 
BRANCH  12  13
ATOM     13  C   UNL     1      -3.853 -22.316  -2.068  1.00  0.00    -0.003 C 
ATOM     14  C   UNL     1      -2.414 -21.927  -2.408  1.00  0.00     0.004 C 
ENDBRANCH  12  13
ENDBRANCH  11  12
ENDBRANCH  10  11
ENDBRANCH   9  10
ENDBRANCH   1   9
TORSDOF 10
ENDMDL
MODEL 4
REMARK VINA RESULT:    -4.533     12.162     13.602
REMARK INTER + INTRA:          -8.034
REMARK INTER:                  -7.174
REMARK INTRA:                  -0.860
REMARK UNBOUND:                -0.851
REMARK SMILES CCCCCCCCCCCC(=O)[O-]
REMARK SMILES IDX 7 1 8 2 9 3 10 4 11 5 12 6 13 7 14 8 6 9 5 10 4 11 3 12 2 13
REMARK SMILES IDX 1 14
REMARK H PARENT
REMARK Flexibility Score: inf
ROOT
ATOM      1  C   UNL     1      -0.319 -21.376 -15.043  1.00  0.00     0.000 C 
ENDROOT
BRANCH   1   2
ATOM      2  C   UNL     1       0.689 -20.355 -14.500  1.00  0.00     0.000 C 
BRANCH   2   3
ATOM      3  C   UNL     1       1.857 -21.057 -13.791  1.00  0.00     0.000 C 
BRANCH   3   4
ATOM      4  C   UNL     1       3.050 -20.120 -13.544  1.00  0.00     0.006 C 
BRANCH   4   5
ATOM      5  C   UNL     1       3.484 -20.091 -12.073  1.00  0.00     0.053 C 
BRANCH   5   6
ATOM      6  C   UNL     1       4.397 -21.238 -11.776  1.00  0.00     0.041 C 
ATOM      7  O   UNL     1       4.028 -22.156 -10.997  1.00  0.00    -0.550 OA
ATOM      8  O   UNL     1       5.636 -21.319 -12.396  1.00  0.00    -0.550 OA
ENDBRANCH   5   6
ENDBRANCH   4   5
ENDBRANCH   3   4
ENDBRANCH   2   3
ENDBRANCH   1   2
BRANCH   1   9
ATOM      9  C   UNL     1       0.244 -22.104 -16.271  1.00  0.00     0.000 C 
BRANCH   9  10
ATOM     10  C   UNL     1       0.474 -23.606 -16.023  1.00  0.00    -0.000 C 
BRANCH  10  11
ATOM     11  C   UNL     1      -0.624 -24.304 -15.194  1.00  0.00    -0.000 C 
BRANCH  11  12
ATOM     12  C   UNL     1      -0.118 -25.102 -13.975  1.00  0.00    -0.000 C 
BRANCH  12  13
ATOM     13  C   UNL     1       0.367 -24.240 -12.796  1.00  0.00    -0.003 C 
ATOM     14  C   UNL     1       1.099 -25.051 -11.727  1.00  0.00     0.004 C 
ENDBRANCH  12  13
ENDBRANCH  11  12
ENDBRANCH  10  11
ENDBRANCH   9  10
ENDBRANCH   1   9
TORSDOF 10
ENDMDL
MODEL 5
REMARK VINA RESULT:    -4.442     12.856     13.867
REMARK INTER + INTRA:          -7.890
REMARK INTER:                  -7.291
REMARK INTRA:                  -0.599
REMARK UNBOUND:                -0.851
REMARK SMILES CCCCCCCCCCCC(=O)[O-]
REMARK SMILES IDX 7 1 8 2 9 3 10 4 11 5 12 6 13 7 14 8 6 9 5 10 4 11 3 12 2 13
REMARK SMILES IDX 1 14
REMARK H PARENT
REMARK Flexibility Score: inf
ROOT
ATOM      1  C   UNL     1      -0.154 -21.193 -15.299  1.00  0.00     0.000 C 
ENDROOT
BRANCH   1   2
ATOM      2  C   UNL     1       0.778 -20.183 -14.619  1.00  0.00     0.000 C 
BRANCH   2   3
ATOM      3  C   UNL     1       1.721 -20.883 -13.629  1.00  0.00     0.000 C 
BRANCH   3   4
ATOM      4  C   UNL     1       3.011 -20.086 -13.375  1.00  0.00     0.006 C 
BRANCH   4   5
ATOM      5  C   UNL     1       3.417 -20.078 -11.895  1.00  0.00     0.053 C 
BRANCH   5   6
ATOM      6  C   UNL     1       4.368 -21.196 -11.610  1.00  0.00     0.041 C 
ATOM      7  O   UNL     1       4.168 -21.965 -10.633  1.00  0.00    -0.550 OA
ATOM      8  O   UNL     1       5.451 -21.420 -12.450  1.00  0.00    -0.550 OA
ENDBRANCH   5   6
ENDBRANCH   4   5
ENDBRANCH   3   4
ENDBRANCH   2   3
ENDBRANCH   1   2
BRANCH   1   9
ATOM      9  C   UNL     1       0.633 -22.133 -16.223  1.00  0.00     0.000 C 
BRANCH   9  10
ATOM     10  C   UNL     1      -0.176 -23.372 -16.645  1.00  0.00    -0.000 C 
BRANCH  10  11
ATOM     11  C   UNL     1      -0.596 -24.301 -15.488  1.00  0.00    -0.000 C 
BRANCH  11  12
ATOM     12  C   UNL     1      -2.029 -24.862 -15.584  1.00  0.00    -0.000 C 
BRANCH  12  13
ATOM     13  C   UNL     1      -2.974 -24.066 -16.501  1.00  0.00    -0.003 C 
ATOM     14  C   UNL     1      -3.429 -24.863 -17.723  1.00  0.00     0.004 C 
ENDBRANCH  12  13
ENDBRANCH  11  12
ENDBRANCH  10  11
ENDBRANCH   9  10
ENDBRANCH   1   9
TORSDOF 10
ENDMDL
MODEL 6
REMARK VINA RESULT:    -4.378     12.204     13.524
REMARK INTER + INTRA:          -7.788
REMARK INTER:                  -6.825
REMARK INTRA:                  -0.963
REMARK UNBOUND:                -0.851
REMARK SMILES CCCCCCCCCCCC(=O)[O-]
REMARK SMILES IDX 7 1 8 2 9 3 10 4 11 5 12 6 13 7 14 8 6 9 5 10 4 11 3 12 2 13
REMARK SMILES IDX 1 14
REMARK H PARENT
REMARK Flexibility Score: inf
ROOT
ATOM      1  C   UNL     1       0.256 -21.119 -15.289  1.00  0.00     0.000 C 
ENDROOT
BRANCH   1   2
ATOM      2  C   UNL     1       1.168 -21.220 -14.060  1.00  0.00     0.000 C 
BRANCH   2   3
ATOM      3  C   UNL     1       2.499 -20.492 -14.299  1.00  0.00     0.000 C 
BRANCH   3   4
ATOM      4  C   UNL     1       3.089 -19.897 -13.011  1.00  0.00     0.006 C 
BRANCH   4   5
ATOM      5  C   UNL     1       2.884 -20.806 -11.793  1.00  0.00     0.053 C 
BRANCH   5   6
ATOM      6  C   UNL     1       4.119 -21.607 -11.526  1.00  0.00     0.041 C 
ATOM      7  O   UNL     1       4.129 -22.469 -10.608  1.00  0.00    -0.550 OA
ATOM      8  O   UNL     1       5.244 -21.436 -12.321  1.00  0.00    -0.550 OA
ENDBRANCH   5   6
ENDBRANCH   4   5
ENDBRANCH   3   4
ENDBRANCH   2   3
ENDBRANCH   1   2
BRANCH   1   9
ATOM      9  C   UNL     1      -1.221 -21.047 -14.874  1.00  0.00     0.000 C 
BRANCH   9  10
ATOM     10  C   UNL     1      -2.052 -22.223 -15.417  1.00  0.00    -0.000 C 
BRANCH  10  11
ATOM     11  C   UNL     1      -1.257 -23.258 -16.239  1.00  0.00    -0.000 C 
BRANCH  11  12
ATOM     12  C   UNL     1      -1.044 -24.620 -15.549  1.00  0.00    -0.000 C 
BRANCH  12  13
ATOM     13  C   UNL     1       0.304 -24.772 -14.823  1.00  0.00    -0.003 C 
ATOM     14  C   UNL     1       0.162 -24.794 -13.302  1.00  0.00     0.004 C 
ENDBRANCH  12  13
ENDBRANCH  11  12
ENDBRANCH  10  11
ENDBRANCH   9  10
ENDBRANCH   1   9
TORSDOF 10
ENDMDL
MODEL 7
REMARK VINA RESULT:    -4.366      0.817      2.794
REMARK INTER + INTRA:          -7.770
REMARK INTER:                  -6.949
REMARK INTRA:                  -0.820
REMARK UNBOUND:                -0.851
REMARK SMILES CCCCCCCCCCCC(=O)[O-]
REMARK SMILES IDX 7 1 8 2 9 3 10 4 11 5 12 6 13 7 14 8 6 9 5 10 4 11 3 12 2 13
REMARK SMILES IDX 1 14
REMARK H PARENT
REMARK Flexibility Score: inf
ROOT
ATOM      1  C   UNL     1      -6.807 -21.541  -7.266  1.00  0.00     0.000 C 
ENDROOT
BRANCH   1   2
ATOM      2  C   UNL     1      -6.950 -20.768  -5.949  1.00  0.00     0.000 C 
BRANCH   2   3
ATOM      3  C   UNL     1      -7.427 -19.330  -6.203  1.00  0.00     0.000 C 
BRANCH   3   4
ATOM      4  C   UNL     1      -8.906 -19.122  -5.841  1.00  0.00     0.006 C 
BRANCH   4   5
ATOM      5  C   UNL     1      -9.720 -18.531  -6.999  1.00  0.00     0.053 C 
BRANCH   5   6
ATOM      6  C   UNL     1     -10.556 -19.591  -7.643  1.00  0.00     0.041 C 
ATOM      7  O   UNL     1     -10.915 -19.473  -8.844  1.00  0.00    -0.550 OA
ATOM      8  O   UNL     1     -10.899 -20.734  -6.932  1.00  0.00    -0.550 OA
ENDBRANCH   5   6
ENDBRANCH   4   5
ENDBRANCH   3   4
ENDBRANCH   2   3
ENDBRANCH   1   2
BRANCH   1   9
ATOM      9  C   UNL     1      -6.019 -22.841  -7.058  1.00  0.00     0.000 C 
BRANCH   9  10
ATOM     10  C   UNL     1      -6.623 -23.738  -5.962  1.00  0.00    -0.000 C 
BRANCH  10  11
ATOM     11  C   UNL     1      -5.738 -23.924  -4.712  1.00  0.00    -0.000 C 
BRANCH  11  12
ATOM     12  C   UNL     1      -6.304 -23.320  -3.412  1.00  0.00    -0.000 C 
BRANCH  12  13
ATOM     13  C   UNL     1      -5.464 -22.179  -2.811  1.00  0.00    -0.003 C 
ATOM     14  C   UNL     1      -6.313 -20.997  -2.345  1.00  0.00     0.004 C 
ENDBRANCH  12  13
ENDBRANCH  11  12
ENDBRANCH  10  11
ENDBRANCH   9  10
ENDBRANCH   1   9
TORSDOF 10
ENDMDL
MODEL 8
REMARK VINA RESULT:    -4.272     11.687     13.215
REMARK INTER + INTRA:          -7.620
REMARK INTER:                  -6.410
REMARK INTRA:                  -1.211
REMARK UNBOUND:                -0.851
REMARK SMILES CCCCCCCCCCCC(=O)[O-]
REMARK SMILES IDX 7 1 8 2 9 3 10 4 11 5 12 6 13 7 14 8 6 9 5 10 4 11 3 12 2 13
REMARK SMILES IDX 1 14
REMARK H PARENT
REMARK Flexibility Score: inf
ROOT
ATOM      1  C   UNL     1       0.077 -21.054 -13.199  1.00  0.00     0.000 C 
ENDROOT
BRANCH   1   2
ATOM      2  C   UNL     1       1.116 -20.042 -13.696  1.00  0.00     0.000 C 
BRANCH   2   3
ATOM      3  C   UNL     1       2.432 -20.741 -14.069  1.00  0.00     0.000 C 
BRANCH   3   4
ATOM      4  C   UNL     1       3.654 -20.113 -13.380  1.00  0.00     0.006 C 
BRANCH   4   5
ATOM      5  C   UNL     1       4.178 -20.964 -12.217  1.00  0.00     0.053 C 
BRANCH   5   6
ATOM      6  C   UNL     1       3.818 -20.336 -10.908  1.00  0.00     0.041 C 
ATOM      7  O   UNL     1       2.632 -20.383 -10.487  1.00  0.00    -0.550 OA
ATOM      8  O   UNL     1       4.801 -19.739 -10.129  1.00  0.00    -0.550 OA
ENDBRANCH   5   6
ENDBRANCH   4   5
ENDBRANCH   3   4
ENDBRANCH   2   3
ENDBRANCH   1   2
BRANCH   1   9
ATOM      9  C   UNL     1       0.711 -22.435 -12.987  1.00  0.00     0.000 C 
BRANCH   9  10
ATOM     10  C   UNL     1      -0.331 -23.564 -12.892  1.00  0.00    -0.000 C 
BRANCH  10  11
ATOM     11  C   UNL     1      -0.034 -24.800 -13.766  1.00  0.00    -0.000 C 
BRANCH  11  12
ATOM     12  C   UNL     1       0.561 -24.493 -15.155  1.00  0.00    -0.000 C 
BRANCH  12  13
ATOM     13  C   UNL     1      -0.384 -23.743 -16.111  1.00  0.00    -0.003 C 
ATOM     14  C   UNL     1       0.263 -22.512 -16.744  1.00  0.00     0.004 C 
ENDBRANCH  12  13
ENDBRANCH  11  12
ENDBRANCH  10  11
ENDBRANCH   9  10
ENDBRANCH   1   9
TORSDOF 10
ENDMDL
MODEL 9
REMARK VINA RESULT:    -4.213     11.568     13.211
REMARK INTER + INTRA:          -7.526
REMARK INTER:                  -6.351
REMARK INTRA:                  -1.176
REMARK UNBOUND:                -0.851
REMARK SMILES CCCCCCCCCCCC(=O)[O-]
REMARK SMILES IDX 7 1 8 2 9 3 10 4 11 5 12 6 13 7 14 8 6 9 5 10 4 11 3 12 2 13
REMARK SMILES IDX 1 14
REMARK H PARENT
REMARK Flexibility Score: inf
ROOT
ATOM      1  C   UNL     1       0.078 -23.609 -11.455  1.00  0.00     0.000 C 
ENDROOT
BRANCH   1   2
ATOM      2  C   UNL     1       0.234 -22.248 -12.144  1.00  0.00     0.000 C 
BRANCH   2   3
ATOM      3  C   UNL     1       1.686 -21.753 -12.066  1.00  0.00     0.000 C 
BRANCH   3   4
ATOM      4  C   UNL     1       1.893 -20.407 -12.777  1.00  0.00     0.006 C 
BRANCH   4   5
ATOM      5  C   UNL     1       3.303 -20.258 -13.361  1.00  0.00     0.053 C 
BRANCH   5   6
ATOM      6  C   UNL     1       4.333 -20.445 -12.292  1.00  0.00     0.041 C 
ATOM      7  O   UNL     1       4.272 -19.771 -11.230  1.00  0.00    -0.550 OA
ATOM      8  O   UNL     1       5.332 -21.397 -12.447  1.00  0.00    -0.550 OA
ENDBRANCH   5   6
ENDBRANCH   4   5
ENDBRANCH   3   4
ENDBRANCH   2   3
ENDBRANCH   1   2
BRANCH   1   9
ATOM      9  C   UNL     1       0.795 -24.712 -12.246  1.00  0.00     0.000 C 
BRANCH   9  10
ATOM     10  C   UNL     1      -0.071 -25.295 -13.377  1.00  0.00    -0.000 C 
BRANCH  10  11
ATOM     11  C   UNL     1       0.460 -25.039 -14.802  1.00  0.00    -0.000 C 
BRANCH  11  12
ATOM     12  C   UNL     1      -0.183 -23.846 -15.537  1.00  0.00    -0.000 C 
BRANCH  12  13
ATOM     13  C   UNL     1       0.780 -22.690 -15.858  1.00  0.00    -0.003 C 
ATOM     14  C   UNL     1       0.107 -21.319 -15.795  1.00  0.00     0.004 C 
ENDBRANCH  12  13
ENDBRANCH  11  12
ENDBRANCH  10  11
ENDBRANCH   9  10
ENDBRANCH   1   9
TORSDOF 10
ENDMDL
