MODEL 1
REMARK VINA RESULT:    -4.026      0.000      0.000
REMARK INTER + INTRA:         -13.034
REMARK INTER:                  -9.203
REMARK INTRA:                  -3.831
REMARK UNBOUND:                -3.831
REMARK SMILES CCCCCCCCCCCCCCCCCCCCCCCC(=O)[O-]
REMARK SMILES IDX 13 1 14 2 15 3 16 4 17 5 18 6 19 7 20 8 21 9 22 10 23 11
REMARK SMILES IDX 24 12 25 13 26 14 12 15 11 16 10 17 9 18 8 19 7 20 6 21 5 22
REMARK SMILES IDX 4 23 3 24 2 25 1 26
REMARK H PARENT
REMARK Flexibility Score: inf
ROOT
ATOM      1  C   UNL     1      96.723  83.877  78.103  1.00  0.00     0.000 C 
ENDROOT
BRANCH   1   2
ATOM      2  C   UNL     1      96.288  82.816  79.137  1.00  0.00     0.000 C 
BRANCH   2   3
ATOM      3  C   UNL     1      97.274  81.651  79.335  1.00  0.00     0.000 C 
BRANCH   3   4
ATOM      4  C   UNL     1      98.585  82.026  80.050  1.00  0.00     0.000 C 
BRANCH   4   5
ATOM      5  C   UNL     1      98.387  82.943  81.280  1.00  0.00     0.000 C 
BRANCH   5   6
ATOM      6  C   UNL     1      99.049  84.331  81.161  1.00  0.00     0.000 C 
BRANCH   6   7
ATOM      7  C   UNL     1      98.078  85.527  81.217  1.00  0.00     0.000 C 
BRANCH   7   8
ATOM      8  C   UNL     1      96.945  85.408  82.253  1.00  0.00     0.000 C 
BRANCH   8   9
ATOM      9  C   UNL     1      95.537  85.656  81.671  1.00  0.00     0.000 C 
BRANCH   9  10
ATOM     10  C   UNL     1      94.612  84.437  81.830  1.00  0.00     0.006 C 
BRANCH  10  11
ATOM     11  C   UNL     1      93.515  84.673  82.877  1.00  0.00     0.053 C 
BRANCH  11  12
ATOM     12  C   UNL     1      93.631  83.724  84.032  1.00  0.00     0.041 C 
ATOM     13  O   UNL     1      94.761  83.449  84.517  1.00  0.00    -0.550 OA
ATOM     14  O   UNL     1      92.497  83.104  84.536  1.00  0.00    -0.550 OA
ENDBRANCH  11  12
ENDBRANCH  10  11
ENDBRANCH   9  10
ENDBRANCH   8   9
ENDBRANCH   7   8
ENDBRANCH   6   7
ENDBRANCH   5   6
ENDBRANCH   4   5
ENDBRANCH   3   4
ENDBRANCH   2   3
ENDBRANCH   1   2
BRANCH   1  15
ATOM     15  C   UNL     1      95.906  85.184  78.124  1.00  0.00     0.000 C 
BRANCH  15  16
ATOM     16  C   UNL     1      94.704  85.216  77.161  1.00  0.00     0.000 C 
BRANCH  16  17
ATOM     17  C   UNL     1      93.339  84.915  77.813  1.00  0.00     0.000 C 
BRANCH  17  18
ATOM     18  C   UNL     1      93.060  83.426  78.083  1.00  0.00    -0.000 C 
BRANCH  18  19
ATOM     19  C   UNL     1      91.946  82.854  77.194  1.00  0.00    -0.000 C 
BRANCH  19  20
ATOM     20  C   UNL     1      91.077  83.980  76.609  1.00  0.00    -0.000 C 
BRANCH  20  21
ATOM     21  C   UNL     1      89.577  83.780  76.913  1.00  0.00    -0.000 C 
BRANCH  21  22
ATOM     22  C   UNL     1      89.233  83.861  78.410  1.00  0.00    -0.000 C 
BRANCH  22  23
ATOM     23  C   UNL     1      89.403  85.276  78.988  1.00  0.00    -0.000 C 
BRANCH  23  24
ATOM     24  C   UNL     1      90.293  85.299  80.240  1.00  0.00    -0.000 C 
BRANCH  24  25
ATOM     25  C   UNL     1      90.617  83.891  80.759  1.00  0.00    -0.003 C 
ATOM     26  C   UNL     1      89.829  83.577  82.027  1.00  0.00     0.004 C 
ENDBRANCH  24  25
ENDBRANCH  23  24
ENDBRANCH  22  23
ENDBRANCH  21  22
ENDBRANCH  20  21
ENDBRANCH  19  20
ENDBRANCH  18  19
ENDBRANCH  17  18
ENDBRANCH  16  17
ENDBRANCH  15  16
ENDBRANCH   1  15
TORSDOF 22
ENDMDL
MODEL 2
REMARK VINA RESULT:    -3.930      2.956      7.282
REMARK INTER + INTRA:         -12.815
REMARK INTER:                  -8.633
REMARK INTRA:                  -4.182
REMARK UNBOUND:                -3.831
REMARK SMILES CCCCCCCCCCCCCCCCCCCCCCCC(=O)[O-]
REMARK SMILES IDX 13 1 14 2 15 3 16 4 17 5 18 6 19 7 20 8 21 9 22 10 23 11
REMARK SMILES IDX 24 12 25 13 26 14 12 15 11 16 10 17 9 18 8 19 7 20 6 21 5 22
REMARK SMILES IDX 4 23 3 24 2 25 1 26
REMARK H PARENT
REMARK Flexibility Score: inf
ROOT
ATOM      1  C   UNL     1      98.552  82.381  84.075  1.00  0.00     0.000 C 
ENDROOT
BRANCH   1   2
ATOM      2  C   UNL     1     100.006  82.697  83.663  1.00  0.00     0.000 C 
BRANCH   2   3
ATOM      3  C   UNL     1     100.156  83.717  82.519  1.00  0.00     0.000 C 
BRANCH   3   4
ATOM      4  C   UNL     1     100.869  83.182  81.263  1.00  0.00     0.000 C 
BRANCH   4   5
ATOM      5  C   UNL     1      99.977  82.288  80.370  1.00  0.00     0.000 C 
BRANCH   5   6
ATOM      6  C   UNL     1      98.585  82.874  80.060  1.00  0.00     0.000 C 
BRANCH   6   7
ATOM      7  C   UNL     1      97.492  81.834  79.742  1.00  0.00     0.000 C 
BRANCH   7   8
ATOM      8  C   UNL     1      96.242  82.388  79.035  1.00  0.00     0.000 C 
BRANCH   8   9
ATOM      9  C   UNL     1      96.483  83.720  78.291  1.00  0.00     0.000 C 
BRANCH   9  10
ATOM     10  C   UNL     1      95.290  84.684  78.411  1.00  0.00     0.006 C 
BRANCH  10  11
ATOM     11  C   UNL     1      94.037  83.993  78.964  1.00  0.00     0.053 C 
BRANCH  11  12
ATOM     12  C   UNL     1      93.043  83.690  77.884  1.00  0.00     0.041 C 
ATOM     13  O   UNL     1      91.992  83.047  78.149  1.00  0.00    -0.550 OA
ATOM     14  O   UNL     1      93.303  84.073  76.576  1.00  0.00    -0.550 OA
ENDBRANCH  11  12
ENDBRANCH  10  11
ENDBRANCH   9  10
ENDBRANCH   8   9
ENDBRANCH   7   8
ENDBRANCH   6   7
ENDBRANCH   5   6
ENDBRANCH   4   5
ENDBRANCH   3   4
ENDBRANCH   2   3
ENDBRANCH   1   2
BRANCH   1  15
ATOM     15  C   UNL     1      97.960  83.314  85.151  1.00  0.00     0.000 C 
BRANCH  15  16
ATOM     16  C   UNL     1      96.779  84.183  84.679  1.00  0.00     0.000 C 
BRANCH  16  17
ATOM     17  C   UNL     1      95.862  83.523  83.630  1.00  0.00     0.000 C 
BRANCH  17  18
ATOM     18  C   UNL     1      95.911  84.159  82.230  1.00  0.00    -0.000 C 
BRANCH  18  19
ATOM     19  C   UNL     1      96.277  85.650  82.262  1.00  0.00    -0.000 C 
BRANCH  19  20
ATOM     20  C   UNL     1      97.565  85.916  81.466  1.00  0.00    -0.000 C 
BRANCH  20  21
ATOM     21  C   UNL     1      97.381  87.021  80.404  1.00  0.00    -0.000 C 
BRANCH  21  22
ATOM     22  C   UNL     1      98.683  87.406  79.680  1.00  0.00    -0.000 C 
BRANCH  22  23
ATOM     23  C   UNL     1      99.804  86.374  79.876  1.00  0.00    -0.000 C 
BRANCH  23  24
ATOM     24  C   UNL     1     101.126  86.807  79.222  1.00  0.00    -0.000 C 
BRANCH  24  25
ATOM     25  C   UNL     1     102.355  86.374  80.034  1.00  0.00    -0.003 C 
ATOM     26  C   UNL     1     102.169  86.680  81.518  1.00  0.00     0.004 C 
ENDBRANCH  24  25
ENDBRANCH  23  24
ENDBRANCH  22  23
ENDBRANCH  21  22
ENDBRANCH  20  21
ENDBRANCH  19  20
ENDBRANCH  18  19
ENDBRANCH  17  18
ENDBRANCH  16  17
ENDBRANCH  15  16
ENDBRANCH   1  15
TORSDOF 22
ENDMDL
MODEL 3
REMARK VINA RESULT:    -3.904      3.761      8.282
REMARK INTER + INTRA:         -12.756
REMARK INTER:                  -8.579
REMARK INTRA:                  -4.177
REMARK UNBOUND:                -3.831
REMARK SMILES CCCCCCCCCCCCCCCCCCCCCCCC(=O)[O-]
REMARK SMILES IDX 13 1 14 2 15 3 16 4 17 5 18 6 19 7 20 8 21 9 22 10 23 11
REMARK SMILES IDX 24 12 25 13 26 14 12 15 11 16 10 17 9 18 8 19 7 20 6 21 5 22
REMARK SMILES IDX 4 23 3 24 2 25 1 26
REMARK H PARENT
REMARK Flexibility Score: inf
ROOT
ATOM      1  C   UNL     1      96.102  83.935  77.998  1.00  0.00     0.000 C 
ENDROOT
BRANCH   1   2
ATOM      2  C   UNL     1      95.277  85.162  77.554  1.00  0.00     0.000 C 
BRANCH   2   3
ATOM      3  C   UNL     1      94.085  85.513  78.464  1.00  0.00     0.000 C 
BRANCH   3   4
ATOM      4  C   UNL     1      94.358  86.632  79.486  1.00  0.00     0.000 C 
BRANCH   4   5
ATOM      5  C   UNL     1      94.389  86.144  80.954  1.00  0.00     0.000 C 
BRANCH   5   6
ATOM      6  C   UNL     1      95.726  86.385  81.683  1.00  0.00     0.000 C 
BRANCH   6   7
ATOM      7  C   UNL     1      96.878  85.451  81.264  1.00  0.00     0.000 C 
BRANCH   7   8
ATOM      8  C   UNL     1      98.182  86.159  80.850  1.00  0.00     0.000 C 
BRANCH   8   9
ATOM      9  C   UNL     1      98.573  85.935  79.374  1.00  0.00     0.000 C 
BRANCH   9  10
ATOM     10  C   UNL     1      99.032  87.232  78.684  1.00  0.00     0.006 C 
BRANCH  10  11
ATOM     11  C   UNL     1      98.131  87.611  77.500  1.00  0.00     0.053 C 
BRANCH  11  12
ATOM     12  C   UNL     1      97.072  88.594  77.897  1.00  0.00     0.041 C 
ATOM     13  O   UNL     1      97.125  89.169  79.017  1.00  0.00    -0.550 OA
ATOM     14  O   UNL     1      95.998  88.834  77.051  1.00  0.00    -0.550 OA
ENDBRANCH  11  12
ENDBRANCH  10  11
ENDBRANCH   9  10
ENDBRANCH   8   9
ENDBRANCH   7   8
ENDBRANCH   6   7
ENDBRANCH   5   6
ENDBRANCH   4   5
ENDBRANCH   3   4
ENDBRANCH   2   3
ENDBRANCH   1   2
BRANCH   1  15
ATOM     15  C   UNL     1      95.345  82.922  78.881  1.00  0.00     0.000 C 
BRANCH  15  16
ATOM     16  C   UNL     1      96.214  81.793  79.467  1.00  0.00     0.000 C 
BRANCH  16  17
ATOM     17  C   UNL     1      97.736  81.994  79.311  1.00  0.00     0.000 C 
BRANCH  17  18
ATOM     18  C   UNL     1      98.511  82.146  80.631  1.00  0.00    -0.000 C 
BRANCH  18  19
ATOM     19  C   UNL     1     100.020  82.338  80.421  1.00  0.00    -0.000 C 
BRANCH  19  20
ATOM     20  C   UNL     1     100.569  83.436  81.346  1.00  0.00    -0.000 C 
BRANCH  20  21
ATOM     21  C   UNL     1     101.863  84.073  80.797  1.00  0.00    -0.000 C 
BRANCH  21  22
ATOM     22  C   UNL     1     101.918  85.602  80.959  1.00  0.00    -0.000 C 
BRANCH  22  23
ATOM     23  C   UNL     1     102.469  86.317  79.716  1.00  0.00    -0.000 C 
BRANCH  23  24
ATOM     24  C   UNL     1     103.063  87.697  80.042  1.00  0.00    -0.000 C 
BRANCH  24  25
ATOM     25  C   UNL     1     102.523  88.803  79.125  1.00  0.00    -0.003 C 
ATOM     26  C   UNL     1     101.545  89.706  79.871  1.00  0.00     0.004 C 
ENDBRANCH  24  25
ENDBRANCH  23  24
ENDBRANCH  22  23
ENDBRANCH  21  22
ENDBRANCH  20  21
ENDBRANCH  19  20
ENDBRANCH  18  19
ENDBRANCH  17  18
ENDBRANCH  16  17
ENDBRANCH  15  16
ENDBRANCH   1  15
TORSDOF 22
ENDMDL
MODEL 4
REMARK VINA RESULT:    -3.888      2.695      5.526
REMARK INTER + INTRA:         -12.720
REMARK INTER:                  -8.627
REMARK INTRA:                  -4.093
REMARK UNBOUND:                -3.831
REMARK SMILES CCCCCCCCCCCCCCCCCCCCCCCC(=O)[O-]
REMARK SMILES IDX 13 1 14 2 15 3 16 4 17 5 18 6 19 7 20 8 21 9 22 10 23 11
REMARK SMILES IDX 24 12 25 13 26 14 12 15 11 16 10 17 9 18 8 19 7 20 6 21 5 22
REMARK SMILES IDX 4 23 3 24 2 25 1 26
REMARK H PARENT
REMARK Flexibility Score: inf
ROOT
ATOM      1  C   UNL     1     100.672  85.219  81.180  1.00  0.00     0.000 C 
ENDROOT
BRANCH   1   2
ATOM      2  C   UNL     1     100.034  85.993  80.006  1.00  0.00     0.000 C 
BRANCH   2   3
ATOM      3  C   UNL     1      98.508  86.180  80.096  1.00  0.00     0.000 C 
BRANCH   3   4
ATOM      4  C   UNL     1      97.884  85.768  81.443  1.00  0.00     0.000 C 
BRANCH   4   5
ATOM      5  C   UNL     1      96.384  86.124  81.572  1.00  0.00     0.000 C 
BRANCH   5   6
ATOM      6  C   UNL     1      95.544  85.093  82.352  1.00  0.00     0.000 C 
BRANCH   6   7
ATOM      7  C   UNL     1      96.332  83.888  82.905  1.00  0.00     0.000 C 
BRANCH   7   8
ATOM      8  C   UNL     1      96.183  83.643  84.418  1.00  0.00     0.000 C 
BRANCH   8   9
ATOM      9  C   UNL     1      97.523  83.401  85.146  1.00  0.00     0.000 C 
BRANCH   9  10
ATOM     10  C   UNL     1      98.355  84.687  85.291  1.00  0.00     0.006 C 
BRANCH  10  11
ATOM     11  C   UNL     1      99.732  84.567  84.623  1.00  0.00     0.053 C 
BRANCH  11  12
ATOM     12  C   UNL     1     100.476  83.353  85.090  1.00  0.00     0.041 C 
ATOM     13  O   UNL     1     100.429  82.284  84.425  1.00  0.00    -0.550 OA
ATOM     14  O   UNL     1     101.177  83.388  86.287  1.00  0.00    -0.550 OA
ENDBRANCH  11  12
ENDBRANCH  10  11
ENDBRANCH   9  10
ENDBRANCH   8   9
ENDBRANCH   7   8
ENDBRANCH   6   7
ENDBRANCH   5   6
ENDBRANCH   4   5
ENDBRANCH   3   4
ENDBRANCH   2   3
ENDBRANCH   1   2
BRANCH   1  15
ATOM     15  C   UNL     1     101.474  83.966  80.778  1.00  0.00     0.000 C 
BRANCH  15  16
ATOM     16  C   UNL     1     100.620  82.750  80.369  1.00  0.00     0.000 C 
BRANCH  16  17
ATOM     17  C   UNL     1      99.372  82.508  81.242  1.00  0.00     0.000 C 
BRANCH  17  18
ATOM     18  C   UNL     1      98.162  81.917  80.498  1.00  0.00    -0.000 C 
BRANCH  18  19
ATOM     19  C   UNL     1      97.902  82.594  79.144  1.00  0.00    -0.000 C 
BRANCH  19  20
ATOM     20  C   UNL     1      96.435  83.038  79.024  1.00  0.00    -0.000 C 
BRANCH  20  21
ATOM     21  C   UNL     1      96.247  84.168  77.989  1.00  0.00    -0.000 C 
BRANCH  21  22
ATOM     22  C   UNL     1      95.007  85.042  78.246  1.00  0.00    -0.000 C 
BRANCH  22  23
ATOM     23  C   UNL     1      94.023  84.408  79.242  1.00  0.00    -0.000 C 
BRANCH  23  24
ATOM     24  C   UNL     1      92.575  84.414  78.727  1.00  0.00    -0.000 C 
BRANCH  24  25
ATOM     25  C   UNL     1      92.134  83.044  78.194  1.00  0.00    -0.003 C 
ATOM     26  C   UNL     1      92.132  83.022  76.668  1.00  0.00     0.004 C 
ENDBRANCH  24  25
ENDBRANCH  23  24
ENDBRANCH  22  23
ENDBRANCH  21  22
ENDBRANCH  20  21
ENDBRANCH  19  20
ENDBRANCH  18  19
ENDBRANCH  17  18
ENDBRANCH  16  17
ENDBRANCH  15  16
ENDBRANCH   1  15
TORSDOF 22
ENDMDL
MODEL 5
REMARK VINA RESULT:    -3.878      1.510      2.540
REMARK INTER + INTRA:         -12.695
REMARK INTER:                  -9.063
REMARK INTRA:                  -3.633
REMARK UNBOUND:                -3.831
REMARK SMILES CCCCCCCCCCCCCCCCCCCCCCCC(=O)[O-]
REMARK SMILES IDX 13 1 14 2 15 3 16 4 17 5 18 6 19 7 20 8 21 9 22 10 23 11
REMARK SMILES IDX 24 12 25 13 26 14 12 15 11 16 10 17 9 18 8 19 7 20 6 21 5 22
REMARK SMILES IDX 4 23 3 24 2 25 1 26
REMARK H PARENT
REMARK Flexibility Score: inf
ROOT
ATOM      1  C   UNL     1      96.244  82.263  78.879  1.00  0.00     0.000 C 
ENDROOT
BRANCH   1   2
ATOM      2  C   UNL     1      97.221  81.917  80.023  1.00  0.00     0.000 C 
BRANCH   2   3
ATOM      3  C   UNL     1      98.714  82.050  79.672  1.00  0.00     0.000 C 
BRANCH   3   4
ATOM      4  C   UNL     1      99.634  82.370  80.864  1.00  0.00     0.000 C 
BRANCH   4   5
ATOM      5  C   UNL     1     100.940  83.099  80.470  1.00  0.00     0.000 C 
BRANCH   5   6
ATOM      6  C   UNL     1     101.261  84.346  81.318  1.00  0.00     0.000 C 
BRANCH   6   7
ATOM      7  C   UNL     1     100.588  85.651  80.847  1.00  0.00     0.000 C 
BRANCH   7   8
ATOM      8  C   UNL     1      99.356  86.087  81.662  1.00  0.00     0.000 C 
BRANCH   8   9
ATOM      9  C   UNL     1      98.013  85.606  81.070  1.00  0.00     0.000 C 
BRANCH   9  10
ATOM     10  C   UNL     1      96.909  85.491  82.135  1.00  0.00     0.006 C 
BRANCH  10  11
ATOM     11  C   UNL     1      96.822  84.079  82.732  1.00  0.00     0.053 C 
BRANCH  11  12
ATOM     12  C   UNL     1      97.067  84.082  84.210  1.00  0.00     0.041 C 
ATOM     13  O   UNL     1      96.210  83.598  84.997  1.00  0.00    -0.550 OA
ATOM     14  O   UNL     1      98.217  84.667  84.721  1.00  0.00    -0.550 OA
ENDBRANCH  11  12
ENDBRANCH  10  11
ENDBRANCH   9  10
ENDBRANCH   8   9
ENDBRANCH   7   8
ENDBRANCH   6   7
ENDBRANCH   5   6
ENDBRANCH   4   5
ENDBRANCH   3   4
ENDBRANCH   2   3
ENDBRANCH   1   2
BRANCH   1  15
ATOM     15  C   UNL     1      96.469  83.638  78.220  1.00  0.00     0.000 C 
BRANCH  15  16
ATOM     16  C   UNL     1      95.520  84.753  78.700  1.00  0.00     0.000 C 
BRANCH  16  17
ATOM     17  C   UNL     1      94.963  85.661  77.585  1.00  0.00     0.000 C 
BRANCH  17  18
ATOM     18  C   UNL     1      94.195  84.928  76.471  1.00  0.00    -0.000 C 
BRANCH  18  19
ATOM     19  C   UNL     1      92.744  84.607  76.856  1.00  0.00    -0.000 C 
BRANCH  19  20
ATOM     20  C   UNL     1      92.595  83.130  77.257  1.00  0.00    -0.000 C 
BRANCH  20  21
ATOM     21  C   UNL     1      91.590  82.934  78.411  1.00  0.00    -0.000 C 
BRANCH  21  22
ATOM     22  C   UNL     1      90.820  84.213  78.785  1.00  0.00    -0.000 C 
BRANCH  22  23
ATOM     23  C   UNL     1      90.990  84.603  80.262  1.00  0.00    -0.000 C 
BRANCH  23  24
ATOM     24  C   UNL     1      92.273  85.411  80.515  1.00  0.00    -0.000 C 
BRANCH  24  25
ATOM     25  C   UNL     1      93.305  84.634  81.344  1.00  0.00    -0.003 C 
ATOM     26  C   UNL     1      92.752  84.283  82.723  1.00  0.00     0.004 C 
ENDBRANCH  24  25
ENDBRANCH  23  24
ENDBRANCH  22  23
ENDBRANCH  21  22
ENDBRANCH  20  21
ENDBRANCH  19  20
ENDBRANCH  18  19
ENDBRANCH  17  18
ENDBRANCH  16  17
ENDBRANCH  15  16
ENDBRANCH   1  15
TORSDOF 22
ENDMDL
MODEL 6
REMARK VINA RESULT:    -3.855      2.616      6.957
REMARK INTER + INTRA:         -12.644
REMARK INTER:                  -8.401
REMARK INTRA:                  -4.243
REMARK UNBOUND:                -3.831
REMARK SMILES CCCCCCCCCCCCCCCCCCCCCCCC(=O)[O-]
REMARK SMILES IDX 13 1 14 2 15 3 16 4 17 5 18 6 19 7 20 8 21 9 22 10 23 11
REMARK SMILES IDX 24 12 25 13 26 14 12 15 11 16 10 17 9 18 8 19 7 20 6 21 5 22
REMARK SMILES IDX 4 23 3 24 2 25 1 26
REMARK H PARENT
REMARK Flexibility Score: inf
ROOT
ATOM      1  C   UNL     1      95.819  84.376  80.862  1.00  0.00     0.000 C 
ENDROOT
BRANCH   1   2
ATOM      2  C   UNL     1      95.165  85.691  81.338  1.00  0.00     0.000 C 
BRANCH   2   3
ATOM      3  C   UNL     1      96.021  86.956  81.141  1.00  0.00     0.000 C 
BRANCH   3   4
ATOM      4  C   UNL     1      95.225  88.230  80.803  1.00  0.00     0.000 C 
BRANCH   4   5
ATOM      5  C   UNL     1      94.716  88.281  79.343  1.00  0.00     0.000 C 
BRANCH   5   6
ATOM      6  C   UNL     1      95.797  88.012  78.276  1.00  0.00     0.000 C 
BRANCH   6   7
ATOM      7  C   UNL     1      95.548  86.777  77.388  1.00  0.00     0.000 C 
BRANCH   7   8
ATOM      8  C   UNL     1      94.300  85.949  77.747  1.00  0.00     0.000 C 
BRANCH   8   9
ATOM      9  C   UNL     1      94.235  84.578  77.040  1.00  0.00     0.000 C 
BRANCH   9  10
ATOM     10  C   UNL     1      93.610  83.487  77.927  1.00  0.00     0.006 C 
BRANCH  10  11
ATOM     11  C   UNL     1      92.612  84.064  78.940  1.00  0.00     0.053 C 
BRANCH  11  12
ATOM     12  C   UNL     1      91.206  83.637  78.644  1.00  0.00     0.041 C 
ATOM     13  O   UNL     1      90.829  83.473  77.453  1.00  0.00    -0.550 OA
ATOM     14  O   UNL     1      90.299  83.473  79.681  1.00  0.00    -0.550 OA
ENDBRANCH  11  12
ENDBRANCH  10  11
ENDBRANCH   9  10
ENDBRANCH   8   9
ENDBRANCH   7   8
ENDBRANCH   6   7
ENDBRANCH   5   6
ENDBRANCH   4   5
ENDBRANCH   3   4
ENDBRANCH   2   3
ENDBRANCH   1   2
BRANCH   1  15
ATOM     15  C   UNL     1      97.049  84.549  79.949  1.00  0.00     0.000 C 
BRANCH  15  16
ATOM     16  C   UNL     1      97.178  83.501  78.827  1.00  0.00     0.000 C 
BRANCH  16  17
ATOM     17  C   UNL     1      97.404  82.054  79.310  1.00  0.00     0.000 C 
BRANCH  17  18
ATOM     18  C   UNL     1      98.465  81.893  80.412  1.00  0.00    -0.000 C 
BRANCH  18  19
ATOM     19  C   UNL     1      99.897  82.109  79.900  1.00  0.00    -0.000 C 
BRANCH  19  20
ATOM     20  C   UNL     1     100.675  83.057  80.828  1.00  0.00    -0.000 C 
BRANCH  20  21
ATOM     21  C   UNL     1     100.014  83.193  82.216  1.00  0.00    -0.000 C 
BRANCH  21  22
ATOM     22  C   UNL     1      99.806  84.651  82.663  1.00  0.00    -0.000 C 
BRANCH  22  23
ATOM     23  C   UNL     1      98.462  84.873  83.373  1.00  0.00    -0.000 C 
BRANCH  23  24
ATOM     24  C   UNL     1      97.812  83.558  83.833  1.00  0.00    -0.000 C 
BRANCH  24  25
ATOM     25  C   UNL     1      97.799  83.411  85.361  1.00  0.00    -0.003 C 
ATOM     26  C   UNL     1      96.439  83.792  85.939  1.00  0.00     0.004 C 
ENDBRANCH  24  25
ENDBRANCH  23  24
ENDBRANCH  22  23
ENDBRANCH  21  22
ENDBRANCH  20  21
ENDBRANCH  19  20
ENDBRANCH  18  19
ENDBRANCH  17  18
ENDBRANCH  16  17
ENDBRANCH  15  16
ENDBRANCH   1  15
TORSDOF 22
ENDMDL
MODEL 7
REMARK VINA RESULT:    -3.848      2.468      5.301
REMARK INTER + INTRA:         -12.628
REMARK INTER:                  -8.426
REMARK INTRA:                  -4.201
REMARK UNBOUND:                -3.831
REMARK SMILES CCCCCCCCCCCCCCCCCCCCCCCC(=O)[O-]
REMARK SMILES IDX 13 1 14 2 15 3 16 4 17 5 18 6 19 7 20 8 21 9 22 10 23 11
REMARK SMILES IDX 24 12 25 13 26 14 12 15 11 16 10 17 9 18 8 19 7 20 6 21 5 22
REMARK SMILES IDX 4 23 3 24 2 25 1 26
REMARK H PARENT
REMARK Flexibility Score: inf
ROOT
ATOM      1  C   UNL     1      98.508  82.653  81.679  1.00  0.00     0.000 C 
ENDROOT
BRANCH   1   2
ATOM      2  C   UNL     1      99.197  82.255  80.357  1.00  0.00     0.000 C 
BRANCH   2   3
ATOM      3  C   UNL     1      98.245  81.999  79.173  1.00  0.00     0.000 C 
BRANCH   3   4
ATOM      4  C   UNL     1      96.796  81.662  79.569  1.00  0.00     0.000 C 
BRANCH   4   5
ATOM      5  C   UNL     1      95.745  82.631  78.980  1.00  0.00     0.000 C 
BRANCH   5   6
ATOM      6  C   UNL     1      96.333  83.895  78.320  1.00  0.00     0.000 C 
BRANCH   6   7
ATOM      7  C   UNL     1      95.828  85.232  78.897  1.00  0.00     0.000 C 
BRANCH   7   8
ATOM      8  C   UNL     1      94.782  85.966  78.038  1.00  0.00     0.000 C 
BRANCH   8   9
ATOM      9  C   UNL     1      94.477  85.270  76.693  1.00  0.00     0.000 C 
BRANCH   9  10
ATOM     10  C   UNL     1      93.039  84.729  76.624  1.00  0.00     0.006 C 
BRANCH  10  11
ATOM     11  C   UNL     1      92.434  84.506  78.017  1.00  0.00     0.053 C 
BRANCH  11  12
ATOM     12  C   UNL     1      91.857  83.130  78.162  1.00  0.00     0.041 C 
ATOM     13  O   UNL     1      92.497  82.126  77.750  1.00  0.00    -0.550 OA
ATOM     14  O   UNL     1      90.590  82.964  78.703  1.00  0.00    -0.550 OA
ENDBRANCH  11  12
ENDBRANCH  10  11
ENDBRANCH   9  10
ENDBRANCH   8   9
ENDBRANCH   7   8
ENDBRANCH   6   7
ENDBRANCH   5   6
ENDBRANCH   4   5
ENDBRANCH   3   4
ENDBRANCH   2   3
ENDBRANCH   1   2
BRANCH   1  15
ATOM     15  C   UNL     1      98.395  84.170  81.927  1.00  0.00     0.000 C 
BRANCH  15  16
ATOM     16  C   UNL     1      96.978  84.669  82.270  1.00  0.00     0.000 C 
BRANCH  16  17
ATOM     17  C   UNL     1      95.951  83.559  82.571  1.00  0.00     0.000 C 
BRANCH  17  18
ATOM     18  C   UNL     1      95.420  83.538  84.015  1.00  0.00    -0.000 C 
BRANCH  18  19
ATOM     19  C   UNL     1      93.943  83.125  84.103  1.00  0.00    -0.000 C 
BRANCH  19  20
ATOM     20  C   UNL     1      93.020  84.311  83.776  1.00  0.00    -0.000 C 
BRANCH  20  21
ATOM     21  C   UNL     1      92.477  84.250  82.332  1.00  0.00    -0.000 C 
BRANCH  21  22
ATOM     22  C   UNL     1      92.885  85.456  81.467  1.00  0.00    -0.000 C 
BRANCH  22  23
ATOM     23  C   UNL     1      92.906  86.776  82.253  1.00  0.00    -0.000 C 
BRANCH  23  24
ATOM     24  C   UNL     1      94.237  87.530  82.105  1.00  0.00    -0.000 C 
BRANCH  24  25
ATOM     25  C   UNL     1      95.127  87.406  83.350  1.00  0.00    -0.003 C 
ATOM     26  C   UNL     1      94.332  87.684  84.623  1.00  0.00     0.004 C 
ENDBRANCH  24  25
ENDBRANCH  23  24
ENDBRANCH  22  23
ENDBRANCH  21  22
ENDBRANCH  20  21
ENDBRANCH  19  20
ENDBRANCH  18  19
ENDBRANCH  17  18
ENDBRANCH  16  17
ENDBRANCH  15  16
ENDBRANCH   1  15
TORSDOF 22
ENDMDL
MODEL 8
REMARK VINA RESULT:    -3.845      2.043      3.832
REMARK INTER + INTRA:         -12.622
REMARK INTER:                  -9.849
REMARK INTRA:                  -2.773
REMARK UNBOUND:                -3.831
REMARK SMILES CCCCCCCCCCCCCCCCCCCCCCCC(=O)[O-]
REMARK SMILES IDX 13 1 14 2 15 3 16 4 17 5 18 6 19 7 20 8 21 9 22 10 23 11
REMARK SMILES IDX 24 12 25 13 26 14 12 15 11 16 10 17 9 18 8 19 7 20 6 21 5 22
REMARK SMILES IDX 4 23 3 24 2 25 1 26
REMARK H PARENT
REMARK Flexibility Score: inf
ROOT
ATOM      1  C   UNL     1      98.801  82.086  80.625  1.00  0.00     0.000 C 
ENDROOT
BRANCH   1   2
ATOM      2  C   UNL     1      99.846  83.213  80.773  1.00  0.00     0.000 C 
BRANCH   2   3
ATOM      3  C   UNL     1      99.356  84.617  80.372  1.00  0.00     0.000 C 
BRANCH   3   4
ATOM      4  C   UNL     1     100.462  85.682  80.266  1.00  0.00     0.000 C 
BRANCH   4   5
ATOM      5  C   UNL     1     101.855  85.187  80.721  1.00  0.00     0.000 C 
BRANCH   5   6
ATOM      6  C   UNL     1     102.294  85.689  82.111  1.00  0.00     0.000 C 
BRANCH   6   7
ATOM      7  C   UNL     1     101.427  86.819  82.703  1.00  0.00     0.000 C 
BRANCH   7   8
ATOM      8  C   UNL     1     100.573  86.423  83.922  1.00  0.00     0.000 C 
BRANCH   8   9
ATOM      9  C   UNL     1     100.738  84.948  84.349  1.00  0.00     0.000 C 
BRANCH   9  10
ATOM     10  C   UNL     1      99.400  84.190  84.374  1.00  0.00     0.006 C 
BRANCH  10  11
ATOM     11  C   UNL     1      98.282  84.961  83.660  1.00  0.00     0.053 C 
BRANCH  11  12
ATOM     12  C   UNL     1      97.069  84.109  83.437  1.00  0.00     0.041 C 
ATOM     13  O   UNL     1      96.418  84.199  82.362  1.00  0.00    -0.550 OA
ATOM     14  O   UNL     1      96.630  83.254  84.437  1.00  0.00    -0.550 OA
ENDBRANCH  11  12
ENDBRANCH  10  11
ENDBRANCH   9  10
ENDBRANCH   8   9
ENDBRANCH   7   8
ENDBRANCH   6   7
ENDBRANCH   5   6
ENDBRANCH   4   5
ENDBRANCH   3   4
ENDBRANCH   2   3
ENDBRANCH   1   2
BRANCH   1  15
ATOM     15  C   UNL     1      98.114  82.008  79.247  1.00  0.00     0.000 C 
BRANCH  15  16
ATOM     16  C   UNL     1      96.611  81.671  79.288  1.00  0.00     0.000 C 
BRANCH  16  17
ATOM     17  C   UNL     1      95.670  82.854  78.983  1.00  0.00     0.000 C 
BRANCH  17  18
ATOM     18  C   UNL     1      96.314  84.015  78.206  1.00  0.00    -0.000 C 
BRANCH  18  19
ATOM     19  C   UNL     1      95.307  85.109  77.820  1.00  0.00    -0.000 C 
BRANCH  19  20
ATOM     20  C   UNL     1      94.300  84.588  76.782  1.00  0.00    -0.000 C 
BRANCH  20  21
ATOM     21  C   UNL     1      92.854  84.574  77.323  1.00  0.00    -0.000 C 
BRANCH  21  22
ATOM     22  C   UNL     1      91.991  83.434  76.754  1.00  0.00    -0.000 C 
BRANCH  22  23
ATOM     23  C   UNL     1      90.513  83.824  76.599  1.00  0.00    -0.000 C 
BRANCH  23  24
ATOM     24  C   UNL     1      89.911  84.388  77.896  1.00  0.00    -0.000 C 
BRANCH  24  25
ATOM     25  C   UNL     1      89.256  83.303  78.762  1.00  0.00    -0.003 C 
ATOM     26  C   UNL     1      89.484  83.572  80.246  1.00  0.00     0.004 C 
ENDBRANCH  24  25
ENDBRANCH  23  24
ENDBRANCH  22  23
ENDBRANCH  21  22
ENDBRANCH  20  21
ENDBRANCH  19  20
ENDBRANCH  18  19
ENDBRANCH  17  18
ENDBRANCH  16  17
ENDBRANCH  15  16
ENDBRANCH   1  15
TORSDOF 22
ENDMDL
MODEL 9
REMARK VINA RESULT:    -3.807      4.470      7.061
REMARK INTER + INTRA:         -12.534
REMARK INTER:                  -8.344
REMARK INTRA:                  -4.190
REMARK UNBOUND:                -3.831
REMARK SMILES CCCCCCCCCCCCCCCCCCCCCCCC(=O)[O-]
REMARK SMILES IDX 13 1 14 2 15 3 16 4 17 5 18 6 19 7 20 8 21 9 22 10 23 11
REMARK SMILES IDX 24 12 25 13 26 14 12 15 11 16 10 17 9 18 8 19 7 20 6 21 5 22
REMARK SMILES IDX 4 23 3 24 2 25 1 26
REMARK H PARENT
REMARK Flexibility Score: inf
ROOT
ATOM      1  C   UNL     1      98.678  81.992  80.605  1.00  0.00     0.000 C 
ENDROOT
BRANCH   1   2
ATOM      2  C   UNL     1      97.957  82.122  79.246  1.00  0.00     0.000 C 
BRANCH   2   3
ATOM      3  C   UNL     1      96.467  81.734  79.256  1.00  0.00     0.000 C 
BRANCH   3   4
ATOM      4  C   UNL     1      95.502  82.857  78.832  1.00  0.00     0.000 C 
BRANCH   4   5
ATOM      5  C   UNL     1      96.199  84.051  78.139  1.00  0.00     0.000 C 
BRANCH   5   6
ATOM      6  C   UNL     1      95.614  85.432  78.496  1.00  0.00     0.000 C 
BRANCH   6   7
ATOM      7  C   UNL     1      96.604  86.414  79.155  1.00  0.00     0.000 C 
BRANCH   7   8
ATOM      8  C   UNL     1      98.092  86.129  78.881  1.00  0.00     0.000 C 
BRANCH   8   9
ATOM      9  C   UNL     1      98.985  86.209  80.138  1.00  0.00     0.000 C 
BRANCH   9  10
ATOM     10  C   UNL     1     100.475  86.375  79.792  1.00  0.00     0.006 C 
BRANCH  10  11
ATOM     11  C   UNL     1     101.253  87.098  80.900  1.00  0.00     0.053 C 
BRANCH  11  12
ATOM     12  C   UNL     1     102.616  87.521  80.442  1.00  0.00     0.041 C 
ATOM     13  O   UNL     1     102.762  88.099  79.332  1.00  0.00    -0.550 OA
ATOM     14  O   UNL     1     103.729  87.228  81.217  1.00  0.00    -0.550 OA
ENDBRANCH  11  12
ENDBRANCH  10  11
ENDBRANCH   9  10
ENDBRANCH   8   9
ENDBRANCH   7   8
ENDBRANCH   6   7
ENDBRANCH   5   6
ENDBRANCH   4   5
ENDBRANCH   3   4
ENDBRANCH   2   3
ENDBRANCH   1   2
BRANCH   1  15
ATOM     15  C   UNL     1     100.006  82.768  80.718  1.00  0.00     0.000 C 
BRANCH  15  16
ATOM     16  C   UNL     1     100.390  83.194  82.147  1.00  0.00     0.000 C 
BRANCH  16  17
ATOM     17  C   UNL     1      99.663  82.431  83.273  1.00  0.00     0.000 C 
BRANCH  17  18
ATOM     18  C   UNL     1      98.630  83.256  84.058  1.00  0.00    -0.000 C 
BRANCH  18  19
ATOM     19  C   UNL     1      98.602  84.734  83.641  1.00  0.00    -0.000 C 
BRANCH  19  20
ATOM     20  C   UNL     1      97.172  85.180  83.293  1.00  0.00    -0.000 C 
BRANCH  20  21
ATOM     21  C   UNL     1      96.575  84.373  82.120  1.00  0.00    -0.000 C 
BRANCH  21  22
ATOM     22  C   UNL     1      95.470  83.390  82.545  1.00  0.00    -0.000 C 
BRANCH  22  23
ATOM     23  C   UNL     1      94.268  84.089  83.202  1.00  0.00    -0.000 C 
BRANCH  23  24
ATOM     24  C   UNL     1      93.953  83.532  84.599  1.00  0.00    -0.000 C 
BRANCH  24  25
ATOM     25  C   UNL     1      94.366  84.493  85.723  1.00  0.00    -0.003 C 
ATOM     26  C   UNL     1      95.662  84.036  86.388  1.00  0.00     0.004 C 
ENDBRANCH  24  25
ENDBRANCH  23  24
ENDBRANCH  22  23
ENDBRANCH  21  22
ENDBRANCH  20  21
ENDBRANCH  19  20
ENDBRANCH  18  19
ENDBRANCH  17  18
ENDBRANCH  16  17
ENDBRANCH  15  16
ENDBRANCH   1  15
TORSDOF 22
ENDMDL
