MODEL 1
REMARK VINA RESULT:    -5.008      0.000      0.000
REMARK INTER + INTRA:         -11.512
REMARK INTER:                  -9.691
REMARK INTRA:                  -1.821
REMARK UNBOUND:                -1.821
REMARK SMILES CCCCCCCCCCCCCCCCCC(=O)[O-]
REMARK SMILES IDX 10 1 11 2 12 3 13 4 14 5 15 6 16 7 17 8 18 9 19 10 20 11
REMARK SMILES IDX 9 12 8 13 7 14 6 15 5 16 4 17 3 18 2 19 1 20
REMARK H PARENT
REMARK Flexibility Score: inf
ROOT
ATOM      1  C   UNL     1      19.413  28.528  30.823  1.00  0.00     0.000 C 
ENDROOT
BRANCH   1   2
ATOM      2  C   UNL     1      19.122  27.611  32.026  1.00  0.00     0.000 C 
BRANCH   2   3
ATOM      3  C   UNL     1      20.252  26.630  32.393  1.00  0.00     0.000 C 
BRANCH   3   4
ATOM      4  C   UNL     1      20.467  26.499  33.911  1.00  0.00     0.000 C 
BRANCH   4   5
ATOM      5  C   UNL     1      19.434  27.310  34.724  1.00  0.00     0.000 C 
BRANCH   5   6
ATOM      6  C   UNL     1      20.034  28.525  35.457  1.00  0.00     0.000 C 
BRANCH   6   7
ATOM      7  C   UNL     1      19.017  29.611  35.858  1.00  0.00     0.006 C 
BRANCH   7   8
ATOM      8  C   UNL     1      17.671  29.523  35.120  1.00  0.00     0.053 C 
BRANCH   8   9
ATOM      9  C   UNL     1      17.623  30.435  33.935  1.00  0.00     0.041 C 
ATOM     10  O   UNL     1      18.559  31.253  33.726  1.00  0.00    -0.550 OA
ATOM     11  O   UNL     1      16.561  30.362  33.042  1.00  0.00    -0.550 OA
ENDBRANCH   8   9
ENDBRANCH   7   8
ENDBRANCH   6   7
ENDBRANCH   5   6
ENDBRANCH   4   5
ENDBRANCH   3   4
ENDBRANCH   2   3
ENDBRANCH   1   2
BRANCH   1  12
ATOM     12  C   UNL     1      18.139  29.112  30.190  1.00  0.00     0.000 C 
BRANCH  12  13
ATOM     13  C   UNL     1      18.424  29.958  28.935  1.00  0.00    -0.000 C 
BRANCH  13  14
ATOM     14  C   UNL     1      18.594  29.162  27.628  1.00  0.00    -0.000 C 
BRANCH  14  15
ATOM     15  C   UNL     1      17.579  28.015  27.487  1.00  0.00    -0.000 C 
BRANCH  15  16
ATOM     16  C   UNL     1      18.227  26.707  27.007  1.00  0.00    -0.000 C 
BRANCH  16  17
ATOM     17  C   UNL     1      19.386  26.254  27.907  1.00  0.00    -0.000 C 
BRANCH  17  18
ATOM     18  C   UNL     1      18.982  25.033  28.748  1.00  0.00    -0.000 C 
BRANCH  18  19
ATOM     19  C   UNL     1      19.002  23.727  27.939  1.00  0.00    -0.003 C 
ATOM     20  C   UNL     1      18.730  22.493  28.801  1.00  0.00     0.004 C 
ENDBRANCH  18  19
ENDBRANCH  17  18
ENDBRANCH  16  17
ENDBRANCH  15  16
ENDBRANCH  14  15
ENDBRANCH  13  14
ENDBRANCH  12  13
ENDBRANCH   1  12
TORSDOF 16
ENDMDL
MODEL 2
REMARK VINA RESULT:    -4.979      1.390      2.058
REMARK INTER + INTRA:         -11.458
REMARK INTER:                  -9.450
REMARK INTRA:                  -2.008
REMARK UNBOUND:                -1.821
REMARK SMILES CCCCCCCCCCCCCCCCCC(=O)[O-]
REMARK SMILES IDX 10 1 11 2 12 3 13 4 14 5 15 6 16 7 17 8 18 9 19 10 20 11
REMARK SMILES IDX 9 12 8 13 7 14 6 15 5 16 4 17 3 18 2 19 1 20
REMARK H PARENT
REMARK Flexibility Score: inf
ROOT
ATOM      1  C   UNL     1      19.234  27.824  31.137  1.00  0.00     0.000 C 
ENDROOT
BRANCH   1   2
ATOM      2  C   UNL     1      19.575  28.420  32.515  1.00  0.00     0.000 C 
BRANCH   2   3
ATOM      3  C   UNL     1      19.155  27.564  33.724  1.00  0.00     0.000 C 
BRANCH   3   4
ATOM      4  C   UNL     1      19.257  28.317  35.061  1.00  0.00     0.000 C 
BRANCH   4   5
ATOM      5  C   UNL     1      18.573  29.701  35.011  1.00  0.00     0.000 C 
BRANCH   5   6
ATOM      6  C   UNL     1      17.050  29.635  34.789  1.00  0.00     0.000 C 
BRANCH   6   7
ATOM      7  C   UNL     1      16.553  30.283  33.483  1.00  0.00     0.006 C 
BRANCH   7   8
ATOM      8  C   UNL     1      17.330  31.541  33.063  1.00  0.00     0.053 C 
BRANCH   8   9
ATOM      9  C   UNL     1      16.677  32.793  33.559  1.00  0.00     0.041 C 
ATOM     10  O   UNL     1      16.048  32.790  34.651  1.00  0.00    -0.550 OA
ATOM     11  O   UNL     1      16.789  33.972  32.834  1.00  0.00    -0.550 OA
ENDBRANCH   8   9
ENDBRANCH   7   8
ENDBRANCH   6   7
ENDBRANCH   5   6
ENDBRANCH   4   5
ENDBRANCH   3   4
ENDBRANCH   2   3
ENDBRANCH   1   2
BRANCH   1  12
ATOM     12  C   UNL     1      17.998  28.472  30.489  1.00  0.00     0.000 C 
BRANCH  12  13
ATOM     13  C   UNL     1      18.355  29.634  29.543  1.00  0.00    -0.000 C 
BRANCH  13  14
ATOM     14  C   UNL     1      18.486  29.257  28.056  1.00  0.00    -0.000 C 
BRANCH  14  15
ATOM     15  C   UNL     1      17.540  28.118  27.640  1.00  0.00    -0.000 C 
BRANCH  15  16
ATOM     16  C   UNL     1      18.277  26.958  26.951  1.00  0.00    -0.000 C 
BRANCH  16  17
ATOM     17  C   UNL     1      19.743  26.840  27.397  1.00  0.00    -0.000 C 
BRANCH  17  18
ATOM     18  C   UNL     1      19.935  25.640  28.337  1.00  0.00    -0.000 C 
BRANCH  18  19
ATOM     19  C   UNL     1      18.730  24.687  28.332  1.00  0.00    -0.003 C 
ATOM     20  C   UNL     1      19.110  23.256  27.948  1.00  0.00     0.004 C 
ENDBRANCH  18  19
ENDBRANCH  17  18
ENDBRANCH  16  17
ENDBRANCH  15  16
ENDBRANCH  14  15
ENDBRANCH  13  14
ENDBRANCH  12  13
ENDBRANCH   1  12
TORSDOF 16
ENDMDL
MODEL 3
REMARK VINA RESULT:    -4.939      3.400      7.619
REMARK INTER + INTRA:         -11.379
REMARK INTER:                  -9.644
REMARK INTRA:                  -1.735
REMARK UNBOUND:                -1.821
REMARK SMILES CCCCCCCCCCCCCCCCCC(=O)[O-]
REMARK SMILES IDX 10 1 11 2 12 3 13 4 14 5 15 6 16 7 17 8 18 9 19 10 20 11
REMARK SMILES IDX 9 12 8 13 7 14 6 15 5 16 4 17 3 18 2 19 1 20
REMARK H PARENT
REMARK Flexibility Score: inf
ROOT
ATOM      1  C   UNL     1      18.796  30.065  29.278  1.00  0.00     0.000 C 
ENDROOT
BRANCH   1   2
ATOM      2  C   UNL     1      18.645  29.691  27.792  1.00  0.00     0.000 C 
BRANCH   2   3
ATOM      3  C   UNL     1      17.757  28.464  27.510  1.00  0.00     0.000 C 
BRANCH   3   4
ATOM      4  C   UNL     1      18.500  27.340  26.768  1.00  0.00     0.000 C 
BRANCH   4   5
ATOM      5  C   UNL     1      19.391  26.501  27.711  1.00  0.00     0.000 C 
BRANCH   5   6
ATOM      6  C   UNL     1      18.623  25.424  28.499  1.00  0.00     0.000 C 
BRANCH   6   7
ATOM      7  C   UNL     1      19.429  24.149  28.816  1.00  0.00     0.006 C 
BRANCH   7   8
ATOM      8  C   UNL     1      19.114  22.956  27.901  1.00  0.00     0.053 C 
BRANCH   8   9
ATOM      9  C   UNL     1      19.039  21.671  28.664  1.00  0.00     0.041 C 
ATOM     10  O   UNL     1      19.031  21.682  29.924  1.00  0.00    -0.550 OA
ATOM     11  O   UNL     1      18.947  20.461  27.986  1.00  0.00    -0.550 OA
ENDBRANCH   8   9
ENDBRANCH   7   8
ENDBRANCH   6   7
ENDBRANCH   5   6
ENDBRANCH   4   5
ENDBRANCH   3   4
ENDBRANCH   2   3
ENDBRANCH   1   2
BRANCH   1  12
ATOM     12  C   UNL     1      18.256  28.984  30.229  1.00  0.00     0.000 C 
BRANCH  12  13
ATOM     13  C   UNL     1      19.197  28.701  31.414  1.00  0.00    -0.000 C 
BRANCH  13  14
ATOM     14  C   UNL     1      19.638  27.233  31.570  1.00  0.00    -0.000 C 
BRANCH  14  15
ATOM     15  C   UNL     1      19.764  26.797  33.039  1.00  0.00    -0.000 C 
BRANCH  15  16
ATOM     16  C   UNL     1      19.876  27.989  34.003  1.00  0.00    -0.000 C 
BRANCH  16  17
ATOM     17  C   UNL     1      18.669  28.104  34.947  1.00  0.00    -0.000 C 
BRANCH  17  18
ATOM     18  C   UNL     1      18.295  29.575  35.182  1.00  0.00    -0.000 C 
BRANCH  18  19
ATOM     19  C   UNL     1      16.832  29.878  34.821  1.00  0.00    -0.003 C 
ATOM     20  C   UNL     1      16.686  30.540  33.450  1.00  0.00     0.004 C 
ENDBRANCH  18  19
ENDBRANCH  17  18
ENDBRANCH  16  17
ENDBRANCH  15  16
ENDBRANCH  14  15
ENDBRANCH  13  14
ENDBRANCH  12  13
ENDBRANCH   1  12
TORSDOF 16
ENDMDL
MODEL 4
REMARK VINA RESULT:    -4.903      2.875      7.634
REMARK INTER + INTRA:         -11.310
REMARK INTER:                  -9.309
REMARK INTRA:                  -2.001
REMARK UNBOUND:                -1.821
REMARK SMILES CCCCCCCCCCCCCCCCCC(=O)[O-]
REMARK SMILES IDX 10 1 11 2 12 3 13 4 14 5 15 6 16 7 17 8 18 9 19 10 20 11
REMARK SMILES IDX 9 12 8 13 7 14 6 15 5 16 4 17 3 18 2 19 1 20
REMARK H PARENT
REMARK Flexibility Score: inf
ROOT
ATOM      1  C   UNL     1      20.005  27.371  32.428  1.00  0.00     0.000 C 
ENDROOT
BRANCH   1   2
ATOM      2  C   UNL     1      18.809  28.178  31.888  1.00  0.00     0.000 C 
BRANCH   2   3
ATOM      3  C   UNL     1      19.154  29.576  31.341  1.00  0.00     0.000 C 
BRANCH   3   4
ATOM      4  C   UNL     1      18.398  29.919  30.045  1.00  0.00     0.000 C 
BRANCH   4   5
ATOM      5  C   UNL     1      19.019  29.241  28.804  1.00  0.00     0.000 C 
BRANCH   5   6
ATOM      6  C   UNL     1      18.012  28.981  27.667  1.00  0.00     0.000 C 
BRANCH   6   7
ATOM      7  C   UNL     1      17.675  27.498  27.422  1.00  0.00     0.006 C 
BRANCH   7   8
ATOM      8  C   UNL     1      17.992  26.571  28.606  1.00  0.00     0.053 C 
BRANCH   8   9
ATOM      9  C   UNL     1      19.045  25.565  28.261  1.00  0.00     0.041 C 
ATOM     10  O   UNL     1      20.234  25.932  28.068  1.00  0.00    -0.550 OA
ATOM     11  O   UNL     1      18.721  24.216  28.185  1.00  0.00    -0.550 OA
ENDBRANCH   8   9
ENDBRANCH   7   8
ENDBRANCH   6   7
ENDBRANCH   5   6
ENDBRANCH   4   5
ENDBRANCH   3   4
ENDBRANCH   2   3
ENDBRANCH   1   2
BRANCH   1  12
ATOM     12  C   UNL     1      19.892  27.060  33.931  1.00  0.00     0.000 C 
BRANCH  12  13
ATOM     13  C   UNL     1      18.759  27.841  34.622  1.00  0.00    -0.000 C 
BRANCH  13  14
ATOM     14  C   UNL     1      19.213  29.023  35.498  1.00  0.00    -0.000 C 
BRANCH  14  15
ATOM     15  C   UNL     1      18.488  30.336  35.157  1.00  0.00    -0.000 C 
BRANCH  15  16
ATOM     16  C   UNL     1      16.990  30.130  34.883  1.00  0.00    -0.000 C 
BRANCH  16  17
ATOM     17  C   UNL     1      16.554  30.689  33.520  1.00  0.00    -0.000 C 
BRANCH  17  18
ATOM     18  C   UNL     1      17.033  32.138  33.342  1.00  0.00    -0.000 C 
BRANCH  18  19
ATOM     19  C   UNL     1      15.956  33.166  33.720  1.00  0.00    -0.003 C 
ATOM     20  C   UNL     1      16.077  33.646  35.167  1.00  0.00     0.004 C 
ENDBRANCH  18  19
ENDBRANCH  17  18
ENDBRANCH  16  17
ENDBRANCH  15  16
ENDBRANCH  14  15
ENDBRANCH  13  14
ENDBRANCH  12  13
ENDBRANCH   1  12
TORSDOF 16
ENDMDL
MODEL 5
REMARK VINA RESULT:    -4.860      2.722      4.838
REMARK INTER + INTRA:         -11.226
REMARK INTER:                  -9.522
REMARK INTRA:                  -1.704
REMARK UNBOUND:                -1.821
REMARK SMILES CCCCCCCCCCCCCCCCCC(=O)[O-]
REMARK SMILES IDX 10 1 11 2 12 3 13 4 14 5 15 6 16 7 17 8 18 9 19 10 20 11
REMARK SMILES IDX 9 12 8 13 7 14 6 15 5 16 4 17 3 18 2 19 1 20
REMARK H PARENT
REMARK Flexibility Score: inf
ROOT
ATOM      1  C   UNL     1      19.302  29.119  35.237  1.00  0.00     0.000 C 
ENDROOT
BRANCH   1   2
ATOM      2  C   UNL     1      18.198  30.175  35.433  1.00  0.00     0.000 C 
BRANCH   2   3
ATOM      3  C   UNL     1      16.821  29.799  34.856  1.00  0.00     0.000 C 
BRANCH   3   4
ATOM      4  C   UNL     1      16.405  30.681  33.665  1.00  0.00     0.000 C 
BRANCH   4   5
ATOM      5  C   UNL     1      17.029  32.092  33.731  1.00  0.00     0.000 C 
BRANCH   5   6
ATOM      6  C   UNL     1      16.005  33.233  33.583  1.00  0.00     0.000 C 
BRANCH   6   7
ATOM      7  C   UNL     1      15.819  34.108  34.838  1.00  0.00     0.006 C 
BRANCH   7   8
ATOM      8  C   UNL     1      16.541  33.584  36.089  1.00  0.00     0.053 C 
BRANCH   8   9
ATOM      9  C   UNL     1      15.579  33.172  37.159  1.00  0.00     0.041 C 
ATOM     10  O   UNL     1      15.290  31.956  37.317  1.00  0.00    -0.550 OA
ATOM     11  O   UNL     1      15.025  34.126  38.003  1.00  0.00    -0.550 OA
ENDBRANCH   8   9
ENDBRANCH   7   8
ENDBRANCH   6   7
ENDBRANCH   5   6
ENDBRANCH   4   5
ENDBRANCH   3   4
ENDBRANCH   2   3
ENDBRANCH   1   2
BRANCH   1  12
ATOM     12  C   UNL     1      18.805  27.855  34.514  1.00  0.00     0.000 C 
BRANCH  12  13
ATOM     13  C   UNL     1      19.469  27.648  33.140  1.00  0.00    -0.000 C 
BRANCH  13  14
ATOM     14  C   UNL     1      19.307  28.816  32.149  1.00  0.00    -0.000 C 
BRANCH  14  15
ATOM     15  C   UNL     1      18.136  28.617  31.172  1.00  0.00    -0.000 C 
BRANCH  15  16
ATOM     16  C   UNL     1      18.599  28.475  29.714  1.00  0.00    -0.000 C 
BRANCH  16  17
ATOM     17  C   UNL     1      17.944  27.285  28.996  1.00  0.00    -0.000 C 
BRANCH  17  18
ATOM     18  C   UNL     1      17.582  27.649  27.549  1.00  0.00    -0.000 C 
BRANCH  18  19
ATOM     19  C   UNL     1      18.576  27.073  26.528  1.00  0.00    -0.003 C 
ATOM     20  C   UNL     1      19.609  28.101  26.064  1.00  0.00     0.004 C 
ENDBRANCH  18  19
ENDBRANCH  17  18
ENDBRANCH  16  17
ENDBRANCH  15  16
ENDBRANCH  14  15
ENDBRANCH  13  14
ENDBRANCH  12  13
ENDBRANCH   1  12
TORSDOF 16
ENDMDL
MODEL 6
REMARK VINA RESULT:    -4.859      2.705      7.366
REMARK INTER + INTRA:         -11.225
REMARK INTER:                  -8.980
REMARK INTRA:                  -2.245
REMARK UNBOUND:                -1.821
REMARK SMILES CCCCCCCCCCCCCCCCCC(=O)[O-]
REMARK SMILES IDX 10 1 11 2 12 3 13 4 14 5 15 6 16 7 17 8 18 9 19 10 20 11
REMARK SMILES IDX 9 12 8 13 7 14 6 15 5 16 4 17 3 18 2 19 1 20
REMARK H PARENT
REMARK Flexibility Score: inf
ROOT
ATOM      1  C   UNL     1      20.232  26.924  33.777  1.00  0.00     0.000 C 
ENDROOT
BRANCH   1   2
ATOM      2  C   UNL     1      19.858  26.950  32.284  1.00  0.00     0.000 C 
BRANCH   2   3
ATOM      3  C   UNL     1      19.076  28.195  31.824  1.00  0.00     0.000 C 
BRANCH   3   4
ATOM      4  C   UNL     1      19.957  29.452  31.714  1.00  0.00     0.000 C 
BRANCH   4   5
ATOM      5  C   UNL     1      19.527  30.372  30.550  1.00  0.00     0.000 C 
BRANCH   5   6
ATOM      6  C   UNL     1      18.261  29.895  29.814  1.00  0.00     0.000 C 
BRANCH   6   7
ATOM      7  C   UNL     1      18.386  29.825  28.280  1.00  0.00     0.006 C 
BRANCH   7   8
ATOM      8  C   UNL     1      18.004  28.465  27.674  1.00  0.00     0.053 C 
BRANCH   8   9
ATOM      9  C   UNL     1      18.796  27.344  28.270  1.00  0.00     0.041 C 
ATOM     10  O   UNL     1      18.210  26.334  28.743  1.00  0.00    -0.550 OA
ATOM     11  O   UNL     1      20.185  27.399  28.276  1.00  0.00    -0.550 OA
ENDBRANCH   8   9
ENDBRANCH   7   8
ENDBRANCH   6   7
ENDBRANCH   5   6
ENDBRANCH   4   5
ENDBRANCH   3   4
ENDBRANCH   2   3
ENDBRANCH   1   2
BRANCH   1  12
ATOM     12  C   UNL     1      19.117  27.467  34.687  1.00  0.00     0.000 C 
BRANCH  12  13
ATOM     13  C   UNL     1      19.523  28.751  35.435  1.00  0.00    -0.000 C 
BRANCH  13  14
ATOM     14  C   UNL     1      18.646  29.984  35.150  1.00  0.00    -0.000 C 
BRANCH  14  15
ATOM     15  C   UNL     1      17.204  29.619  34.762  1.00  0.00    -0.000 C 
BRANCH  15  16
ATOM     16  C   UNL     1      16.732  30.343  33.491  1.00  0.00    -0.000 C 
BRANCH  16  17
ATOM     17  C   UNL     1      17.149  31.822  33.462  1.00  0.00    -0.000 C 
BRANCH  17  18
ATOM     18  C   UNL     1      16.110  32.699  34.177  1.00  0.00    -0.000 C 
BRANCH  18  19
ATOM     19  C   UNL     1      16.269  34.191  33.844  1.00  0.00    -0.003 C 
ATOM     20  C   UNL     1      15.011  34.795  33.219  1.00  0.00     0.004 C 
ENDBRANCH  18  19
ENDBRANCH  17  18
ENDBRANCH  16  17
ENDBRANCH  15  16
ENDBRANCH  14  15
ENDBRANCH  13  14
ENDBRANCH  12  13
ENDBRANCH   1  12
TORSDOF 16
ENDMDL
MODEL 7
REMARK VINA RESULT:    -4.842      2.792      7.484
REMARK INTER + INTRA:         -11.192
REMARK INTER:                  -8.935
REMARK INTRA:                  -2.257
REMARK UNBOUND:                -1.821
REMARK SMILES CCCCCCCCCCCCCCCCCC(=O)[O-]
REMARK SMILES IDX 10 1 11 2 12 3 13 4 14 5 15 6 16 7 17 8 18 9 19 10 20 11
REMARK SMILES IDX 9 12 8 13 7 14 6 15 5 16 4 17 3 18 2 19 1 20
REMARK H PARENT
REMARK Flexibility Score: inf
ROOT
ATOM      1  C   UNL     1      18.081  29.796  31.326  1.00  0.00     0.000 C 
ENDROOT
BRANCH   1   2
ATOM      2  C   UNL     1      18.346  31.048  30.471  1.00  0.00     0.000 C 
BRANCH   2   3
ATOM      3  C   UNL     1      19.240  30.825  29.237  1.00  0.00     0.000 C 
BRANCH   3   4
ATOM      4  C   UNL     1      18.448  30.409  27.985  1.00  0.00     0.000 C 
BRANCH   4   5
ATOM      5  C   UNL     1      18.864  29.017  27.461  1.00  0.00     0.000 C 
BRANCH   5   6
ATOM      6  C   UNL     1      17.754  27.953  27.568  1.00  0.00     0.000 C 
BRANCH   6   7
ATOM      7  C   UNL     1      17.906  26.970  28.744  1.00  0.00     0.006 C 
BRANCH   7   8
ATOM      8  C   UNL     1      19.329  26.421  28.932  1.00  0.00     0.053 C 
BRANCH   8   9
ATOM      9  C   UNL     1      19.381  24.934  28.771  1.00  0.00     0.041 C 
ATOM     10  O   UNL     1      19.973  24.224  29.626  1.00  0.00    -0.550 OA
ATOM     11  O   UNL     1      18.748  24.328  27.693  1.00  0.00    -0.550 OA
ENDBRANCH   8   9
ENDBRANCH   7   8
ENDBRANCH   6   7
ENDBRANCH   5   6
ENDBRANCH   4   5
ENDBRANCH   3   4
ENDBRANCH   2   3
ENDBRANCH   1   2
BRANCH   1  12
ATOM     12  C   UNL     1      19.331  29.303  32.075  1.00  0.00     0.000 C 
BRANCH  12  13
ATOM     13  C   UNL     1      19.362  27.773  32.251  1.00  0.00    -0.000 C 
BRANCH  13  14
ATOM     14  C   UNL     1      19.568  27.280  33.695  1.00  0.00    -0.000 C 
BRANCH  14  15
ATOM     15  C   UNL     1      18.710  28.045  34.718  1.00  0.00    -0.000 C 
BRANCH  15  16
ATOM     16  C   UNL     1      19.559  28.823  35.736  1.00  0.00    -0.000 C 
BRANCH  16  17
ATOM     17  C   UNL     1      19.023  30.240  35.995  1.00  0.00    -0.000 C 
BRANCH  17  18
ATOM     18  C   UNL     1      17.736  30.494  35.195  1.00  0.00    -0.000 C 
BRANCH  18  19
ATOM     19  C   UNL     1      17.700  31.895  34.564  1.00  0.00    -0.003 C 
ATOM     20  C   UNL     1      16.465  32.118  33.691  1.00  0.00     0.004 C 
ENDBRANCH  18  19
ENDBRANCH  17  18
ENDBRANCH  16  17
ENDBRANCH  15  16
ENDBRANCH  14  15
ENDBRANCH  13  14
ENDBRANCH  12  13
ENDBRANCH   1  12
TORSDOF 16
ENDMDL
MODEL 8
REMARK VINA RESULT:    -4.789      3.250      7.720
REMARK INTER + INTRA:         -11.089
REMARK INTER:                  -8.968
REMARK INTRA:                  -2.121
REMARK UNBOUND:                -1.821
REMARK SMILES CCCCCCCCCCCCCCCCCC(=O)[O-]
REMARK SMILES IDX 10 1 11 2 12 3 13 4 14 5 15 6 16 7 17 8 18 9 19 10 20 11
REMARK SMILES IDX 9 12 8 13 7 14 6 15 5 16 4 17 3 18 2 19 1 20
REMARK H PARENT
REMARK Flexibility Score: inf
ROOT
ATOM      1  C   UNL     1      18.253  29.430  35.139  1.00  0.00     0.000 C 
ENDROOT
BRANCH   1   2
ATOM      2  C   UNL     1      18.755  28.033  34.731  1.00  0.00     0.000 C 
BRANCH   2   3
ATOM      3  C   UNL     1      19.869  28.020  33.667  1.00  0.00     0.000 C 
BRANCH   3   4
ATOM      4  C   UNL     1      19.451  27.314  32.365  1.00  0.00     0.000 C 
BRANCH   4   5
ATOM      5  C   UNL     1      19.639  28.211  31.122  1.00  0.00     0.000 C 
BRANCH   5   6
ATOM      6  C   UNL     1      18.316  28.696  30.499  1.00  0.00     0.000 C 
BRANCH   6   7
ATOM      7  C   UNL     1      18.124  28.332  29.014  1.00  0.00     0.006 C 
BRANCH   7   8
ATOM      8  C   UNL     1      17.704  26.874  28.769  1.00  0.00     0.053 C 
BRANCH   8   9
ATOM      9  C   UNL     1      18.425  26.273  27.603  1.00  0.00     0.041 C 
ATOM     10  O   UNL     1      18.418  26.856  26.485  1.00  0.00    -0.550 OA
ATOM     11  O   UNL     1      19.132  25.087  27.756  1.00  0.00    -0.550 OA
ENDBRANCH   8   9
ENDBRANCH   7   8
ENDBRANCH   6   7
ENDBRANCH   5   6
ENDBRANCH   4   5
ENDBRANCH   3   4
ENDBRANCH   2   3
ENDBRANCH   1   2
BRANCH   1  12
ATOM     12  C   UNL     1      16.785  29.679  34.751  1.00  0.00     0.000 C 
BRANCH  12  13
ATOM     13  C   UNL     1      16.635  30.416  33.407  1.00  0.00    -0.000 C 
BRANCH  13  14
ATOM     14  C   UNL     1      17.806  31.342  33.030  1.00  0.00    -0.000 C 
BRANCH  14  15
ATOM     15  C   UNL     1      17.579  32.802  33.455  1.00  0.00    -0.000 C 
BRANCH  15  16
ATOM     16  C   UNL     1      16.102  33.110  33.746  1.00  0.00    -0.000 C 
BRANCH  16  17
ATOM     17  C   UNL     1      15.897  33.812  35.097  1.00  0.00    -0.000 C 
BRANCH  17  18
ATOM     18  C   UNL     1      17.087  33.557  36.034  1.00  0.00    -0.000 C 
BRANCH  18  19
ATOM     19  C   UNL     1      16.813  32.433  37.045  1.00  0.00    -0.003 C 
ATOM     20  C   UNL     1      15.329  32.293  37.387  1.00  0.00     0.004 C 
ENDBRANCH  18  19
ENDBRANCH  17  18
ENDBRANCH  16  17
ENDBRANCH  15  16
ENDBRANCH  14  15
ENDBRANCH  13  14
ENDBRANCH  12  13
ENDBRANCH   1  12
TORSDOF 16
ENDMDL
MODEL 9
REMARK VINA RESULT:    -4.777      1.675      2.434
REMARK INTER + INTRA:         -11.067
REMARK INTER:                  -9.392
REMARK INTRA:                  -1.674
REMARK UNBOUND:                -1.821
REMARK SMILES CCCCCCCCCCCCCCCCCC(=O)[O-]
REMARK SMILES IDX 10 1 11 2 12 3 13 4 14 5 15 6 16 7 17 8 18 9 19 10 20 11
REMARK SMILES IDX 9 12 8 13 7 14 6 15 5 16 4 17 3 18 2 19 1 20
REMARK H PARENT
REMARK Flexibility Score: inf
ROOT
ATOM      1  C   UNL     1      18.445  28.655  32.169  1.00  0.00     0.000 C 
ENDROOT
BRANCH   1   2
ATOM      2  C   UNL     1      19.485  27.522  32.249  1.00  0.00     0.000 C 
BRANCH   2   3
ATOM      3  C   UNL     1      19.882  27.094  33.674  1.00  0.00     0.000 C 
BRANCH   3   4
ATOM      4  C   UNL     1      19.043  27.781  34.765  1.00  0.00     0.000 C 
BRANCH   4   5
ATOM      5  C   UNL     1      19.883  28.742  35.635  1.00  0.00     0.000 C 
BRANCH   5   6
ATOM      6  C   UNL     1      19.076  29.915  36.224  1.00  0.00     0.000 C 
BRANCH   6   7
ATOM      7  C   UNL     1      18.389  30.820  35.183  1.00  0.00     0.006 C 
BRANCH   7   8
ATOM      8  C   UNL     1      16.856  30.704  35.155  1.00  0.00     0.053 C 
BRANCH   8   9
ATOM      9  C   UNL     1      16.193  31.922  35.718  1.00  0.00     0.041 C 
ATOM     10  O   UNL     1      15.985  32.926  34.986  1.00  0.00    -0.550 OA
ATOM     11  O   UNL     1      15.775  31.937  37.043  1.00  0.00    -0.550 OA
ENDBRANCH   8   9
ENDBRANCH   7   8
ENDBRANCH   6   7
ENDBRANCH   5   6
ENDBRANCH   4   5
ENDBRANCH   3   4
ENDBRANCH   2   3
ENDBRANCH   1   2
BRANCH   1  12
ATOM     12  C   UNL     1      18.184  29.133  30.730  1.00  0.00     0.000 C 
BRANCH  12  13
ATOM     13  C   UNL     1      18.329  30.657  30.568  1.00  0.00    -0.000 C 
BRANCH  13  14
ATOM     14  C   UNL     1      18.580  31.145  29.128  1.00  0.00    -0.000 C 
BRANCH  14  15
ATOM     15  C   UNL     1      18.326  30.056  28.072  1.00  0.00    -0.000 C 
BRANCH  15  16
ATOM     16  C   UNL     1      19.576  29.740  27.236  1.00  0.00    -0.000 C 
BRANCH  16  17
ATOM     17  C   UNL     1      19.605  28.287  26.739  1.00  0.00    -0.000 C 
BRANCH  17  18
ATOM     18  C   UNL     1      18.241  27.610  26.942  1.00  0.00    -0.000 C 
BRANCH  18  19
ATOM     19  C   UNL     1      18.369  26.146  27.391  1.00  0.00    -0.003 C 
ATOM     20  C   UNL     1      18.836  26.010  28.841  1.00  0.00     0.004 C 
ENDBRANCH  18  19
ENDBRANCH  17  18
ENDBRANCH  16  17
ENDBRANCH  15  16
ENDBRANCH  14  15
ENDBRANCH  13  14
ENDBRANCH  12  13
ENDBRANCH   1  12
TORSDOF 16
ENDMDL
