MODEL 1
REMARK VINA RESULT:    -3.858      0.000      0.000
REMARK INTER + INTRA:          -4.260
REMARK INTER:                  -4.196
REMARK INTRA:                  -0.063
REMARK UNBOUND:                -0.063
REMARK SMILES COc1cc2ccc(=O)oc2cc1O
REMARK SMILES IDX 3 1 13 2 12 3 11 4 5 5 4 6 6 7 7 8 8 9 9 10 10 11 2 12 1 13
REMARK SMILES IDX 14 14
REMARK H PARENT 14 15
REMARK Flexibility Score: inf
ROOT
ATOM      1  C   UNL     1      51.055  47.677  13.294  1.00  0.00     0.161 A 
ATOM      2  C   UNL     1      50.058  48.595  13.665  1.00  0.00     0.161 A 
ATOM      3  C   UNL     1      48.959  48.175  14.428  1.00  0.00     0.098 A 
ATOM      4  C   UNL     1      48.846  46.841  14.826  1.00  0.00     0.142 A 
ATOM      5  C   UNL     1      49.842  45.913  14.457  1.00  0.00     0.022 A 
ATOM      6  C   UNL     1      50.942  46.331  13.694  1.00  0.00     0.062 A 
ATOM      7  C   UNL     1      49.701  44.584  14.870  1.00  0.00     0.019 A 
ATOM      8  C   UNL     1      48.589  44.217  15.627  1.00  0.00     0.094 A 
ATOM      9  C   UNL     1      47.641  45.192  15.955  1.00  0.00     0.336 A 
ATOM     10  O   UNL     1      46.630  44.881  16.638  1.00  0.00    -0.246 OA
ATOM     11  O   UNL     1      47.800  46.449  15.549  1.00  0.00    -0.423 OA
ENDROOT
BRANCH   1  12
ATOM     12  O   UNL     1      52.138  48.142  12.530  1.00  0.00    -0.493 OA
ATOM     13  C   UNL     1      53.480  48.222  12.999  1.00  0.00     0.278 C 
ENDBRANCH   1  12
BRANCH   2  14
ATOM     14  O   UNL     1      50.169  49.926  13.269  1.00  0.00    -0.504 OA
ATOM     15  H   UNL     1      49.540  50.638  13.622  1.00  0.00     0.293 HD
ENDBRANCH   2  14
TORSDOF 2
ENDMDL
MODEL 2
REMARK VINA RESULT:    -3.824      1.236      5.421
REMARK INTER + INTRA:          -4.223
REMARK INTER:                  -4.160
REMARK INTRA:                  -0.063
REMARK UNBOUND:                -0.063
REMARK SMILES COc1cc2ccc(=O)oc2cc1O
REMARK SMILES IDX 3 1 13 2 12 3 11 4 5 5 4 6 6 7 7 8 8 9 9 10 10 11 2 12 1 13
REMARK SMILES IDX 14 14
REMARK H PARENT 14 15
REMARK Flexibility Score: inf
ROOT
ATOM      1  C   UNL     1      48.057  45.451  15.672  1.00  0.00     0.161 A 
ATOM      2  C   UNL     1      49.079  44.582  15.256  1.00  0.00     0.161 A 
ATOM      3  C   UNL     1      50.131  45.058  14.460  1.00  0.00     0.098 A 
ATOM      4  C   UNL     1      50.170  46.399  14.072  1.00  0.00     0.142 A 
ATOM      5  C   UNL     1      49.147  47.278  14.483  1.00  0.00     0.022 A 
ATOM      6  C   UNL     1      48.095  46.804  15.280  1.00  0.00     0.062 A 
ATOM      7  C   UNL     1      49.213  48.615  14.079  1.00  0.00     0.019 A 
ATOM      8  C   UNL     1      50.280  49.038  13.286  1.00  0.00     0.094 A 
ATOM      9  C   UNL     1      51.259  48.110  12.916  1.00  0.00     0.336 A 
ATOM     10  O   UNL     1      52.229  48.472  12.201  1.00  0.00    -0.246 OA
ATOM     11  O   UNL     1      51.171  46.843  13.314  1.00  0.00    -0.423 OA
ENDROOT
BRANCH   1  12
ATOM     12  O   UNL     1      47.024  44.932  16.468  1.00  0.00    -0.493 OA
ATOM     13  C   UNL     1      45.667  44.817  16.055  1.00  0.00     0.278 C 
ENDBRANCH   1  12
BRANCH   2  14
ATOM     14  O   UNL     1      49.043  43.244  15.642  1.00  0.00    -0.504 OA
ATOM     15  H   UNL     1      48.188  42.702  15.597  1.00  0.00     0.293 HD
ENDBRANCH   2  14
TORSDOF 2
ENDMDL
MODEL 3
REMARK VINA RESULT:    -3.812      1.541      4.742
REMARK INTER + INTRA:          -4.209
REMARK INTER:                  -4.149
REMARK INTRA:                  -0.060
REMARK UNBOUND:                -0.063
REMARK SMILES COc1cc2ccc(=O)oc2cc1O
REMARK SMILES IDX 3 1 13 2 12 3 11 4 5 5 4 6 6 7 7 8 8 9 9 10 10 11 2 12 1 13
REMARK SMILES IDX 14 14
REMARK H PARENT 14 15
REMARK Flexibility Score: inf
ROOT
ATOM      1  C   UNL     1      49.409  44.152  15.602  1.00  0.00     0.161 A 
ATOM      2  C   UNL     1      48.215  44.790  15.977  1.00  0.00     0.161 A 
ATOM      3  C   UNL     1      47.958  46.107  15.568  1.00  0.00     0.098 A 
ATOM      4  C   UNL     1      48.889  46.795  14.787  1.00  0.00     0.142 A 
ATOM      5  C   UNL     1      50.091  46.163  14.408  1.00  0.00     0.022 A 
ATOM      6  C   UNL     1      50.348  44.846  14.814  1.00  0.00     0.062 A 
ATOM      7  C   UNL     1      51.003  46.878  13.625  1.00  0.00     0.019 A 
ATOM      8  C   UNL     1      50.702  48.186  13.246  1.00  0.00     0.094 A 
ATOM      9  C   UNL     1      49.489  48.749  13.660  1.00  0.00     0.336 A 
ATOM     10  O   UNL     1      49.199  49.928  13.328  1.00  0.00    -0.246 OA
ATOM     11  O   UNL     1      48.640  48.046  14.404  1.00  0.00    -0.423 OA
ENDROOT
BRANCH   1  12
ATOM     12  O   UNL     1      49.623  42.833  16.032  1.00  0.00    -0.493 OA
ATOM     13  C   UNL     1      50.719  42.416  16.839  1.00  0.00     0.278 C 
ENDBRANCH   1  12
BRANCH   2  14
ATOM     14  O   UNL     1      47.285  44.104  16.756  1.00  0.00    -0.504 OA
ATOM     15  H   UNL     1      47.453  43.156  17.071  1.00  0.00     0.293 HD
ENDBRANCH   2  14
TORSDOF 2
ENDMDL
MODEL 4
REMARK VINA RESULT:    -3.804      2.426      4.112
REMARK INTER + INTRA:          -4.201
REMARK INTER:                  -4.144
REMARK INTRA:                  -0.057
REMARK UNBOUND:                -0.063
REMARK SMILES COc1cc2ccc(=O)oc2cc1O
REMARK SMILES IDX 3 1 13 2 12 3 11 4 5 5 4 6 6 7 7 8 8 9 9 10 10 11 2 12 1 13
REMARK SMILES IDX 14 14
REMARK H PARENT 14 15
REMARK Flexibility Score: inf
ROOT
ATOM      1  C   UNL     1      48.633  46.111  15.231  1.00  0.00     0.161 A 
ATOM      2  C   UNL     1      49.443  45.026  14.856  1.00  0.00     0.161 A 
ATOM      3  C   UNL     1      48.896  43.739  14.749  1.00  0.00     0.098 A 
ATOM      4  C   UNL     1      47.542  43.524  15.016  1.00  0.00     0.142 A 
ATOM      5  C   UNL     1      46.723  44.607  15.395  1.00  0.00     0.022 A 
ATOM      6  C   UNL     1      47.267  45.895  15.502  1.00  0.00     0.062 A 
ATOM      7  C   UNL     1      45.370  44.361  15.655  1.00  0.00     0.019 A 
ATOM      8  C   UNL     1      44.875  43.063  15.535  1.00  0.00     0.094 A 
ATOM      9  C   UNL     1      45.749  42.038  15.155  1.00  0.00     0.336 A 
ATOM     10  O   UNL     1      45.321  40.859  15.041  1.00  0.00    -0.246 OA
ATOM     11  O   UNL     1      47.030  42.300  14.914  1.00  0.00    -0.423 OA
ENDROOT
BRANCH   1  12
ATOM     12  O   UNL     1      49.223  47.381  15.325  1.00  0.00    -0.493 OA
ATOM     13  C   UNL     1      49.211  48.354  14.287  1.00  0.00     0.278 C 
ENDBRANCH   1  12
BRANCH   2  14
ATOM     14  O   UNL     1      50.794  45.238  14.589  1.00  0.00    -0.504 OA
ATOM     15  H   UNL     1      51.349  45.880  15.142  1.00  0.00     0.293 HD
ENDBRANCH   2  14
TORSDOF 2
ENDMDL
MODEL 5
REMARK VINA RESULT:    -3.800      1.346      1.700
REMARK INTER + INTRA:          -4.196
REMARK INTER:                  -4.152
REMARK INTRA:                  -0.044
REMARK UNBOUND:                -0.063
REMARK SMILES COc1cc2ccc(=O)oc2cc1O
REMARK SMILES IDX 3 1 13 2 12 3 11 4 5 5 4 6 6 7 7 8 8 9 9 10 10 11 2 12 1 13
REMARK SMILES IDX 14 14
REMARK H PARENT 14 15
REMARK Flexibility Score: inf
ROOT
ATOM      1  C   UNL     1      50.460  46.652  14.440  1.00  0.00     0.161 A 
ATOM      2  C   UNL     1      49.500  47.539  14.956  1.00  0.00     0.161 A 
ATOM      3  C   UNL     1      48.259  47.059  15.398  1.00  0.00     0.098 A 
ATOM      4  C   UNL     1      47.966  45.695  15.329  1.00  0.00     0.142 A 
ATOM      5  C   UNL     1      48.923  44.798  14.812  1.00  0.00     0.022 A 
ATOM      6  C   UNL     1      50.165  45.276  14.370  1.00  0.00     0.062 A 
ATOM      7  C   UNL     1      48.601  43.438  14.756  1.00  0.00     0.019 A 
ATOM      8  C   UNL     1      47.353  43.011  15.208  1.00  0.00     0.094 A 
ATOM      9  C   UNL     1      46.453  43.959  15.708  1.00  0.00     0.336 A 
ATOM     10  O   UNL     1      45.322  43.594  16.121  1.00  0.00    -0.246 OA
ATOM     11  O   UNL     1      46.785  45.246  15.750  1.00  0.00    -0.423 OA
ENDROOT
BRANCH   1  12
ATOM     12  O   UNL     1      51.689  47.177  14.010  1.00  0.00    -0.493 OA
ATOM     13  C   UNL     1      51.962  47.600  12.679  1.00  0.00     0.278 C 
ENDBRANCH   1  12
BRANCH   2  14
ATOM     14  O   UNL     1      49.790  48.900  15.025  1.00  0.00    -0.504 OA
ATOM     15  H   UNL     1      50.739  49.245  14.942  1.00  0.00     0.293 HD
ENDBRANCH   2  14
TORSDOF 2
ENDMDL
MODEL 6
REMARK VINA RESULT:    -3.797      3.161      4.449
REMARK INTER + INTRA:          -4.193
REMARK INTER:                  -4.145
REMARK INTRA:                  -0.048
REMARK UNBOUND:                -0.063
REMARK SMILES COc1cc2ccc(=O)oc2cc1O
REMARK SMILES IDX 3 1 13 2 12 3 11 4 5 5 4 6 6 7 7 8 8 9 9 10 10 11 2 12 1 13
REMARK SMILES IDX 14 14
REMARK H PARENT 14 15
REMARK Flexibility Score: inf
ROOT
ATOM      1  C   UNL     1      50.837  49.310  12.029  1.00  0.00     0.161 A 
ATOM      2  C   UNL     1      50.016  48.957  13.112  1.00  0.00     0.161 A 
ATOM      3  C   UNL     1      50.548  48.254  14.204  1.00  0.00     0.098 A 
ATOM      4  C   UNL     1      51.898  47.899  14.221  1.00  0.00     0.142 A 
ATOM      5  C   UNL     1      52.729  48.248  13.137  1.00  0.00     0.022 A 
ATOM      6  C   UNL     1      52.199  48.951  12.045  1.00  0.00     0.062 A 
ATOM      7  C   UNL     1      54.077  47.878  13.184  1.00  0.00     0.019 A 
ATOM      8  C   UNL     1      54.558  47.179  14.291  1.00  0.00     0.094 A 
ATOM      9  C   UNL     1      53.674  46.866  15.330  1.00  0.00     0.336 A 
ATOM     10  O   UNL     1      54.088  46.236  16.337  1.00  0.00    -0.246 OA
ATOM     11  O   UNL     1      52.396  47.230  15.259  1.00  0.00    -0.423 OA
ENDROOT
BRANCH   1  12
ATOM     12  O   UNL     1      50.262  50.013  10.959  1.00  0.00    -0.493 OA
ATOM     13  C   UNL     1      50.699  49.923   9.607  1.00  0.00     0.278 C 
ENDBRANCH   1  12
BRANCH   2  14
ATOM     14  O   UNL     1      48.668  49.311  13.097  1.00  0.00    -0.504 OA
ATOM     15  H   UNL     1      48.069  49.154  13.899  1.00  0.00     0.293 HD
ENDBRANCH   2  14
TORSDOF 2
ENDMDL
MODEL 7
REMARK VINA RESULT:    -3.744     11.594     13.094
REMARK INTER + INTRA:          -4.135
REMARK INTER:                  -4.076
REMARK INTRA:                  -0.060
REMARK UNBOUND:                -0.063
REMARK SMILES COc1cc2ccc(=O)oc2cc1O
REMARK SMILES IDX 3 1 13 2 12 3 11 4 5 5 4 6 6 7 7 8 8 9 9 10 10 11 2 12 1 13
REMARK SMILES IDX 14 14
REMARK H PARENT 14 15
REMARK Flexibility Score: inf
ROOT
ATOM      1  C   UNL     1      46.990  35.052   8.759  1.00  0.00     0.161 A 
ATOM      2  C   UNL     1      48.313  34.955   8.296  1.00  0.00     0.161 A 
ATOM      3  C   UNL     1      49.386  35.052   9.195  1.00  0.00     0.098 A 
ATOM      4  C   UNL     1      49.148  35.247  10.557  1.00  0.00     0.142 A 
ATOM      5  C   UNL     1      47.823  35.347  11.030  1.00  0.00     0.022 A 
ATOM      6  C   UNL     1      46.749  35.250  10.134  1.00  0.00     0.062 A 
ATOM      7  C   UNL     1      47.617  35.542  12.400  1.00  0.00     0.019 A 
ATOM      8  C   UNL     1      48.718  35.633  13.252  1.00  0.00     0.094 A 
ATOM      9  C   UNL     1      50.004  35.525  12.711  1.00  0.00     0.336 A 
ATOM     10  O   UNL     1      51.010  35.604  13.462  1.00  0.00    -0.246 OA
ATOM     11  O   UNL     1      50.171  35.340  11.404  1.00  0.00    -0.423 OA
ENDROOT
BRANCH   1  12
ATOM     12  O   UNL     1      45.948  34.949   7.825  1.00  0.00    -0.493 OA
ATOM     13  C   UNL     1      44.922  33.963   7.868  1.00  0.00     0.278 C 
ENDBRANCH   1  12
BRANCH   2  14
ATOM     14  O   UNL     1      48.552  34.760   6.938  1.00  0.00    -0.504 OA
ATOM     15  H   UNL     1      49.390  34.294   6.608  1.00  0.00     0.293 HD
ENDBRANCH   2  14
TORSDOF 2
ENDMDL
MODEL 8
REMARK VINA RESULT:    -3.740      1.717      5.470
REMARK INTER + INTRA:          -4.131
REMARK INTER:                  -4.068
REMARK INTRA:                  -0.063
REMARK UNBOUND:                -0.063
REMARK SMILES COc1cc2ccc(=O)oc2cc1O
REMARK SMILES IDX 3 1 13 2 12 3 11 4 5 5 4 6 6 7 7 8 8 9 9 10 10 11 2 12 1 13
REMARK SMILES IDX 14 14
REMARK H PARENT 14 15
REMARK Flexibility Score: inf
ROOT
ATOM      1  C   UNL     1      47.335  43.245  15.696  1.00  0.00     0.161 A 
ATOM      2  C   UNL     1      46.514  44.282  16.169  1.00  0.00     0.161 A 
ATOM      3  C   UNL     1      46.896  45.621  15.999  1.00  0.00     0.098 A 
ATOM      4  C   UNL     1      48.098  45.934  15.360  1.00  0.00     0.142 A 
ATOM      5  C   UNL     1      48.929  44.899  14.883  1.00  0.00     0.022 A 
ATOM      6  C   UNL     1      48.547  43.560  15.051  1.00  0.00     0.062 A 
ATOM      7  C   UNL     1      50.126  45.245  14.246  1.00  0.00     0.019 A 
ATOM      8  C   UNL     1      50.462  46.590  14.104  1.00  0.00     0.094 A 
ATOM      9  C   UNL     1      49.588  47.563  14.602  1.00  0.00     0.336 A 
ATOM     10  O   UNL     1      49.873  48.783  14.483  1.00  0.00    -0.246 OA
ATOM     11  O   UNL     1      48.456  47.207  15.204  1.00  0.00    -0.423 OA
ENDROOT
BRANCH   1  12
ATOM     12  O   UNL     1      46.912  41.921  15.886  1.00  0.00    -0.493 OA
ATOM     13  C   UNL     1      46.258  41.132  14.897  1.00  0.00     0.278 C 
ENDBRANCH   1  12
BRANCH   2  14
ATOM     14  O   UNL     1      45.315  43.972  16.807  1.00  0.00    -0.504 OA
ATOM     15  H   UNL     1      44.452  43.856  16.288  1.00  0.00     0.293 HD
ENDBRANCH   2  14
TORSDOF 2
ENDMDL
MODEL 9
REMARK VINA RESULT:    -3.662      2.872      6.522
REMARK INTER + INTRA:          -4.046
REMARK INTER:                  -3.984
REMARK INTRA:                  -0.063
REMARK UNBOUND:                -0.063
REMARK SMILES COc1cc2ccc(=O)oc2cc1O
REMARK SMILES IDX 3 1 13 2 12 3 11 4 5 5 4 6 6 7 7 8 8 9 9 10 10 11 2 12 1 13
REMARK SMILES IDX 14 14
REMARK H PARENT 14 15
REMARK Flexibility Score: inf
ROOT
ATOM      1  C   UNL     1      46.897  41.533  16.076  1.00  0.00     0.161 A 
ATOM      2  C   UNL     1      46.197  42.361  15.183  1.00  0.00     0.161 A 
ATOM      3  C   UNL     1      46.824  43.482  14.620  1.00  0.00     0.098 A 
ATOM      4  C   UNL     1      48.148  43.786  14.943  1.00  0.00     0.142 A 
ATOM      5  C   UNL     1      48.858  42.960  15.840  1.00  0.00     0.022 A 
ATOM      6  C   UNL     1      48.234  41.839  16.403  1.00  0.00     0.062 A 
ATOM      7  C   UNL     1      50.183  43.290  16.143  1.00  0.00     0.019 A 
ATOM      8  C   UNL     1      50.760  44.416  15.557  1.00  0.00     0.094 A 
ATOM      9  C   UNL     1      49.994  45.188  14.676  1.00  0.00     0.336 A 
ATOM     10  O   UNL     1      50.497  46.209  14.137  1.00  0.00    -0.246 OA
ATOM     11  O   UNL     1      48.736  44.852  14.405  1.00  0.00    -0.423 OA
ENDROOT
BRANCH   1  12
ATOM     12  O   UNL     1      46.231  40.421  16.616  1.00  0.00    -0.493 OA
ATOM     13  C   UNL     1      45.626  40.391  17.904  1.00  0.00     0.278 C 
ENDBRANCH   1  12
BRANCH   2  14
ATOM     14  O   UNL     1      44.876  42.060  14.860  1.00  0.00    -0.504 OA
ATOM     15  H   UNL     1      44.151  42.768  14.880  1.00  0.00     0.293 HD
ENDBRANCH   2  14
TORSDOF 2
ENDMDL
