MODEL 1
REMARK VINA RESULT:    -7.675      0.000      0.000
REMARK INTER + INTRA:          -9.560
REMARK INTER:                  -9.245
REMARK INTRA:                  -0.315
REMARK UNBOUND:                -0.315
REMARK SMILES O=c1c(O)c(-c2ccc(O)c(O)c2)oc2cc(O)cc(O)c12
REMARK SMILES IDX 5 1 3 2 2 3 1 4 22 5 20 6 19 7 17 8 16 9 15 10 14 11 6 12
REMARK SMILES IDX 7 13 8 14 9 15 13 16 11 17 10 18 12 20 4 22 21 24 18 26
REMARK H PARENT 10 19 12 21 4 23 21 25 18 27
REMARK Flexibility Score: inf
ROOT
ATOM      1  C   UNL     1     132.204 135.089 152.043  1.00  0.00     0.180 A 
ATOM      2  C   UNL     1     130.871 134.635 152.095  1.00  0.00     0.208 A 
ATOM      3  C   UNL     1     130.372 133.870 151.030  1.00  0.00     0.238 A 
ATOM      4  O   UNL     1     129.177 133.468 151.061  1.00  0.00    -0.285 OA
ATOM      5  C   UNL     1     131.214 133.555 149.944  1.00  0.00     0.111 A 
ATOM      6  C   UNL     1     130.791 132.787 148.833  1.00  0.00     0.134 A 
ATOM      7  C   UNL     1     131.694 132.509 147.795  1.00  0.00     0.093 A 
ATOM      8  C   UNL     1     133.008 132.983 147.848  1.00  0.00     0.123 A 
ATOM      9  C   UNL     1     133.431 133.742 148.941  1.00  0.00     0.094 A 
ATOM     10  C   UNL     1     132.547 134.031 149.984  1.00  0.00     0.146 A 
ATOM     11  O   UNL     1     132.973 134.760 151.010  1.00  0.00    -0.452 OA
ENDROOT
BRANCH   1  12
ATOM     12  C   UNL     1     132.797 135.916 153.118  1.00  0.00     0.025 A 
ATOM     13  C   UNL     1     133.526 135.335 154.171  1.00  0.00     0.016 A 
ATOM     14  C   UNL     1     134.056 136.134 155.188  1.00  0.00     0.051 A 
ATOM     15  C   UNL     1     133.854 137.521 155.175  1.00  0.00     0.157 A 
ATOM     16  C   UNL     1     132.580 137.304 153.122  1.00  0.00     0.062 A 
ATOM     17  C   UNL     1     133.112 138.106 154.141  1.00  0.00     0.158 A 
BRANCH  15  18
ATOM     18  O   UNL     1     134.382 138.321 156.186  1.00  0.00    -0.504 OA
ATOM     19  H   UNL     1     135.101 137.978 156.813  1.00  0.00     0.293 HD
ENDBRANCH  15  18
BRANCH  17  20
ATOM     20  O   UNL     1     132.906 139.484 154.134  1.00  0.00    -0.504 OA
ATOM     21  H   UNL     1     132.382 139.939 153.396  1.00  0.00     0.293 HD
ENDBRANCH  17  20
ENDBRANCH   1  12
BRANCH   2  22
ATOM     22  O   UNL     1     130.073 134.919 153.206  1.00  0.00    -0.502 OA
ATOM     23  H   UNL     1     129.105 134.628 153.266  1.00  0.00     0.293 HD
ENDBRANCH   2  22
BRANCH   6  24
ATOM     24  O   UNL     1     129.486 132.299 148.753  1.00  0.00    -0.507 OA
ATOM     25  H   UNL     1     128.701 132.908 148.555  1.00  0.00     0.293 HD
ENDBRANCH   6  24
BRANCH   8  26
ATOM     26  O   UNL     1     133.904 132.706 146.818  1.00  0.00    -0.508 OA
ATOM     27  H   UNL     1     134.906 132.686 146.976  1.00  0.00     0.293 HD
ENDBRANCH   8  26
TORSDOF 6
ENDMDL
MODEL 2
REMARK VINA RESULT:    -7.442      2.517      3.958
REMARK INTER + INTRA:          -9.280
REMARK INTER:                  -9.010
REMARK INTRA:                  -0.270
REMARK UNBOUND:                -0.315
REMARK SMILES O=c1c(O)c(-c2ccc(O)c(O)c2)oc2cc(O)cc(O)c12
REMARK SMILES IDX 5 1 3 2 2 3 1 4 22 5 20 6 19 7 17 8 16 9 15 10 14 11 6 12
REMARK SMILES IDX 7 13 8 14 9 15 13 16 11 17 10 18 12 20 4 22 21 24 18 26
REMARK H PARENT 10 19 12 21 4 23 21 25 18 27
REMARK Flexibility Score: inf
ROOT
ATOM      1  C   UNL     1     130.090 133.254 149.990  1.00  0.00     0.180 A 
ATOM      2  C   UNL     1     128.691 133.300 150.147  1.00  0.00     0.208 A 
ATOM      3  C   UNL     1     127.884 132.559 149.272  1.00  0.00     0.238 A 
ATOM      4  O   UNL     1     126.630 132.601 149.397  1.00  0.00    -0.285 OA
ATOM      5  C   UNL     1     128.485 131.770 148.269  1.00  0.00     0.111 A 
ATOM      6  C   UNL     1     127.744 130.990 147.349  1.00  0.00     0.134 A 
ATOM      7  C   UNL     1     128.418 130.225 146.385  1.00  0.00     0.093 A 
ATOM      8  C   UNL     1     129.816 130.224 146.325  1.00  0.00     0.123 A 
ATOM      9  C   UNL     1     130.551 130.992 147.230  1.00  0.00     0.094 A 
ATOM     10  C   UNL     1     129.899 131.763 148.197  1.00  0.00     0.146 A 
ATOM     11  O   UNL     1     130.622 132.488 149.042  1.00  0.00    -0.452 OA
ENDROOT
BRANCH   1  12
ATOM     12  C   UNL     1     131.007 134.023 150.861  1.00  0.00     0.025 A 
ATOM     13  C   UNL     1     131.655 135.183 150.400  1.00  0.00     0.016 A 
ATOM     14  C   UNL     1     132.534 135.879 151.234  1.00  0.00     0.051 A 
ATOM     15  C   UNL     1     132.789 135.420 152.533  1.00  0.00     0.157 A 
ATOM     16  C   UNL     1     131.282 133.556 152.157  1.00  0.00     0.062 A 
ATOM     17  C   UNL     1     132.164 134.255 152.994  1.00  0.00     0.158 A 
BRANCH  15  18
ATOM     18  O   UNL     1     133.664 136.112 153.368  1.00  0.00    -0.504 OA
ATOM     19  H   UNL     1     134.176 135.643 154.105  1.00  0.00     0.293 HD
ENDBRANCH  15  18
BRANCH  17  20
ATOM     20  O   UNL     1     132.425 133.796 154.284  1.00  0.00    -0.504 OA
ATOM     21  H   UNL     1     132.379 132.811 154.516  1.00  0.00     0.293 HD
ENDBRANCH  17  20
ENDBRANCH   1  12
BRANCH   2  22
ATOM     22  O   UNL     1     128.123 134.050 151.181  1.00  0.00    -0.502 OA
ATOM     23  H   UNL     1     128.355 133.895 152.154  1.00  0.00     0.293 HD
ENDBRANCH   2  22
BRANCH   6  24
ATOM     24  O   UNL     1     126.349 130.970 147.384  1.00  0.00    -0.507 OA
ATOM     25  H   UNL     1     125.795 130.965 146.536  1.00  0.00     0.293 HD
ENDBRANCH   6  24
BRANCH   8  26
ATOM     26  O   UNL     1     130.485 129.463 145.369  1.00  0.00    -0.508 OA
ATOM     27  H   UNL     1     130.480 128.449 145.399  1.00  0.00     0.293 HD
ENDBRANCH   8  26
TORSDOF 6
ENDMDL
MODEL 3
REMARK VINA RESULT:    -7.379      2.807      4.375
REMARK INTER + INTRA:          -9.203
REMARK INTER:                  -9.172
REMARK INTRA:                  -0.031
REMARK UNBOUND:                -0.315
REMARK SMILES O=c1c(O)c(-c2ccc(O)c(O)c2)oc2cc(O)cc(O)c12
REMARK SMILES IDX 5 1 3 2 2 3 1 4 22 5 20 6 19 7 17 8 16 9 15 10 14 11 6 12
REMARK SMILES IDX 7 13 8 14 9 15 13 16 11 17 10 18 12 20 4 22 21 24 18 26
REMARK H PARENT 10 19 12 21 4 23 21 25 18 27
REMARK Flexibility Score: inf
ROOT
ATOM      1  C   UNL     1     131.623 135.549 153.948  1.00  0.00     0.180 A 
ATOM      2  C   UNL     1     132.027 135.307 152.620  1.00  0.00     0.208 A 
ATOM      3  C   UNL     1     132.079 133.984 152.156  1.00  0.00     0.238 A 
ATOM      4  O   UNL     1     132.450 133.755 150.973  1.00  0.00    -0.285 OA
ATOM      5  C   UNL     1     131.708 132.929 153.015  1.00  0.00     0.111 A 
ATOM      6  C   UNL     1     131.728 131.568 152.625  1.00  0.00     0.134 A 
ATOM      7  C   UNL     1     131.334 130.577 153.536  1.00  0.00     0.093 A 
ATOM      8  C   UNL     1     130.922 130.921 154.828  1.00  0.00     0.123 A 
ATOM      9  C   UNL     1     130.901 132.261 155.218  1.00  0.00     0.094 A 
ATOM     10  C   UNL     1     131.290 133.264 154.326  1.00  0.00     0.146 A 
ATOM     11  O   UNL     1     131.266 134.530 154.724  1.00  0.00    -0.452 OA
ENDROOT
BRANCH   1  12
ATOM     12  C   UNL     1     131.561 136.914 154.516  1.00  0.00     0.025 A 
ATOM     13  C   UNL     1     130.375 137.422 155.074  1.00  0.00     0.016 A 
ATOM     14  C   UNL     1     130.334 138.723 155.583  1.00  0.00     0.051 A 
ATOM     15  C   UNL     1     131.473 139.538 155.530  1.00  0.00     0.157 A 
ATOM     16  C   UNL     1     132.693 137.743 154.447  1.00  0.00     0.062 A 
ATOM     17  C   UNL     1     132.653 139.048 154.958  1.00  0.00     0.158 A 
BRANCH  15  18
ATOM     18  O   UNL     1     131.437 140.835 156.038  1.00  0.00    -0.504 OA
ATOM     19  H   UNL     1     130.741 141.120 156.717  1.00  0.00     0.293 HD
ENDBRANCH  15  18
BRANCH  17  20
ATOM     20  O   UNL     1     133.782 139.863 154.900  1.00  0.00    -0.504 OA
ATOM     21  H   UNL     1     133.813 140.761 155.368  1.00  0.00     0.293 HD
ENDBRANCH  17  20
ENDBRANCH   1  12
BRANCH   2  22
ATOM     22  O   UNL     1     132.342 136.374 151.774  1.00  0.00    -0.502 OA
ATOM     23  H   UNL     1     131.706 137.147 151.617  1.00  0.00     0.293 HD
ENDBRANCH   2  22
BRANCH   6  24
ATOM     24  O   UNL     1     132.133 131.195 151.342  1.00  0.00    -0.507 OA
ATOM     25  H   UNL     1     132.996 131.538 150.936  1.00  0.00     0.293 HD
ENDBRANCH   6  24
BRANCH   8  26
ATOM     26  O   UNL     1     130.531 129.937 155.733  1.00  0.00    -0.508 OA
ATOM     27  H   UNL     1     129.722 130.058 156.333  1.00  0.00     0.293 HD
ENDBRANCH   8  26
TORSDOF 6
ENDMDL
MODEL 4
REMARK VINA RESULT:    -7.321      2.378      3.041
REMARK INTER + INTRA:          -9.133
REMARK INTER:                  -8.807
REMARK INTRA:                  -0.326
REMARK UNBOUND:                -0.315
REMARK SMILES O=c1c(O)c(-c2ccc(O)c(O)c2)oc2cc(O)cc(O)c12
REMARK SMILES IDX 5 1 3 2 2 3 1 4 22 5 20 6 19 7 17 8 16 9 15 10 14 11 6 12
REMARK SMILES IDX 7 13 8 14 9 15 13 16 11 17 10 18 12 20 4 22 21 24 18 26
REMARK H PARENT 10 19 12 21 4 23 21 25 18 27
REMARK Flexibility Score: inf
ROOT
ATOM      1  C   UNL     1     130.891 134.610 152.996  1.00  0.00     0.180 A 
ATOM      2  C   UNL     1     131.407 133.401 153.503  1.00  0.00     0.208 A 
ATOM      3  C   UNL     1     131.228 132.223 152.763  1.00  0.00     0.238 A 
ATOM      4  O   UNL     1     131.676 131.133 153.212  1.00  0.00    -0.285 OA
ATOM      5  C   UNL     1     130.558 132.274 151.523  1.00  0.00     0.111 A 
ATOM      6  C   UNL     1     130.339 131.134 150.713  1.00  0.00     0.134 A 
ATOM      7  C   UNL     1     129.671 131.269 149.487  1.00  0.00     0.093 A 
ATOM      8  C   UNL     1     129.218 132.521 149.057  1.00  0.00     0.123 A 
ATOM      9  C   UNL     1     129.431 133.648 149.852  1.00  0.00     0.094 A 
ATOM     10  C   UNL     1     130.093 133.535 151.078  1.00  0.00     0.146 A 
ATOM     11  O   UNL     1     130.277 134.622 151.817  1.00  0.00    -0.452 OA
ENDROOT
BRANCH   1  12
ATOM     12  C   UNL     1     131.022 135.890 153.727  1.00  0.00     0.025 A 
ATOM     13  C   UNL     1     130.008 136.351 154.585  1.00  0.00     0.016 A 
ATOM     14  C   UNL     1     130.144 137.574 155.247  1.00  0.00     0.051 A 
ATOM     15  C   UNL     1     131.288 138.360 155.051  1.00  0.00     0.157 A 
ATOM     16  C   UNL     1     132.157 136.692 153.519  1.00  0.00     0.062 A 
ATOM     17  C   UNL     1     132.294 137.919 154.182  1.00  0.00     0.158 A 
BRANCH  15  18
ATOM     18  O   UNL     1     131.428 139.580 155.710  1.00  0.00    -0.504 OA
ATOM     19  H   UNL     1     130.713 139.928 156.339  1.00  0.00     0.293 HD
ENDBRANCH  15  18
BRANCH  17  20
ATOM     20  O   UNL     1     133.427 138.706 153.983  1.00  0.00    -0.504 OA
ATOM     21  H   UNL     1     133.397 139.546 153.418  1.00  0.00     0.293 HD
ENDBRANCH  17  20
ENDBRANCH   1  12
BRANCH   2  22
ATOM     22  O   UNL     1     132.111 133.386 154.710  1.00  0.00    -0.502 OA
ATOM     23  H   UNL     1     132.624 134.191 155.048  1.00  0.00     0.293 HD
ENDBRANCH   2  22
BRANCH   6  24
ATOM     24  O   UNL     1     130.780 129.872 151.115  1.00  0.00    -0.507 OA
ATOM     25  H   UNL     1     130.232 129.290 151.739  1.00  0.00     0.293 HD
ENDBRANCH   6  24
BRANCH   8  26
ATOM     26  O   UNL     1     128.556 132.655 147.839  1.00  0.00    -0.508 OA
ATOM     27  H   UNL     1     128.854 133.331 147.144  1.00  0.00     0.293 HD
ENDBRANCH   8  26
TORSDOF 6
ENDMDL
MODEL 5
REMARK VINA RESULT:    -7.304      1.974      3.865
REMARK INTER + INTRA:          -9.113
REMARK INTER:                  -9.065
REMARK INTRA:                  -0.048
REMARK UNBOUND:                -0.315
REMARK SMILES O=c1c(O)c(-c2ccc(O)c(O)c2)oc2cc(O)cc(O)c12
REMARK SMILES IDX 5 1 3 2 2 3 1 4 22 5 20 6 19 7 17 8 16 9 15 10 14 11 6 12
REMARK SMILES IDX 7 13 8 14 9 15 13 16 11 17 10 18 12 20 4 22 21 24 18 26
REMARK H PARENT 10 19 12 21 4 23 21 25 18 27
REMARK Flexibility Score: inf
ROOT
ATOM      1  C   UNL     1     131.494 133.660 150.773  1.00  0.00     0.180 A 
ATOM      2  C   UNL     1     132.336 133.497 149.655  1.00  0.00     0.208 A 
ATOM      3  C   UNL     1     131.888 132.720 148.576  1.00  0.00     0.238 A 
ATOM      4  O   UNL     1     132.638 132.559 147.574  1.00  0.00    -0.285 OA
ATOM      5  C   UNL     1     130.605 132.138 148.621  1.00  0.00     0.111 A 
ATOM      6  C   UNL     1     130.077 131.345 147.574  1.00  0.00     0.134 A 
ATOM      7  C   UNL     1     128.786 130.808 147.692  1.00  0.00     0.093 A 
ATOM      8  C   UNL     1     128.015 131.049 148.834  1.00  0.00     0.123 A 
ATOM      9  C   UNL     1     128.532 131.830 149.869  1.00  0.00     0.094 A 
ATOM     10  C   UNL     1     129.816 132.373 149.773  1.00  0.00     0.146 A 
ATOM     11  O   UNL     1     130.285 133.108 150.774  1.00  0.00    -0.452 OA
ENDROOT
BRANCH   1  12
ATOM     12  C   UNL     1     131.903 134.448 151.958  1.00  0.00     0.025 A 
ATOM     13  C   UNL     1     132.338 135.779 151.837  1.00  0.00     0.016 A 
ATOM     14  C   UNL     1     132.741 136.496 152.967  1.00  0.00     0.051 A 
ATOM     15  C   UNL     1     132.728 135.889 154.230  1.00  0.00     0.157 A 
ATOM     16  C   UNL     1     131.912 133.839 153.224  1.00  0.00     0.062 A 
ATOM     17  C   UNL     1     132.316 134.557 154.357  1.00  0.00     0.158 A 
BRANCH  15  18
ATOM     18  O   UNL     1     133.128 136.601 155.359  1.00  0.00    -0.504 OA
ATOM     19  H   UNL     1     132.472 136.846 156.092  1.00  0.00     0.293 HD
ENDBRANCH  15  18
BRANCH  17  20
ATOM     20  O   UNL     1     132.311 133.954 155.614  1.00  0.00    -0.504 OA
ATOM     21  H   UNL     1     132.668 134.431 156.433  1.00  0.00     0.293 HD
ENDBRANCH  17  20
ENDBRANCH   1  12
BRANCH   2  22
ATOM     22  O   UNL     1     133.583 134.126 149.614  1.00  0.00    -0.502 OA
ATOM     23  H   UNL     1     133.685 135.131 149.681  1.00  0.00     0.293 HD
ENDBRANCH   2  22
BRANCH   6  24
ATOM     24  O   UNL     1     130.821 131.088 146.422  1.00  0.00    -0.507 OA
ATOM     25  H   UNL     1     130.445 130.544 145.655  1.00  0.00     0.293 HD
ENDBRANCH   6  24
BRANCH   8  26
ATOM     26  O   UNL     1     126.733 130.516 148.950  1.00  0.00    -0.508 OA
ATOM     27  H   UNL     1     126.478 129.642 148.503  1.00  0.00     0.293 HD
ENDBRANCH   8  26
TORSDOF 6
ENDMDL
MODEL 6
REMARK VINA RESULT:    -7.242      1.866      3.439
REMARK INTER + INTRA:          -9.038
REMARK INTER:                  -8.908
REMARK INTRA:                  -0.131
REMARK UNBOUND:                -0.315
REMARK SMILES O=c1c(O)c(-c2ccc(O)c(O)c2)oc2cc(O)cc(O)c12
REMARK SMILES IDX 5 1 3 2 2 3 1 4 22 5 20 6 19 7 17 8 16 9 15 10 14 11 6 12
REMARK SMILES IDX 7 13 8 14 9 15 13 16 11 17 10 18 12 20 4 22 21 24 18 26
REMARK H PARENT 10 19 12 21 4 23 21 25 18 27
REMARK Flexibility Score: inf
ROOT
ATOM      1  C   UNL     1     131.481 133.717 151.185  1.00  0.00     0.180 A 
ATOM      2  C   UNL     1     132.303 133.602 150.047  1.00  0.00     0.208 A 
ATOM      3  C   UNL     1     131.848 132.851 148.953  1.00  0.00     0.238 A 
ATOM      4  O   UNL     1     132.580 132.732 147.933  1.00  0.00    -0.285 OA
ATOM      5  C   UNL     1     130.575 132.245 149.004  1.00  0.00     0.111 A 
ATOM      6  C   UNL     1     130.040 131.475 147.944  1.00  0.00     0.134 A 
ATOM      7  C   UNL     1     128.761 130.913 148.070  1.00  0.00     0.093 A 
ATOM      8  C   UNL     1     128.008 131.106 149.233  1.00  0.00     0.123 A 
ATOM      9  C   UNL     1     128.532 131.865 150.282  1.00  0.00     0.094 A 
ATOM     10  C   UNL     1     129.805 132.432 150.177  1.00  0.00     0.146 A 
ATOM     11  O   UNL     1     130.281 133.145 151.192  1.00  0.00    -0.452 OA
ENDROOT
BRANCH   1  12
ATOM     12  C   UNL     1     131.899 134.476 152.385  1.00  0.00     0.025 A 
ATOM     13  C   UNL     1     132.032 133.850 153.638  1.00  0.00     0.016 A 
ATOM     14  C   UNL     1     132.405 134.592 154.761  1.00  0.00     0.051 A 
ATOM     15  C   UNL     1     132.637 135.970 154.653  1.00  0.00     0.157 A 
ATOM     16  C   UNL     1     132.113 135.861 152.288  1.00  0.00     0.062 A 
ATOM     17  C   UNL     1     132.487 136.605 153.415  1.00  0.00     0.158 A 
BRANCH  15  18
ATOM     18  O   UNL     1     133.011 136.713 155.771  1.00  0.00    -0.504 OA
ATOM     19  H   UNL     1     133.981 136.800 156.051  1.00  0.00     0.293 HD
ENDBRANCH  15  18
BRANCH  17  20
ATOM     20  O   UNL     1     132.711 137.977 153.311  1.00  0.00    -0.504 OA
ATOM     21  H   UNL     1     132.569 138.474 152.440  1.00  0.00     0.293 HD
ENDBRANCH  17  20
ENDBRANCH   1  12
BRANCH   2  22
ATOM     22  O   UNL     1     133.539 134.253 150.001  1.00  0.00    -0.502 OA
ATOM     23  H   UNL     1     133.949 134.576 149.134  1.00  0.00     0.293 HD
ENDBRANCH   2  22
BRANCH   6  24
ATOM     24  O   UNL     1     130.767 131.265 146.772  1.00  0.00    -0.507 OA
ATOM     25  H   UNL     1     131.337 131.995 146.361  1.00  0.00     0.293 HD
ENDBRANCH   6  24
BRANCH   8  26
ATOM     26  O   UNL     1     126.738 130.549 149.357  1.00  0.00    -0.508 OA
ATOM     27  H   UNL     1     126.147 130.389 148.549  1.00  0.00     0.293 HD
ENDBRANCH   8  26
TORSDOF 6
ENDMDL
MODEL 7
REMARK VINA RESULT:    -7.142      2.769      6.905
REMARK INTER + INTRA:          -8.918
REMARK INTER:                  -8.640
REMARK INTRA:                  -0.278
REMARK UNBOUND:                -0.315
REMARK SMILES O=c1c(O)c(-c2ccc(O)c(O)c2)oc2cc(O)cc(O)c12
REMARK SMILES IDX 5 1 3 2 2 3 1 4 22 5 20 6 19 7 17 8 16 9 15 10 14 11 6 12
REMARK SMILES IDX 7 13 8 14 9 15 13 16 11 17 10 18 12 20 4 22 21 24 18 26
REMARK H PARENT 10 19 12 21 4 23 21 25 18 27
REMARK Flexibility Score: inf
ROOT
ATOM      1  C   UNL     1     131.890 134.925 154.046  1.00  0.00     0.180 A 
ATOM      2  C   UNL     1     130.859 135.879 154.156  1.00  0.00     0.208 A 
ATOM      3  C   UNL     1     131.185 137.192 154.528  1.00  0.00     0.238 A 
ATOM      4  O   UNL     1     130.268 138.051 154.641  1.00  0.00    -0.285 OA
ATOM      5  C   UNL     1     132.532 137.536 154.763  1.00  0.00     0.111 A 
ATOM      6  C   UNL     1     132.946 138.837 155.137  1.00  0.00     0.134 A 
ATOM      7  C   UNL     1     134.308 139.101 155.344  1.00  0.00     0.093 A 
ATOM      8  C   UNL     1     135.262 138.091 155.183  1.00  0.00     0.123 A 
ATOM      9  C   UNL     1     134.860 136.806 154.814  1.00  0.00     0.094 A 
ATOM     10  C   UNL     1     133.507 136.521 154.605  1.00  0.00     0.146 A 
ATOM     11  O   UNL     1     133.151 135.290 154.260  1.00  0.00    -0.452 OA
ENDROOT
BRANCH   1  12
ATOM     12  C   UNL     1     131.624 133.517 153.677  1.00  0.00     0.025 A 
ATOM     13  C   UNL     1     131.064 132.613 154.597  1.00  0.00     0.016 A 
ATOM     14  C   UNL     1     130.843 131.281 154.234  1.00  0.00     0.051 A 
ATOM     15  C   UNL     1     131.192 130.831 152.953  1.00  0.00     0.157 A 
ATOM     16  C   UNL     1     131.990 133.054 152.402  1.00  0.00     0.062 A 
ATOM     17  C   UNL     1     131.770 131.719 152.038  1.00  0.00     0.158 A 
BRANCH  15  18
ATOM     18  O   UNL     1     130.972 129.505 152.587  1.00  0.00    -0.504 OA
ATOM     19  H   UNL     1     131.728 128.911 152.266  1.00  0.00     0.293 HD
ENDBRANCH  15  18
BRANCH  17  20
ATOM     20  O   UNL     1     132.122 131.267 150.767  1.00  0.00    -0.504 OA
ATOM     21  H   UNL     1     131.715 130.428 150.371  1.00  0.00     0.293 HD
ENDBRANCH  17  20
ENDBRANCH   1  12
BRANCH   2  22
ATOM     22  O   UNL     1     129.538 135.524 153.870  1.00  0.00    -0.502 OA
ATOM     23  H   UNL     1     129.294 134.926 153.090  1.00  0.00     0.293 HD
ENDBRANCH   2  22
BRANCH   6  24
ATOM     24  O   UNL     1     132.017 139.865 155.304  1.00  0.00    -0.507 OA
ATOM     25  H   UNL     1     131.304 139.826 156.022  1.00  0.00     0.293 HD
ENDBRANCH   6  24
BRANCH   8  26
ATOM     26  O   UNL     1     136.615 138.354 155.387  1.00  0.00    -0.508 OA
ATOM     27  H   UNL     1     136.959 139.299 155.517  1.00  0.00     0.293 HD
ENDBRANCH   8  26
TORSDOF 6
ENDMDL
MODEL 8
REMARK VINA RESULT:    -7.123      2.781      3.568
REMARK INTER + INTRA:          -8.895
REMARK INTER:                  -8.573
REMARK INTRA:                  -0.322
REMARK UNBOUND:                -0.315
REMARK SMILES O=c1c(O)c(-c2ccc(O)c(O)c2)oc2cc(O)cc(O)c12
REMARK SMILES IDX 5 1 3 2 2 3 1 4 22 5 20 6 19 7 17 8 16 9 15 10 14 11 6 12
REMARK SMILES IDX 7 13 8 14 9 15 13 16 11 17 10 18 12 20 4 22 21 24 18 26
REMARK H PARENT 10 19 12 21 4 23 21 25 18 27
REMARK Flexibility Score: inf
ROOT
ATOM      1  C   UNL     1     130.719 135.412 154.053  1.00  0.00     0.180 A 
ATOM      2  C   UNL     1     130.787 134.294 154.907  1.00  0.00     0.208 A 
ATOM      3  C   UNL     1     131.059 133.033 154.354  1.00  0.00     0.238 A 
ATOM      4  O   UNL     1     131.112 132.023 155.108  1.00  0.00    -0.285 OA
ATOM      5  C   UNL     1     131.278 132.913 152.966  1.00  0.00     0.111 A 
ATOM      6  C   UNL     1     131.562 131.680 152.330  1.00  0.00     0.134 A 
ATOM      7  C   UNL     1     131.777 131.646 150.944  1.00  0.00     0.093 A 
ATOM      8  C   UNL     1     131.714 132.818 150.184  1.00  0.00     0.123 A 
ATOM      9  C   UNL     1     131.434 134.036 150.806  1.00  0.00     0.094 A 
ATOM     10  C   UNL     1     131.215 134.092 152.186  1.00  0.00     0.146 A 
ATOM     11  O   UNL     1     130.946 135.263 152.751  1.00  0.00    -0.452 OA
ENDROOT
BRANCH   1  12
ATOM     12  C   UNL     1     130.419 136.771 154.557  1.00  0.00     0.025 A 
ATOM     13  C   UNL     1     129.096 137.190 154.789  1.00  0.00     0.016 A 
ATOM     14  C   UNL     1     128.835 138.485 155.243  1.00  0.00     0.051 A 
ATOM     15  C   UNL     1     129.889 139.384 155.459  1.00  0.00     0.157 A 
ATOM     16  C   UNL     1     131.468 137.683 154.756  1.00  0.00     0.062 A 
ATOM     17  C   UNL     1     131.207 138.982 155.211  1.00  0.00     0.158 A 
BRANCH  15  18
ATOM     18  O   UNL     1     129.632 140.676 155.913  1.00  0.00    -0.504 OA
ATOM     19  H   UNL     1     130.382 141.334 156.094  1.00  0.00     0.293 HD
ENDBRANCH  15  18
BRANCH  17  20
ATOM     20  O   UNL     1     132.252 139.881 155.420  1.00  0.00    -0.504 OA
ATOM     21  H   UNL     1     132.734 140.323 154.646  1.00  0.00     0.293 HD
ENDBRANCH  17  20
ENDBRANCH   1  12
BRANCH   2  22
ATOM     22  O   UNL     1     130.616 134.448 156.285  1.00  0.00    -0.502 OA
ATOM     23  H   UNL     1     130.400 133.669 156.895  1.00  0.00     0.293 HD
ENDBRANCH   2  22
BRANCH   6  24
ATOM     24  O   UNL     1     131.632 130.494 153.063  1.00  0.00    -0.507 OA
ATOM     25  H   UNL     1     130.823 129.897 153.187  1.00  0.00     0.293 HD
ENDBRANCH   6  24
BRANCH   8  26
ATOM     26  O   UNL     1     131.928 132.784 148.808  1.00  0.00    -0.508 OA
ATOM     27  H   UNL     1     132.049 133.634 148.268  1.00  0.00     0.293 HD
ENDBRANCH   8  26
TORSDOF 6
ENDMDL
MODEL 9
REMARK VINA RESULT:    -7.099      2.875      7.355
REMARK INTER + INTRA:          -8.866
REMARK INTER:                  -8.554
REMARK INTRA:                  -0.312
REMARK UNBOUND:                -0.315
REMARK SMILES O=c1c(O)c(-c2ccc(O)c(O)c2)oc2cc(O)cc(O)c12
REMARK SMILES IDX 5 1 3 2 2 3 1 4 22 5 20 6 19 7 17 8 16 9 15 10 14 11 6 12
REMARK SMILES IDX 7 13 8 14 9 15 13 16 11 17 10 18 12 20 4 22 21 24 18 26
REMARK H PARENT 10 19 12 21 4 23 21 25 18 27
REMARK Flexibility Score: inf
ROOT
ATOM      1  C   UNL     1     130.945 136.116 153.976  1.00  0.00     0.180 A 
ATOM      2  C   UNL     1     129.608 136.494 154.209  1.00  0.00     0.208 A 
ATOM      3  C   UNL     1     129.351 137.661 154.944  1.00  0.00     0.238 A 
ATOM      4  O   UNL     1     128.158 138.003 155.168  1.00  0.00    -0.285 OA
ATOM      5  C   UNL     1     130.428 138.440 155.416  1.00  0.00     0.111 A 
ATOM      6  C   UNL     1     130.255 139.631 156.161  1.00  0.00     0.134 A 
ATOM      7  C   UNL     1     131.379 140.354 156.587  1.00  0.00     0.093 A 
ATOM      8  C   UNL     1     132.670 139.910 156.282  1.00  0.00     0.123 A 
ATOM      9  C   UNL     1     132.846 138.735 155.548  1.00  0.00     0.094 A 
ATOM     10  C   UNL     1     131.739 137.999 155.115  1.00  0.00     0.146 A 
ATOM     11  O   UNL     1     131.935 136.883 154.423  1.00  0.00    -0.452 OA
ENDROOT
BRANCH   1  12
ATOM     12  C   UNL     1     131.298 134.890 153.226  1.00  0.00     0.025 A 
ATOM     13  C   UNL     1     131.567 134.927 151.846  1.00  0.00     0.016 A 
ATOM     14  C   UNL     1     131.874 133.752 151.154  1.00  0.00     0.051 A 
ATOM     15  C   UNL     1     131.903 132.523 151.827  1.00  0.00     0.157 A 
ATOM     16  C   UNL     1     131.308 133.652 153.890  1.00  0.00     0.062 A 
ATOM     17  C   UNL     1     131.616 132.473 153.196  1.00  0.00     0.158 A 
BRANCH  15  18
ATOM     18  O   UNL     1     132.211 131.350 151.141  1.00  0.00    -0.504 OA
ATOM     19  H   UNL     1     132.886 130.686 151.502  1.00  0.00     0.293 HD
ENDBRANCH  15  18
BRANCH  17  20
ATOM     20  O   UNL     1     131.639 131.249 153.862  1.00  0.00    -0.504 OA
ATOM     21  H   UNL     1     132.353 130.556 153.673  1.00  0.00     0.293 HD
ENDBRANCH  17  20
ENDBRANCH   1  12
BRANCH   2  22
ATOM     22  O   UNL     1     128.559 135.732 153.687  1.00  0.00    -0.502 OA
ATOM     23  H   UNL     1     128.561 134.720 153.711  1.00  0.00     0.293 HD
ENDBRANCH   2  22
BRANCH   6  24
ATOM     24  O   UNL     1     128.980 140.099 156.479  1.00  0.00    -0.507 OA
ATOM     25  H   UNL     1     128.163 139.503 156.420  1.00  0.00     0.293 HD
ENDBRANCH   6  24
BRANCH   8  26
ATOM     26  O   UNL     1     133.786 140.629 156.704  1.00  0.00    -0.508 OA
ATOM     27  H   UNL     1     134.400 141.093 156.043  1.00  0.00     0.293 HD
ENDBRANCH   8  26
TORSDOF 6
ENDMDL
