MODEL 1
REMARK VINA RESULT:    -4.352      0.000      0.000
REMARK INTER + INTRA:         -16.272
REMARK INTER:                 -10.967
REMARK INTRA:                  -5.305
REMARK UNBOUND:                -5.305
REMARK SMILES CCCCCCCCCCCCCCCCCCCCCCCCCCCC(=O)[O-]
REMARK SMILES IDX 15 1 16 2 17 3 18 4 19 5 20 6 21 7 22 8 23 9 24 10 25 11
REMARK SMILES IDX 26 12 27 13 28 14 29 15 30 16 14 17 13 18 12 19 11 20 10 21
REMARK SMILES IDX 9 22 8 23 7 24 6 25 5 26 4 27 3 28 2 29 1 30
REMARK H PARENT
REMARK Flexibility Score: inf
ROOT
ATOM      1  C   UNL     1      32.055  31.524  14.646  1.00  0.00     0.000 C 
ENDROOT
BRANCH   1   2
ATOM      2  C   UNL     1      32.541  30.262  15.392  1.00  0.00     0.000 C 
BRANCH   2   3
ATOM      3  C   UNL     1      32.424  28.988  14.541  1.00  0.00     0.000 C 
BRANCH   3   4
ATOM      4  C   UNL     1      31.428  29.164  13.379  1.00  0.00     0.000 C 
BRANCH   4   5
ATOM      5  C   UNL     1      30.658  27.866  13.063  1.00  0.00     0.000 C 
BRANCH   5   6
ATOM      6  C   UNL     1      30.386  27.643  11.562  1.00  0.00     0.000 C 
BRANCH   6   7
ATOM      7  C   UNL     1      30.693  28.864  10.676  1.00  0.00     0.000 C 
BRANCH   7   8
ATOM      8  C   UNL     1      31.888  28.626   9.735  1.00  0.00     0.000 C 
BRANCH   8   9
ATOM      9  C   UNL     1      33.156  29.377  10.179  1.00  0.00     0.000 C 
BRANCH   9  10
ATOM     10  C   UNL     1      34.197  28.513  10.912  1.00  0.00     0.000 C 
BRANCH  10  11
ATOM     11  C   UNL     1      34.092  27.022  10.560  1.00  0.00     0.000 C 
BRANCH  11  12
ATOM     12  C   UNL     1      33.785  26.181  11.808  1.00  0.00     0.006 C 
BRANCH  12  13
ATOM     13  C   UNL     1      34.614  26.620  13.022  1.00  0.00     0.053 C 
BRANCH  13  14
ATOM     14  C   UNL     1      34.441  25.687  14.182  1.00  0.00     0.041 C 
ATOM     15  O   UNL     1      35.413  25.002  14.595  1.00  0.00    -0.550 OA
ATOM     16  O   UNL     1      33.201  25.560  14.795  1.00  0.00    -0.550 OA
ENDBRANCH  13  14
ENDBRANCH  12  13
ENDBRANCH  11  12
ENDBRANCH  10  11
ENDBRANCH   9  10
ENDBRANCH   8   9
ENDBRANCH   7   8
ENDBRANCH   6   7
ENDBRANCH   5   6
ENDBRANCH   4   5
ENDBRANCH   3   4
ENDBRANCH   2   3
ENDBRANCH   1   2
BRANCH   1  17
ATOM     17  C   UNL     1      31.050  32.347  15.468  1.00  0.00     0.000 C 
BRANCH  17  18
ATOM     18  C   UNL     1      30.366  31.491  16.549  1.00  0.00     0.000 C 
BRANCH  18  19
ATOM     19  C   UNL     1      29.198  30.658  16.001  1.00  0.00     0.000 C 
BRANCH  19  20
ATOM     20  C   UNL     1      28.672  31.188  14.656  1.00  0.00     0.000 C 
BRANCH  20  21
ATOM     21  C   UNL     1      27.653  30.235  14.008  1.00  0.00     0.000 C 
BRANCH  21  22
ATOM     22  C   UNL     1      27.770  30.212  12.474  1.00  0.00    -0.000 C 
BRANCH  22  23
ATOM     23  C   UNL     1      26.545  29.577  11.790  1.00  0.00    -0.000 C 
BRANCH  23  24
ATOM     24  C   UNL     1      26.842  28.312  10.965  1.00  0.00    -0.000 C 
BRANCH  24  25
ATOM     25  C   UNL     1      26.773  27.022  11.799  1.00  0.00    -0.000 C 
BRANCH  25  26
ATOM     26  C   UNL     1      25.844  27.148  13.020  1.00  0.00    -0.000 C 
BRANCH  26  27
ATOM     27  C   UNL     1      26.294  26.368  14.270  1.00  0.00    -0.000 C 
BRANCH  27  28
ATOM     28  C   UNL     1      27.617  26.844  14.901  1.00  0.00    -0.000 C 
BRANCH  28  29
ATOM     29  C   UNL     1      28.580  25.695  15.265  1.00  0.00    -0.003 C 
ATOM     30  C   UNL     1      28.459  24.502  14.316  1.00  0.00     0.004 C 
ENDBRANCH  28  29
ENDBRANCH  27  28
ENDBRANCH  26  27
ENDBRANCH  25  26
ENDBRANCH  24  25
ENDBRANCH  23  24
ENDBRANCH  22  23
ENDBRANCH  21  22
ENDBRANCH  20  21
ENDBRANCH  19  20
ENDBRANCH  18  19
ENDBRANCH  17  18
ENDBRANCH   1  17
TORSDOF 26
ENDMDL
MODEL 2
REMARK VINA RESULT:    -4.322      2.558      6.731
REMARK INTER + INTRA:         -16.195
REMARK INTER:                 -11.323
REMARK INTRA:                  -4.873
REMARK UNBOUND:                -5.305
REMARK SMILES CCCCCCCCCCCCCCCCCCCCCCCCCCCC(=O)[O-]
REMARK SMILES IDX 15 1 16 2 17 3 18 4 19 5 20 6 21 7 22 8 23 9 24 10 25 11
REMARK SMILES IDX 26 12 27 13 28 14 29 15 30 16 14 17 13 18 12 19 11 20 10 21
REMARK SMILES IDX 9 22 8 23 7 24 6 25 5 26 4 27 3 28 2 29 1 30
REMARK H PARENT
REMARK Flexibility Score: inf
ROOT
ATOM      1  C   UNL     1      29.931  31.825  14.990  1.00  0.00     0.000 C 
ENDROOT
BRANCH   1   2
ATOM      2  C   UNL     1      28.575  31.083  14.977  1.00  0.00     0.000 C 
BRANCH   2   3
ATOM      3  C   UNL     1      28.643  29.737  14.239  1.00  0.00     0.000 C 
BRANCH   3   4
ATOM      4  C   UNL     1      27.910  29.787  12.885  1.00  0.00     0.000 C 
BRANCH   4   5
ATOM      5  C   UNL     1      28.476  28.772  11.872  1.00  0.00     0.000 C 
BRANCH   5   6
ATOM      6  C   UNL     1      29.652  27.934  12.408  1.00  0.00     0.000 C 
BRANCH   6   7
ATOM      7  C   UNL     1      29.543  26.427  12.109  1.00  0.00     0.000 C 
BRANCH   7   8
ATOM      8  C   UNL     1      29.820  25.556  13.347  1.00  0.00     0.000 C 
BRANCH   8   9
ATOM      9  C   UNL     1      29.419  26.245  14.664  1.00  0.00     0.000 C 
BRANCH   9  10
ATOM     10  C   UNL     1      28.687  25.341  15.671  1.00  0.00     0.000 C 
BRANCH  10  11
ATOM     11  C   UNL     1      27.217  25.736  15.871  1.00  0.00     0.000 C 
BRANCH  11  12
ATOM     12  C   UNL     1      26.735  26.656  14.739  1.00  0.00     0.006 C 
BRANCH  12  13
ATOM     13  C   UNL     1      25.660  25.993  13.869  1.00  0.00     0.053 C 
BRANCH  13  14
ATOM     14  C   UNL     1      25.546  26.648  12.526  1.00  0.00     0.041 C 
ATOM     15  O   UNL     1      24.961  27.757  12.409  1.00  0.00    -0.550 OA
ATOM     16  O   UNL     1      26.068  26.024  11.400  1.00  0.00    -0.550 OA
ENDBRANCH  13  14
ENDBRANCH  12  13
ENDBRANCH  11  12
ENDBRANCH  10  11
ENDBRANCH   9  10
ENDBRANCH   8   9
ENDBRANCH   7   8
ENDBRANCH   6   7
ENDBRANCH   5   6
ENDBRANCH   4   5
ENDBRANCH   3   4
ENDBRANCH   2   3
ENDBRANCH   1   2
BRANCH   1  17
ATOM     17  C   UNL     1      30.626  31.762  16.359  1.00  0.00     0.000 C 
BRANCH  17  18
ATOM     18  C   UNL     1      31.489  30.495  16.499  1.00  0.00     0.000 C 
BRANCH  18  19
ATOM     19  C   UNL     1      32.361  30.226  15.264  1.00  0.00     0.000 C 
BRANCH  19  20
ATOM     20  C   UNL     1      32.182  28.802  14.712  1.00  0.00     0.000 C 
BRANCH  20  21
ATOM     21  C   UNL     1      33.383  27.895  15.027  1.00  0.00     0.000 C 
BRANCH  21  22
ATOM     22  C   UNL     1      33.110  26.421  14.676  1.00  0.00    -0.000 C 
BRANCH  22  23
ATOM     23  C   UNL     1      33.866  25.956  13.417  1.00  0.00    -0.000 C 
BRANCH  23  24
ATOM     24  C   UNL     1      33.256  26.421  12.083  1.00  0.00    -0.000 C 
BRANCH  24  25
ATOM     25  C   UNL     1      34.314  26.914  11.080  1.00  0.00    -0.000 C 
BRANCH  25  26
ATOM     26  C   UNL     1      34.284  28.440  10.882  1.00  0.00    -0.000 C 
BRANCH  26  27
ATOM     27  C   UNL     1      32.908  29.102  11.091  1.00  0.00    -0.000 C 
BRANCH  27  28
ATOM     28  C   UNL     1      32.239  29.646   9.814  1.00  0.00    -0.000 C 
BRANCH  28  29
ATOM     29  C   UNL     1      33.205  30.406   8.882  1.00  0.00    -0.003 C 
ATOM     30  C   UNL     1      33.180  31.917   9.113  1.00  0.00     0.004 C 
ENDBRANCH  28  29
ENDBRANCH  27  28
ENDBRANCH  26  27
ENDBRANCH  25  26
ENDBRANCH  24  25
ENDBRANCH  23  24
ENDBRANCH  22  23
ENDBRANCH  21  22
ENDBRANCH  20  21
ENDBRANCH  19  20
ENDBRANCH  18  19
ENDBRANCH  17  18
ENDBRANCH   1  17
TORSDOF 26
ENDMDL
MODEL 3
REMARK VINA RESULT:    -4.304      3.289      7.409
REMARK INTER + INTRA:         -16.152
REMARK INTER:                 -11.379
REMARK INTRA:                  -4.773
REMARK UNBOUND:                -5.305
REMARK SMILES CCCCCCCCCCCCCCCCCCCCCCCCCCCC(=O)[O-]
REMARK SMILES IDX 15 1 16 2 17 3 18 4 19 5 20 6 21 7 22 8 23 9 24 10 25 11
REMARK SMILES IDX 26 12 27 13 28 14 29 15 30 16 14 17 13 18 12 19 11 20 10 21
REMARK SMILES IDX 9 22 8 23 7 24 6 25 5 26 4 27 3 28 2 29 1 30
REMARK H PARENT
REMARK Flexibility Score: inf
ROOT
ATOM      1  C   UNL     1      27.316  29.993  12.995  1.00  0.00     0.000 C 
ENDROOT
BRANCH   1   2
ATOM      2  C   UNL     1      27.730  29.369  11.643  1.00  0.00     0.000 C 
BRANCH   2   3
ATOM      3  C   UNL     1      29.066  28.615  11.723  1.00  0.00     0.000 C 
BRANCH   3   4
ATOM      4  C   UNL     1      28.965  27.201  11.120  1.00  0.00     0.000 C 
BRANCH   4   5
ATOM      5  C   UNL     1      29.667  26.138  11.988  1.00  0.00     0.000 C 
BRANCH   5   6
ATOM      6  C   UNL     1      29.691  26.469  13.493  1.00  0.00     0.000 C 
BRANCH   6   7
ATOM      7  C   UNL     1      28.917  25.469  14.372  1.00  0.00     0.000 C 
BRANCH   7   8
ATOM      8  C   UNL     1      27.889  26.158  15.287  1.00  0.00     0.000 C 
BRANCH   8   9
ATOM      9  C   UNL     1      26.671  26.698  14.516  1.00  0.00     0.000 C 
BRANCH   9  10
ATOM     10  C   UNL     1      25.763  25.619  13.900  1.00  0.00     0.000 C 
BRANCH  10  11
ATOM     11  C   UNL     1      25.946  25.479  12.383  1.00  0.00     0.000 C 
BRANCH  11  12
ATOM     12  C   UNL     1      25.350  26.685  11.642  1.00  0.00     0.006 C 
BRANCH  12  13
ATOM     13  C   UNL     1      23.890  26.945  12.035  1.00  0.00     0.053 C 
BRANCH  13  14
ATOM     14  C   UNL     1      23.280  28.046  11.222  1.00  0.00     0.041 C 
ATOM     15  O   UNL     1      22.029  28.139  11.117  1.00  0.00    -0.550 OA
ATOM     16  O   UNL     1      24.094  28.958  10.562  1.00  0.00    -0.550 OA
ENDBRANCH  13  14
ENDBRANCH  12  13
ENDBRANCH  11  12
ENDBRANCH  10  11
ENDBRANCH   9  10
ENDBRANCH   8   9
ENDBRANCH   7   8
ENDBRANCH   6   7
ENDBRANCH   5   6
ENDBRANCH   4   5
ENDBRANCH   3   4
ENDBRANCH   2   3
ENDBRANCH   1   2
BRANCH   1  17
ATOM     17  C   UNL     1      28.393  29.826  14.078  1.00  0.00     0.000 C 
BRANCH  17  18
ATOM     18  C   UNL     1      28.785  31.178  14.701  1.00  0.00     0.000 C 
BRANCH  18  19
ATOM     19  C   UNL     1      29.512  31.028  16.046  1.00  0.00     0.000 C 
BRANCH  19  20
ATOM     20  C   UNL     1      30.818  31.837  16.106  1.00  0.00     0.000 C 
BRANCH  20  21
ATOM     21  C   UNL     1      31.824  31.409  15.024  1.00  0.00     0.000 C 
BRANCH  21  22
ATOM     22  C   UNL     1      32.496  30.064  15.350  1.00  0.00    -0.000 C 
BRANCH  22  23
ATOM     23  C   UNL     1      32.067  28.934  14.396  1.00  0.00    -0.000 C 
BRANCH  23  24
ATOM     24  C   UNL     1      32.211  29.257  12.898  1.00  0.00    -0.000 C 
BRANCH  24  25
ATOM     25  C   UNL     1      32.968  28.167  12.120  1.00  0.00    -0.000 C 
BRANCH  25  26
ATOM     26  C   UNL     1      33.375  28.615  10.705  1.00  0.00    -0.000 C 
BRANCH  26  27
ATOM     27  C   UNL     1      32.229  28.649   9.674  1.00  0.00    -0.000 C 
BRANCH  27  28
ATOM     28  C   UNL     1      32.160  29.923   8.810  1.00  0.00    -0.000 C 
BRANCH  28  29
ATOM     29  C   UNL     1      33.054  31.071   9.323  1.00  0.00    -0.003 C 
ATOM     30  C   UNL     1      33.802  31.784   8.195  1.00  0.00     0.004 C 
ENDBRANCH  28  29
ENDBRANCH  27  28
ENDBRANCH  26  27
ENDBRANCH  25  26
ENDBRANCH  24  25
ENDBRANCH  23  24
ENDBRANCH  22  23
ENDBRANCH  21  22
ENDBRANCH  20  21
ENDBRANCH  19  20
ENDBRANCH  18  19
ENDBRANCH  17  18
ENDBRANCH   1  17
TORSDOF 26
ENDMDL
MODEL 4
REMARK VINA RESULT:    -4.285      1.579      6.025
REMARK INTER + INTRA:         -16.104
REMARK INTER:                 -11.440
REMARK INTRA:                  -4.664
REMARK UNBOUND:                -5.305
REMARK SMILES CCCCCCCCCCCCCCCCCCCCCCCCCCCC(=O)[O-]
REMARK SMILES IDX 15 1 16 2 17 3 18 4 19 5 20 6 21 7 22 8 23 9 24 10 25 11
REMARK SMILES IDX 26 12 27 13 28 14 29 15 30 16 14 17 13 18 12 19 11 20 10 21
REMARK SMILES IDX 9 22 8 23 7 24 6 25 5 26 4 27 3 28 2 29 1 30
REMARK H PARENT
REMARK Flexibility Score: inf
ROOT
ATOM      1  C   UNL     1      29.338  30.651  16.115  1.00  0.00     0.000 C 
ENDROOT
BRANCH   1   2
ATOM      2  C   UNL     1      28.786  31.130  14.753  1.00  0.00     0.000 C 
BRANCH   2   3
ATOM      3  C   UNL     1      28.543  29.973  13.772  1.00  0.00     0.000 C 
BRANCH   3   4
ATOM      4  C   UNL     1      27.141  30.041  13.140  1.00  0.00     0.000 C 
BRANCH   4   5
ATOM      5  C   UNL     1      27.183  29.940  11.602  1.00  0.00     0.000 C 
BRANCH   5   6
ATOM      6  C   UNL     1      27.278  28.498  11.066  1.00  0.00     0.000 C 
BRANCH   6   7
ATOM      7  C   UNL     1      25.929  27.893  10.635  1.00  0.00     0.000 C 
BRANCH   7   8
ATOM      8  C   UNL     1      24.845  28.032  11.720  1.00  0.00     0.000 C 
BRANCH   8   9
ATOM      9  C   UNL     1      24.298  26.674  12.194  1.00  0.00     0.000 C 
BRANCH   9  10
ATOM     10  C   UNL     1      25.314  25.790  12.938  1.00  0.00     0.000 C 
BRANCH  10  11
ATOM     11  C   UNL     1      26.018  26.526  14.087  1.00  0.00     0.000 C 
BRANCH  11  12
ATOM     12  C   UNL     1      27.543  26.363  13.993  1.00  0.00     0.006 C 
BRANCH  12  13
ATOM     13  C   UNL     1      28.224  26.463  15.364  1.00  0.00     0.053 C 
BRANCH  13  14
ATOM     14  C   UNL     1      28.708  25.129  15.845  1.00  0.00     0.041 C 
ATOM     15  O   UNL     1      27.895  24.291  16.316  1.00  0.00    -0.550 OA
ATOM     16  O   UNL     1      30.061  24.818  15.791  1.00  0.00    -0.550 OA
ENDBRANCH  13  14
ENDBRANCH  12  13
ENDBRANCH  11  12
ENDBRANCH  10  11
ENDBRANCH   9  10
ENDBRANCH   8   9
ENDBRANCH   7   8
ENDBRANCH   6   7
ENDBRANCH   5   6
ENDBRANCH   4   5
ENDBRANCH   3   4
ENDBRANCH   2   3
ENDBRANCH   1   2
BRANCH   1  17
ATOM     17  C   UNL     1      30.586  31.431  16.555  1.00  0.00     0.000 C 
BRANCH  17  18
ATOM     18  C   UNL     1      31.382  31.956  15.346  1.00  0.00     0.000 C 
BRANCH  18  19
ATOM     19  C   UNL     1      32.051  30.834  14.538  1.00  0.00     0.000 C 
BRANCH  19  20
ATOM     20  C   UNL     1      32.805  29.832  15.428  1.00  0.00     0.000 C 
BRANCH  20  21
ATOM     21  C   UNL     1      32.895  28.435  14.792  1.00  0.00     0.000 C 
BRANCH  21  22
ATOM     22  C   UNL     1      31.509  27.851  14.466  1.00  0.00    -0.000 C 
BRANCH  22  23
ATOM     23  C   UNL     1      31.519  26.945  13.220  1.00  0.00    -0.000 C 
BRANCH  23  24
ATOM     24  C   UNL     1      30.616  27.415  12.066  1.00  0.00    -0.000 C 
BRANCH  24  25
ATOM     25  C   UNL     1      31.048  28.770  11.480  1.00  0.00    -0.000 C 
BRANCH  25  26
ATOM     26  C   UNL     1      31.923  28.626  10.222  1.00  0.00    -0.000 C 
BRANCH  26  27
ATOM     27  C   UNL     1      33.348  29.200  10.345  1.00  0.00    -0.000 C 
BRANCH  27  28
ATOM     28  C   UNL     1      34.285  28.433  11.298  1.00  0.00    -0.000 C 
BRANCH  28  29
ATOM     29  C   UNL     1      34.918  27.174  10.667  1.00  0.00    -0.003 C 
ATOM     30  C   UNL     1      35.582  26.268  11.704  1.00  0.00     0.004 C 
ENDBRANCH  28  29
ENDBRANCH  27  28
ENDBRANCH  26  27
ENDBRANCH  25  26
ENDBRANCH  24  25
ENDBRANCH  23  24
ENDBRANCH  22  23
ENDBRANCH  21  22
ENDBRANCH  20  21
ENDBRANCH  19  20
ENDBRANCH  18  19
ENDBRANCH  17  18
ENDBRANCH   1  17
TORSDOF 26
ENDMDL
MODEL 5
REMARK VINA RESULT:    -4.276      1.718      4.496
REMARK INTER + INTRA:         -16.081
REMARK INTER:                 -10.788
REMARK INTRA:                  -5.293
REMARK UNBOUND:                -5.305
REMARK SMILES CCCCCCCCCCCCCCCCCCCCCCCCCCCC(=O)[O-]
REMARK SMILES IDX 15 1 16 2 17 3 18 4 19 5 20 6 21 7 22 8 23 9 24 10 25 11
REMARK SMILES IDX 26 12 27 13 28 14 29 15 30 16 14 17 13 18 12 19 11 20 10 21
REMARK SMILES IDX 9 22 8 23 7 24 6 25 5 26 4 27 3 28 2 29 1 30
REMARK H PARENT
REMARK Flexibility Score: inf
ROOT
ATOM      1  C   UNL     1      32.802  28.786  14.719  1.00  0.00     0.000 C 
ENDROOT
BRANCH   1   2
ATOM      2  C   UNL     1      32.248  29.845  15.697  1.00  0.00     0.000 C 
BRANCH   2   3
ATOM      3  C   UNL     1      32.066  31.222  15.039  1.00  0.00     0.000 C 
BRANCH   3   4
ATOM      4  C   UNL     1      30.885  32.000  15.651  1.00  0.00     0.000 C 
BRANCH   4   5
ATOM      5  C   UNL     1      29.750  31.070  16.124  1.00  0.00     0.000 C 
BRANCH   5   6
ATOM      6  C   UNL     1      28.704  30.749  15.038  1.00  0.00     0.000 C 
BRANCH   6   7
ATOM      7  C   UNL     1      28.788  29.315  14.483  1.00  0.00     0.000 C 
BRANCH   7   8
ATOM      8  C   UNL     1      29.353  29.268  13.052  1.00  0.00     0.000 C 
BRANCH   8   9
ATOM      9  C   UNL     1      29.861  27.871  12.656  1.00  0.00     0.000 C 
BRANCH   9  10
ATOM     10  C   UNL     1      30.919  27.858  11.539  1.00  0.00     0.000 C 
BRANCH  10  11
ATOM     11  C   UNL     1      31.699  29.177  11.440  1.00  0.00     0.000 C 
BRANCH  11  12
ATOM     12  C   UNL     1      32.975  29.000  10.603  1.00  0.00     0.006 C 
BRANCH  12  13
ATOM     13  C   UNL     1      34.089  28.291  11.383  1.00  0.00     0.053 C 
BRANCH  13  14
ATOM     14  C   UNL     1      34.556  27.050  10.685  1.00  0.00     0.041 C 
ATOM     15  O   UNL     1      35.715  26.604  10.891  1.00  0.00    -0.550 OA
ATOM     16  O   UNL     1      33.717  26.395   9.792  1.00  0.00    -0.550 OA
ENDBRANCH  13  14
ENDBRANCH  12  13
ENDBRANCH  11  12
ENDBRANCH  10  11
ENDBRANCH   9  10
ENDBRANCH   8   9
ENDBRANCH   7   8
ENDBRANCH   6   7
ENDBRANCH   5   6
ENDBRANCH   4   5
ENDBRANCH   3   4
ENDBRANCH   2   3
ENDBRANCH   1   2
BRANCH   1  17
ATOM     17  C   UNL     1      33.049  27.428  15.395  1.00  0.00     0.000 C 
BRANCH  17  18
ATOM     18  C   UNL     1      32.586  26.259  14.507  1.00  0.00     0.000 C 
BRANCH  18  19
ATOM     19  C   UNL     1      31.861  25.159  15.297  1.00  0.00     0.000 C 
BRANCH  19  20
ATOM     20  C   UNL     1      30.556  24.708  14.621  1.00  0.00     0.000 C 
BRANCH  20  21
ATOM     21  C   UNL     1      29.369  24.678  15.598  1.00  0.00     0.000 C 
BRANCH  21  22
ATOM     22  C   UNL     1      28.601  26.011  15.626  1.00  0.00    -0.000 C 
BRANCH  22  23
ATOM     23  C   UNL     1      27.084  25.825  15.816  1.00  0.00    -0.000 C 
BRANCH  23  24
ATOM     24  C   UNL     1      26.216  26.303  14.638  1.00  0.00    -0.000 C 
BRANCH  24  25
ATOM     25  C   UNL     1      26.681  25.738  13.285  1.00  0.00    -0.000 C 
BRANCH  25  26
ATOM     26  C   UNL     1      26.373  26.680  12.106  1.00  0.00    -0.000 C 
BRANCH  26  27
ATOM     27  C   UNL     1      25.927  28.101  12.502  1.00  0.00    -0.000 C 
BRANCH  27  28
ATOM     28  C   UNL     1      25.942  29.136  11.361  1.00  0.00    -0.000 C 
BRANCH  28  29
ATOM     29  C   UNL     1      27.050  28.892  10.314  1.00  0.00    -0.003 C 
ATOM     30  C   UNL     1      27.665  30.191   9.795  1.00  0.00     0.004 C 
ENDBRANCH  28  29
ENDBRANCH  27  28
ENDBRANCH  26  27
ENDBRANCH  25  26
ENDBRANCH  24  25
ENDBRANCH  23  24
ENDBRANCH  22  23
ENDBRANCH  21  22
ENDBRANCH  20  21
ENDBRANCH  19  20
ENDBRANCH  18  19
ENDBRANCH  17  18
ENDBRANCH   1  17
TORSDOF 26
ENDMDL
MODEL 6
REMARK VINA RESULT:    -4.253      2.995      6.294
REMARK INTER + INTRA:         -16.022
REMARK INTER:                 -10.695
REMARK INTRA:                  -5.327
REMARK UNBOUND:                -5.305
REMARK SMILES CCCCCCCCCCCCCCCCCCCCCCCCCCCC(=O)[O-]
REMARK SMILES IDX 15 1 16 2 17 3 18 4 19 5 20 6 21 7 22 8 23 9 24 10 25 11
REMARK SMILES IDX 26 12 27 13 28 14 29 15 30 16 14 17 13 18 12 19 11 20 10 21
REMARK SMILES IDX 9 22 8 23 7 24 6 25 5 26 4 27 3 28 2 29 1 30
REMARK H PARENT
REMARK Flexibility Score: inf
ROOT
ATOM      1  C   UNL     1      33.277  26.218  14.226  1.00  0.00     0.000 C 
ENDROOT
BRANCH   1   2
ATOM      2  C   UNL     1      33.573  27.710  14.497  1.00  0.00     0.000 C 
BRANCH   2   3
ATOM      3  C   UNL     1      32.347  28.471  15.024  1.00  0.00     0.000 C 
BRANCH   3   4
ATOM      4  C   UNL     1      32.713  29.889  15.501  1.00  0.00     0.000 C 
BRANCH   4   5
ATOM      5  C   UNL     1      32.103  30.987  14.607  1.00  0.00     0.000 C 
BRANCH   5   6
ATOM      6  C   UNL     1      31.380  32.104  15.384  1.00  0.00     0.000 C 
BRANCH   6   7
ATOM      7  C   UNL     1      30.589  31.612  16.611  1.00  0.00     0.000 C 
BRANCH   7   8
ATOM      8  C   UNL     1      29.477  30.616  16.236  1.00  0.00     0.000 C 
BRANCH   8   9
ATOM      9  C   UNL     1      28.747  30.997  14.936  1.00  0.00     0.000 C 
BRANCH   9  10
ATOM     10  C   UNL     1      28.610  29.857  13.911  1.00  0.00     0.000 C 
BRANCH  10  11
ATOM     11  C   UNL     1      27.256  29.864  13.187  1.00  0.00     0.000 C 
BRANCH  11  12
ATOM     12  C   UNL     1      27.296  28.971  11.937  1.00  0.00     0.006 C 
BRANCH  12  13
ATOM     13  C   UNL     1      27.779  29.731  10.696  1.00  0.00     0.053 C 
BRANCH  13  14
ATOM     14  C   UNL     1      26.702  29.848   9.659  1.00  0.00     0.041 C 
ATOM     15  O   UNL     1      26.952  30.370   8.541  1.00  0.00    -0.550 OA
ATOM     16  O   UNL     1      25.417  29.399   9.936  1.00  0.00    -0.550 OA
ENDBRANCH  13  14
ENDBRANCH  12  13
ENDBRANCH  11  12
ENDBRANCH  10  11
ENDBRANCH   9  10
ENDBRANCH   8   9
ENDBRANCH   7   8
ENDBRANCH   6   7
ENDBRANCH   5   6
ENDBRANCH   4   5
ENDBRANCH   3   4
ENDBRANCH   2   3
ENDBRANCH   1   2
BRANCH   1  17
ATOM     17  C   UNL     1      33.912  25.717  12.919  1.00  0.00     0.000 C 
BRANCH  17  18
ATOM     18  C   UNL     1      34.958  26.709  12.380  1.00  0.00     0.000 C 
BRANCH  18  19
ATOM     19  C   UNL     1      34.717  27.094  10.912  1.00  0.00     0.000 C 
BRANCH  19  20
ATOM     20  C   UNL     1      34.448  28.597  10.731  1.00  0.00     0.000 C 
BRANCH  20  21
ATOM     21  C   UNL     1      33.017  28.883  10.247  1.00  0.00     0.000 C 
BRANCH  21  22
ATOM     22  C   UNL     1      32.075  29.265  11.402  1.00  0.00    -0.000 C 
BRANCH  22  23
ATOM     23  C   UNL     1      31.019  28.183  11.697  1.00  0.00    -0.000 C 
BRANCH  23  24
ATOM     24  C   UNL     1      31.023  26.988  10.726  1.00  0.00    -0.000 C 
BRANCH  24  25
ATOM     25  C   UNL     1      30.541  25.683  11.382  1.00  0.00    -0.000 C 
BRANCH  25  26
ATOM     26  C   UNL     1      29.373  25.901  12.361  1.00  0.00    -0.000 C 
BRANCH  26  27
ATOM     27  C   UNL     1      29.632  25.429  13.805  1.00  0.00    -0.000 C 
BRANCH  27  28
ATOM     28  C   UNL     1      29.234  26.432  14.906  1.00  0.00    -0.000 C 
BRANCH  28  29
ATOM     29  C   UNL     1      27.882  26.114  15.577  1.00  0.00    -0.003 C 
ATOM     30  C   UNL     1      26.687  26.468  14.691  1.00  0.00     0.004 C 
ENDBRANCH  28  29
ENDBRANCH  27  28
ENDBRANCH  26  27
ENDBRANCH  25  26
ENDBRANCH  24  25
ENDBRANCH  23  24
ENDBRANCH  22  23
ENDBRANCH  21  22
ENDBRANCH  20  21
ENDBRANCH  19  20
ENDBRANCH  18  19
ENDBRANCH  17  18
ENDBRANCH   1  17
TORSDOF 26
ENDMDL
MODEL 7
REMARK VINA RESULT:    -4.248      2.391      3.846
REMARK INTER + INTRA:         -16.009
REMARK INTER:                 -11.452
REMARK INTRA:                  -4.557
REMARK UNBOUND:                -5.305
REMARK SMILES CCCCCCCCCCCCCCCCCCCCCCCCCCCC(=O)[O-]
REMARK SMILES IDX 15 1 16 2 17 3 18 4 19 5 20 6 21 7 22 8 23 9 24 10 25 11
REMARK SMILES IDX 26 12 27 13 28 14 29 15 30 16 14 17 13 18 12 19 11 20 10 21
REMARK SMILES IDX 9 22 8 23 7 24 6 25 5 26 4 27 3 28 2 29 1 30
REMARK H PARENT
REMARK Flexibility Score: inf
ROOT
ATOM      1  C   UNL     1      32.745  28.825  14.738  1.00  0.00     0.000 C 
ENDROOT
BRANCH   1   2
ATOM      2  C   UNL     1      31.832  28.940  13.496  1.00  0.00     0.000 C 
BRANCH   2   3
ATOM      3  C   UNL     1      30.995  27.674  13.257  1.00  0.00     0.000 C 
BRANCH   3   4
ATOM      4  C   UNL     1      30.478  27.070  14.577  1.00  0.00     0.000 C 
BRANCH   4   5
ATOM      5  C   UNL     1      30.812  25.571  14.708  1.00  0.00     0.000 C 
BRANCH   5   6
ATOM      6  C   UNL     1      32.051  25.274  15.575  1.00  0.00     0.000 C 
BRANCH   6   7
ATOM      7  C   UNL     1      33.252  24.713  14.790  1.00  0.00     0.000 C 
BRANCH   7   8
ATOM      8  C   UNL     1      34.143  25.822  14.201  1.00  0.00     0.000 C 
BRANCH   8   9
ATOM      9  C   UNL     1      34.351  25.678  12.683  1.00  0.00     0.000 C 
BRANCH   9  10
ATOM     10  C   UNL     1      34.993  26.897  11.999  1.00  0.00     0.000 C 
BRANCH  10  11
ATOM     11  C   UNL     1      34.235  27.345  10.741  1.00  0.00     0.000 C 
BRANCH  11  12
ATOM     12  C   UNL     1      34.179  28.877  10.648  1.00  0.00     0.006 C 
BRANCH  12  13
ATOM     13  C   UNL     1      32.787  29.385  10.251  1.00  0.00     0.053 C 
BRANCH  13  14
ATOM     14  C   UNL     1      32.855  30.385   9.137  1.00  0.00     0.041 C 
ATOM     15  O   UNL     1      33.581  31.407   9.245  1.00  0.00    -0.550 OA
ATOM     16  O   UNL     1      32.099  30.198   7.986  1.00  0.00    -0.550 OA
ENDBRANCH  13  14
ENDBRANCH  12  13
ENDBRANCH  11  12
ENDBRANCH  10  11
ENDBRANCH   9  10
ENDBRANCH   8   9
ENDBRANCH   7   8
ENDBRANCH   6   7
ENDBRANCH   5   6
ENDBRANCH   4   5
ENDBRANCH   3   4
ENDBRANCH   2   3
ENDBRANCH   1   2
BRANCH   1  17
ATOM     17  C   UNL     1      32.510  29.956  15.751  1.00  0.00     0.000 C 
BRANCH  17  18
ATOM     18  C   UNL     1      32.041  31.249  15.060  1.00  0.00     0.000 C 
BRANCH  18  19
ATOM     19  C   UNL     1      30.984  32.011  15.873  1.00  0.00     0.000 C 
BRANCH  19  20
ATOM     20  C   UNL     1      30.056  31.074  16.663  1.00  0.00     0.000 C 
BRANCH  20  21
ATOM     21  C   UNL     1      29.121  30.266  15.748  1.00  0.00     0.000 C 
BRANCH  21  22
ATOM     22  C   UNL     1      28.615  31.092  14.553  1.00  0.00    -0.000 C 
BRANCH  22  23
ATOM     23  C   UNL     1      28.421  30.248  13.280  1.00  0.00    -0.000 C 
BRANCH  23  24
ATOM     24  C   UNL     1      26.956  30.024  12.864  1.00  0.00    -0.000 C 
BRANCH  24  25
ATOM     25  C   UNL     1      26.742  28.697  12.116  1.00  0.00    -0.000 C 
BRANCH  25  26
ATOM     26  C   UNL     1      26.343  27.541  13.050  1.00  0.00    -0.000 C 
BRANCH  26  27
ATOM     27  C   UNL     1      27.094  26.217  12.813  1.00  0.00    -0.000 C 
BRANCH  27  28
ATOM     28  C   UNL     1      27.231  25.308  14.050  1.00  0.00    -0.000 C 
BRANCH  28  29
ATOM     29  C   UNL     1      26.952  26.029  15.385  1.00  0.00    -0.003 C 
ATOM     30  C   UNL     1      27.549  25.294  16.586  1.00  0.00     0.004 C 
ENDBRANCH  28  29
ENDBRANCH  27  28
ENDBRANCH  26  27
ENDBRANCH  25  26
ENDBRANCH  24  25
ENDBRANCH  23  24
ENDBRANCH  22  23
ENDBRANCH  21  22
ENDBRANCH  20  21
ENDBRANCH  19  20
ENDBRANCH  18  19
ENDBRANCH  17  18
ENDBRANCH   1  17
TORSDOF 26
ENDMDL
MODEL 8
REMARK VINA RESULT:    -4.222      2.241      3.861
REMARK INTER + INTRA:         -15.943
REMARK INTER:                 -11.127
REMARK INTRA:                  -4.817
REMARK UNBOUND:                -5.305
REMARK SMILES CCCCCCCCCCCCCCCCCCCCCCCCCCCC(=O)[O-]
REMARK SMILES IDX 15 1 16 2 17 3 18 4 19 5 20 6 21 7 22 8 23 9 24 10 25 11
REMARK SMILES IDX 26 12 27 13 28 14 29 15 30 16 14 17 13 18 12 19 11 20 10 21
REMARK SMILES IDX 9 22 8 23 7 24 6 25 5 26 4 27 3 28 2 29 1 30
REMARK H PARENT
REMARK Flexibility Score: inf
ROOT
ATOM      1  C   UNL     1      29.217  30.339  16.105  1.00  0.00     0.000 C 
ENDROOT
BRANCH   1   2
ATOM      2  C   UNL     1      30.327  31.207  16.738  1.00  0.00     0.000 C 
BRANCH   2   3
ATOM      3  C   UNL     1      30.904  32.239  15.757  1.00  0.00     0.000 C 
BRANCH   3   4
ATOM      4  C   UNL     1      31.992  31.627  14.854  1.00  0.00     0.000 C 
BRANCH   4   5
ATOM      5  C   UNL     1      32.506  30.275  15.385  1.00  0.00     0.000 C 
BRANCH   5   6
ATOM      6  C   UNL     1      32.462  29.132  14.351  1.00  0.00     0.000 C 
BRANCH   6   7
ATOM      7  C   UNL     1      33.351  27.925  14.704  1.00  0.00     0.000 C 
BRANCH   7   8
ATOM      8  C   UNL     1      32.674  26.580  14.387  1.00  0.00     0.000 C 
BRANCH   8   9
ATOM      9  C   UNL     1      33.235  25.914  13.118  1.00  0.00     0.000 C 
BRANCH   9  10
ATOM     10  C   UNL     1      32.821  26.584  11.796  1.00  0.00     0.000 C 
BRANCH  10  11
ATOM     11  C   UNL     1      33.999  27.243  11.065  1.00  0.00     0.000 C 
BRANCH  11  12
ATOM     12  C   UNL     1      33.790  28.760  10.940  1.00  0.00     0.006 C 
BRANCH  12  13
ATOM     13  C   UNL     1      32.326  29.125  10.664  1.00  0.00     0.053 C 
BRANCH  13  14
ATOM     14  C   UNL     1      32.090  29.431   9.216  1.00  0.00     0.041 C 
ATOM     15  O   UNL     1      30.994  29.926   8.842  1.00  0.00    -0.550 OA
ATOM     16  O   UNL     1      33.074  29.152   8.276  1.00  0.00    -0.550 OA
ENDBRANCH  13  14
ENDBRANCH  12  13
ENDBRANCH  11  12
ENDBRANCH  10  11
ENDBRANCH   9  10
ENDBRANCH   8   9
ENDBRANCH   7   8
ENDBRANCH   6   7
ENDBRANCH   5   6
ENDBRANCH   4   5
ENDBRANCH   3   4
ENDBRANCH   2   3
ENDBRANCH   1   2
BRANCH   1  17
ATOM     17  C   UNL     1      28.575  31.003  14.877  1.00  0.00     0.000 C 
BRANCH  17  18
ATOM     18  C   UNL     1      28.059  29.957  13.871  1.00  0.00     0.000 C 
BRANCH  18  19
ATOM     19  C   UNL     1      29.168  29.401  12.966  1.00  0.00     0.000 C 
BRANCH  19  20
ATOM     20  C   UNL     1      29.407  27.897  13.178  1.00  0.00     0.000 C 
BRANCH  20  21
ATOM     21  C   UNL     1      29.178  27.080  11.895  1.00  0.00     0.000 C 
BRANCH  21  22
ATOM     22  C   UNL     1      28.516  27.912  10.783  1.00  0.00    -0.000 C 
BRANCH  22  23
ATOM     23  C   UNL     1      27.088  27.440  10.452  1.00  0.00    -0.000 C 
BRANCH  23  24
ATOM     24  C   UNL     1      25.962  28.264  11.102  1.00  0.00    -0.000 C 
BRANCH  24  25
ATOM     25  C   UNL     1      25.531  27.713  12.473  1.00  0.00    -0.000 C 
BRANCH  25  26
ATOM     26  C   UNL     1      25.616  26.178  12.554  1.00  0.00    -0.000 C 
BRANCH  26  27
ATOM     27  C   UNL     1      25.768  25.605  13.976  1.00  0.00    -0.000 C 
BRANCH  27  28
ATOM     28  C   UNL     1      26.604  26.462  14.945  1.00  0.00    -0.000 C 
BRANCH  28  29
ATOM     29  C   UNL     1      27.683  25.665  15.708  1.00  0.00    -0.003 C 
ATOM     30  C   UNL     1      27.255  25.311  17.133  1.00  0.00     0.004 C 
ENDBRANCH  28  29
ENDBRANCH  27  28
ENDBRANCH  26  27
ENDBRANCH  25  26
ENDBRANCH  24  25
ENDBRANCH  23  24
ENDBRANCH  22  23
ENDBRANCH  21  22
ENDBRANCH  20  21
ENDBRANCH  19  20
ENDBRANCH  18  19
ENDBRANCH  17  18
ENDBRANCH   1  17
TORSDOF 26
ENDMDL
MODEL 9
REMARK VINA RESULT:    -4.214      3.350      7.235
REMARK INTER + INTRA:         -15.925
REMARK INTER:                 -10.929
REMARK INTRA:                  -4.995
REMARK UNBOUND:                -5.305
REMARK SMILES CCCCCCCCCCCCCCCCCCCCCCCCCCCC(=O)[O-]
REMARK SMILES IDX 15 1 16 2 17 3 18 4 19 5 20 6 21 7 22 8 23 9 24 10 25 11
REMARK SMILES IDX 26 12 27 13 28 14 29 15 30 16 14 17 13 18 12 19 11 20 10 21
REMARK SMILES IDX 9 22 8 23 7 24 6 25 5 26 4 27 3 28 2 29 1 30
REMARK H PARENT
REMARK Flexibility Score: inf
ROOT
ATOM      1  C   UNL     1      29.420  31.030  16.032  1.00  0.00     0.000 C 
ENDROOT
BRANCH   1   2
ATOM      2  C   UNL     1      28.833  31.332  14.635  1.00  0.00     0.000 C 
BRANCH   2   3
ATOM      3  C   UNL     1      28.122  30.119  14.015  1.00  0.00     0.000 C 
BRANCH   3   4
ATOM      4  C   UNL     1      28.967  29.463  12.906  1.00  0.00     0.000 C 
BRANCH   4   5
ATOM      5  C   UNL     1      29.314  27.995  13.221  1.00  0.00     0.000 C 
BRANCH   5   6
ATOM      6  C   UNL     1      29.221  27.631  14.716  1.00  0.00     0.000 C 
BRANCH   6   7
ATOM      7  C   UNL     1      28.500  26.299  14.999  1.00  0.00     0.000 C 
BRANCH   7   8
ATOM      8  C   UNL     1      26.970  26.456  15.053  1.00  0.00     0.000 C 
BRANCH   8   9
ATOM      9  C   UNL     1      26.238  25.510  14.085  1.00  0.00     0.000 C 
BRANCH   9  10
ATOM     10  C   UNL     1      25.272  26.203  13.108  1.00  0.00     0.000 C 
BRANCH  10  11
ATOM     11  C   UNL     1      25.635  27.672  12.849  1.00  0.00     0.000 C 
BRANCH  11  12
ATOM     12  C   UNL     1      25.971  27.903  11.368  1.00  0.00     0.006 C 
BRANCH  12  13
ATOM     13  C   UNL     1      25.812  29.373  10.959  1.00  0.00     0.053 C 
BRANCH  13  14
ATOM     14  C   UNL     1      24.582  29.592  10.132  1.00  0.00     0.041 C 
ATOM     15  O   UNL     1      24.638  30.284   9.082  1.00  0.00    -0.550 OA
ATOM     16  O   UNL     1      23.367  29.050  10.533  1.00  0.00    -0.550 OA
ENDBRANCH  13  14
ENDBRANCH  12  13
ENDBRANCH  11  12
ENDBRANCH  10  11
ENDBRANCH   9  10
ENDBRANCH   8   9
ENDBRANCH   7   8
ENDBRANCH   6   7
ENDBRANCH   5   6
ENDBRANCH   4   5
ENDBRANCH   3   4
ENDBRANCH   2   3
ENDBRANCH   1   2
BRANCH   1  17
ATOM     17  C   UNL     1      30.777  31.712  16.263  1.00  0.00     0.000 C 
BRANCH  17  18
ATOM     18  C   UNL     1      31.593  31.807  14.961  1.00  0.00     0.000 C 
BRANCH  18  19
ATOM     19  C   UNL     1      32.144  30.450  14.500  1.00  0.00     0.000 C 
BRANCH  19  20
ATOM     20  C   UNL     1      32.580  29.558  15.675  1.00  0.00     0.000 C 
BRANCH  20  21
ATOM     21  C   UNL     1      33.065  28.174  15.212  1.00  0.00     0.000 C 
BRANCH  21  22
ATOM     22  C   UNL     1      32.868  27.961  13.701  1.00  0.00    -0.000 C 
BRANCH  22  23
ATOM     23  C   UNL     1      32.774  26.474  13.313  1.00  0.00    -0.000 C 
BRANCH  23  24
ATOM     24  C   UNL     1      33.737  26.029  12.197  1.00  0.00    -0.000 C 
BRANCH  24  25
ATOM     25  C   UNL     1      34.755  27.118  11.816  1.00  0.00    -0.000 C 
BRANCH  25  26
ATOM     26  C   UNL     1      34.994  27.208  10.298  1.00  0.00    -0.000 C 
BRANCH  26  27
ATOM     27  C   UNL     1      33.947  28.025   9.517  1.00  0.00    -0.000 C 
BRANCH  27  28
ATOM     28  C   UNL     1      33.350  29.225  10.276  1.00  0.00    -0.000 C 
BRANCH  28  29
ATOM     29  C   UNL     1      31.811  29.187  10.388  1.00  0.00    -0.003 C 
ATOM     30  C   UNL     1      31.229  27.818  10.036  1.00  0.00     0.004 C 
ENDBRANCH  28  29
ENDBRANCH  27  28
ENDBRANCH  26  27
ENDBRANCH  25  26
ENDBRANCH  24  25
ENDBRANCH  23  24
ENDBRANCH  22  23
ENDBRANCH  21  22
ENDBRANCH  20  21
ENDBRANCH  19  20
ENDBRANCH  18  19
ENDBRANCH  17  18
ENDBRANCH   1  17
TORSDOF 26
ENDMDL
