MODEL 1
REMARK VINA RESULT:    -4.935      0.000      0.000
REMARK INTER + INTRA:          -5.793
REMARK INTER:                  -5.656
REMARK INTRA:                  -0.137
REMARK UNBOUND:                -0.137
REMARK SMILES O=C([O-])C=Cc1ccc(O)cc1
REMARK SMILES IDX 6 1 7 2 12 3 8 4 11 5 9 6 5 7 4 8 2 9 1 10 3 11 10 12
REMARK H PARENT 10 13
REMARK Flexibility Score: inf
ROOT
ATOM      1  C   UNL     1      21.062   0.212 -18.807  1.00  0.00    -0.025 A 
ATOM      2  C   UNL     1      21.469   0.990 -19.912  1.00  0.00     0.012 A 
ATOM      3  C   UNL     1      20.521  -1.063 -19.041  1.00  0.00     0.012 A 
ATOM      4  C   UNL     1      21.357   0.487 -21.211  1.00  0.00     0.047 A 
ATOM      5  C   UNL     1      20.411  -1.563 -20.342  1.00  0.00     0.047 A 
ATOM      6  C   UNL     1      20.832  -0.790 -21.431  1.00  0.00     0.115 A 
ENDROOT
BRANCH   1   7
ATOM      7  C   UNL     1      21.147   0.703 -17.410  1.00  0.00     0.010 C 
ATOM      8  C   UNL     1      22.289   1.098 -16.828  1.00  0.00     0.025 C 
BRANCH   8   9
ATOM      9  C   UNL     1      22.337   1.568 -15.433  1.00  0.00     0.064 C 
ATOM     10  O   UNL     1      21.347   1.436 -14.664  1.00  0.00    -0.545 OA
ATOM     11  O   UNL     1      23.494   2.171 -14.956  1.00  0.00    -0.545 OA
ENDBRANCH   8   9
ENDBRANCH   1   7
BRANCH   6  12
ATOM     12  O   UNL     1      20.728  -1.278 -22.731  1.00  0.00    -0.508 OA
ATOM     13  H   UNL     1      20.083  -2.022 -22.968  1.00  0.00     0.293 HD
ENDBRANCH   6  12
TORSDOF 3
ENDMDL
MODEL 2
REMARK VINA RESULT:    -4.907      0.219      1.414
REMARK INTER + INTRA:          -5.762
REMARK INTER:                  -5.621
REMARK INTRA:                  -0.141
REMARK UNBOUND:                -0.137
REMARK SMILES O=C([O-])C=Cc1ccc(O)cc1
REMARK SMILES IDX 6 1 7 2 12 3 8 4 11 5 9 6 5 7 4 8 2 9 1 10 3 11 10 12
REMARK H PARENT 10 13
REMARK Flexibility Score: inf
ROOT
ATOM      1  C   UNL     1      20.977   0.163 -18.939  1.00  0.00    -0.025 A 
ATOM      2  C   UNL     1      20.519  -1.148 -19.186  1.00  0.00     0.012 A 
ATOM      3  C   UNL     1      21.373   0.957 -20.028  1.00  0.00     0.012 A 
ATOM      4  C   UNL     1      20.440  -1.635 -20.494  1.00  0.00     0.047 A 
ATOM      5  C   UNL     1      21.292   0.467 -21.334  1.00  0.00     0.047 A 
ATOM      6  C   UNL     1      20.823  -0.831 -21.571  1.00  0.00     0.115 A 
ENDROOT
BRANCH   1   7
ATOM      7  C   UNL     1      21.091   0.725 -17.571  1.00  0.00     0.010 C 
ATOM      8  C   UNL     1      22.254   1.087 -17.009  1.00  0.00     0.025 C 
BRANCH   8   9
ATOM      9  C   UNL     1      22.330   1.630 -15.642  1.00  0.00     0.064 C 
ATOM     10  O   UNL     1      21.476   1.323 -14.769  1.00  0.00    -0.545 OA
ATOM     11  O   UNL     1      23.361   2.500 -15.311  1.00  0.00    -0.545 OA
ENDBRANCH   8   9
ENDBRANCH   1   7
BRANCH   6  12
ATOM     12  O   UNL     1      20.737  -1.330 -22.868  1.00  0.00    -0.508 OA
ATOM     13  H   UNL     1      21.234  -2.166 -23.148  1.00  0.00     0.293 HD
ENDBRANCH   6  12
TORSDOF 3
ENDMDL
MODEL 3
REMARK VINA RESULT:    -4.794      1.159      1.706
REMARK INTER + INTRA:          -5.632
REMARK INTER:                  -5.488
REMARK INTRA:                  -0.144
REMARK UNBOUND:                -0.137
REMARK SMILES O=C([O-])C=Cc1ccc(O)cc1
REMARK SMILES IDX 6 1 7 2 12 3 8 4 11 5 9 6 5 7 4 8 2 9 1 10 3 11 10 12
REMARK H PARENT 10 13
REMARK Flexibility Score: inf
ROOT
ATOM      1  C   UNL     1      21.010   0.188 -18.938  1.00  0.00    -0.025 A 
ATOM      2  C   UNL     1      21.475   0.991 -20.001  1.00  0.00     0.012 A 
ATOM      3  C   UNL     1      20.501  -1.089 -19.227  1.00  0.00     0.012 A 
ATOM      4  C   UNL     1      21.450   0.510 -21.313  1.00  0.00     0.047 A 
ATOM      5  C   UNL     1      20.478  -1.566 -20.541  1.00  0.00     0.047 A 
ATOM      6  C   UNL     1      20.955  -0.767 -21.588  1.00  0.00     0.115 A 
ENDROOT
BRANCH   1   7
ATOM      7  C   UNL     1      21.004   0.654 -17.529  1.00  0.00     0.010 C 
ATOM      8  C   UNL     1      19.916   0.638 -16.745  1.00  0.00     0.025 C 
BRANCH   8   9
ATOM      9  C   UNL     1      19.944   1.120 -15.353  1.00  0.00     0.064 C 
ATOM     10  O   UNL     1      21.011   1.116 -14.682  1.00  0.00    -0.545 OA
ATOM     11  O   UNL     1      18.774   1.585 -14.768  1.00  0.00    -0.545 OA
ENDBRANCH   8   9
ENDBRANCH   1   7
BRANCH   6  12
ATOM     12  O   UNL     1      20.938  -1.232 -22.900  1.00  0.00    -0.508 OA
ATOM     13  H   UNL     1      20.921  -0.596 -23.688  1.00  0.00     0.293 HD
ENDBRANCH   6  12
TORSDOF 3
ENDMDL
MODEL 4
REMARK VINA RESULT:    -4.730      2.150      5.589
REMARK INTER + INTRA:          -5.558
REMARK INTER:                  -5.411
REMARK INTRA:                  -0.147
REMARK UNBOUND:                -0.137
REMARK SMILES O=C([O-])C=Cc1ccc(O)cc1
REMARK SMILES IDX 6 1 7 2 12 3 8 4 11 5 9 6 5 7 4 8 2 9 1 10 3 11 10 12
REMARK H PARENT 10 13
REMARK Flexibility Score: inf
ROOT
ATOM      1  C   UNL     1      20.153  -0.180 -19.089  1.00  0.00    -0.025 A 
ATOM      2  C   UNL     1      18.905  -0.735 -18.737  1.00  0.00     0.012 A 
ATOM      3  C   UNL     1      20.895   0.496 -18.106  1.00  0.00     0.012 A 
ATOM      4  C   UNL     1      18.431  -0.633 -17.426  1.00  0.00     0.047 A 
ATOM      5  C   UNL     1      20.417   0.596 -16.796  1.00  0.00     0.047 A 
ATOM      6  C   UNL     1      19.184   0.029 -16.452  1.00  0.00     0.115 A 
ENDROOT
BRANCH   1   7
ATOM      7  C   UNL     1      20.698  -0.249 -20.468  1.00  0.00     0.010 C 
ATOM      8  C   UNL     1      21.335   0.767 -21.069  1.00  0.00     0.025 C 
BRANCH   8   9
ATOM      9  C   UNL     1      21.852   0.665 -22.445  1.00  0.00     0.064 C 
ATOM     10  O   UNL     1      22.108   1.694 -23.124  1.00  0.00    -0.545 OA
ATOM     11  O   UNL     1      22.059  -0.590 -23.004  1.00  0.00    -0.545 OA
ENDBRANCH   8   9
ENDBRANCH   1   7
BRANCH   6  12
ATOM     12  O   UNL     1      18.698   0.121 -15.150  1.00  0.00    -0.508 OA
ATOM     13  H   UNL     1      18.516   1.017 -14.714  1.00  0.00     0.293 HD
ENDBRANCH   6  12
TORSDOF 3
ENDMDL
MODEL 5
REMARK VINA RESULT:    -4.623      3.096      3.896
REMARK INTER + INTRA:          -5.436
REMARK INTER:                  -5.299
REMARK INTRA:                  -0.137
REMARK UNBOUND:                -0.137
REMARK SMILES O=C([O-])C=Cc1ccc(O)cc1
REMARK SMILES IDX 6 1 7 2 12 3 8 4 11 5 9 6 5 7 4 8 2 9 1 10 3 11 10 12
REMARK H PARENT 10 13
REMARK Flexibility Score: inf
ROOT
ATOM      1  C   UNL     1      19.526  -0.614 -18.323  1.00  0.00    -0.025 A 
ATOM      2  C   UNL     1      19.149  -0.784 -19.672  1.00  0.00     0.012 A 
ATOM      3  C   UNL     1      20.672   0.145 -18.032  1.00  0.00     0.012 A 
ATOM      4  C   UNL     1      19.891  -0.186 -20.694  1.00  0.00     0.047 A 
ATOM      5  C   UNL     1      21.411   0.741 -19.057  1.00  0.00     0.047 A 
ATOM      6  C   UNL     1      21.021   0.579 -20.392  1.00  0.00     0.115 A 
ENDROOT
BRANCH   1   7
ATOM      7  C   UNL     1      18.782  -1.236 -17.201  1.00  0.00     0.010 C 
ATOM      8  C   UNL     1      18.054  -0.542 -16.314  1.00  0.00     0.025 C 
BRANCH   8   9
ATOM      9  C   UNL     1      17.338  -1.194 -15.204  1.00  0.00     0.064 C 
ATOM     10  O   UNL     1      16.191  -0.810 -14.853  1.00  0.00    -0.545 OA
ATOM     11  O   UNL     1      17.939  -2.250 -14.531  1.00  0.00    -0.545 OA
ENDBRANCH   8   9
ENDBRANCH   1   7
BRANCH   6  12
ATOM     12  O   UNL     1      21.749   1.170 -21.422  1.00  0.00    -0.508 OA
ATOM     13  H   UNL     1      21.393   1.969 -21.932  1.00  0.00     0.293 HD
ENDBRANCH   6  12
TORSDOF 3
ENDMDL
MODEL 6
REMARK VINA RESULT:    -4.577      1.357      5.654
REMARK INTER + INTRA:          -5.383
REMARK INTER:                  -5.248
REMARK INTRA:                  -0.136
REMARK UNBOUND:                -0.137
REMARK SMILES O=C([O-])C=Cc1ccc(O)cc1
REMARK SMILES IDX 6 1 7 2 12 3 8 4 11 5 9 6 5 7 4 8 2 9 1 10 3 11 10 12
REMARK H PARENT 10 13
REMARK Flexibility Score: inf
ROOT
ATOM      1  C   UNL     1      20.802   0.287 -17.854  1.00  0.00    -0.025 A 
ATOM      2  C   UNL     1      21.894   0.847 -17.157  1.00  0.00     0.012 A 
ATOM      3  C   UNL     1      19.563   0.184 -17.199  1.00  0.00     0.012 A 
ATOM      4  C   UNL     1      21.735   1.311 -15.848  1.00  0.00     0.047 A 
ATOM      5  C   UNL     1      19.408   0.650 -15.890  1.00  0.00     0.047 A 
ATOM      6  C   UNL     1      20.494   1.218 -15.212  1.00  0.00     0.115 A 
ENDROOT
BRANCH   1   7
ATOM      7  C   UNL     1      20.919  -0.232 -19.239  1.00  0.00     0.010 C 
ATOM      8  C   UNL     1      21.150   0.544 -20.308  1.00  0.00     0.025 C 
BRANCH   8   9
ATOM      9  C   UNL     1      21.248  -0.006 -21.671  1.00  0.00     0.064 C 
ATOM     10  O   UNL     1      20.632  -1.055 -21.997  1.00  0.00    -0.545 OA
ATOM     11  O   UNL     1      22.036   0.643 -22.613  1.00  0.00    -0.545 OA
ENDBRANCH   8   9
ENDBRANCH   1   7
BRANCH   6  12
ATOM     12  O   UNL     1      20.351   1.686 -13.908  1.00  0.00    -0.508 OA
ATOM     13  H   UNL     1      20.533   2.653 -13.670  1.00  0.00     0.293 HD
ENDBRANCH   6  12
TORSDOF 3
ENDMDL
MODEL 7
REMARK VINA RESULT:    -4.522     16.789     17.678
REMARK INTER + INTRA:          -5.320
REMARK INTER:                  -5.182
REMARK INTRA:                  -0.139
REMARK UNBOUND:                -0.137
REMARK SMILES O=C([O-])C=Cc1ccc(O)cc1
REMARK SMILES IDX 6 1 7 2 12 3 8 4 11 5 9 6 5 7 4 8 2 9 1 10 3 11 10 12
REMARK H PARENT 10 13
REMARK Flexibility Score: inf
ROOT
ATOM      1  C   UNL     1       8.147  -6.310  -9.601  1.00  0.00    -0.025 A 
ATOM      2  C   UNL     1       8.061  -5.017 -10.158  1.00  0.00     0.012 A 
ATOM      3  C   UNL     1       8.056  -7.422 -10.455  1.00  0.00     0.012 A 
ATOM      4  C   UNL     1       7.911  -4.850 -11.537  1.00  0.00     0.047 A 
ATOM      5  C   UNL     1       7.906  -7.251 -11.834  1.00  0.00     0.047 A 
ATOM      6  C   UNL     1       7.836  -5.963 -12.379  1.00  0.00     0.115 A 
ENDROOT
BRANCH   1   7
ATOM      7  C   UNL     1       8.295  -6.544  -8.143  1.00  0.00     0.010 C 
ATOM      8  C   UNL     1       7.690  -5.802  -7.204  1.00  0.00     0.025 C 
BRANCH   8   9
ATOM      9  C   UNL     1       7.869  -6.057  -5.765  1.00  0.00     0.064 C 
ATOM     10  O   UNL     1       8.282  -5.154  -4.988  1.00  0.00    -0.545 OA
ATOM     11  O   UNL     1       7.581  -7.316  -5.254  1.00  0.00    -0.545 OA
ENDBRANCH   8   9
ENDBRANCH   1   7
BRANCH   6  12
ATOM     12  O   UNL     1       7.688  -5.780 -13.752  1.00  0.00    -0.508 OA
ATOM     13  H   UNL     1       7.983  -4.926 -14.208  1.00  0.00     0.293 HD
ENDBRANCH   6  12
TORSDOF 3
ENDMDL
MODEL 8
REMARK VINA RESULT:    -4.481     17.695     19.172
REMARK INTER + INTRA:          -5.273
REMARK INTER:                  -5.138
REMARK INTRA:                  -0.136
REMARK UNBOUND:                -0.137
REMARK SMILES O=C([O-])C=Cc1ccc(O)cc1
REMARK SMILES IDX 6 1 7 2 12 3 8 4 11 5 9 6 5 7 4 8 2 9 1 10 3 11 10 12
REMARK H PARENT 10 13
REMARK Flexibility Score: inf
ROOT
ATOM      1  C   UNL     1       8.334  -6.424  -7.373  1.00  0.00    -0.025 A 
ATOM      2  C   UNL     1       8.369  -5.515  -6.295  1.00  0.00     0.012 A 
ATOM      3  C   UNL     1       7.940  -7.750  -7.127  1.00  0.00     0.012 A 
ATOM      4  C   UNL     1       7.995  -5.925  -5.012  1.00  0.00     0.047 A 
ATOM      5  C   UNL     1       7.566  -8.156  -5.843  1.00  0.00     0.047 A 
ATOM      6  C   UNL     1       7.590  -7.243  -4.782  1.00  0.00     0.115 A 
ENDROOT
BRANCH   1   7
ATOM      7  C   UNL     1       8.733  -6.045  -8.751  1.00  0.00     0.010 C 
ATOM      8  C   UNL     1       7.915  -5.435  -9.622  1.00  0.00     0.025 C 
BRANCH   8   9
ATOM      9  C   UNL     1       8.342  -5.085 -10.987  1.00  0.00     0.064 C 
ATOM     10  O   UNL     1       9.382  -5.584 -11.494  1.00  0.00    -0.545 OA
ATOM     11  O   UNL     1       7.588  -4.184 -11.728  1.00  0.00    -0.545 OA
ENDBRANCH   8   9
ENDBRANCH   1   7
BRANCH   6  12
ATOM     12  O   UNL     1       7.218  -7.636  -3.499  1.00  0.00    -0.508 OA
ATOM     13  H   UNL     1       7.792  -8.264  -2.949  1.00  0.00     0.293 HD
ENDBRANCH   6  12
TORSDOF 3
ENDMDL
MODEL 9
REMARK VINA RESULT:    -4.413     15.059     16.065
REMARK INTER + INTRA:          -5.195
REMARK INTER:                  -5.057
REMARK INTRA:                  -0.138
REMARK UNBOUND:                -0.137
REMARK SMILES O=C([O-])C=Cc1ccc(O)cc1
REMARK SMILES IDX 6 1 7 2 12 3 8 4 11 5 9 6 5 7 4 8 2 9 1 10 3 11 10 12
REMARK H PARENT 10 13
REMARK Flexibility Score: inf
ROOT
ATOM      1  C   UNL     1      11.190  -7.025  -9.123  1.00  0.00    -0.025 A 
ATOM      2  C   UNL     1      12.011  -5.972  -9.578  1.00  0.00     0.012 A 
ATOM      3  C   UNL     1      11.167  -8.227  -9.849  1.00  0.00     0.012 A 
ATOM      4  C   UNL     1      12.804  -6.135 -10.718  1.00  0.00     0.047 A 
ATOM      5  C   UNL     1      11.962  -8.387 -10.988  1.00  0.00     0.047 A 
ATOM      6  C   UNL     1      12.785  -7.341 -11.424  1.00  0.00     0.115 A 
ENDROOT
BRANCH   1   7
ATOM      7  C   UNL     1      10.321  -6.900  -7.927  1.00  0.00     0.010 C 
ATOM      8  C   UNL     1       9.623  -5.796  -7.625  1.00  0.00     0.025 C 
BRANCH   8   9
ATOM      9  C   UNL     1       8.779  -5.705  -6.422  1.00  0.00     0.064 C 
ATOM     10  O   UNL     1       9.065  -4.916  -5.482  1.00  0.00    -0.545 OA
ATOM     11  O   UNL     1       7.648  -6.505  -6.320  1.00  0.00    -0.545 OA
ENDBRANCH   8   9
ENDBRANCH   1   7
BRANCH   6  12
ATOM     12  O   UNL     1      13.581  -7.489 -12.557  1.00  0.00    -0.508 OA
ATOM     13  H   UNL     1      13.833  -8.404 -12.912  1.00  0.00     0.293 HD
ENDBRANCH   6  12
TORSDOF 3
ENDMDL
