MODEL 1
REMARK VINA RESULT:     7.044      0.000      0.000
REMARK INTER + INTRA:          12.980
REMARK INTER:                  13.221
REMARK INTRA:                  -0.241
REMARK UNBOUND:                -0.241
REMARK SMILES CCCCCCCCC=CCCCCCCCC(=O)[O-]
REMARK SMILES IDX 10 1 9 2 11 3 12 4 13 5 14 6 15 7 16 8 17 9 18 10 19 11
REMARK SMILES IDX 20 12 8 13 7 14 6 15 5 16 4 17 3 18 2 19 1 20
REMARK H PARENT
REMARK Flexibility Score: inf
ROOT
ATOM      1  C   UNL     1      -2.550  26.745  39.294  1.00  0.00    -0.031 C 
ATOM      2  C   UNL     1      -2.764  25.447  39.585  1.00  0.00    -0.031 C 
ENDROOT
BRANCH   1   3
ATOM      3  C   UNL     1      -1.935  27.264  38.015  1.00  0.00     0.027 C 
BRANCH   3   4
ATOM      4  C   UNL     1      -0.707  28.142  38.295  1.00  0.00     0.004 C 
BRANCH   4   5
ATOM      5  C   UNL     1      -0.048  27.815  39.643  1.00  0.00     0.000 C 
BRANCH   5   6
ATOM      6  C   UNL     1      -0.152  29.004  40.607  1.00  0.00     0.000 C 
BRANCH   6   7
ATOM      7  C   UNL     1       0.967  28.963  41.655  1.00  0.00     0.000 C 
BRANCH   7   8
ATOM      8  C   UNL     1       1.631  27.578  41.697  1.00  0.00     0.006 C 
BRANCH   8   9
ATOM      9  C   UNL     1       2.767  27.511  42.726  1.00  0.00     0.053 C 
BRANCH   9  10
ATOM     10  C   UNL     1       2.692  26.266  43.555  1.00  0.00     0.041 C 
ATOM     11  O   UNL     1       2.440  26.337  44.786  1.00  0.00    -0.550 OA
ATOM     12  O   UNL     1       2.867  25.023  42.959  1.00  0.00    -0.550 OA
ENDBRANCH   9  10
ENDBRANCH   8   9
ENDBRANCH   7   8
ENDBRANCH   6   7
ENDBRANCH   5   6
ENDBRANCH   4   5
ENDBRANCH   3   4
ENDBRANCH   1   3
BRANCH   2  13
ATOM     13  C   UNL     1      -2.391  24.282  38.703  1.00  0.00     0.027 C 
BRANCH  13  14
ATOM     14  C   UNL     1      -2.583  22.943  39.424  1.00  0.00     0.004 C 
BRANCH  14  15
ATOM     15  C   UNL     1      -3.710  22.126  38.773  1.00  0.00     0.000 C 
BRANCH  15  16
ATOM     16  C   UNL     1      -5.076  22.823  38.868  1.00  0.00     0.000 C 
BRANCH  16  17
ATOM     17  C   UNL     1      -5.693  22.730  40.275  1.00  0.00    -0.000 C 
BRANCH  17  18
ATOM     18  C   UNL     1      -4.912  23.569  41.309  1.00  0.00    -0.000 C 
BRANCH  18  19
ATOM     19  C   UNL     1      -3.920  22.745  42.147  1.00  0.00    -0.003 C 
ATOM     20  C   UNL     1      -3.523  23.430  43.452  1.00  0.00     0.004 C 
ENDBRANCH  18  19
ENDBRANCH  17  18
ENDBRANCH  16  17
ENDBRANCH  15  16
ENDBRANCH  14  15
ENDBRANCH  13  14
ENDBRANCH   2  13
TORSDOF 15
ENDMDL
MODEL 2
REMARK VINA RESULT:     7.362      2.256      6.942
REMARK INTER + INTRA:          13.576
REMARK INTER:                  14.254
REMARK INTRA:                  -0.678
REMARK UNBOUND:                -0.241
REMARK SMILES CCCCCCCCC=CCCCCCCCC(=O)[O-]
REMARK SMILES IDX 10 1 9 2 11 3 12 4 13 5 14 6 15 7 16 8 17 9 18 10 19 11
REMARK SMILES IDX 20 12 8 13 7 14 6 15 5 16 4 17 3 18 2 19 1 20
REMARK H PARENT
REMARK Flexibility Score: inf
ROOT
ATOM      1  C   UNL     1      -2.209  27.029  38.520  1.00  0.00    -0.031 C 
ATOM      2  C   UNL     1      -1.206  27.919  38.649  1.00  0.00    -0.031 C 
ENDROOT
BRANCH   1   3
ATOM      3  C   UNL     1      -2.414  25.809  39.388  1.00  0.00     0.027 C 
BRANCH   3   4
ATOM      4  C   UNL     1      -2.790  24.578  38.552  1.00  0.00     0.004 C 
BRANCH   4   5
ATOM      5  C   UNL     1      -2.414  23.261  39.246  1.00  0.00     0.000 C 
BRANCH   5   6
ATOM      6  C   UNL     1      -3.560  22.245  39.153  1.00  0.00     0.000 C 
BRANCH   6   7
ATOM      7  C   UNL     1      -4.921  22.930  39.323  1.00  0.00     0.000 C 
BRANCH   7   8
ATOM      8  C   UNL     1      -5.327  22.987  40.803  1.00  0.00     0.006 C 
BRANCH   8   9
ATOM      9  C   UNL     1      -4.342  23.810  41.644  1.00  0.00     0.053 C 
BRANCH   9  10
ATOM     10  C   UNL     1      -3.648  22.966  42.668  1.00  0.00     0.041 C 
ATOM     11  O   UNL     1      -3.091  21.888  42.331  1.00  0.00    -0.550 OA
ATOM     12  O   UNL     1      -3.586  23.388  43.990  1.00  0.00    -0.550 OA
ENDBRANCH   9  10
ENDBRANCH   8   9
ENDBRANCH   7   8
ENDBRANCH   6   7
ENDBRANCH   5   6
ENDBRANCH   4   5
ENDBRANCH   3   4
ENDBRANCH   1   3
BRANCH   2  13
ATOM     13  C   UNL     1      -0.090  27.833  39.660  1.00  0.00     0.027 C 
BRANCH  13  14
ATOM     14  C   UNL     1      -0.104  29.029  40.621  1.00  0.00     0.004 C 
BRANCH  14  15
ATOM     15  C   UNL     1       0.914  28.833  41.755  1.00  0.00     0.000 C 
BRANCH  15  16
ATOM     16  C   UNL     1       1.712  27.527  41.615  1.00  0.00     0.000 C 
BRANCH  16  17
ATOM     17  C   UNL     1       2.788  27.369  42.704  1.00  0.00    -0.000 C 
BRANCH  17  18
ATOM     18  C   UNL     1       2.367  26.361  43.795  1.00  0.00    -0.000 C 
BRANCH  18  19
ATOM     19  C   UNL     1       3.166  25.048  43.759  1.00  0.00    -0.003 C 
ATOM     20  C   UNL     1       2.830  24.175  42.553  1.00  0.00     0.004 C 
ENDBRANCH  18  19
ENDBRANCH  17  18
ENDBRANCH  16  17
ENDBRANCH  15  16
ENDBRANCH  14  15
ENDBRANCH  13  14
ENDBRANCH   2  13
TORSDOF 15
ENDMDL
MODEL 3
REMARK VINA RESULT:     7.518      0.837      2.057
REMARK INTER + INTRA:          13.869
REMARK INTER:                  14.718
REMARK INTRA:                  -0.849
REMARK UNBOUND:                -0.241
REMARK SMILES CCCCCCCCC=CCCCCCCCC(=O)[O-]
REMARK SMILES IDX 10 1 9 2 11 3 12 4 13 5 14 6 15 7 16 8 17 9 18 10 19 11
REMARK SMILES IDX 20 12 8 13 7 14 6 15 5 16 4 17 3 18 2 19 1 20
REMARK H PARENT
REMARK Flexibility Score: inf
ROOT
ATOM      1  C   UNL     1      -2.566  27.268  38.868  1.00  0.00    -0.031 C 
ATOM      2  C   UNL     1      -2.874  26.078  39.419  1.00  0.00    -0.031 C 
ENDROOT
BRANCH   1   3
ATOM      3  C   UNL     1      -1.374  27.538  37.979  1.00  0.00     0.027 C 
BRANCH   3   4
ATOM      4  C   UNL     1      -0.181  28.077  38.782  1.00  0.00     0.004 C 
BRANCH   4   5
ATOM      5  C   UNL     1      -0.573  28.490  40.207  1.00  0.00     0.000 C 
BRANCH   5   6
ATOM      6  C   UNL     1       0.360  29.586  40.738  1.00  0.00     0.000 C 
BRANCH   6   7
ATOM      7  C   UNL     1       1.091  29.123  42.004  1.00  0.00     0.000 C 
BRANCH   7   8
ATOM      8  C   UNL     1       1.620  27.690  41.840  1.00  0.00     0.006 C 
BRANCH   8   9
ATOM      9  C   UNL     1       2.886  27.440  42.670  1.00  0.00     0.053 C 
BRANCH   9  10
ATOM     10  C   UNL     1       2.742  26.242  43.556  1.00  0.00     0.041 C 
ATOM     11  O   UNL     1       2.915  25.085  43.093  1.00  0.00    -0.550 OA
ATOM     12  O   UNL     1       2.447  26.406  44.904  1.00  0.00    -0.550 OA
ENDBRANCH   9  10
ENDBRANCH   8   9
ENDBRANCH   7   8
ENDBRANCH   6   7
ENDBRANCH   5   6
ENDBRANCH   4   5
ENDBRANCH   3   4
ENDBRANCH   1   3
BRANCH   2  13
ATOM     13  C   UNL     1      -2.061  24.815  39.276  1.00  0.00     0.027 C 
BRANCH  13  14
ATOM     14  C   UNL     1      -2.956  23.569  39.241  1.00  0.00     0.004 C 
BRANCH  14  15
ATOM     15  C   UNL     1      -2.681  22.664  40.451  1.00  0.00     0.000 C 
BRANCH  15  16
ATOM     16  C   UNL     1      -3.821  22.692  41.482  1.00  0.00     0.000 C 
BRANCH  16  17
ATOM     17  C   UNL     1      -4.973  23.626  41.068  1.00  0.00    -0.000 C 
BRANCH  17  18
ATOM     18  C   UNL     1      -6.123  22.861  40.379  1.00  0.00    -0.000 C 
BRANCH  18  19
ATOM     19  C   UNL     1      -6.123  22.998  38.847  1.00  0.00    -0.003 C 
ATOM     20  C   UNL     1      -5.698  21.719  38.131  1.00  0.00     0.004 C 
ENDBRANCH  18  19
ENDBRANCH  17  18
ENDBRANCH  16  17
ENDBRANCH  15  16
ENDBRANCH  14  15
ENDBRANCH  13  14
ENDBRANCH   2  13
TORSDOF 15
ENDMDL
MODEL 4
REMARK VINA RESULT:     7.564      2.214      6.884
REMARK INTER + INTRA:          13.957
REMARK INTER:                  14.156
REMARK INTRA:                  -0.199
REMARK UNBOUND:                -0.241
REMARK SMILES CCCCCCCCC=CCCCCCCCC(=O)[O-]
REMARK SMILES IDX 10 1 9 2 11 3 12 4 13 5 14 6 15 7 16 8 17 9 18 10 19 11
REMARK SMILES IDX 20 12 8 13 7 14 6 15 5 16 4 17 3 18 2 19 1 20
REMARK H PARENT
REMARK Flexibility Score: inf
ROOT
ATOM      1  C   UNL     1      -2.661  25.483  39.540  1.00  0.00    -0.031 C 
ATOM      2  C   UNL     1      -2.335  26.770  39.315  1.00  0.00    -0.031 C 
ENDROOT
BRANCH   1   3
ATOM      3  C   UNL     1      -2.570  24.367  38.525  1.00  0.00     0.027 C 
BRANCH   3   4
ATOM      4  C   UNL     1      -2.450  22.995  39.203  1.00  0.00     0.004 C 
BRANCH   4   5
ATOM      5  C   UNL     1      -3.653  22.088  38.905  1.00  0.00     0.000 C 
BRANCH   5   6
ATOM      6  C   UNL     1      -4.955  22.898  38.868  1.00  0.00     0.000 C 
BRANCH   6   7
ATOM      7  C   UNL     1      -5.892  22.489  40.010  1.00  0.00     0.000 C 
BRANCH   7   8
ATOM      8  C   UNL     1      -5.815  23.493  41.171  1.00  0.00     0.006 C 
BRANCH   8   9
ATOM      9  C   UNL     1      -4.372  23.908  41.483  1.00  0.00     0.053 C 
BRANCH   9  10
ATOM     10  C   UNL     1      -3.781  23.080  42.581  1.00  0.00     0.041 C 
ATOM     11  O   UNL     1      -3.527  23.596  43.701  1.00  0.00    -0.550 OA
ATOM     12  O   UNL     1      -3.541  21.726  42.378  1.00  0.00    -0.550 OA
ENDBRANCH   9  10
ENDBRANCH   8   9
ENDBRANCH   7   8
ENDBRANCH   6   7
ENDBRANCH   5   6
ENDBRANCH   4   5
ENDBRANCH   3   4
ENDBRANCH   1   3
BRANCH   2  13
ATOM     13  C   UNL     1      -1.857  27.331  37.999  1.00  0.00     0.027 C 
BRANCH  13  14
ATOM     14  C   UNL     1      -0.559  28.131  38.165  1.00  0.00     0.004 C 
BRANCH  14  15
ATOM     15  C   UNL     1       0.074  27.871  39.540  1.00  0.00     0.000 C 
BRANCH  15  16
ATOM     16  C   UNL     1      -0.035  29.082  40.480  1.00  0.00     0.000 C 
BRANCH  16  17
ATOM     17  C   UNL     1       0.993  29.039  41.625  1.00  0.00    -0.000 C 
BRANCH  17  18
ATOM     18  C   UNL     1       1.412  27.595  41.976  1.00  0.00    -0.000 C 
BRANCH  18  19
ATOM     19  C   UNL     1       2.701  27.514  42.811  1.00  0.00    -0.003 C 
ATOM     20  C   UNL     1       2.830  26.207  43.589  1.00  0.00     0.004 C 
ENDBRANCH  18  19
ENDBRANCH  17  18
ENDBRANCH  16  17
ENDBRANCH  15  16
ENDBRANCH  14  15
ENDBRANCH  13  14
ENDBRANCH   2  13
TORSDOF 15
ENDMDL
MODEL 5
REMARK VINA RESULT:     8.567      3.664      6.186
REMARK INTER + INTRA:          15.839
REMARK INTER:                  15.974
REMARK INTRA:                  -0.135
REMARK UNBOUND:                -0.241
REMARK SMILES CCCCCCCCC=CCCCCCCCC(=O)[O-]
REMARK SMILES IDX 10 1 9 2 11 3 12 4 13 5 14 6 15 7 16 8 17 9 18 10 19 11
REMARK SMILES IDX 20 12 8 13 7 14 6 15 5 16 4 17 3 18 2 19 1 20
REMARK H PARENT
REMARK Flexibility Score: inf
ROOT
ATOM      1  C   UNL     1      -6.092  22.224  38.560  1.00  0.00    -0.031 C 
ATOM      2  C   UNL     1      -4.980  21.591  38.141  1.00  0.00    -0.031 C 
ENDROOT
BRANCH   1   3
ATOM      3  C   UNL     1      -6.125  23.393  39.518  1.00  0.00     0.027 C 
BRANCH   3   4
ATOM      4  C   UNL     1      -5.959  22.934  40.974  1.00  0.00     0.004 C 
BRANCH   4   5
ATOM      5  C   UNL     1      -4.550  23.210  41.517  1.00  0.00     0.000 C 
BRANCH   5   6
ATOM      6  C   UNL     1      -3.923  24.428  40.826  1.00  0.00     0.000 C 
BRANCH   6   7
ATOM      7  C   UNL     1      -2.706  24.022  39.988  1.00  0.00     0.000 C 
BRANCH   7   8
ATOM      8  C   UNL     1      -2.452  25.034  38.861  1.00  0.00     0.006 C 
BRANCH   8   9
ATOM      9  C   UNL     1      -2.458  26.481  39.368  1.00  0.00     0.053 C 
BRANCH   9  10
ATOM     10  C   UNL     1      -1.753  27.404  38.423  1.00  0.00     0.041 C 
ATOM     11  O   UNL     1      -2.299  27.742  37.340  1.00  0.00    -0.550 OA
ATOM     12  O   UNL     1      -0.505  27.917  38.753  1.00  0.00    -0.550 OA
ENDBRANCH   9  10
ENDBRANCH   8   9
ENDBRANCH   7   8
ENDBRANCH   6   7
ENDBRANCH   5   6
ENDBRANCH   4   5
ENDBRANCH   3   4
ENDBRANCH   1   3
BRANCH   2  13
ATOM     13  C   UNL     1      -3.574  21.912  38.584  1.00  0.00     0.027 C 
BRANCH  13  14
ATOM     14  C   UNL     1      -2.544  21.007  37.896  1.00  0.00     0.004 C 
BRANCH  14  15
ATOM     15  C   UNL     1      -1.252  20.920  38.722  1.00  0.00     0.000 C 
BRANCH  15  16
ATOM     16  C   UNL     1      -0.280  19.856  38.189  1.00  0.00     0.000 C 
BRANCH  16  17
ATOM     17  C   UNL     1       0.213  18.899  39.289  1.00  0.00    -0.000 C 
BRANCH  17  18
ATOM     18  C   UNL     1      -0.308  17.460  39.085  1.00  0.00    -0.000 C 
BRANCH  18  19
ATOM     19  C   UNL     1      -1.298  17.004  40.169  1.00  0.00    -0.003 C 
ATOM     20  C   UNL     1      -0.891  17.441  41.574  1.00  0.00     0.004 C 
ENDBRANCH  18  19
ENDBRANCH  17  18
ENDBRANCH  16  17
ENDBRANCH  15  16
ENDBRANCH  14  15
ENDBRANCH  13  14
ENDBRANCH   2  13
TORSDOF 15
ENDMDL
MODEL 6
REMARK VINA RESULT:     8.577      3.915      7.417
REMARK INTER + INTRA:          15.857
REMARK INTER:                  15.212
REMARK INTRA:                   0.645
REMARK UNBOUND:                -0.241
REMARK SMILES CCCCCCCCC=CCCCCCCCC(=O)[O-]
REMARK SMILES IDX 10 1 9 2 11 3 12 4 13 5 14 6 15 7 16 8 17 9 18 10 19 11
REMARK SMILES IDX 20 12 8 13 7 14 6 15 5 16 4 17 3 18 2 19 1 20
REMARK H PARENT
REMARK Flexibility Score: inf
ROOT
ATOM      1  C   UNL     1      -6.125  22.590  38.733  1.00  0.00    -0.031 C 
ATOM      2  C   UNL     1      -6.035  23.081  39.984  1.00  0.00    -0.031 C 
ENDROOT
BRANCH   1   3
ATOM      3  C   UNL     1      -5.149  21.626  38.099  1.00  0.00     0.027 C 
BRANCH   3   4
ATOM      4  C   UNL     1      -3.698  21.969  38.466  1.00  0.00     0.004 C 
BRANCH   4   5
ATOM      5  C   UNL     1      -2.704  20.906  37.978  1.00  0.00     0.000 C 
BRANCH   5   6
ATOM      6  C   UNL     1      -1.355  21.044  38.697  1.00  0.00     0.000 C 
BRANCH   6   7
ATOM      7  C   UNL     1      -0.314  20.088  38.104  1.00  0.00     0.000 C 
BRANCH   7   8
ATOM      8  C   UNL     1       0.243  19.145  39.182  1.00  0.00     0.006 C 
BRANCH   8   9
ATOM      9  C   UNL     1      -0.096  17.676  38.898  1.00  0.00     0.053 C 
BRANCH   9  10
ATOM     10  C   UNL     1      -0.992  17.101  39.951  1.00  0.00     0.041 C 
ATOM     11  O   UNL     1      -1.856  16.237  39.647  1.00  0.00    -0.550 OA
ATOM     12  O   UNL     1      -0.849  17.494  41.276  1.00  0.00    -0.550 OA
ENDBRANCH   9  10
ENDBRANCH   8   9
ENDBRANCH   7   8
ENDBRANCH   6   7
ENDBRANCH   5   6
ENDBRANCH   4   5
ENDBRANCH   3   4
ENDBRANCH   1   3
BRANCH   2  13
ATOM     13  C   UNL     1      -4.922  22.784  40.959  1.00  0.00     0.027 C 
BRANCH  13  14
ATOM     14  C   UNL     1      -3.993  23.991  41.140  1.00  0.00     0.004 C 
BRANCH  14  15
ATOM     15  C   UNL     1      -2.748  23.863  40.250  1.00  0.00     0.000 C 
BRANCH  15  16
ATOM     16  C   UNL     1      -2.762  24.845  39.068  1.00  0.00     0.000 C 
BRANCH  16  17
ATOM     17  C   UNL     1      -2.444  26.290  39.494  1.00  0.00    -0.000 C 
BRANCH  17  18
ATOM     18  C   UNL     1      -1.971  27.155  38.306  1.00  0.00    -0.000 C 
BRANCH  18  19
ATOM     19  C   UNL     1      -0.633  27.869  38.559  1.00  0.00    -0.003 C 
ATOM     20  C   UNL     1      -0.092  28.584  37.323  1.00  0.00     0.004 C 
ENDBRANCH  18  19
ENDBRANCH  17  18
ENDBRANCH  16  17
ENDBRANCH  15  16
ENDBRANCH  14  15
ENDBRANCH  13  14
ENDBRANCH   2  13
TORSDOF 15
ENDMDL
MODEL 7
REMARK VINA RESULT:     9.446      3.093      5.812
REMARK INTER + INTRA:          17.487
REMARK INTER:                  17.377
REMARK INTRA:                   0.110
REMARK UNBOUND:                -0.241
REMARK SMILES CCCCCCCCC=CCCCCCCCC(=O)[O-]
REMARK SMILES IDX 10 1 9 2 11 3 12 4 13 5 14 6 15 7 16 8 17 9 18 10 19 11
REMARK SMILES IDX 20 12 8 13 7 14 6 15 5 16 4 17 3 18 2 19 1 20
REMARK H PARENT
REMARK Flexibility Score: inf
ROOT
ATOM      1  C   UNL     1      -5.223  23.712  41.121  1.00  0.00    -0.031 C 
ATOM      2  C   UNL     1      -4.178  23.528  41.950  1.00  0.00    -0.031 C 
ENDROOT
BRANCH   1   3
ATOM      3  C   UNL     1      -5.848  22.646  40.252  1.00  0.00     0.027 C 
BRANCH   3   4
ATOM      4  C   UNL     1      -5.219  22.618  38.851  1.00  0.00     0.004 C 
BRANCH   4   5
ATOM      5  C   UNL     1      -3.706  22.877  38.884  1.00  0.00     0.000 C 
BRANCH   5   6
ATOM      6  C   UNL     1      -3.375  24.272  38.338  1.00  0.00     0.000 C 
BRANCH   6   7
ATOM      7  C   UNL     1      -2.416  25.018  39.273  1.00  0.00     0.000 C 
BRANCH   7   8
ATOM      8  C   UNL     1      -2.628  26.536  39.181  1.00  0.00     0.006 C 
BRANCH   8   9
ATOM      9  C   UNL     1      -1.993  27.135  37.919  1.00  0.00     0.053 C 
BRANCH   9  10
ATOM     10  C   UNL     1      -0.768  27.933  38.239  1.00  0.00     0.041 C 
ATOM     11  O   UNL     1      -0.226  28.648  37.356  1.00  0.00    -0.550 OA
ATOM     12  O   UNL     1      -0.242  27.914  39.526  1.00  0.00    -0.550 OA
ENDBRANCH   9  10
ENDBRANCH   8   9
ENDBRANCH   7   8
ENDBRANCH   6   7
ENDBRANCH   5   6
ENDBRANCH   4   5
ENDBRANCH   3   4
ENDBRANCH   1   3
BRANCH   2  13
ATOM     13  C   UNL     1      -3.424  22.233  42.128  1.00  0.00     0.027 C 
BRANCH  13  14
ATOM     14  C   UNL     1      -1.986  22.340  41.603  1.00  0.00     0.004 C 
BRANCH  14  15
ATOM     15  C   UNL     1      -1.626  21.120  40.741  1.00  0.00     0.000 C 
BRANCH  15  16
ATOM     16  C   UNL     1      -1.496  21.468  39.249  1.00  0.00     0.000 C 
BRANCH  16  17
ATOM     17  C   UNL     1      -1.189  20.237  38.378  1.00  0.00    -0.000 C 
BRANCH  17  18
ATOM     18  C   UNL     1       0.300  19.835  38.443  1.00  0.00    -0.000 C 
BRANCH  18  19
ATOM     19  C   UNL     1       0.523  18.357  38.808  1.00  0.00    -0.003 C 
ATOM     20  C   UNL     1      -0.608  17.771  39.649  1.00  0.00     0.004 C 
ENDBRANCH  18  19
ENDBRANCH  17  18
ENDBRANCH  16  17
ENDBRANCH  15  16
ENDBRANCH  14  15
ENDBRANCH  13  14
ENDBRANCH   2  13
TORSDOF 15
ENDMDL
MODEL 8
REMARK VINA RESULT:     9.553      3.389      4.745
REMARK INTER + INTRA:          17.689
REMARK INTER:                  18.090
REMARK INTRA:                  -0.401
REMARK UNBOUND:                -0.241
REMARK SMILES CCCCCCCCC=CCCCCCCCC(=O)[O-]
REMARK SMILES IDX 10 1 9 2 11 3 12 4 13 5 14 6 15 7 16 8 17 9 18 10 19 11
REMARK SMILES IDX 20 12 8 13 7 14 6 15 5 16 4 17 3 18 2 19 1 20
REMARK H PARENT
REMARK Flexibility Score: inf
ROOT
ATOM      1  C   UNL     1      -2.583  22.022  39.170  1.00  0.00    -0.031 C 
ATOM      2  C   UNL     1      -3.766  21.846  38.551  1.00  0.00    -0.031 C 
ENDROOT
BRANCH   1   3
ATOM      3  C   UNL     1      -2.055  23.340  39.688  1.00  0.00     0.027 C 
BRANCH   3   4
ATOM      4  C   UNL     1      -2.485  24.511  38.794  1.00  0.00     0.004 C 
BRANCH   4   5
ATOM      5  C   UNL     1      -2.807  25.777  39.602  1.00  0.00     0.000 C 
BRANCH   5   6
ATOM      6  C   UNL     1      -2.317  27.034  38.871  1.00  0.00     0.000 C 
BRANCH   6   7
ATOM      7  C   UNL     1      -0.957  27.491  39.411  1.00  0.00     0.000 C 
BRANCH   7   8
ATOM      8  C   UNL     1      -0.171  28.262  38.340  1.00  0.00     0.006 C 
BRANCH   8   9
ATOM      9  C   UNL     1      -0.876  28.243  36.977  1.00  0.00     0.053 C 
BRANCH   9  10
ATOM     10  C   UNL     1       0.016  27.715  35.898  1.00  0.00     0.041 C 
ATOM     11  O   UNL     1       1.268  27.777  36.021  1.00  0.00    -0.550 OA
ATOM     12  O   UNL     1      -0.535  27.123  34.768  1.00  0.00    -0.550 OA
ENDBRANCH   9  10
ENDBRANCH   8   9
ENDBRANCH   7   8
ENDBRANCH   6   7
ENDBRANCH   5   6
ENDBRANCH   4   5
ENDBRANCH   3   4
ENDBRANCH   1   3
BRANCH   2  13
ATOM     13  C   UNL     1      -4.754  22.940  38.231  1.00  0.00     0.027 C 
BRANCH  13  14
ATOM     14  C   UNL     1      -6.124  22.665  38.864  1.00  0.00     0.004 C 
BRANCH  14  15
ATOM     15  C   UNL     1      -6.002  22.505  40.387  1.00  0.00     0.000 C 
BRANCH  15  16
ATOM     16  C   UNL     1      -5.771  23.844  41.105  1.00  0.00     0.000 C 
BRANCH  16  17
ATOM     17  C   UNL     1      -4.329  23.999  41.622  1.00  0.00    -0.000 C 
BRANCH  17  18
ATOM     18  C   UNL     1      -4.255  23.952  43.163  1.00  0.00    -0.000 C 
BRANCH  18  19
ATOM     19  C   UNL     1      -3.384  22.805  43.703  1.00  0.00    -0.003 C 
ATOM     20  C   UNL     1      -3.134  21.707  42.673  1.00  0.00     0.004 C 
ENDBRANCH  18  19
ENDBRANCH  17  18
ENDBRANCH  16  17
ENDBRANCH  15  16
ENDBRANCH  14  15
ENDBRANCH  13  14
ENDBRANCH   2  13
TORSDOF 15
ENDMDL
