MODEL 1
REMARK VINA RESULT:    -6.204      0.000      0.000
REMARK INTER + INTRA:          -7.701
REMARK INTER:                  -7.474
REMARK INTRA:                  -0.228
REMARK UNBOUND:                -0.228
REMARK SMILES O=c1c(O)c(-c2ccc(O)c(O)c2)oc2cc(O)cc(O)c12
REMARK SMILES IDX 5 1 3 2 2 3 1 4 22 5 20 6 19 7 17 8 16 9 15 10 14 11 6 12
REMARK SMILES IDX 7 13 8 14 9 15 13 16 11 17 10 18 12 20 4 22 21 24 18 26
REMARK H PARENT 10 19 12 21 4 23 21 25 18 27
REMARK Flexibility Score: inf
ROOT
ATOM      1  C   UNL     1      65.805  39.076  48.877  1.00  0.00     0.180 A 
ATOM      2  C   UNL     1      66.012  40.350  48.313  1.00  0.00     0.208 A 
ATOM      3  C   UNL     1      64.918  41.030  47.756  1.00  0.00     0.238 A 
ATOM      4  O   UNL     1      65.093  42.167  47.238  1.00  0.00    -0.285 OA
ATOM      5  C   UNL     1      63.638  40.440  47.789  1.00  0.00     0.111 A 
ATOM      6  C   UNL     1      62.484  41.060  47.254  1.00  0.00     0.134 A 
ATOM      7  C   UNL     1      61.243  40.410  47.336  1.00  0.00     0.093 A 
ATOM      8  C   UNL     1      61.135  39.153  47.941  1.00  0.00     0.123 A 
ATOM      9  C   UNL     1      62.270  38.537  48.470  1.00  0.00     0.094 A 
ATOM     10  C   UNL     1      63.516  39.168  48.398  1.00  0.00     0.146 A 
ATOM     11  O   UNL     1      64.581  38.556  48.904  1.00  0.00    -0.452 OA
ENDROOT
BRANCH   1  12
ATOM     12  C   UNL     1      66.910  38.288  49.466  1.00  0.00     0.025 A 
ATOM     13  C   UNL     1      67.030  38.118  50.857  1.00  0.00     0.016 A 
ATOM     14  C   UNL     1      68.095  37.389  51.391  1.00  0.00     0.051 A 
ATOM     15  C   UNL     1      69.063  36.830  50.546  1.00  0.00     0.157 A 
ATOM     16  C   UNL     1      67.895  37.742  48.625  1.00  0.00     0.062 A 
ATOM     17  C   UNL     1      68.964  37.009  49.160  1.00  0.00     0.158 A 
BRANCH  15  18
ATOM     18  O   UNL     1      70.126  36.101  51.075  1.00  0.00    -0.504 OA
ATOM     19  H   UNL     1      70.894  35.787  50.494  1.00  0.00     0.293 HD
ENDBRANCH  15  18
BRANCH  17  20
ATOM     20  O   UNL     1      69.932  36.458  48.323  1.00  0.00    -0.504 OA
ATOM     21  H   UNL     1      70.408  35.594  48.558  1.00  0.00     0.293 HD
ENDBRANCH  17  20
ENDBRANCH   1  12
BRANCH   2  22
ATOM     22  O   UNL     1      67.280  40.935  48.336  1.00  0.00    -0.502 OA
ATOM     23  H   UNL     1      67.427  41.919  48.147  1.00  0.00     0.293 HD
ENDBRANCH   2  22
BRANCH   6  24
ATOM     24  O   UNL     1      62.559  42.314  46.645  1.00  0.00    -0.507 OA
ATOM     25  H   UNL     1      63.160  42.484  45.847  1.00  0.00     0.293 HD
ENDBRANCH   6  24
BRANCH   8  26
ATOM     26  O   UNL     1      59.903  38.508  48.023  1.00  0.00    -0.508 OA
ATOM     27  H   UNL     1      59.764  37.580  47.639  1.00  0.00     0.293 HD
ENDBRANCH   8  26
TORSDOF 6
ENDMDL
MODEL 2
REMARK VINA RESULT:    -6.165     12.287     13.382
REMARK INTER + INTRA:          -7.654
REMARK INTER:                  -7.718
REMARK INTRA:                   0.064
REMARK UNBOUND:                -0.228
REMARK SMILES O=c1c(O)c(-c2ccc(O)c(O)c2)oc2cc(O)cc(O)c12
REMARK SMILES IDX 5 1 3 2 2 3 1 4 22 5 20 6 19 7 17 8 16 9 15 10 14 11 6 12
REMARK SMILES IDX 7 13 8 14 9 15 13 16 11 17 10 18 12 20 4 22 21 24 18 26
REMARK H PARENT 10 19 12 21 4 23 21 25 18 27
REMARK Flexibility Score: inf
ROOT
ATOM      1  C   UNL     1      66.718  51.976  47.801  1.00  0.00     0.180 A 
ATOM      2  C   UNL     1      66.552  51.810  49.189  1.00  0.00     0.208 A 
ATOM      3  C   UNL     1      65.305  52.104  49.763  1.00  0.00     0.238 A 
ATOM      4  O   UNL     1      65.147  51.970  51.007  1.00  0.00    -0.285 OA
ATOM      5  C   UNL     1      64.244  52.535  48.941  1.00  0.00     0.111 A 
ATOM      6  C   UNL     1      62.956  52.847  49.439  1.00  0.00     0.134 A 
ATOM      7  C   UNL     1      61.949  53.262  48.554  1.00  0.00     0.093 A 
ATOM      8  C   UNL     1      62.206  53.370  47.182  1.00  0.00     0.123 A 
ATOM      9  C   UNL     1      63.474  53.064  46.687  1.00  0.00     0.094 A 
ATOM     10  C   UNL     1      64.491  52.650  47.553  1.00  0.00     0.146 A 
ATOM     11  O   UNL     1      65.691  52.371  47.054  1.00  0.00    -0.452 OA
ENDROOT
BRANCH   1  12
ATOM     12  C   UNL     1      68.007  51.706  47.125  1.00  0.00     0.025 A 
ATOM     13  C   UNL     1      68.546  52.607  46.189  1.00  0.00     0.016 A 
ATOM     14  C   UNL     1      69.753  52.320  45.546  1.00  0.00     0.051 A 
ATOM     15  C   UNL     1      70.432  51.125  45.818  1.00  0.00     0.157 A 
ATOM     16  C   UNL     1      68.682  50.500  47.379  1.00  0.00     0.062 A 
ATOM     17  C   UNL     1      69.895  50.212  46.734  1.00  0.00     0.158 A 
BRANCH  15  18
ATOM     18  O   UNL     1      71.637  50.836  45.181  1.00  0.00    -0.504 OA
ATOM     19  H   UNL     1      72.470  50.598  45.706  1.00  0.00     0.293 HD
ENDBRANCH  15  18
BRANCH  17  20
ATOM     20  O   UNL     1      70.568  49.021  46.998  1.00  0.00    -0.504 OA
ATOM     21  H   UNL     1      70.337  48.162  46.512  1.00  0.00     0.293 HD
ENDBRANCH  17  20
ENDBRANCH   1  12
BRANCH   2  22
ATOM     22  O   UNL     1      67.604  51.334  49.975  1.00  0.00    -0.502 OA
ATOM     23  H   UNL     1      68.258  51.952  50.439  1.00  0.00     0.293 HD
ENDBRANCH   2  22
BRANCH   6  24
ATOM     24  O   UNL     1      62.669  52.748  50.801  1.00  0.00    -0.507 OA
ATOM     25  H   UNL     1      63.344  53.012  51.509  1.00  0.00     0.293 HD
ENDBRANCH   6  24
BRANCH   8  26
ATOM     26  O   UNL     1      61.207  53.780  46.303  1.00  0.00    -0.508 OA
ATOM     27  H   UNL     1      60.526  53.128  45.932  1.00  0.00     0.293 HD
ENDBRANCH   8  26
TORSDOF 6
ENDMDL
MODEL 3
REMARK VINA RESULT:    -5.840      1.244      2.994
REMARK INTER + INTRA:          -7.262
REMARK INTER:                  -6.953
REMARK INTRA:                  -0.309
REMARK UNBOUND:                -0.228
REMARK SMILES O=c1c(O)c(-c2ccc(O)c(O)c2)oc2cc(O)cc(O)c12
REMARK SMILES IDX 5 1 3 2 2 3 1 4 22 5 20 6 19 7 17 8 16 9 15 10 14 11 6 12
REMARK SMILES IDX 7 13 8 14 9 15 13 16 11 17 10 18 12 20 4 22 21 24 18 26
REMARK H PARENT 10 19 12 21 4 23 21 25 18 27
REMARK Flexibility Score: inf
ROOT
ATOM      1  C   UNL     1      64.988  37.997  49.396  1.00  0.00     0.180 A 
ATOM      2  C   UNL     1      63.939  37.059  49.438  1.00  0.00     0.208 A 
ATOM      3  C   UNL     1      62.687  37.418  48.913  1.00  0.00     0.238 A 
ATOM      4  O   UNL     1      61.736  36.590  48.956  1.00  0.00    -0.285 OA
ATOM      5  C   UNL     1      62.512  38.693  48.338  1.00  0.00     0.111 A 
ATOM      6  C   UNL     1      61.286  39.131  47.783  1.00  0.00     0.134 A 
ATOM      7  C   UNL     1      61.194  40.413  47.221  1.00  0.00     0.093 A 
ATOM      8  C   UNL     1      62.305  41.264  47.203  1.00  0.00     0.123 A 
ATOM      9  C   UNL     1      63.516  40.837  47.749  1.00  0.00     0.094 A 
ATOM     10  C   UNL     1      63.627  39.563  48.315  1.00  0.00     0.146 A 
ATOM     11  O   UNL     1      64.791  39.186  48.833  1.00  0.00    -0.452 OA
ENDROOT
BRANCH   1  12
ATOM     12  C   UNL     1      66.330  37.701  49.947  1.00  0.00     0.025 A 
ATOM     13  C   UNL     1      66.589  37.780  51.327  1.00  0.00     0.016 A 
ATOM     14  C   UNL     1      67.870  37.519  51.821  1.00  0.00     0.051 A 
ATOM     15  C   UNL     1      68.912  37.190  50.945  1.00  0.00     0.157 A 
ATOM     16  C   UNL     1      67.384  37.390  49.071  1.00  0.00     0.062 A 
ATOM     17  C   UNL     1      68.670  37.128  49.566  1.00  0.00     0.158 A 
BRANCH  15  18
ATOM     18  O   UNL     1      70.190  36.927  51.434  1.00  0.00    -0.504 OA
ATOM     19  H   UNL     1      70.978  37.521  51.203  1.00  0.00     0.293 HD
ENDBRANCH  15  18
BRANCH  17  20
ATOM     20  O   UNL     1      69.709  36.807  48.696  1.00  0.00    -0.504 OA
ATOM     21  H   UNL     1      70.454  37.465  48.494  1.00  0.00     0.293 HD
ENDBRANCH  17  20
ENDBRANCH   1  12
BRANCH   2  22
ATOM     22  O   UNL     1      64.151  35.784  49.968  1.00  0.00    -0.502 OA
ATOM     23  H   UNL     1      63.731  35.481  50.839  1.00  0.00     0.293 HD
ENDBRANCH   2  22
BRANCH   6  24
ATOM     24  O   UNL     1      60.160  38.305  47.786  1.00  0.00    -0.507 OA
ATOM     25  H   UNL     1      59.422  38.412  48.471  1.00  0.00     0.293 HD
ENDBRANCH   6  24
BRANCH   8  26
ATOM     26  O   UNL     1      62.215  42.537  46.643  1.00  0.00    -0.508 OA
ATOM     27  H   UNL     1      61.701  43.282  47.100  1.00  0.00     0.293 HD
ENDBRANCH   8  26
TORSDOF 6
ENDMDL
MODEL 4
REMARK VINA RESULT:    -5.733      6.908      8.334
REMARK INTER + INTRA:          -7.133
REMARK INTER:                  -6.812
REMARK INTRA:                  -0.321
REMARK UNBOUND:                -0.228
REMARK SMILES O=c1c(O)c(-c2ccc(O)c(O)c2)oc2cc(O)cc(O)c12
REMARK SMILES IDX 5 1 3 2 2 3 1 4 22 5 20 6 19 7 17 8 16 9 15 10 14 11 6 12
REMARK SMILES IDX 7 13 8 14 9 15 13 16 11 17 10 18 12 20 4 22 21 24 18 26
REMARK H PARENT 10 19 12 21 4 23 21 25 18 27
REMARK Flexibility Score: inf
ROOT
ATOM      1  C   UNL     1      66.856  39.071  41.825  1.00  0.00     0.180 A 
ATOM      2  C   UNL     1      65.928  38.062  41.504  1.00  0.00     0.208 A 
ATOM      3  C   UNL     1      65.048  37.609  42.499  1.00  0.00     0.238 A 
ATOM      4  O   UNL     1      64.220  36.698  42.227  1.00  0.00    -0.285 OA
ATOM      5  C   UNL     1      65.094  38.185  43.786  1.00  0.00     0.111 A 
ATOM      6  C   UNL     1      64.240  37.789  44.843  1.00  0.00     0.134 A 
ATOM      7  C   UNL     1      64.343  38.417  46.093  1.00  0.00     0.093 A 
ATOM      8  C   UNL     1      65.283  39.433  46.305  1.00  0.00     0.123 A 
ATOM      9  C   UNL     1      66.127  39.826  45.266  1.00  0.00     0.094 A 
ATOM     10  C   UNL     1      66.041  39.211  44.014  1.00  0.00     0.146 A 
ATOM     11  O   UNL     1      66.862  39.601  43.045  1.00  0.00    -0.452 OA
ENDROOT
BRANCH   1  12
ATOM     12  C   UNL     1      67.830  39.587  40.837  1.00  0.00     0.025 A 
ATOM     13  C   UNL     1      69.141  39.082  40.767  1.00  0.00     0.016 A 
ATOM     14  C   UNL     1      70.050  39.601  39.842  1.00  0.00     0.051 A 
ATOM     15  C   UNL     1      69.669  40.640  38.982  1.00  0.00     0.157 A 
ATOM     16  C   UNL     1      67.459  40.642  39.986  1.00  0.00     0.062 A 
ATOM     17  C   UNL     1      68.372  41.163  39.056  1.00  0.00     0.158 A 
BRANCH  15  18
ATOM     18  O   UNL     1      70.572  41.159  38.057  1.00  0.00    -0.504 OA
ATOM     19  H   UNL     1      70.740  42.155  37.982  1.00  0.00     0.293 HD
ENDBRANCH  15  18
BRANCH  17  20
ATOM     20  O   UNL     1      67.996  42.201  38.205  1.00  0.00    -0.504 OA
ATOM     21  H   UNL     1      67.992  43.166  38.515  1.00  0.00     0.293 HD
ENDBRANCH  17  20
ENDBRANCH   1  12
BRANCH   2  22
ATOM     22  O   UNL     1      65.868  37.543  40.209  1.00  0.00    -0.502 OA
ATOM     23  H   UNL     1      66.697  37.387  39.647  1.00  0.00     0.293 HD
ENDBRANCH   2  22
BRANCH   6  24
ATOM     24  O   UNL     1      63.292  36.780  44.661  1.00  0.00    -0.507 OA
ATOM     25  H   UNL     1      63.267  36.218  43.819  1.00  0.00     0.293 HD
ENDBRANCH   6  24
BRANCH   8  26
ATOM     26  O   UNL     1      65.384  40.057  47.546  1.00  0.00    -0.508 OA
ATOM     27  H   UNL     1      66.280  40.191  48.002  1.00  0.00     0.293 HD
ENDBRANCH   8  26
TORSDOF 6
ENDMDL
MODEL 5
REMARK VINA RESULT:    -5.650      5.195      6.896
REMARK INTER + INTRA:          -7.034
REMARK INTER:                  -6.702
REMARK INTRA:                  -0.332
REMARK UNBOUND:                -0.228
REMARK SMILES O=c1c(O)c(-c2ccc(O)c(O)c2)oc2cc(O)cc(O)c12
REMARK SMILES IDX 5 1 3 2 2 3 1 4 22 5 20 6 19 7 17 8 16 9 15 10 14 11 6 12
REMARK SMILES IDX 7 13 8 14 9 15 13 16 11 17 10 18 12 20 4 22 21 24 18 26
REMARK H PARENT 10 19 12 21 4 23 21 25 18 27
REMARK Flexibility Score: inf
ROOT
ATOM      1  C   UNL     1      65.779  38.789  43.966  1.00  0.00     0.180 A 
ATOM      2  C   UNL     1      64.587  38.332  44.558  1.00  0.00     0.208 A 
ATOM      3  C   UNL     1      64.142  38.940  45.743  1.00  0.00     0.238 A 
ATOM      4  O   UNL     1      63.081  38.532  46.289  1.00  0.00    -0.285 OA
ATOM      5  C   UNL     1      64.881  40.004  46.300  1.00  0.00     0.111 A 
ATOM      6  C   UNL     1      64.500  40.673  47.488  1.00  0.00     0.134 A 
ATOM      7  C   UNL     1      65.284  41.729  47.974  1.00  0.00     0.093 A 
ATOM      8  C   UNL     1      66.442  42.128  47.296  1.00  0.00     0.123 A 
ATOM      9  C   UNL     1      66.822  41.471  46.125  1.00  0.00     0.094 A 
ATOM     10  C   UNL     1      66.054  40.415  45.625  1.00  0.00     0.146 A 
ATOM     11  O   UNL     1      66.443  39.804  44.511  1.00  0.00    -0.452 OA
ENDROOT
BRANCH   1  12
ATOM     12  C   UNL     1      66.324  38.186  42.728  1.00  0.00     0.025 A 
ATOM     13  C   UNL     1      67.193  37.081  42.773  1.00  0.00     0.016 A 
ATOM     14  C   UNL     1      67.713  36.543  41.593  1.00  0.00     0.051 A 
ATOM     15  C   UNL     1      67.385  37.108  40.353  1.00  0.00     0.157 A 
ATOM     16  C   UNL     1      66.014  38.761  41.484  1.00  0.00     0.062 A 
ATOM     17  C   UNL     1      66.535  38.221  40.299  1.00  0.00     0.158 A 
BRANCH  15  18
ATOM     18  O   UNL     1      67.900  36.574  39.174  1.00  0.00    -0.504 OA
ATOM     19  H   UNL     1      68.855  36.750  38.886  1.00  0.00     0.293 HD
ENDBRANCH  15  18
BRANCH  17  20
ATOM     20  O   UNL     1      66.215  38.785  39.066  1.00  0.00    -0.504 OA
ATOM     21  H   UNL     1      65.603  38.313  38.409  1.00  0.00     0.293 HD
ENDBRANCH  17  20
ENDBRANCH   1  12
BRANCH   2  22
ATOM     22  O   UNL     1      63.846  37.310  43.960  1.00  0.00    -0.502 OA
ATOM     23  H   UNL     1      63.955  37.060  42.984  1.00  0.00     0.293 HD
ENDBRANCH   2  22
BRANCH   6  24
ATOM     24  O   UNL     1      63.350  40.299  48.186  1.00  0.00    -0.507 OA
ATOM     25  H   UNL     1      62.532  39.936  47.711  1.00  0.00     0.293 HD
ENDBRANCH   6  24
BRANCH   8  26
ATOM     26  O   UNL     1      67.221  43.178  47.778  1.00  0.00    -0.508 OA
ATOM     27  H   UNL     1      66.933  43.726  48.581  1.00  0.00     0.293 HD
ENDBRANCH   8  26
TORSDOF 6
ENDMDL
MODEL 6
REMARK VINA RESULT:    -5.643      5.770      7.242
REMARK INTER + INTRA:          -7.025
REMARK INTER:                  -6.699
REMARK INTRA:                  -0.327
REMARK UNBOUND:                -0.228
REMARK SMILES O=c1c(O)c(-c2ccc(O)c(O)c2)oc2cc(O)cc(O)c12
REMARK SMILES IDX 5 1 3 2 2 3 1 4 22 5 20 6 19 7 17 8 16 9 15 10 14 11 6 12
REMARK SMILES IDX 7 13 8 14 9 15 13 16 11 17 10 18 12 20 4 22 21 24 18 26
REMARK H PARENT 10 19 12 21 4 23 21 25 18 27
REMARK Flexibility Score: inf
ROOT
ATOM      1  C   UNL     1      66.630  39.125  43.170  1.00  0.00     0.180 A 
ATOM      2  C   UNL     1      65.564  38.212  43.278  1.00  0.00     0.208 A 
ATOM      3  C   UNL     1      64.708  38.297  44.386  1.00  0.00     0.238 A 
ATOM      4  O   UNL     1      63.756  37.477  44.499  1.00  0.00    -0.285 OA
ATOM      5  C   UNL     1      64.916  39.301  45.354  1.00  0.00     0.111 A 
ATOM      6  C   UNL     1      64.097  39.458  46.497  1.00  0.00     0.134 A 
ATOM      7  C   UNL     1      64.365  40.489  47.410  1.00  0.00     0.093 A 
ATOM      8  C   UNL     1      65.436  41.366  47.200  1.00  0.00     0.123 A 
ATOM      9  C   UNL     1      66.247  41.215  46.074  1.00  0.00     0.094 A 
ATOM     10  C   UNL     1      65.997  40.193  45.154  1.00  0.00     0.146 A 
ATOM     11  O   UNL     1      66.788  40.069  44.094  1.00  0.00    -0.452 OA
ENDROOT
BRANCH   1  12
ATOM     12  C   UNL     1      67.588  39.088  42.042  1.00  0.00     0.025 A 
ATOM     13  C   UNL     1      68.799  38.379  42.132  1.00  0.00     0.016 A 
ATOM     14  C   UNL     1      69.698  38.377  41.063  1.00  0.00     0.051 A 
ATOM     15  C   UNL     1      69.408  39.094  39.894  1.00  0.00     0.157 A 
ATOM     16  C   UNL     1      67.311  39.821  40.876  1.00  0.00     0.062 A 
ATOM     17  C   UNL     1      68.213  39.819  39.801  1.00  0.00     0.158 A 
BRANCH  15  18
ATOM     18  O   UNL     1      70.301  39.093  38.825  1.00  0.00    -0.504 OA
ATOM     19  H   UNL     1      70.582  38.232  38.370  1.00  0.00     0.293 HD
ENDBRANCH  15  18
BRANCH  17  20
ATOM     20  O   UNL     1      67.930  40.537  38.641  1.00  0.00    -0.504 OA
ATOM     21  H   UNL     1      67.040  40.443  38.163  1.00  0.00     0.293 HD
ENDBRANCH  17  20
ENDBRANCH   1  12
BRANCH   2  22
ATOM     22  O   UNL     1      65.349  37.257  42.281  1.00  0.00    -0.502 OA
ATOM     23  H   UNL     1      64.806  36.417  42.442  1.00  0.00     0.293 HD
ENDBRANCH   2  22
BRANCH   6  24
ATOM     24  O   UNL     1      63.021  38.600  46.733  1.00  0.00    -0.507 OA
ATOM     25  H   UNL     1      62.662  37.985  46.013  1.00  0.00     0.293 HD
ENDBRANCH   6  24
BRANCH   8  26
ATOM     26  O   UNL     1      65.702  42.391  48.105  1.00  0.00    -0.508 OA
ATOM     27  H   UNL     1      65.072  43.177  48.217  1.00  0.00     0.293 HD
ENDBRANCH   8  26
TORSDOF 6
ENDMDL
MODEL 7
REMARK VINA RESULT:    -5.447     10.971     13.206
REMARK INTER + INTRA:          -6.789
REMARK INTER:                  -6.724
REMARK INTRA:                  -0.065
REMARK UNBOUND:                -0.228
REMARK SMILES O=c1c(O)c(-c2ccc(O)c(O)c2)oc2cc(O)cc(O)c12
REMARK SMILES IDX 5 1 3 2 2 3 1 4 22 5 20 6 19 7 17 8 16 9 15 10 14 11 6 12
REMARK SMILES IDX 7 13 8 14 9 15 13 16 11 17 10 18 12 20 4 22 21 24 18 26
REMARK H PARENT 10 19 12 21 4 23 21 25 18 27
REMARK Flexibility Score: inf
ROOT
ATOM      1  C   UNL     1      65.618  51.230  48.863  1.00  0.00     0.180 A 
ATOM      2  C   UNL     1      65.308  52.167  47.859  1.00  0.00     0.208 A 
ATOM      3  C   UNL     1      66.218  52.361  46.808  1.00  0.00     0.238 A 
ATOM      4  O   UNL     1      65.957  53.206  45.909  1.00  0.00    -0.285 OA
ATOM      5  C   UNL     1      67.407  51.604  46.767  1.00  0.00     0.111 A 
ATOM      6  C   UNL     1      68.374  51.735  45.742  1.00  0.00     0.134 A 
ATOM      7  C   UNL     1      69.528  50.938  45.767  1.00  0.00     0.093 A 
ATOM      8  C   UNL     1      69.733  50.013  46.797  1.00  0.00     0.123 A 
ATOM      9  C   UNL     1      68.783  49.881  47.810  1.00  0.00     0.094 A 
ATOM     10  C   UNL     1      67.626  50.667  47.804  1.00  0.00     0.146 A 
ATOM     11  O   UNL     1      66.742  50.523  48.784  1.00  0.00    -0.452 OA
ENDROOT
BRANCH   1  12
ATOM     12  C   UNL     1      64.719  50.983  50.013  1.00  0.00     0.025 A 
ATOM     13  C   UNL     1      64.270  52.035  50.831  1.00  0.00     0.016 A 
ATOM     14  C   UNL     1      63.441  51.775  51.925  1.00  0.00     0.051 A 
ATOM     15  C   UNL     1      63.060  50.461  52.226  1.00  0.00     0.157 A 
ATOM     16  C   UNL     1      64.350  49.665  50.332  1.00  0.00     0.062 A 
ATOM     17  C   UNL     1      63.517  49.403  51.430  1.00  0.00     0.158 A 
BRANCH  15  18
ATOM     18  O   UNL     1      62.232  50.198  53.316  1.00  0.00    -0.504 OA
ATOM     19  H   UNL     1      61.862  50.944  53.893  1.00  0.00     0.293 HD
ENDBRANCH  15  18
BRANCH  17  20
ATOM     20  O   UNL     1      63.143  48.097  51.736  1.00  0.00    -0.504 OA
ATOM     21  H   UNL     1      63.010  47.793  52.694  1.00  0.00     0.293 HD
ENDBRANCH  17  20
ENDBRANCH   1  12
BRANCH   2  22
ATOM     22  O   UNL     1      64.101  52.869  47.895  1.00  0.00    -0.502 OA
ATOM     23  H   UNL     1      64.060  53.874  48.011  1.00  0.00     0.293 HD
ENDBRANCH   2  22
BRANCH   6  24
ATOM     24  O   UNL     1      68.198  52.649  44.700  1.00  0.00    -0.507 OA
ATOM     25  H   UNL     1      68.059  52.346  43.743  1.00  0.00     0.293 HD
ENDBRANCH   6  24
BRANCH   8  26
ATOM     26  O   UNL     1      70.878  49.221  46.822  1.00  0.00    -0.508 OA
ATOM     27  H   UNL     1      71.799  49.613  46.655  1.00  0.00     0.293 HD
ENDBRANCH   8  26
TORSDOF 6
ENDMDL
MODEL 8
REMARK VINA RESULT:    -5.425     11.363     13.495
REMARK INTER + INTRA:          -6.762
REMARK INTER:                  -6.446
REMARK INTRA:                  -0.316
REMARK UNBOUND:                -0.228
REMARK SMILES O=c1c(O)c(-c2ccc(O)c(O)c2)oc2cc(O)cc(O)c12
REMARK SMILES IDX 5 1 3 2 2 3 1 4 22 5 20 6 19 7 17 8 16 9 15 10 14 11 6 12
REMARK SMILES IDX 7 13 8 14 9 15 13 16 11 17 10 18 12 20 4 22 21 24 18 26
REMARK H PARENT 10 19 12 21 4 23 21 25 18 27
REMARK Flexibility Score: inf
ROOT
ATOM      1  C   UNL     1      68.421  51.991  47.173  1.00  0.00     0.180 A 
ATOM      2  C   UNL     1      67.272  52.579  46.611  1.00  0.00     0.208 A 
ATOM      3  C   UNL     1      66.017  52.276  47.161  1.00  0.00     0.238 A 
ATOM      4  O   UNL     1      64.979  52.788  46.659  1.00  0.00    -0.285 OA
ATOM      5  C   UNL     1      65.933  51.411  48.272  1.00  0.00     0.111 A 
ATOM      6  C   UNL     1      64.709  51.059  48.889  1.00  0.00     0.134 A 
ATOM      7  C   UNL     1      64.710  50.199  49.998  1.00  0.00     0.093 A 
ATOM      8  C   UNL     1      65.911  49.686  50.501  1.00  0.00     0.123 A 
ATOM      9  C   UNL     1      67.120  50.031  49.896  1.00  0.00     0.094 A 
ATOM     10  C   UNL     1      67.140  50.885  48.789  1.00  0.00     0.146 A 
ATOM     11  O   UNL     1      68.306  51.191  48.230  1.00  0.00    -0.452 OA
ENDROOT
BRANCH   1  12
ATOM     12  C   UNL     1      69.777  52.244  46.636  1.00  0.00     0.025 A 
ATOM     13  C   UNL     1      70.519  53.374  47.025  1.00  0.00     0.016 A 
ATOM     14  C   UNL     1      71.788  53.605  46.487  1.00  0.00     0.051 A 
ATOM     15  C   UNL     1      72.328  52.720  45.545  1.00  0.00     0.157 A 
ATOM     16  C   UNL     1      70.315  51.371  45.676  1.00  0.00     0.062 A 
ATOM     17  C   UNL     1      71.590  51.602  45.137  1.00  0.00     0.158 A 
BRANCH  15  18
ATOM     18  O   UNL     1      73.594  52.946  45.008  1.00  0.00    -0.504 OA
ATOM     19  H   UNL     1      73.888  52.509  44.142  1.00  0.00     0.293 HD
ENDBRANCH  15  18
BRANCH  17  20
ATOM     20  O   UNL     1      72.126  50.727  44.195  1.00  0.00    -0.504 OA
ATOM     21  H   UNL     1      73.085  50.812  43.877  1.00  0.00     0.293 HD
ENDBRANCH  17  20
ENDBRANCH   1  12
BRANCH   2  22
ATOM     22  O   UNL     1      67.385  53.470  45.542  1.00  0.00    -0.502 OA
ATOM     23  H   UNL     1      68.262  53.632  45.060  1.00  0.00     0.293 HD
ENDBRANCH   2  22
BRANCH   6  24
ATOM     24  O   UNL     1      63.494  51.555  48.411  1.00  0.00    -0.507 OA
ATOM     25  H   UNL     1      62.642  51.008  48.451  1.00  0.00     0.293 HD
ENDBRANCH   6  24
BRANCH   8  26
ATOM     26  O   UNL     1      65.913  48.833  51.602  1.00  0.00    -0.508 OA
ATOM     27  H   UNL     1      65.113  48.251  51.823  1.00  0.00     0.293 HD
ENDBRANCH   8  26
TORSDOF 6
ENDMDL
MODEL 9
REMARK VINA RESULT:    -5.385     11.161     12.490
REMARK INTER + INTRA:          -6.715
REMARK INTER:                  -7.132
REMARK INTRA:                   0.417
REMARK UNBOUND:                -0.228
REMARK SMILES O=c1c(O)c(-c2ccc(O)c(O)c2)oc2cc(O)cc(O)c12
REMARK SMILES IDX 5 1 3 2 2 3 1 4 22 5 20 6 19 7 17 8 16 9 15 10 14 11 6 12
REMARK SMILES IDX 7 13 8 14 9 15 13 16 11 17 10 18 12 20 4 22 21 24 18 26
REMARK H PARENT 10 19 12 21 4 23 21 25 18 27
REMARK Flexibility Score: inf
ROOT
ATOM      1  C   UNL     1      66.772  51.231  47.805  1.00  0.00     0.180 A 
ATOM      2  C   UNL     1      65.720  52.054  47.359  1.00  0.00     0.208 A 
ATOM      3  C   UNL     1      64.505  52.042  48.062  1.00  0.00     0.238 A 
ATOM      4  O   UNL     1      63.552  52.766  47.666  1.00  0.00    -0.285 OA
ATOM      5  C   UNL     1      64.369  51.228  49.206  1.00  0.00     0.111 A 
ATOM      6  C   UNL     1      63.181  51.162  49.973  1.00  0.00     0.134 A 
ATOM      7  C   UNL     1      63.128  50.334  51.104  1.00  0.00     0.093 A 
ATOM      8  C   UNL     1      64.240  49.572  51.482  1.00  0.00     0.123 A 
ATOM      9  C   UNL     1      65.413  49.634  50.729  1.00  0.00     0.094 A 
ATOM     10  C   UNL     1      65.485  50.452  49.598  1.00  0.00     0.146 A 
ATOM     11  O   UNL     1      66.613  50.487  48.896  1.00  0.00    -0.452 OA
ENDROOT
BRANCH   1  12
ATOM     12  C   UNL     1      68.075  51.173  47.106  1.00  0.00     0.025 A 
ATOM     13  C   UNL     1      68.439  52.140  46.152  1.00  0.00     0.016 A 
ATOM     14  C   UNL     1      69.665  52.051  45.488  1.00  0.00     0.051 A 
ATOM     15  C   UNL     1      70.539  50.989  45.756  1.00  0.00     0.157 A 
ATOM     16  C   UNL     1      68.946  50.099  47.356  1.00  0.00     0.062 A 
ATOM     17  C   UNL     1      70.178  50.009  46.690  1.00  0.00     0.158 A 
BRANCH  15  18
ATOM     18  O   UNL     1      71.764  50.898  45.098  1.00  0.00    -0.504 OA
ATOM     19  H   UNL     1      72.606  51.303  45.488  1.00  0.00     0.293 HD
ENDBRANCH  15  18
BRANCH  17  20
ATOM     20  O   UNL     1      71.045  48.950  46.950  1.00  0.00    -0.504 OA
ATOM     21  H   UNL     1      72.039  49.019  46.761  1.00  0.00     0.293 HD
ENDBRANCH  17  20
ENDBRANCH   1  12
BRANCH   2  22
ATOM     22  O   UNL     1      65.896  52.888  46.253  1.00  0.00    -0.502 OA
ATOM     23  H   UNL     1      65.892  53.898  46.328  1.00  0.00     0.293 HD
ENDBRANCH   2  22
BRANCH   6  24
ATOM     24  O   UNL     1      62.056  51.910  49.621  1.00  0.00    -0.507 OA
ATOM     25  H   UNL     1      61.117  51.545  49.730  1.00  0.00     0.293 HD
ENDBRANCH   6  24
BRANCH   8  26
ATOM     26  O   UNL     1      64.188  48.751  52.606  1.00  0.00    -0.508 OA
ATOM     27  H   UNL     1      64.953  48.711  53.270  1.00  0.00     0.293 HD
ENDBRANCH   8  26
TORSDOF 6
ENDMDL
