MODEL 1
REMARK VINA RESULT:    -3.744      0.000      0.000
REMARK INTER + INTRA:          -6.910
REMARK INTER:                  -5.933
REMARK INTRA:                  -0.976
REMARK UNBOUND:                -0.976
REMARK SMILES CCCCCCCCCCCC(=O)[O-]
REMARK SMILES IDX 7 1 8 2 9 3 10 4 11 5 12 6 13 7 14 8 6 9 5 10 4 11 3 12 2 13
REMARK SMILES IDX 1 14
REMARK H PARENT
REMARK Flexibility Score: inf
ROOT
ATOM      1  C   UNL     1    -101.425  31.696 -33.997  1.00  0.00     0.000 C 
ENDROOT
BRANCH   1   2
ATOM      2  C   UNL     1    -102.293  32.342 -35.087  1.00  0.00     0.000 C 
BRANCH   2   3
ATOM      3  C   UNL     1    -103.647  31.630 -35.204  1.00  0.00     0.000 C 
BRANCH   3   4
ATOM      4  C   UNL     1    -103.767  30.890 -36.545  1.00  0.00     0.006 C 
BRANCH   4   5
ATOM      5  C   UNL     1    -103.579  31.828 -37.745  1.00  0.00     0.053 C 
BRANCH   5   6
ATOM      6  C   UNL     1    -104.888  32.349 -38.254  1.00  0.00     0.041 C 
ATOM      7  O   UNL     1    -105.234  33.536 -38.013  1.00  0.00    -0.550 OA
ATOM      8  O   UNL     1    -105.711  31.536 -39.023  1.00  0.00    -0.550 OA
ENDBRANCH   5   6
ENDBRANCH   4   5
ENDBRANCH   3   4
ENDBRANCH   2   3
ENDBRANCH   1   2
BRANCH   1   9
ATOM      9  C   UNL     1    -100.202  30.961 -34.568  1.00  0.00     0.000 C 
BRANCH   9  10
ATOM     10  C   UNL     1     -99.645  31.636 -35.833  1.00  0.00    -0.000 C 
BRANCH  10  11
ATOM     11  C   UNL     1     -99.771  30.747 -37.081  1.00  0.00    -0.000 C 
BRANCH  11  12
ATOM     12  C   UNL     1     -99.457  31.506 -38.382  1.00  0.00    -0.000 C 
BRANCH  12  13
ATOM     13  C   UNL     1     -98.602  32.761 -38.140  1.00  0.00    -0.003 C 
ATOM     14  C   UNL     1     -97.547  32.977 -39.225  1.00  0.00     0.004 C 
ENDBRANCH  12  13
ENDBRANCH  11  12
ENDBRANCH  10  11
ENDBRANCH   9  10
ENDBRANCH   1   9
TORSDOF 10
ENDMDL
MODEL 2
REMARK VINA RESULT:    -3.607      1.424      2.011
REMARK INTER + INTRA:          -6.691
REMARK INTER:                  -6.108
REMARK INTRA:                  -0.583
REMARK UNBOUND:                -0.976
REMARK SMILES CCCCCCCCCCCC(=O)[O-]
REMARK SMILES IDX 7 1 8 2 9 3 10 4 11 5 12 6 13 7 14 8 6 9 5 10 4 11 3 12 2 13
REMARK SMILES IDX 1 14
REMARK H PARENT
REMARK Flexibility Score: inf
ROOT
ATOM      1  C   UNL     1    -103.030  31.671 -35.397  1.00  0.00     0.000 C 
ENDROOT
BRANCH   1   2
ATOM      2  C   UNL     1    -103.889  32.943 -35.364  1.00  0.00     0.000 C 
BRANCH   2   3
ATOM      3  C   UNL     1    -105.209  32.734 -36.118  1.00  0.00     0.000 C 
BRANCH   3   4
ATOM      4  C   UNL     1    -105.057  33.091 -37.604  1.00  0.00     0.006 C 
BRANCH   4   5
ATOM      5  C   UNL     1    -105.837  32.132 -38.515  1.00  0.00     0.053 C 
BRANCH   5   6
ATOM      6  C   UNL     1    -104.922  31.312 -39.373  1.00  0.00     0.041 C 
ATOM      7  O   UNL     1    -105.379  30.681 -40.362  1.00  0.00    -0.550 OA
ATOM      8  O   UNL     1    -103.560  31.272 -39.100  1.00  0.00    -0.550 OA
ENDBRANCH   5   6
ENDBRANCH   4   5
ENDBRANCH   3   4
ENDBRANCH   2   3
ENDBRANCH   1   2
BRANCH   1   9
ATOM      9  C   UNL     1    -101.722  31.856 -36.184  1.00  0.00     0.000 C 
BRANCH   9  10
ATOM     10  C   UNL     1    -100.502  31.277 -35.447  1.00  0.00    -0.000 C 
BRANCH  10  11
ATOM     11  C   UNL     1     -99.169  31.750 -36.050  1.00  0.00    -0.000 C 
BRANCH  11  12
ATOM     12  C   UNL     1     -99.275  32.052 -37.555  1.00  0.00    -0.000 C 
BRANCH  12  13
ATOM     13  C   UNL     1     -98.377  33.222 -37.986  1.00  0.00    -0.003 C 
ATOM     14  C   UNL     1     -97.619  32.941 -39.283  1.00  0.00     0.004 C 
ENDBRANCH  12  13
ENDBRANCH  11  12
ENDBRANCH  10  11
ENDBRANCH   9  10
ENDBRANCH   1   9
TORSDOF 10
ENDMDL
MODEL 3
REMARK VINA RESULT:    -3.598      2.186      2.788
REMARK INTER + INTRA:          -6.678
REMARK INTER:                  -6.134
REMARK INTRA:                  -0.544
REMARK UNBOUND:                -0.976
REMARK SMILES CCCCCCCCCCCC(=O)[O-]
REMARK SMILES IDX 7 1 8 2 9 3 10 4 11 5 12 6 13 7 14 8 6 9 5 10 4 11 3 12 2 13
REMARK SMILES IDX 1 14
REMARK H PARENT
REMARK Flexibility Score: inf
ROOT
ATOM      1  C   UNL     1    -102.006  31.090 -37.863  1.00  0.00     0.000 C 
ENDROOT
BRANCH   1   2
ATOM      2  C   UNL     1    -103.171  31.071 -38.862  1.00  0.00     0.000 C 
BRANCH   2   3
ATOM      3  C   UNL     1    -104.517  30.970 -38.134  1.00  0.00     0.000 C 
BRANCH   3   4
ATOM      4  C   UNL     1    -105.488  32.059 -38.615  1.00  0.00     0.006 C 
BRANCH   4   5
ATOM      5  C   UNL     1    -105.419  33.324 -37.749  1.00  0.00     0.053 C 
BRANCH   5   6
ATOM      6  C   UNL     1    -105.163  32.999 -36.309  1.00  0.00     0.041 C 
ATOM      7  O   UNL     1    -104.046  33.260 -35.789  1.00  0.00    -0.550 OA
ATOM      8  O   UNL     1    -106.170  32.439 -35.532  1.00  0.00    -0.550 OA
ENDBRANCH   5   6
ENDBRANCH   4   5
ENDBRANCH   3   4
ENDBRANCH   2   3
ENDBRANCH   1   2
BRANCH   1   9
ATOM      9  C   UNL     1    -100.832  30.200 -38.300  1.00  0.00     0.000 C 
BRANCH   9  10
ATOM     10  C   UNL     1     -99.466  30.873 -38.082  1.00  0.00    -0.000 C 
BRANCH  10  11
ATOM     11  C   UNL     1     -99.559  32.116 -37.181  1.00  0.00    -0.000 C 
BRANCH  11  12
ATOM     12  C   UNL     1     -98.666  33.270 -37.671  1.00  0.00    -0.000 C 
BRANCH  12  13
ATOM     13  C   UNL     1     -98.323  33.155 -39.165  1.00  0.00    -0.003 C 
ATOM     14  C   UNL     1     -96.865  32.765 -39.410  1.00  0.00     0.004 C 
ENDBRANCH  12  13
ENDBRANCH  11  12
ENDBRANCH  10  11
ENDBRANCH   9  10
ENDBRANCH   1   9
TORSDOF 10
ENDMDL
MODEL 4
REMARK VINA RESULT:    -3.578      2.254      3.234
REMARK INTER + INTRA:          -6.646
REMARK INTER:                  -5.945
REMARK INTRA:                  -0.701
REMARK UNBOUND:                -0.976
REMARK SMILES CCCCCCCCCCCC(=O)[O-]
REMARK SMILES IDX 7 1 8 2 9 3 10 4 11 5 12 6 13 7 14 8 6 9 5 10 4 11 3 12 2 13
REMARK SMILES IDX 1 14
REMARK H PARENT
REMARK Flexibility Score: inf
ROOT
ATOM      1  C   UNL     1    -103.327  30.758 -37.878  1.00  0.00     0.000 C 
ENDROOT
BRANCH   1   2
ATOM      2  C   UNL     1    -104.104  31.627 -38.877  1.00  0.00     0.000 C 
BRANCH   2   3
ATOM      3  C   UNL     1    -105.315  32.288 -38.205  1.00  0.00     0.000 C 
BRANCH   3   4
ATOM      4  C   UNL     1    -104.907  32.985 -36.899  1.00  0.00     0.006 C 
BRANCH   4   5
ATOM      5  C   UNL     1    -105.789  32.565 -35.715  1.00  0.00     0.053 C 
BRANCH   5   6
ATOM      6  C   UNL     1    -105.036  32.597 -34.421  1.00  0.00     0.041 C 
ATOM      7  O   UNL     1    -105.353  33.423 -33.524  1.00  0.00    -0.550 OA
ATOM      8  O   UNL     1    -104.005  31.694 -34.191  1.00  0.00    -0.550 OA
ENDBRANCH   5   6
ENDBRANCH   4   5
ENDBRANCH   3   4
ENDBRANCH   2   3
ENDBRANCH   1   2
BRANCH   1   9
ATOM      9  C   UNL     1    -101.823  31.077 -37.855  1.00  0.00     0.000 C 
BRANCH   9  10
ATOM     10  C   UNL     1    -101.345  31.568 -36.478  1.00  0.00    -0.000 C 
BRANCH  10  11
ATOM     11  C   UNL     1     -99.888  32.062 -36.502  1.00  0.00    -0.000 C 
BRANCH  11  12
ATOM     12  C   UNL     1     -99.258  31.977 -37.903  1.00  0.00    -0.000 C 
BRANCH  12  13
ATOM     13  C   UNL     1     -98.180  33.048 -38.130  1.00  0.00    -0.003 C 
ATOM     14  C   UNL     1     -97.825  33.228 -39.606  1.00  0.00     0.004 C 
ENDBRANCH  12  13
ENDBRANCH  11  12
ENDBRANCH  10  11
ENDBRANCH   9  10
ENDBRANCH   1   9
TORSDOF 10
ENDMDL
MODEL 5
REMARK VINA RESULT:    -3.560      2.754      3.825
REMARK INTER + INTRA:          -6.618
REMARK INTER:                  -5.457
REMARK INTRA:                  -1.161
REMARK UNBOUND:                -0.976
REMARK SMILES CCCCCCCCCCCC(=O)[O-]
REMARK SMILES IDX 7 1 8 2 9 3 10 4 11 5 12 6 13 7 14 8 6 9 5 10 4 11 3 12 2 13
REMARK SMILES IDX 1 14
REMARK H PARENT
REMARK Flexibility Score: inf
ROOT
ATOM      1  C   UNL     1    -102.948  31.198 -38.077  1.00  0.00     0.000 C 
ENDROOT
BRANCH   1   2
ATOM      2  C   UNL     1    -103.348  30.170 -37.008  1.00  0.00     0.000 C 
BRANCH   2   3
ATOM      3  C   UNL     1    -103.670  30.860 -35.676  1.00  0.00     0.000 C 
BRANCH   3   4
ATOM      4  C   UNL     1    -102.907  32.187 -35.544  1.00  0.00     0.006 C 
BRANCH   4   5
ATOM      5  C   UNL     1    -101.663  32.056 -34.654  1.00  0.00     0.053 C 
BRANCH   5   6
ATOM      6  C   UNL     1    -102.012  31.579 -33.278  1.00  0.00     0.041 C 
ATOM      7  O   UNL     1    -102.774  32.262 -32.544  1.00  0.00    -0.550 OA
ATOM      8  O   UNL     1    -101.522  30.363 -32.817  1.00  0.00    -0.550 OA
ENDBRANCH   5   6
ENDBRANCH   4   5
ENDBRANCH   3   4
ENDBRANCH   2   3
ENDBRANCH   1   2
BRANCH   1   9
ATOM      9  C   UNL     1    -101.627  30.842 -38.779  1.00  0.00     0.000 C 
BRANCH   9  10
ATOM     10  C   UNL     1    -100.588  30.245 -37.815  1.00  0.00    -0.000 C 
BRANCH  10  11
ATOM     11  C   UNL     1     -99.259  31.019 -37.828  1.00  0.00    -0.000 C 
BRANCH  11  12
ATOM     12  C   UNL     1     -99.428  32.491 -37.413  1.00  0.00    -0.000 C 
BRANCH  12  13
ATOM     13  C   UNL     1     -98.353  33.403 -38.026  1.00  0.00    -0.003 C 
ATOM     14  C   UNL     1     -97.715  32.806 -39.280  1.00  0.00     0.004 C 
ENDBRANCH  12  13
ENDBRANCH  11  12
ENDBRANCH  10  11
ENDBRANCH   9  10
ENDBRANCH   1   9
TORSDOF 10
ENDMDL
MODEL 6
REMARK VINA RESULT:    -3.526      2.491      3.218
REMARK INTER + INTRA:          -6.563
REMARK INTER:                  -6.023
REMARK INTRA:                  -0.540
REMARK UNBOUND:                -0.976
REMARK SMILES CCCCCCCCCCCC(=O)[O-]
REMARK SMILES IDX 7 1 8 2 9 3 10 4 11 5 12 6 13 7 14 8 6 9 5 10 4 11 3 12 2 13
REMARK SMILES IDX 1 14
REMARK H PARENT
REMARK Flexibility Score: inf
ROOT
ATOM      1  C   UNL     1    -100.585  31.352 -34.487  1.00  0.00     0.000 C 
ENDROOT
BRANCH   1   2
ATOM      2  C   UNL     1    -101.598  31.581 -33.355  1.00  0.00     0.000 C 
BRANCH   2   3
ATOM      3  C   UNL     1    -102.639  30.454 -33.314  1.00  0.00     0.000 C 
BRANCH   3   4
ATOM      4  C   UNL     1    -103.920  30.913 -32.601  1.00  0.00     0.006 C 
BRANCH   4   5
ATOM      5  C   UNL     1    -103.943  32.430 -32.366  1.00  0.00     0.053 C 
BRANCH   5   6
ATOM      6  C   UNL     1    -105.028  33.098 -33.152  1.00  0.00     0.041 C 
ATOM      7  O   UNL     1    -105.555  34.161 -32.729  1.00  0.00    -0.550 OA
ATOM      8  O   UNL     1    -105.436  32.567 -34.370  1.00  0.00    -0.550 OA
ENDBRANCH   5   6
ENDBRANCH   4   5
ENDBRANCH   3   4
ENDBRANCH   2   3
ENDBRANCH   1   2
BRANCH   1   9
ATOM      9  C   UNL     1    -101.039  31.961 -35.823  1.00  0.00     0.000 C 
BRANCH   9  10
ATOM     10  C   UNL     1    -100.895  30.978 -36.999  1.00  0.00    -0.000 C 
BRANCH  10  11
ATOM     11  C   UNL     1     -99.850  31.439 -38.028  1.00  0.00    -0.000 C 
BRANCH  11  12
ATOM     12  C   UNL     1     -98.866  32.471 -37.451  1.00  0.00    -0.000 C 
BRANCH  12  13
ATOM     13  C   UNL     1     -98.294  33.407 -38.527  1.00  0.00    -0.003 C 
ATOM     14  C   UNL     1     -97.193  32.750 -39.360  1.00  0.00     0.004 C 
ENDBRANCH  12  13
ENDBRANCH  11  12
ENDBRANCH  10  11
ENDBRANCH   9  10
ENDBRANCH   1   9
TORSDOF 10
ENDMDL
MODEL 7
REMARK VINA RESULT:    -3.514      2.999      5.110
REMARK INTER + INTRA:          -6.545
REMARK INTER:                  -5.336
REMARK INTRA:                  -1.209
REMARK UNBOUND:                -0.976
REMARK SMILES CCCCCCCCCCCC(=O)[O-]
REMARK SMILES IDX 7 1 8 2 9 3 10 4 11 5 12 6 13 7 14 8 6 9 5 10 4 11 3 12 2 13
REMARK SMILES IDX 1 14
REMARK H PARENT
REMARK Flexibility Score: inf
ROOT
ATOM      1  C   UNL     1    -100.923  31.733 -34.596  1.00  0.00     0.000 C 
ENDROOT
BRANCH   1   2
ATOM      2  C   UNL     1    -100.095  30.474 -34.892  1.00  0.00     0.000 C 
BRANCH   2   3
ATOM      3  C   UNL     1     -99.819  30.340 -36.395  1.00  0.00     0.000 C 
BRANCH   3   4
ATOM      4  C   UNL     1     -99.741  31.720 -37.066  1.00  0.00     0.006 C 
BRANCH   4   5
ATOM      5  C   UNL     1     -99.092  31.655 -38.455  1.00  0.00     0.053 C 
BRANCH   5   6
ATOM      6  C   UNL     1     -98.191  32.826 -38.703  1.00  0.00     0.041 C 
ATOM      7  O   UNL     1     -98.500  33.967 -38.268  1.00  0.00    -0.550 OA
ATOM      8  O   UNL     1     -96.994  32.653 -39.386  1.00  0.00    -0.550 OA
ENDBRANCH   5   6
ENDBRANCH   4   5
ENDBRANCH   3   4
ENDBRANCH   2   3
ENDBRANCH   1   2
BRANCH   1   9
ATOM      9  C   UNL     1    -101.950  31.519 -33.472  1.00  0.00     0.000 C 
BRANCH   9  10
ATOM     10  C   UNL     1    -103.093  30.577 -33.889  1.00  0.00    -0.000 C 
BRANCH  10  11
ATOM     11  C   UNL     1    -104.115  31.261 -34.812  1.00  0.00    -0.000 C 
BRANCH  11  12
ATOM     12  C   UNL     1    -104.117  30.670 -36.233  1.00  0.00    -0.000 C 
BRANCH  12  13
ATOM     13  C   UNL     1    -103.524  31.635 -37.272  1.00  0.00    -0.003 C 
ATOM     14  C   UNL     1    -102.941  30.912 -38.486  1.00  0.00     0.004 C 
ENDBRANCH  12  13
ENDBRANCH  11  12
ENDBRANCH  10  11
ENDBRANCH   9  10
ENDBRANCH   1   9
TORSDOF 10
ENDMDL
MODEL 8
REMARK VINA RESULT:    -3.453      1.919      3.076
REMARK INTER + INTRA:          -6.448
REMARK INTER:                  -5.804
REMARK INTRA:                  -0.643
REMARK UNBOUND:                -0.976
REMARK SMILES CCCCCCCCCCCC(=O)[O-]
REMARK SMILES IDX 7 1 8 2 9 3 10 4 11 5 12 6 13 7 14 8 6 9 5 10 4 11 3 12 2 13
REMARK SMILES IDX 1 14
REMARK H PARENT
REMARK Flexibility Score: inf
ROOT
ATOM      1  C   UNL     1    -103.414  30.635 -37.968  1.00  0.00     0.000 C 
ENDROOT
BRANCH   1   2
ATOM      2  C   UNL     1    -104.169  31.314 -39.120  1.00  0.00     0.000 C 
BRANCH   2   3
ATOM      3  C   UNL     1    -105.469  31.958 -38.620  1.00  0.00     0.000 C 
BRANCH   3   4
ATOM      4  C   UNL     1    -105.176  33.089 -37.623  1.00  0.00     0.006 C 
BRANCH   4   5
ATOM      5  C   UNL     1    -105.621  32.737 -36.197  1.00  0.00     0.053 C 
BRANCH   5   6
ATOM      6  C   UNL     1    -107.043  32.265 -36.158  1.00  0.00     0.041 C 
ATOM      7  O   UNL     1    -107.312  31.097 -35.773  1.00  0.00    -0.550 OA
ATOM      8  O   UNL     1    -108.073  33.126 -36.515  1.00  0.00    -0.550 OA
ENDBRANCH   5   6
ENDBRANCH   4   5
ENDBRANCH   3   4
ENDBRANCH   2   3
ENDBRANCH   1   2
BRANCH   1   9
ATOM      9  C   UNL     1    -101.946  31.083 -37.874  1.00  0.00     0.000 C 
BRANCH   9  10
ATOM     10  C   UNL     1    -101.580  31.616 -36.478  1.00  0.00    -0.000 C 
BRANCH  10  11
ATOM     11  C   UNL     1    -100.121  32.093 -36.392  1.00  0.00    -0.000 C 
BRANCH  11  12
ATOM     12  C   UNL     1     -99.368  31.935 -37.725  1.00  0.00    -0.000 C 
BRANCH  12  13
ATOM     13  C   UNL     1     -98.270  32.995 -37.911  1.00  0.00    -0.003 C 
ATOM     14  C   UNL     1     -97.872  33.185 -39.374  1.00  0.00     0.004 C 
ENDBRANCH  12  13
ENDBRANCH  11  12
ENDBRANCH  10  11
ENDBRANCH   9  10
ENDBRANCH   1   9
TORSDOF 10
ENDMDL
MODEL 9
REMARK VINA RESULT:    -3.281     15.661     17.115
REMARK INTER + INTRA:          -6.175
REMARK INTER:                  -4.590
REMARK INTRA:                  -1.585
REMARK UNBOUND:                -0.976
REMARK SMILES CCCCCCCCCCCC(=O)[O-]
REMARK SMILES IDX 7 1 8 2 9 3 10 4 11 5 12 6 13 7 14 8 6 9 5 10 4 11 3 12 2 13
REMARK SMILES IDX 1 14
REMARK H PARENT
REMARK Flexibility Score: inf
ROOT
ATOM      1  C   UNL     1     -95.010  45.995 -38.057  1.00  0.00     0.000 C 
ENDROOT
BRANCH   1   2
ATOM      2  C   UNL     1     -95.574  46.201 -36.643  1.00  0.00     0.000 C 
BRANCH   2   3
ATOM      3  C   UNL     1     -97.081  46.484 -36.689  1.00  0.00     0.000 C 
BRANCH   3   4
ATOM      4  C   UNL     1     -97.422  47.776 -35.930  1.00  0.00     0.006 C 
BRANCH   4   5
ATOM      5  C   UNL     1     -96.564  47.954 -34.671  1.00  0.00     0.053 C 
BRANCH   5   6
ATOM      6  C   UNL     1     -97.106  47.174 -33.513  1.00  0.00     0.041 C 
ATOM      7  O   UNL     1     -98.275  47.390 -33.094  1.00  0.00    -0.550 OA
ATOM      8  O   UNL     1     -96.335  46.184 -32.917  1.00  0.00    -0.550 OA
ENDBRANCH   5   6
ENDBRANCH   4   5
ENDBRANCH   3   4
ENDBRANCH   2   3
ENDBRANCH   1   2
BRANCH   1   9
ATOM      9  C   UNL     1     -96.109  45.833 -39.119  1.00  0.00     0.000 C 
BRANCH   9  10
ATOM     10  C   UNL     1     -96.017  46.892 -40.231  1.00  0.00    -0.000 C 
BRANCH  10  11
ATOM     11  C   UNL     1     -95.250  48.149 -39.786  1.00  0.00    -0.000 C 
BRANCH  11  12
ATOM     12  C   UNL     1     -96.184  49.331 -39.473  1.00  0.00    -0.000 C 
BRANCH  12  13
ATOM     13  C   UNL     1     -95.785  50.073 -38.188  1.00  0.00    -0.003 C 
ATOM     14  C   UNL     1     -94.418  49.643 -37.655  1.00  0.00     0.004 C 
ENDBRANCH  12  13
ENDBRANCH  11  12
ENDBRANCH  10  11
ENDBRANCH   9  10
ENDBRANCH   1   9
TORSDOF 10
ENDMDL
