MODEL 1
REMARK VINA RESULT:     4.784      0.000      0.000
REMARK INTER + INTRA:           7.419
REMARK INTER:                   8.139
REMARK INTRA:                  -0.720
REMARK UNBOUND:                -0.720
REMARK SMILES CCCCCCCCCCCCCC(=O)[O-]
REMARK SMILES IDX 8 1 9 2 10 3 11 4 12 5 13 6 14 7 15 8 16 9 7 10 6 11 5 12
REMARK SMILES IDX 4 13 3 14 2 15 1 16
REMARK H PARENT
REMARK Flexibility Score: inf
ROOT
ATOM      1  C   UNL     1      15.721  15.148 -12.620  1.00  0.00     0.000 C 
ENDROOT
BRANCH   1   2
ATOM      2  C   UNL     1      16.970  14.530 -13.268  1.00  0.00     0.000 C 
BRANCH   2   3
ATOM      3  C   UNL     1      18.202  15.447 -13.169  1.00  0.00     0.000 C 
BRANCH   3   4
ATOM      4  C   UNL     1      17.836  16.890 -12.786  1.00  0.00     0.000 C 
BRANCH   4   5
ATOM      5  C   UNL     1      18.978  17.618 -12.056  1.00  0.00     0.006 C 
BRANCH   5   6
ATOM      6  C   UNL     1      18.506  18.924 -11.403  1.00  0.00     0.053 C 
BRANCH   6   7
ATOM      7  C   UNL     1      18.758  20.110 -12.284  1.00  0.00     0.041 C 
ATOM      8  O   UNL     1      19.779  20.823 -12.111  1.00  0.00    -0.550 OA
ATOM      9  O   UNL     1      17.846  20.442 -13.278  1.00  0.00    -0.550 OA
ENDBRANCH   6   7
ENDBRANCH   5   6
ENDBRANCH   4   5
ENDBRANCH   3   4
ENDBRANCH   2   3
ENDBRANCH   1   2
BRANCH   1  10
ATOM     10  C   UNL     1      15.192  14.320 -11.438  1.00  0.00     0.000 C 
BRANCH  10  11
ATOM     11  C   UNL     1      14.534  15.225 -10.386  1.00  0.00    -0.000 C 
BRANCH  11  12
ATOM     12  C   UNL     1      15.539  15.776  -9.359  1.00  0.00    -0.000 C 
BRANCH  12  13
ATOM     13  C   UNL     1      15.138  15.579  -7.883  1.00  0.00    -0.000 C 
BRANCH  13  14
ATOM     14  C   UNL     1      13.827  16.268  -7.465  1.00  0.00    -0.000 C 
BRANCH  14  15
ATOM     15  C   UNL     1      14.010  17.231  -6.284  1.00  0.00    -0.003 C 
ATOM     16  C   UNL     1      12.662  17.681  -5.727  1.00  0.00     0.004 C 
ENDBRANCH  14  15
ENDBRANCH  13  14
ENDBRANCH  12  13
ENDBRANCH  11  12
ENDBRANCH  10  11
ENDBRANCH   1  10
TORSDOF 12
ENDMDL
MODEL 2
REMARK VINA RESULT:     5.448      3.260      6.502
REMARK INTER + INTRA:           8.550
REMARK INTER:                   9.324
REMARK INTRA:                  -0.774
REMARK UNBOUND:                -0.720
REMARK SMILES CCCCCCCCCCCCCC(=O)[O-]
REMARK SMILES IDX 8 1 9 2 10 3 11 4 12 5 13 6 14 7 15 8 16 9 7 10 6 11 5 12
REMARK SMILES IDX 4 13 3 14 2 15 1 16
REMARK H PARENT
REMARK Flexibility Score: inf
ROOT
ATOM      1  C   UNL     1      15.635  15.416 -12.461  1.00  0.00     0.000 C 
ENDROOT
BRANCH   1   2
ATOM      2  C   UNL     1      15.247  14.613 -11.210  1.00  0.00     0.000 C 
BRANCH   2   3
ATOM      3  C   UNL     1      14.651  15.499 -10.101  1.00  0.00     0.000 C 
BRANCH   3   4
ATOM      4  C   UNL     1      15.667  15.824  -8.994  1.00  0.00     0.000 C 
BRANCH   4   5
ATOM      5  C   UNL     1      15.072  15.683  -7.582  1.00  0.00     0.006 C 
BRANCH   5   6
ATOM      6  C   UNL     1      13.657  16.270  -7.491  1.00  0.00     0.053 C 
BRANCH   6   7
ATOM      7  C   UNL     1      13.518  17.208  -6.332  1.00  0.00     0.041 C 
ATOM      8  O   UNL     1      12.430  17.282  -5.703  1.00  0.00    -0.550 OA
ATOM      9  O   UNL     1      14.582  18.022  -5.965  1.00  0.00    -0.550 OA
ENDBRANCH   6   7
ENDBRANCH   5   6
ENDBRANCH   4   5
ENDBRANCH   3   4
ENDBRANCH   2   3
ENDBRANCH   1   2
BRANCH   1  10
ATOM     10  C   UNL     1      16.766  14.755 -13.266  1.00  0.00     0.000 C 
BRANCH  10  11
ATOM     11  C   UNL     1      18.089  15.511 -13.073  1.00  0.00    -0.000 C 
BRANCH  11  12
ATOM     12  C   UNL     1      17.891  17.025 -12.885  1.00  0.00    -0.000 C 
BRANCH  12  13
ATOM     13  C   UNL     1      18.633  17.637 -11.679  1.00  0.00    -0.000 C 
BRANCH  13  14
ATOM     14  C   UNL     1      18.314  19.116 -11.400  1.00  0.00    -0.000 C 
BRANCH  14  15
ATOM     15  C   UNL     1      18.664  20.034 -12.580  1.00  0.00    -0.003 C 
ATOM     16  C   UNL     1      19.786  21.001 -12.210  1.00  0.00     0.004 C 
ENDBRANCH  14  15
ENDBRANCH  13  14
ENDBRANCH  12  13
ENDBRANCH  11  12
ENDBRANCH  10  11
ENDBRANCH   1  10
TORSDOF 12
ENDMDL
MODEL 3
REMARK VINA RESULT:     5.747      6.730     10.586
REMARK INTER + INTRA:           9.059
REMARK INTER:                   9.225
REMARK INTRA:                  -0.167
REMARK UNBOUND:                -0.720
REMARK SMILES CCCCCCCCCCCCCC(=O)[O-]
REMARK SMILES IDX 8 1 9 2 10 3 11 4 12 5 13 6 14 7 15 8 16 9 7 10 6 11 5 12
REMARK SMILES IDX 4 13 3 14 2 15 1 16
REMARK H PARENT
REMARK Flexibility Score: inf
ROOT
ATOM      1  C   UNL     1      11.682  13.990  -1.222  1.00  0.00     0.000 C 
ENDROOT
BRANCH   1   2
ATOM      2  C   UNL     1      10.597  14.060  -2.309  1.00  0.00     0.000 C 
BRANCH   2   3
ATOM      3  C   UNL     1      11.116  13.620  -3.690  1.00  0.00     0.000 C 
BRANCH   3   4
ATOM      4  C   UNL     1      10.939  14.707  -4.762  1.00  0.00     0.000 C 
BRANCH   4   5
ATOM      5  C   UNL     1      11.929  15.873  -4.592  1.00  0.00     0.006 C 
BRANCH   5   6
ATOM      6  C   UNL     1      11.900  16.834  -5.789  1.00  0.00     0.053 C 
BRANCH   6   7
ATOM      7  C   UNL     1      13.278  17.139  -6.291  1.00  0.00     0.041 C 
ATOM      8  O   UNL     1      13.787  18.273  -6.096  1.00  0.00    -0.550 OA
ATOM      9  O   UNL     1      13.988  16.177  -6.999  1.00  0.00    -0.550 OA
ENDBRANCH   6   7
ENDBRANCH   5   6
ENDBRANCH   4   5
ENDBRANCH   3   4
ENDBRANCH   2   3
ENDBRANCH   1   2
BRANCH   1  10
ATOM     10  C   UNL     1      11.306  13.051  -0.066  1.00  0.00     0.000 C 
BRANCH  10  11
ATOM     11  C   UNL     1      12.264  13.231   1.121  1.00  0.00    -0.000 C 
BRANCH  11  12
ATOM     12  C   UNL     1      11.877  14.411   2.029  1.00  0.00    -0.000 C 
BRANCH  12  13
ATOM     13  C   UNL     1      11.332  15.652   1.294  1.00  0.00    -0.000 C 
BRANCH  13  14
ATOM     14  C   UNL     1      10.388  16.540   2.123  1.00  0.00    -0.000 C 
BRANCH  14  15
ATOM     15  C   UNL     1       8.906  16.263   1.837  1.00  0.00    -0.003 C 
ATOM     16  C   UNL     1       8.612  14.765   1.859  1.00  0.00     0.004 C 
ENDBRANCH  14  15
ENDBRANCH  13  14
ENDBRANCH  12  13
ENDBRANCH  11  12
ENDBRANCH  10  11
ENDBRANCH   1  10
TORSDOF 12
ENDMDL
MODEL 4
REMARK VINA RESULT:     6.150      4.127      6.827
REMARK INTER + INTRA:           9.745
REMARK INTER:                  10.290
REMARK INTRA:                  -0.545
REMARK UNBOUND:                -0.720
REMARK SMILES CCCCCCCCCCCCCC(=O)[O-]
REMARK SMILES IDX 8 1 9 2 10 3 11 4 12 5 13 6 14 7 15 8 16 9 7 10 6 11 5 12
REMARK SMILES IDX 4 13 3 14 2 15 1 16
REMARK H PARENT
REMARK Flexibility Score: inf
ROOT
ATOM      1  C   UNL     1      19.044  19.592 -12.538  1.00  0.00     0.000 C 
ENDROOT
BRANCH   1   2
ATOM      2  C   UNL     1      19.856  20.897 -12.514  1.00  0.00     0.000 C 
BRANCH   2   3
ATOM      3  C   UNL     1      18.981  22.132 -12.238  1.00  0.00     0.000 C 
BRANCH   3   4
ATOM      4  C   UNL     1      18.369  22.722 -13.520  1.00  0.00     0.000 C 
BRANCH   4   5
ATOM      5  C   UNL     1      18.750  24.197 -13.734  1.00  0.00     0.006 C 
BRANCH   5   6
ATOM      6  C   UNL     1      17.835  24.888 -14.753  1.00  0.00     0.053 C 
BRANCH   6   7
ATOM      7  C   UNL     1      18.619  25.640 -15.785  1.00  0.00     0.041 C 
ATOM      8  O   UNL     1      18.179  26.723 -16.251  1.00  0.00    -0.550 OA
ATOM      9  O   UNL     1      19.823  25.128 -16.252  1.00  0.00    -0.550 OA
ENDBRANCH   6   7
ENDBRANCH   5   6
ENDBRANCH   4   5
ENDBRANCH   3   4
ENDBRANCH   2   3
ENDBRANCH   1   2
BRANCH   1  10
ATOM     10  C   UNL     1      18.439  19.242 -11.169  1.00  0.00     0.000 C 
BRANCH  10  11
ATOM     11  C   UNL     1      18.209  17.729 -11.042  1.00  0.00    -0.000 C 
BRANCH  11  12
ATOM     12  C   UNL     1      18.444  16.975 -12.363  1.00  0.00    -0.000 C 
BRANCH  12  13
ATOM     13  C   UNL     1      17.246  16.145 -12.864  1.00  0.00    -0.000 C 
BRANCH  13  14
ATOM     14  C   UNL     1      17.609  14.781 -13.478  1.00  0.00    -0.000 C 
BRANCH  14  15
ATOM     15  C   UNL     1      19.095  14.432 -13.316  1.00  0.00    -0.003 C 
ATOM     16  C   UNL     1      19.282  12.943 -13.035  1.00  0.00     0.004 C 
ENDBRANCH  14  15
ENDBRANCH  13  14
ENDBRANCH  12  13
ENDBRANCH  11  12
ENDBRANCH  10  11
ENDBRANCH   1  10
TORSDOF 12
ENDMDL
MODEL 5
REMARK VINA RESULT:     7.502      4.352      8.767
REMARK INTER + INTRA:          12.045
REMARK INTER:                  12.527
REMARK INTRA:                  -0.482
REMARK UNBOUND:                -0.720
REMARK SMILES CCCCCCCCCCCCCC(=O)[O-]
REMARK SMILES IDX 8 1 9 2 10 3 11 4 12 5 13 6 14 7 15 8 16 9 7 10 6 11 5 12
REMARK SMILES IDX 4 13 3 14 2 15 1 16
REMARK H PARENT
REMARK Flexibility Score: inf
ROOT
ATOM      1  C   UNL     1      19.739  20.456 -12.501  1.00  0.00     0.000 C 
ENDROOT
BRANCH   1   2
ATOM      2  C   UNL     1      18.498  19.550 -12.530  1.00  0.00     0.000 C 
BRANCH   2   3
ATOM      3  C   UNL     1      18.206  18.905 -11.163  1.00  0.00     0.000 C 
BRANCH   3   4
ATOM      4  C   UNL     1      18.138  17.371 -11.236  1.00  0.00     0.000 C 
BRANCH   4   5
ATOM      5  C   UNL     1      18.306  16.838 -12.670  1.00  0.00     0.006 C 
BRANCH   5   6
ATOM      6  C   UNL     1      17.434  15.604 -12.934  1.00  0.00     0.053 C 
BRANCH   6   7
ATOM      7  C   UNL     1      18.202  14.515 -13.619  1.00  0.00     0.041 C 
ATOM      8  O   UNL     1      18.982  13.779 -12.961  1.00  0.00    -0.550 OA
ATOM      9  O   UNL     1      18.075  14.332 -14.990  1.00  0.00    -0.550 OA
ENDBRANCH   6   7
ENDBRANCH   5   6
ENDBRANCH   4   5
ENDBRANCH   3   4
ENDBRANCH   2   3
ENDBRANCH   1   2
BRANCH   1  10
ATOM     10  C   UNL     1      19.399  21.923 -12.194  1.00  0.00     0.000 C 
BRANCH  10  11
ATOM     11  C   UNL     1      18.516  22.523 -13.298  1.00  0.00    -0.000 C 
BRANCH  11  12
ATOM     12  C   UNL     1      18.451  24.059 -13.243  1.00  0.00    -0.000 C 
BRANCH  12  13
ATOM     13  C   UNL     1      18.091  24.748 -14.575  1.00  0.00    -0.000 C 
BRANCH  13  14
ATOM     14  C   UNL     1      19.294  25.147 -15.447  1.00  0.00    -0.000 C 
BRANCH  14  15
ATOM     15  C   UNL     1      18.898  26.032 -16.638  1.00  0.00    -0.003 C 
ATOM     16  C   UNL     1      18.266  27.339 -16.165  1.00  0.00     0.004 C 
ENDBRANCH  14  15
ENDBRANCH  13  14
ENDBRANCH  12  13
ENDBRANCH  11  12
ENDBRANCH  10  11
ENDBRANCH   1  10
TORSDOF 12
ENDMDL
