MODEL 1
REMARK VINA RESULT:    -4.321      0.000      0.000
REMARK INTER + INTRA:         -10.384
REMARK INTER:                  -8.111
REMARK INTRA:                  -2.273
REMARK UNBOUND:                -2.273
REMARK SMILES CCCCCCCCC=CCCCCCCCC(=O)[O-]
REMARK SMILES IDX 10 1 9 2 11 3 12 4 13 5 14 6 15 7 16 8 17 9 18 10 19 11
REMARK SMILES IDX 20 12 8 13 7 14 6 15 5 16 4 17 3 18 2 19 1 20
REMARK H PARENT
REMARK Flexibility Score: inf
ROOT
ATOM      1  C   UNL     1      58.416  34.684  76.686  1.00  0.00    -0.031 C 
ATOM      2  C   UNL     1      57.609  33.784  77.270  1.00  0.00    -0.031 C 
ENDROOT
BRANCH   1   3
ATOM      3  C   UNL     1      58.023  35.388  75.417  1.00  0.00     0.027 C 
BRANCH   3   4
ATOM      4  C   UNL     1      56.499  35.366  75.220  1.00  0.00     0.004 C 
BRANCH   4   5
ATOM      5  C   UNL     1      56.083  34.671  73.915  1.00  0.00     0.000 C 
BRANCH   5   6
ATOM      6  C   UNL     1      57.262  34.462  72.954  1.00  0.00     0.000 C 
BRANCH   6   7
ATOM      7  C   UNL     1      57.340  33.000  72.490  1.00  0.00     0.000 C 
BRANCH   7   8
ATOM      8  C   UNL     1      56.490  32.057  73.357  1.00  0.00     0.006 C 
BRANCH   8   9
ATOM      9  C   UNL     1      57.329  31.271  74.375  1.00  0.00     0.053 C 
BRANCH   9  10
ATOM     10  C   UNL     1      56.601  30.037  74.807  1.00  0.00     0.041 C 
ATOM     11  O   UNL     1      55.505  29.727  74.268  1.00  0.00    -0.550 OA
ATOM     12  O   UNL     1      57.110  29.256  75.840  1.00  0.00    -0.550 OA
ENDBRANCH   9  10
ENDBRANCH   8   9
ENDBRANCH   7   8
ENDBRANCH   6   7
ENDBRANCH   5   6
ENDBRANCH   4   5
ENDBRANCH   3   4
ENDBRANCH   1   3
BRANCH   2  13
ATOM     13  C   UNL     1      58.003  33.080  78.539  1.00  0.00     0.027 C 
BRANCH  13  14
ATOM     14  C   UNL     1      59.107  33.848  79.282  1.00  0.00     0.004 C 
BRANCH  14  15
ATOM     15  C   UNL     1      58.689  34.263  80.702  1.00  0.00     0.000 C 
BRANCH  15  16
ATOM     16  C   UNL     1      58.730  35.787  80.908  1.00  0.00     0.000 C 
BRANCH  16  17
ATOM     17  C   UNL     1      57.684  36.534  80.059  1.00  0.00    -0.000 C 
BRANCH  17  18
ATOM     18  C   UNL     1      58.264  37.460  78.975  1.00  0.00    -0.000 C 
BRANCH  18  19
ATOM     19  C   UNL     1      57.196  37.988  78.005  1.00  0.00    -0.003 C 
ATOM     20  C   UNL     1      57.629  39.310  77.375  1.00  0.00     0.004 C 
ENDBRANCH  18  19
ENDBRANCH  17  18
ENDBRANCH  16  17
ENDBRANCH  15  16
ENDBRANCH  14  15
ENDBRANCH  13  14
ENDBRANCH   2  13
TORSDOF 15
ENDMDL
MODEL 2
REMARK VINA RESULT:    -4.245      2.437      6.598
REMARK INTER + INTRA:         -10.241
REMARK INTER:                  -7.992
REMARK INTRA:                  -2.249
REMARK UNBOUND:                -2.273
REMARK SMILES CCCCCCCCC=CCCCCCCCC(=O)[O-]
REMARK SMILES IDX 10 1 9 2 11 3 12 4 13 5 14 6 15 7 16 8 17 9 18 10 19 11
REMARK SMILES IDX 20 12 8 13 7 14 6 15 5 16 4 17 3 18 2 19 1 20
REMARK H PARENT
REMARK Flexibility Score: inf
ROOT
ATOM      1  C   UNL     1      57.618  32.849  78.890  1.00  0.00    -0.031 C 
ATOM      2  C   UNL     1      58.322  33.117  77.779  1.00  0.00    -0.031 C 
ENDROOT
BRANCH   1   3
ATOM      3  C   UNL     1      57.899  33.550  80.191  1.00  0.00     0.027 C 
BRANCH   3   4
ATOM      4  C   UNL     1      59.080  34.523  80.051  1.00  0.00     0.004 C 
BRANCH   4   5
ATOM      5  C   UNL     1      58.844  35.847  80.793  1.00  0.00     0.000 C 
BRANCH   5   6
ATOM      6  C   UNL     1      58.493  37.002  79.844  1.00  0.00     0.000 C 
BRANCH   6   7
ATOM      7  C   UNL     1      56.973  37.108  79.646  1.00  0.00     0.000 C 
BRANCH   7   8
ATOM      8  C   UNL     1      56.552  36.909  78.180  1.00  0.00     0.006 C 
BRANCH   8   9
ATOM      9  C   UNL     1      57.746  36.658  77.250  1.00  0.00     0.053 C 
BRANCH   9  10
ATOM     10  C   UNL     1      57.271  36.197  75.907  1.00  0.00     0.041 C 
ATOM     11  O   UNL     1      57.848  36.594  74.860  1.00  0.00    -0.550 OA
ATOM     12  O   UNL     1      56.158  35.367  75.811  1.00  0.00    -0.550 OA
ENDBRANCH   9  10
ENDBRANCH   8   9
ENDBRANCH   7   8
ENDBRANCH   6   7
ENDBRANCH   5   6
ENDBRANCH   4   5
ENDBRANCH   3   4
ENDBRANCH   1   3
BRANCH   2  13
ATOM     13  C   UNL     1      58.041  32.415  76.479  1.00  0.00     0.027 C 
BRANCH  13  14
ATOM     14  C   UNL     1      59.210  31.503  76.076  1.00  0.00     0.004 C 
BRANCH  14  15
ATOM     15  C   UNL     1      58.794  30.030  75.938  1.00  0.00     0.000 C 
BRANCH  15  16
ATOM     16  C   UNL     1      57.267  29.843  75.958  1.00  0.00     0.000 C 
BRANCH  16  17
ATOM     17  C   UNL     1      56.683  29.540  74.566  1.00  0.00    -0.000 C 
BRANCH  17  18
ATOM     18  C   UNL     1      55.780  30.642  73.983  1.00  0.00    -0.000 C 
BRANCH  18  19
ATOM     19  C   UNL     1      56.475  31.474  72.895  1.00  0.00    -0.003 C 
ATOM     20  C   UNL     1      56.454  32.961  73.240  1.00  0.00     0.004 C 
ENDBRANCH  18  19
ENDBRANCH  17  18
ENDBRANCH  16  17
ENDBRANCH  15  16
ENDBRANCH  14  15
ENDBRANCH  13  14
ENDBRANCH   2  13
TORSDOF 15
ENDMDL
MODEL 3
REMARK VINA RESULT:    -4.240      2.492      3.737
REMARK INTER + INTRA:         -10.231
REMARK INTER:                  -8.057
REMARK INTRA:                  -2.174
REMARK UNBOUND:                -2.273
REMARK SMILES CCCCCCCCC=CCCCCCCCC(=O)[O-]
REMARK SMILES IDX 10 1 9 2 11 3 12 4 13 5 14 6 15 7 16 8 17 9 18 10 19 11
REMARK SMILES IDX 20 12 8 13 7 14 6 15 5 16 4 17 3 18 2 19 1 20
REMARK H PARENT
REMARK Flexibility Score: inf
ROOT
ATOM      1  C   UNL     1      57.951  33.005  78.241  1.00  0.00    -0.031 C 
ATOM      2  C   UNL     1      58.657  33.564  79.236  1.00  0.00    -0.031 C 
ENDROOT
BRANCH   1   3
ATOM      3  C   UNL     1      58.613  32.181  77.171  1.00  0.00     0.027 C 
BRANCH   3   4
ATOM      4  C   UNL     1      58.188  32.648  75.770  1.00  0.00     0.004 C 
BRANCH   4   5
ATOM      5  C   UNL     1      57.609  31.508  74.919  1.00  0.00     0.000 C 
BRANCH   5   6
ATOM      6  C   UNL     1      57.262  30.266  75.752  1.00  0.00     0.000 C 
BRANCH   6   7
ATOM      7  C   UNL     1      57.909  29.006  75.156  1.00  0.00     0.000 C 
BRANCH   7   8
ATOM      8  C   UNL     1      59.232  28.637  75.845  1.00  0.00     0.006 C 
BRANCH   8   9
ATOM      9  C   UNL     1      60.444  29.333  75.211  1.00  0.00     0.053 C 
BRANCH   9  10
ATOM     10  C   UNL     1      61.473  29.639  76.254  1.00  0.00     0.041 C 
ATOM     11  O   UNL     1      61.839  30.828  76.454  1.00  0.00    -0.550 OA
ATOM     12  O   UNL     1      62.063  28.604  76.972  1.00  0.00    -0.550 OA
ENDBRANCH   9  10
ENDBRANCH   8   9
ENDBRANCH   7   8
ENDBRANCH   6   7
ENDBRANCH   5   6
ENDBRANCH   4   5
ENDBRANCH   3   4
ENDBRANCH   1   3
BRANCH   2  13
ATOM     13  C   UNL     1      57.995  34.389  80.306  1.00  0.00     0.027 C 
BRANCH  13  14
ATOM     14  C   UNL     1      58.932  35.494  80.816  1.00  0.00     0.004 C 
BRANCH  14  15
ATOM     15  C   UNL     1      58.328  36.900  80.669  1.00  0.00     0.000 C 
BRANCH  15  16
ATOM     16  C   UNL     1      56.879  36.869  80.155  1.00  0.00     0.000 C 
BRANCH  16  17
ATOM     17  C   UNL     1      56.711  37.576  78.797  1.00  0.00    -0.000 C 
BRANCH  17  18
ATOM     18  C   UNL     1      57.948  37.534  77.881  1.00  0.00    -0.000 C 
BRANCH  18  19
ATOM     19  C   UNL     1      57.878  36.416  76.831  1.00  0.00    -0.003 C 
ATOM     20  C   UNL     1      56.437  35.974  76.589  1.00  0.00     0.004 C 
ENDBRANCH  18  19
ENDBRANCH  17  18
ENDBRANCH  16  17
ENDBRANCH  15  16
ENDBRANCH  14  15
ENDBRANCH  13  14
ENDBRANCH   2  13
TORSDOF 15
ENDMDL
MODEL 4
REMARK VINA RESULT:    -4.217      3.467      7.711
REMARK INTER + INTRA:         -10.188
REMARK INTER:                  -8.384
REMARK INTRA:                  -1.804
REMARK UNBOUND:                -2.273
REMARK SMILES CCCCCCCCC=CCCCCCCCC(=O)[O-]
REMARK SMILES IDX 10 1 9 2 11 3 12 4 13 5 14 6 15 7 16 8 17 9 18 10 19 11
REMARK SMILES IDX 20 12 8 13 7 14 6 15 5 16 4 17 3 18 2 19 1 20
REMARK H PARENT
REMARK Flexibility Score: inf
ROOT
ATOM      1  C   UNL     1      57.602  33.707  76.996  1.00  0.00    -0.031 C 
ATOM      2  C   UNL     1      57.929  33.549  75.704  1.00  0.00    -0.031 C 
ENDROOT
BRANCH   1   3
ATOM      3  C   UNL     1      58.210  32.851  78.073  1.00  0.00     0.027 C 
BRANCH   3   4
ATOM      4  C   UNL     1      57.939  33.440  79.466  1.00  0.00     0.004 C 
BRANCH   4   5
ATOM      5  C   UNL     1      59.137  34.227  80.018  1.00  0.00     0.000 C 
BRANCH   5   6
ATOM      6  C   UNL     1      58.836  35.724  80.182  1.00  0.00     0.000 C 
BRANCH   6   7
ATOM      7  C   UNL     1      57.364  36.027  79.860  1.00  0.00     0.000 C 
BRANCH   7   8
ATOM      8  C   UNL     1      57.199  36.883  78.594  1.00  0.00     0.006 C 
BRANCH   8   9
ATOM      9  C   UNL     1      58.531  37.452  78.086  1.00  0.00     0.053 C 
BRANCH   9  10
ATOM     10  C   UNL     1      58.335  38.835  77.548  1.00  0.00     0.041 C 
ATOM     11  O   UNL     1      58.953  39.807  78.059  1.00  0.00    -0.550 OA
ATOM     12  O   UNL     1      57.432  39.056  76.514  1.00  0.00    -0.550 OA
ENDBRANCH   9  10
ENDBRANCH   8   9
ENDBRANCH   7   8
ENDBRANCH   6   7
ENDBRANCH   5   6
ENDBRANCH   4   5
ENDBRANCH   3   4
ENDBRANCH   1   3
BRANCH   2  13
ATOM     13  C   UNL     1      57.320  34.404  74.627  1.00  0.00     0.027 C 
BRANCH  13  14
ATOM     14  C   UNL     1      57.128  33.607  73.327  1.00  0.00     0.004 C 
BRANCH  14  15
ATOM     15  C   UNL     1      57.333  32.096  73.520  1.00  0.00     0.000 C 
BRANCH  15  16
ATOM     16  C   UNL     1      56.090  31.278  73.132  1.00  0.00     0.000 C 
BRANCH  16  17
ATOM     17  C   UNL     1      55.880  30.045  74.030  1.00  0.00    -0.000 C 
BRANCH  17  18
ATOM     18  C   UNL     1      56.744  30.010  75.303  1.00  0.00    -0.000 C 
BRANCH  18  19
ATOM     19  C   UNL     1      57.496  28.682  75.480  1.00  0.00    -0.003 C 
ATOM     20  C   UNL     1      59.003  28.876  75.330  1.00  0.00     0.004 C 
ENDBRANCH  18  19
ENDBRANCH  17  18
ENDBRANCH  16  17
ENDBRANCH  15  16
ENDBRANCH  14  15
ENDBRANCH  13  14
ENDBRANCH   2  13
TORSDOF 15
ENDMDL
MODEL 5
REMARK VINA RESULT:    -4.197      1.200      4.622
REMARK INTER + INTRA:         -10.150
REMARK INTER:                  -7.894
REMARK INTRA:                  -2.256
REMARK UNBOUND:                -2.273
REMARK SMILES CCCCCCCCC=CCCCCCCCC(=O)[O-]
REMARK SMILES IDX 10 1 9 2 11 3 12 4 13 5 14 6 15 7 16 8 17 9 18 10 19 11
REMARK SMILES IDX 20 12 8 13 7 14 6 15 5 16 4 17 3 18 2 19 1 20
REMARK H PARENT
REMARK Flexibility Score: inf
ROOT
ATOM      1  C   UNL     1      58.894  36.259  79.240  1.00  0.00    -0.031 C 
ATOM      2  C   UNL     1      58.877  37.599  79.160  1.00  0.00    -0.031 C 
ENDROOT
BRANCH   1   3
ATOM      3  C   UNL     1      58.798  35.547  80.561  1.00  0.00     0.027 C 
BRANCH   3   4
ATOM      4  C   UNL     1      58.808  34.022  80.370  1.00  0.00     0.004 C 
BRANCH   4   5
ATOM      5  C   UNL     1      57.940  33.570  79.186  1.00  0.00     0.000 C 
BRANCH   5   6
ATOM      6  C   UNL     1      58.741  32.800  78.126  1.00  0.00     0.000 C 
BRANCH   6   7
ATOM      7  C   UNL     1      57.907  31.655  77.532  1.00  0.00     0.000 C 
BRANCH   7   8
ATOM      8  C   UNL     1      58.490  31.118  76.214  1.00  0.00     0.006 C 
BRANCH   8   9
ATOM      9  C   UNL     1      57.442  31.030  75.096  1.00  0.00     0.053 C 
BRANCH   9  10
ATOM     10  C   UNL     1      56.742  29.709  75.142  1.00  0.00     0.041 C 
ATOM     11  O   UNL     1      57.303  28.712  75.672  1.00  0.00    -0.550 OA
ATOM     12  O   UNL     1      55.489  29.565  74.554  1.00  0.00    -0.550 OA
ENDBRANCH   9  10
ENDBRANCH   8   9
ENDBRANCH   7   8
ENDBRANCH   6   7
ENDBRANCH   5   6
ENDBRANCH   4   5
ENDBRANCH   3   4
ENDBRANCH   1   3
BRANCH   2  13
ATOM     13  C   UNL     1      58.974  38.311  77.839  1.00  0.00     0.027 C 
BRANCH  13  14
ATOM     14  C   UNL     1      57.589  38.758  77.346  1.00  0.00     0.004 C 
BRANCH  14  15
ATOM     15  C   UNL     1      57.083  37.925  76.158  1.00  0.00     0.000 C 
BRANCH  15  16
ATOM     16  C   UNL     1      56.210  36.738  76.599  1.00  0.00     0.000 C 
BRANCH  16  17
ATOM     17  C   UNL     1      56.862  35.374  76.304  1.00  0.00    -0.000 C 
BRANCH  17  18
ATOM     18  C   UNL     1      56.529  34.775  74.926  1.00  0.00    -0.000 C 
BRANCH  18  19
ATOM     19  C   UNL     1      57.770  34.580  74.042  1.00  0.00    -0.003 C 
ATOM     20  C   UNL     1      59.054  34.705  74.858  1.00  0.00     0.004 C 
ENDBRANCH  18  19
ENDBRANCH  17  18
ENDBRANCH  16  17
ENDBRANCH  15  16
ENDBRANCH  14  15
ENDBRANCH  13  14
ENDBRANCH   2  13
TORSDOF 15
ENDMDL
MODEL 6
REMARK VINA RESULT:    -4.182      3.149      6.579
REMARK INTER + INTRA:         -10.123
REMARK INTER:                  -8.074
REMARK INTRA:                  -2.049
REMARK UNBOUND:                -2.273
REMARK SMILES CCCCCCCCC=CCCCCCCCC(=O)[O-]
REMARK SMILES IDX 10 1 9 2 11 3 12 4 13 5 14 6 15 7 16 8 17 9 18 10 19 11
REMARK SMILES IDX 20 12 8 13 7 14 6 15 5 16 4 17 3 18 2 19 1 20
REMARK H PARENT
REMARK Flexibility Score: inf
ROOT
ATOM      1  C   UNL     1      57.639  33.867  76.891  1.00  0.00    -0.031 C 
ATOM      2  C   UNL     1      58.289  32.782  76.443  1.00  0.00    -0.031 C 
ENDROOT
BRANCH   1   3
ATOM      3  C   UNL     1      57.703  35.182  76.162  1.00  0.00     0.027 C 
BRANCH   3   4
ATOM      4  C   UNL     1      56.454  36.031  76.442  1.00  0.00     0.004 C 
BRANCH   4   5
ATOM      5  C   UNL     1      56.623  37.493  76.000  1.00  0.00     0.000 C 
BRANCH   5   6
ATOM      6  C   UNL     1      57.898  38.137  76.564  1.00  0.00     0.000 C 
BRANCH   6   7
ATOM      7  C   UNL     1      57.749  38.424  78.066  1.00  0.00     0.000 C 
BRANCH   7   8
ATOM      8  C   UNL     1      58.997  38.028  78.871  1.00  0.00     0.006 C 
BRANCH   8   9
ATOM      9  C   UNL     1      58.999  36.546  79.270  1.00  0.00     0.053 C 
BRANCH   9  10
ATOM     10  C   UNL     1      58.585  36.392  80.700  1.00  0.00     0.041 C 
ATOM     11  O   UNL     1      57.787  37.216  81.221  1.00  0.00    -0.550 OA
ATOM     12  O   UNL     1      59.119  35.365  81.471  1.00  0.00    -0.550 OA
ENDBRANCH   9  10
ENDBRANCH   8   9
ENDBRANCH   7   8
ENDBRANCH   6   7
ENDBRANCH   5   6
ENDBRANCH   4   5
ENDBRANCH   3   4
ENDBRANCH   1   3
BRANCH   2  13
ATOM     13  C   UNL     1      58.226  31.468  77.172  1.00  0.00     0.027 C 
BRANCH  13  14
ATOM     14  C   UNL     1      57.822  30.327  76.226  1.00  0.00     0.004 C 
BRANCH  14  15
ATOM     15  C   UNL     1      57.798  30.757  74.751  1.00  0.00     0.000 C 
BRANCH  15  16
ATOM     16  C   UNL     1      56.406  30.610  74.116  1.00  0.00     0.000 C 
BRANCH  16  17
ATOM     17  C   UNL     1      56.201  31.532  72.900  1.00  0.00    -0.000 C 
BRANCH  17  18
ATOM     18  C   UNL     1      56.875  32.913  73.007  1.00  0.00    -0.000 C 
BRANCH  18  19
ATOM     19  C   UNL     1      55.873  34.052  73.247  1.00  0.00    -0.003 C 
ATOM     20  C   UNL     1      56.382  35.368  72.665  1.00  0.00     0.004 C 
ENDBRANCH  18  19
ENDBRANCH  17  18
ENDBRANCH  16  17
ENDBRANCH  15  16
ENDBRANCH  14  15
ENDBRANCH  13  14
ENDBRANCH   2  13
TORSDOF 15
ENDMDL
MODEL 7
REMARK VINA RESULT:    -4.164      2.880      6.807
REMARK INTER + INTRA:         -10.090
REMARK INTER:                  -7.958
REMARK INTRA:                  -2.132
REMARK UNBOUND:                -2.273
REMARK SMILES CCCCCCCCC=CCCCCCCCC(=O)[O-]
REMARK SMILES IDX 10 1 9 2 11 3 12 4 13 5 14 6 15 7 16 8 17 9 18 10 19 11
REMARK SMILES IDX 20 12 8 13 7 14 6 15 5 16 4 17 3 18 2 19 1 20
REMARK H PARENT
REMARK Flexibility Score: inf
ROOT
ATOM      1  C   UNL     1      57.627  31.426  76.405  1.00  0.00    -0.031 C 
ATOM      2  C   UNL     1      57.871  31.241  75.098  1.00  0.00    -0.031 C 
ENDROOT
BRANCH   1   3
ATOM      3  C   UNL     1      58.648  32.048  77.317  1.00  0.00     0.027 C 
BRANCH   3   4
ATOM      4  C   UNL     1      57.998  33.074  78.258  1.00  0.00     0.004 C 
BRANCH   4   5
ATOM      5  C   UNL     1      59.003  33.695  79.240  1.00  0.00     0.000 C 
BRANCH   5   6
ATOM      6  C   UNL     1      58.345  34.148  80.552  1.00  0.00     0.000 C 
BRANCH   6   7
ATOM      7  C   UNL     1      59.036  35.402  81.108  1.00  0.00     0.000 C 
BRANCH   7   8
ATOM      8  C   UNL     1      58.252  36.691  80.814  1.00  0.00     0.006 C 
BRANCH   8   9
ATOM      9  C   UNL     1      58.687  37.364  79.505  1.00  0.00     0.053 C 
BRANCH   9  10
ATOM     10  C   UNL     1      57.519  37.510  78.581  1.00  0.00     0.041 C 
ATOM     11  O   UNL     1      57.222  38.639  78.108  1.00  0.00    -0.550 OA
ATOM     12  O   UNL     1      56.729  36.405  78.281  1.00  0.00    -0.550 OA
ENDBRANCH   9  10
ENDBRANCH   8   9
ENDBRANCH   7   8
ENDBRANCH   6   7
ENDBRANCH   5   6
ENDBRANCH   4   5
ENDBRANCH   3   4
ENDBRANCH   1   3
BRANCH   2  13
ATOM     13  C   UNL     1      56.849  30.619  74.186  1.00  0.00     0.027 C 
BRANCH  13  14
ATOM     14  C   UNL     1      56.168  31.679  73.308  1.00  0.00     0.004 C 
BRANCH  14  15
ATOM     15  C   UNL     1      57.156  32.415  72.390  1.00  0.00     0.000 C 
BRANCH  15  16
ATOM     16  C   UNL     1      57.300  33.904  72.749  1.00  0.00     0.000 C 
BRANCH  16  17
ATOM     17  C   UNL     1      56.197  34.399  73.703  1.00  0.00    -0.000 C 
BRANCH  17  18
ATOM     18  C   UNL     1      56.677  34.776  75.116  1.00  0.00    -0.000 C 
BRANCH  18  19
ATOM     19  C   UNL     1      58.076  35.410  75.125  1.00  0.00    -0.003 C 
ATOM     20  C   UNL     1      58.001  36.916  74.889  1.00  0.00     0.004 C 
ENDBRANCH  18  19
ENDBRANCH  17  18
ENDBRANCH  16  17
ENDBRANCH  15  16
ENDBRANCH  14  15
ENDBRANCH  13  14
ENDBRANCH   2  13
TORSDOF 15
ENDMDL
MODEL 8
REMARK VINA RESULT:    -4.151      2.610      6.798
REMARK INTER + INTRA:         -10.065
REMARK INTER:                  -8.374
REMARK INTRA:                  -1.691
REMARK UNBOUND:                -2.273
REMARK SMILES CCCCCCCCC=CCCCCCCCC(=O)[O-]
REMARK SMILES IDX 10 1 9 2 11 3 12 4 13 5 14 6 15 7 16 8 17 9 18 10 19 11
REMARK SMILES IDX 20 12 8 13 7 14 6 15 5 16 4 17 3 18 2 19 1 20
REMARK H PARENT
REMARK Flexibility Score: inf
ROOT
ATOM      1  C   UNL     1      58.715  33.549  79.177  1.00  0.00    -0.031 C 
ATOM      2  C   UNL     1      58.017  32.768  78.338  1.00  0.00    -0.031 C 
ENDROOT
BRANCH   1   3
ATOM      3  C   UNL     1      58.123  34.046  80.468  1.00  0.00     0.027 C 
BRANCH   3   4
ATOM      4  C   UNL     1      58.921  35.237  81.020  1.00  0.00     0.004 C 
BRANCH   4   5
ATOM      5  C   UNL     1      58.641  36.541  80.258  1.00  0.00     0.000 C 
BRANCH   5   6
ATOM      6  C   UNL     1      57.144  36.881  80.199  1.00  0.00     0.000 C 
BRANCH   6   7
ATOM      7  C   UNL     1      56.818  37.707  78.945  1.00  0.00     0.000 C 
BRANCH   7   8
ATOM      8  C   UNL     1      57.694  37.326  77.741  1.00  0.00     0.006 C 
BRANCH   8   9
ATOM      9  C   UNL     1      57.122  36.149  76.940  1.00  0.00     0.053 C 
BRANCH   9  10
ATOM     10  C   UNL     1      56.475  36.641  75.683  1.00  0.00     0.041 C 
ATOM     11  O   UNL     1      55.842  35.842  74.941  1.00  0.00    -0.550 OA
ATOM     12  O   UNL     1      56.612  37.973  75.306  1.00  0.00    -0.550 OA
ENDBRANCH   9  10
ENDBRANCH   8   9
ENDBRANCH   7   8
ENDBRANCH   6   7
ENDBRANCH   5   6
ENDBRANCH   4   5
ENDBRANCH   3   4
ENDBRANCH   1   3
BRANCH   2  13
ATOM     13  C   UNL     1      58.610  32.272  77.047  1.00  0.00     0.027 C 
BRANCH  13  14
ATOM     14  C   UNL     1      58.105  33.095  75.852  1.00  0.00     0.004 C 
BRANCH  14  15
ATOM     15  C   UNL     1      59.093  33.100  74.674  1.00  0.00     0.000 C 
BRANCH  15  16
ATOM     16  C   UNL     1      58.394  32.921  73.316  1.00  0.00     0.000 C 
BRANCH  16  17
ATOM     17  C   UNL     1      56.862  32.832  73.439  1.00  0.00    -0.000 C 
BRANCH  17  18
ATOM     18  C   UNL     1      56.262  31.446  73.141  1.00  0.00    -0.000 C 
BRANCH  18  19
ATOM     19  C   UNL     1      56.559  30.416  74.241  1.00  0.00    -0.003 C 
ATOM     20  C   UNL     1      55.434  29.390  74.355  1.00  0.00     0.004 C 
ENDBRANCH  18  19
ENDBRANCH  17  18
ENDBRANCH  16  17
ENDBRANCH  15  16
ENDBRANCH  14  15
ENDBRANCH  13  14
ENDBRANCH   2  13
TORSDOF 15
ENDMDL
MODEL 9
REMARK VINA RESULT:    -4.114      2.098      3.606
REMARK INTER + INTRA:          -9.995
REMARK INTER:                  -7.897
REMARK INTRA:                  -2.099
REMARK UNBOUND:                -2.273
REMARK SMILES CCCCCCCCC=CCCCCCCCC(=O)[O-]
REMARK SMILES IDX 10 1 9 2 11 3 12 4 13 5 14 6 15 7 16 8 17 9 18 10 19 11
REMARK SMILES IDX 20 12 8 13 7 14 6 15 5 16 4 17 3 18 2 19 1 20
REMARK H PARENT
REMARK Flexibility Score: inf
ROOT
ATOM      1  C   UNL     1      58.502  33.941  79.106  1.00  0.00    -0.031 C 
ATOM      2  C   UNL     1      58.374  34.179  80.420  1.00  0.00    -0.031 C 
ENDROOT
BRANCH   1   3
ATOM      3  C   UNL     1      57.896  32.725  78.461  1.00  0.00     0.027 C 
BRANCH   3   4
ATOM      4  C   UNL     1      58.100  32.745  76.939  1.00  0.00     0.004 C 
BRANCH   4   5
ATOM      5  C   UNL     1      58.015  31.344  76.313  1.00  0.00     0.000 C 
BRANCH   5   6
ATOM      6  C   UNL     1      58.151  31.371  74.783  1.00  0.00     0.000 C 
BRANCH   6   7
ATOM      7  C   UNL     1      56.812  31.038  74.108  1.00  0.00     0.000 C 
BRANCH   7   8
ATOM      8  C   UNL     1      56.501  31.965  72.921  1.00  0.00     0.006 C 
BRANCH   8   9
ATOM      9  C   UNL     1      57.465  33.155  72.831  1.00  0.00     0.053 C 
BRANCH   9  10
ATOM     10  C   UNL     1      56.747  34.431  73.142  1.00  0.00     0.041 C 
ATOM     11  O   UNL     1      55.567  34.403  73.583  1.00  0.00    -0.550 OA
ATOM     12  O   UNL     1      57.365  35.653  72.898  1.00  0.00    -0.550 OA
ENDBRANCH   9  10
ENDBRANCH   8   9
ENDBRANCH   7   8
ENDBRANCH   6   7
ENDBRANCH   5   6
ENDBRANCH   4   5
ENDBRANCH   3   4
ENDBRANCH   1   3
BRANCH   2  13
ATOM     13  C   UNL     1      58.981  35.395  81.064  1.00  0.00     0.027 C 
BRANCH  13  14
ATOM     14  C   UNL     1      58.737  36.653  80.216  1.00  0.00     0.004 C 
BRANCH  14  15
ATOM     15  C   UNL     1      57.331  37.242  80.418  1.00  0.00     0.000 C 
BRANCH  15  16
ATOM     16  C   UNL     1      56.500  37.243  79.124  1.00  0.00     0.000 C 
BRANCH  16  17
ATOM     17  C   UNL     1      57.315  37.673  77.890  1.00  0.00    -0.000 C 
BRANCH  17  18
ATOM     18  C   UNL     1      57.287  36.683  76.711  1.00  0.00    -0.000 C 
BRANCH  18  19
ATOM     19  C   UNL     1      58.690  36.277  76.237  1.00  0.00    -0.003 C 
ATOM     20  C   UNL     1      59.752  37.234  76.773  1.00  0.00     0.004 C 
ENDBRANCH  18  19
ENDBRANCH  17  18
ENDBRANCH  16  17
ENDBRANCH  15  16
ENDBRANCH  14  15
ENDBRANCH  13  14
ENDBRANCH   2  13
TORSDOF 15
ENDMDL
