MODEL 1
REMARK VINA RESULT:    -1.288      0.000      0.000
REMARK INTER + INTRA:          -1.460
REMARK INTER:                  -1.401
REMARK INTRA:                  -0.059
REMARK UNBOUND:                -0.059
REMARK SMILES COc1cc2ccc(=O)oc2cc1O
REMARK SMILES IDX 3 1 13 2 12 3 11 4 5 5 4 6 6 7 7 8 8 9 9 10 10 11 2 12 1 13
REMARK SMILES IDX 14 14
REMARK H PARENT 14 15
REMARK Flexibility Score: inf
ROOT
ATOM      1  C   UNL     1     -26.433 139.735  54.865  1.00  0.00     0.161 A 
ATOM      2  C   UNL     1     -25.969 139.649  53.537  1.00  0.00     0.161 A 
ATOM      3  C   UNL     1     -26.417 138.623  52.699  1.00  0.00     0.098 A 
ATOM      4  C   UNL     1     -27.328 137.674  53.167  1.00  0.00     0.142 A 
ATOM      5  C   UNL     1     -27.799 137.750  54.495  1.00  0.00     0.022 A 
ATOM      6  C   UNL     1     -27.353 138.777  55.338  1.00  0.00     0.062 A 
ATOM      7  C   UNL     1     -28.711 136.786  54.935  1.00  0.00     0.019 A 
ATOM      8  C   UNL     1     -29.125 135.784  54.057  1.00  0.00     0.094 A 
ATOM      9  C   UNL     1     -28.615 135.771  52.755  1.00  0.00     0.336 A 
ATOM     10  O   UNL     1     -28.976 134.875  51.948  1.00  0.00    -0.246 OA
ATOM     11  O   UNL     1     -27.749 136.701  52.362  1.00  0.00    -0.423 OA
ENDROOT
BRANCH   1  12
ATOM     12  O   UNL     1     -25.963 140.778  55.679  1.00  0.00    -0.493 OA
ATOM     13  C   UNL     1     -25.198 140.594  56.866  1.00  0.00     0.278 C 
ENDBRANCH   1  12
BRANCH   2  14
ATOM     14  O   UNL     1     -25.058 140.578  53.033  1.00  0.00    -0.504 OA
ATOM     15  H   UNL     1     -24.241 140.871  53.553  1.00  0.00     0.293 HD
ENDBRANCH   2  14
TORSDOF 2
ENDMDL
MODEL 2
REMARK VINA RESULT:    -0.427      2.109      5.396
REMARK INTER + INTRA:          -0.523
REMARK INTER:                  -0.479
REMARK INTRA:                  -0.044
REMARK UNBOUND:                -0.059
REMARK SMILES COc1cc2ccc(=O)oc2cc1O
REMARK SMILES IDX 3 1 13 2 12 3 11 4 5 5 4 6 6 7 7 8 8 9 9 10 10 11 2 12 1 13
REMARK SMILES IDX 14 14
REMARK H PARENT 14 15
REMARK Flexibility Score: inf
ROOT
ATOM      1  C   UNL     1     -28.068 138.836  54.629  1.00  0.00     0.161 A 
ATOM      2  C   UNL     1     -28.140 140.243  54.633  1.00  0.00     0.161 A 
ATOM      3  C   UNL     1     -27.220 140.993  55.372  1.00  0.00     0.098 A 
ATOM      4  C   UNL     1     -26.220 140.358  56.111  1.00  0.00     0.142 A 
ATOM      5  C   UNL     1     -26.139 138.950  56.115  1.00  0.00     0.022 A 
ATOM      6  C   UNL     1     -27.060 138.194  55.376  1.00  0.00     0.062 A 
ATOM      7  C   UNL     1     -25.127 138.342  56.865  1.00  0.00     0.019 A 
ATOM      8  C   UNL     1     -24.235 139.139  57.583  1.00  0.00     0.094 A 
ATOM      9  C   UNL     1     -24.377 140.529  57.533  1.00  0.00     0.336 A 
ATOM     10  O   UNL     1     -23.582 141.264  58.174  1.00  0.00    -0.246 OA
ATOM     11  O   UNL     1     -25.348 141.081  56.811  1.00  0.00    -0.423 OA
ENDROOT
BRANCH   1  12
ATOM     12  O   UNL     1     -29.009 138.113  53.878  1.00  0.00    -0.493 OA
ATOM     13  C   UNL     1     -28.866 136.746  53.504  1.00  0.00     0.278 C 
ENDBRANCH   1  12
BRANCH   2  14
ATOM     14  O   UNL     1     -29.125 140.914  53.907  1.00  0.00    -0.504 OA
ATOM     15  H   UNL     1     -29.464 141.830  54.175  1.00  0.00     0.293 HD
ENDBRANCH   2  14
TORSDOF 2
ENDMDL
MODEL 3
REMARK VINA RESULT:     0.505      1.310      5.392
REMARK INTER + INTRA:           0.490
REMARK INTER:                   0.535
REMARK INTRA:                  -0.045
REMARK UNBOUND:                -0.059
REMARK SMILES COc1cc2ccc(=O)oc2cc1O
REMARK SMILES IDX 3 1 13 2 12 3 11 4 5 5 4 6 6 7 7 8 8 9 9 10 10 11 2 12 1 13
REMARK SMILES IDX 14 14
REMARK H PARENT 14 15
REMARK Flexibility Score: inf
ROOT
ATOM      1  C   UNL     1     -28.143 136.160  53.058  1.00  0.00     0.161 A 
ATOM      2  C   UNL     1     -28.413 135.990  54.430  1.00  0.00     0.161 A 
ATOM      3  C   UNL     1     -27.968 136.936  55.359  1.00  0.00     0.098 A 
ATOM      4  C   UNL     1     -27.254 138.059  54.938  1.00  0.00     0.142 A 
ATOM      5  C   UNL     1     -26.977 138.240  53.567  1.00  0.00     0.022 A 
ATOM      6  C   UNL     1     -27.421 137.294  52.632  1.00  0.00     0.062 A 
ATOM      7  C   UNL     1     -26.259 139.374  53.175  1.00  0.00     0.019 A 
ATOM      8  C   UNL     1     -25.839 140.287  54.143  1.00  0.00     0.094 A 
ATOM      9  C   UNL     1     -26.149 140.041  55.485  1.00  0.00     0.336 A 
ATOM     10  O   UNL     1     -25.779 140.852  56.373  1.00  0.00    -0.246 OA
ATOM     11  O   UNL     1     -26.835 138.954  55.829  1.00  0.00    -0.423 OA
ENDROOT
BRANCH   1  12
ATOM     12  O   UNL     1     -28.604 135.192  52.152  1.00  0.00    -0.493 OA
ATOM     13  C   UNL     1     -27.976 134.880  50.913  1.00  0.00     0.278 C 
ENDBRANCH   1  12
BRANCH   2  14
ATOM     14  O   UNL     1     -29.125 134.881  54.890  1.00  0.00    -0.504 OA
ATOM     15  H   UNL     1     -30.023 134.617  54.504  1.00  0.00     0.293 HD
ENDBRANCH   2  14
TORSDOF 2
ENDMDL
MODEL 4
REMARK VINA RESULT:     0.856      1.739      4.526
REMARK INTER + INTRA:           0.872
REMARK INTER:                   0.917
REMARK INTRA:                  -0.044
REMARK UNBOUND:                -0.059
REMARK SMILES COc1cc2ccc(=O)oc2cc1O
REMARK SMILES IDX 3 1 13 2 12 3 11 4 5 5 4 6 6 7 7 8 8 9 9 10 10 11 2 12 1 13
REMARK SMILES IDX 14 14
REMARK H PARENT 14 15
REMARK Flexibility Score: inf
ROOT
ATOM      1  C   UNL     1     -28.316 136.924  54.498  1.00  0.00     0.161 A 
ATOM      2  C   UNL     1     -28.053 136.378  53.226  1.00  0.00     0.161 A 
ATOM      3  C   UNL     1     -27.252 137.072  52.313  1.00  0.00     0.098 A 
ATOM      4  C   UNL     1     -26.704 138.310  52.652  1.00  0.00     0.142 A 
ATOM      5  C   UNL     1     -26.961 138.866  53.922  1.00  0.00     0.022 A 
ATOM      6  C   UNL     1     -27.763 138.175  54.840  1.00  0.00     0.062 A 
ATOM      7  C   UNL     1     -26.398 140.109  54.232  1.00  0.00     0.019 A 
ATOM      8  C   UNL     1     -25.606 140.758  53.284  1.00  0.00     0.094 A 
ATOM      9  C   UNL     1     -25.396 140.146  52.045  1.00  0.00     0.336 A 
ATOM     10  O   UNL     1     -24.684 140.715  51.176  1.00  0.00    -0.246 OA
ATOM     11  O   UNL     1     -25.942 138.963  51.776  1.00  0.00    -0.423 OA
ENDROOT
BRANCH   1  12
ATOM     12  O   UNL     1     -29.125 136.201  55.390  1.00  0.00    -0.493 OA
ATOM     13  C   UNL     1     -29.125 136.376  56.803  1.00  0.00     0.278 C 
ENDBRANCH   1  12
BRANCH   2  14
ATOM     14  O   UNL     1     -28.583 135.142  52.851  1.00  0.00    -0.504 OA
ATOM     15  H   UNL     1     -29.248 135.047  52.094  1.00  0.00     0.293 HD
ENDBRANCH   2  14
TORSDOF 2
ENDMDL
MODEL 5
REMARK VINA RESULT:     0.879      1.505      2.750
REMARK INTER + INTRA:           0.897
REMARK INTER:                   0.941
REMARK INTRA:                  -0.044
REMARK UNBOUND:                -0.059
REMARK SMILES COc1cc2ccc(=O)oc2cc1O
REMARK SMILES IDX 3 1 13 2 12 3 11 4 5 5 4 6 6 7 7 8 8 9 9 10 10 11 2 12 1 13
REMARK SMILES IDX 14 14
REMARK H PARENT 14 15
REMARK Flexibility Score: inf
ROOT
ATOM      1  C   UNL     1     -26.207 139.931  52.987  1.00  0.00     0.161 A 
ATOM      2  C   UNL     1     -26.542 140.084  54.347  1.00  0.00     0.161 A 
ATOM      3  C   UNL     1     -27.208 139.059  55.028  1.00  0.00     0.098 A 
ATOM      4  C   UNL     1     -27.546 137.876  54.369  1.00  0.00     0.142 A 
ATOM      5  C   UNL     1     -27.217 137.713  53.008  1.00  0.00     0.022 A 
ATOM      6  C   UNL     1     -26.549 138.737  52.321  1.00  0.00     0.062 A 
ATOM      7  C   UNL     1     -27.569 136.516  52.375  1.00  0.00     0.019 A 
ATOM      8  C   UNL     1     -28.232 135.527  53.102  1.00  0.00     0.094 A 
ATOM      9  C   UNL     1     -28.527 135.759  54.449  1.00  0.00     0.336 A 
ATOM     10  O   UNL     1     -29.125 134.879  55.121  1.00  0.00    -0.246 OA
ATOM     11  O   UNL     1     -28.180 136.907  55.026  1.00  0.00    -0.423 OA
ENDROOT
BRANCH   1  12
ATOM     12  O   UNL     1     -25.539 140.979  52.333  1.00  0.00    -0.493 OA
ATOM     13  C   UNL     1     -24.897 140.863  51.067  1.00  0.00     0.278 C 
ENDBRANCH   1  12
BRANCH   2  14
ATOM     14  O   UNL     1     -26.220 141.252  55.039  1.00  0.00    -0.504 OA
ATOM     15  H   UNL     1     -25.922 141.241  56.007  1.00  0.00     0.293 HD
ENDBRANCH   2  14
TORSDOF 2
ENDMDL
MODEL 6
REMARK VINA RESULT:     1.032      1.774      5.485
REMARK INTER + INTRA:           1.063
REMARK INTER:                   1.005
REMARK INTRA:                   0.059
REMARK UNBOUND:                -0.059
REMARK SMILES COc1cc2ccc(=O)oc2cc1O
REMARK SMILES IDX 3 1 13 2 12 3 11 4 5 5 4 6 6 7 7 8 8 9 9 10 10 11 2 12 1 13
REMARK SMILES IDX 14 14
REMARK H PARENT 14 15
REMARK Flexibility Score: inf
ROOT
ATOM      1  C   UNL     1     -28.273 137.413  54.135  1.00  0.00     0.161 A 
ATOM      2  C   UNL     1     -28.030 136.722  55.339  1.00  0.00     0.161 A 
ATOM      3  C   UNL     1     -27.189 137.274  56.311  1.00  0.00     0.098 A 
ATOM      4  C   UNL     1     -26.582 138.514  56.100  1.00  0.00     0.142 A 
ATOM      5  C   UNL     1     -26.818 139.214  54.899  1.00  0.00     0.022 A 
ATOM      6  C   UNL     1     -27.660 138.665  53.921  1.00  0.00     0.062 A 
ATOM      7  C   UNL     1     -26.196 140.453  54.716  1.00  0.00     0.019 A 
ATOM      8  C   UNL     1     -25.367 140.957  55.719  1.00  0.00     0.094 A 
ATOM      9  C   UNL     1     -25.179 140.207  56.884  1.00  0.00     0.336 A 
ATOM     10  O   UNL     1     -24.436 140.644  57.800  1.00  0.00    -0.246 OA
ATOM     11  O   UNL     1     -25.784 139.031  57.032  1.00  0.00    -0.423 OA
ENDROOT
BRANCH   1  12
ATOM     12  O   UNL     1     -29.121 136.830  53.180  1.00  0.00    -0.493 OA
ATOM     13  C   UNL     1     -28.773 135.720  52.359  1.00  0.00     0.278 C 
ENDBRANCH   1  12
BRANCH   2  14
ATOM     14  O   UNL     1     -28.618 135.481  55.586  1.00  0.00    -0.504 OA
ATOM     15  H   UNL     1     -29.608 135.380  55.773  1.00  0.00     0.293 HD
ENDBRANCH   2  14
TORSDOF 2
ENDMDL
MODEL 7
REMARK VINA RESULT:     1.704      2.024      2.787
REMARK INTER + INTRA:           1.794
REMARK INTER:                   1.651
REMARK INTRA:                   0.144
REMARK UNBOUND:                -0.059
REMARK SMILES COc1cc2ccc(=O)oc2cc1O
REMARK SMILES IDX 3 1 13 2 12 3 11 4 5 5 4 6 6 7 7 8 8 9 9 10 10 11 2 12 1 13
REMARK SMILES IDX 14 14
REMARK H PARENT 14 15
REMARK Flexibility Score: inf
ROOT
ATOM      1  C   UNL     1     -25.500 140.311  56.662  1.00  0.00     0.161 A 
ATOM      2  C   UNL     1     -25.018 138.995  56.801  1.00  0.00     0.161 A 
ATOM      3  C   UNL     1     -25.689 137.930  56.189  1.00  0.00     0.098 A 
ATOM      4  C   UNL     1     -26.840 138.160  55.434  1.00  0.00     0.142 A 
ATOM      5  C   UNL     1     -27.332 139.474  55.289  1.00  0.00     0.022 A 
ATOM      6  C   UNL     1     -26.664 140.544  55.900  1.00  0.00     0.062 A 
ATOM      7  C   UNL     1     -28.489 139.672  54.527  1.00  0.00     0.019 A 
ATOM      8  C   UNL     1     -29.117 138.575  53.938  1.00  0.00     0.094 A 
ATOM      9  C   UNL     1     -28.573 137.301  54.126  1.00  0.00     0.336 A 
ATOM     10  O   UNL     1     -29.125 136.298  53.603  1.00  0.00    -0.246 OA
ATOM     11  O   UNL     1     -27.471 137.140  54.855  1.00  0.00    -0.423 OA
ENDROOT
BRANCH   1  12
ATOM     12  O   UNL     1     -24.804 141.356  57.289  1.00  0.00    -0.493 OA
ATOM     13  C   UNL     1     -24.681 141.513  58.700  1.00  0.00     0.278 C 
ENDBRANCH   1  12
BRANCH   2  14
ATOM     14  O   UNL     1     -23.870 138.725  57.547  1.00  0.00    -0.504 OA
ATOM     15  H   UNL     1     -23.229 137.981  57.302  1.00  0.00     0.293 HD
ENDBRANCH   2  14
TORSDOF 2
ENDMDL
