MODEL 1
REMARK VINA RESULT:    -7.992      0.000      0.000
REMARK INTER + INTRA:         -10.239
REMARK INTER:                  -9.861
REMARK INTRA:                  -0.378
REMARK UNBOUND:                -0.378
REMARK SMILES Oc1cc(O)c2cc(O)c(-c3cc(O)c(O)c(O)c3)[o+]c2c1
REMARK SMILES IDX 10 1 20 2 21 3 22 4 2 5 3 6 4 7 6 8 7 9 8 10 11 11 12 12
REMARK SMILES IDX 13 13 19 14 15 15 17 16 14 17 16 19 18 21 9 23 1 25 5 27
REMARK H PARENT 14 18 16 20 18 22 9 24 1 26 5 28
REMARK Flexibility Score: inf
ROOT
ATOM      1  C   UNL     1     -24.677 -20.055 -13.431  1.00  0.00     0.402 A 
ATOM      2  O   UNL     1     -24.664 -20.235 -12.112  1.00  0.00    -0.202 OA
ATOM      3  C   UNL     1     -24.493 -21.421 -11.540  1.00  0.00     0.368 A 
ATOM      4  C   UNL     1     -24.492 -21.508 -10.145  1.00  0.00     0.162 A 
ATOM      5  C   UNL     1     -24.311 -22.740  -9.515  1.00  0.00     0.128 A 
ATOM      6  C   UNL     1     -24.128 -23.895 -10.283  1.00  0.00     0.093 A 
ATOM      7  C   UNL     1     -24.125 -23.835 -11.683  1.00  0.00     0.136 A 
ATOM      8  C   UNL     1     -24.311 -22.583 -12.327  1.00  0.00     0.125 A 
ATOM      9  C   UNL     1     -24.336 -22.429 -13.723  1.00  0.00     0.078 A 
ATOM     10  C   UNL     1     -24.530 -21.164 -14.285  1.00  0.00     0.223 A 
ENDROOT
BRANCH   1  11
ATOM     11  C   UNL     1     -24.867 -18.681 -13.950  1.00  0.00     0.091 A 
ATOM     12  C   UNL     1     -23.745 -17.903 -14.269  1.00  0.00     0.068 A 
ATOM     13  C   UNL     1     -23.894 -16.609 -14.780  1.00  0.00     0.162 A 
ATOM     14  C   UNL     1     -26.150 -18.159 -14.182  1.00  0.00     0.068 A 
ATOM     15  C   UNL     1     -25.181 -16.082 -14.991  1.00  0.00     0.200 A 
ATOM     16  C   UNL     1     -26.310 -16.864 -14.695  1.00  0.00     0.162 A 
BRANCH  13  17
ATOM     17  O   UNL     1     -22.753 -15.863 -15.072  1.00  0.00    -0.504 OA
ATOM     18  H   UNL     1     -21.824 -16.184 -14.830  1.00  0.00     0.293 HD
ENDBRANCH  13  17
BRANCH  15  19
ATOM     19  O   UNL     1     -25.321 -14.790 -15.498  1.00  0.00    -0.502 OA
ATOM     20  H   UNL     1     -26.217 -14.420 -15.793  1.00  0.00     0.293 HD
ENDBRANCH  15  19
BRANCH  16  21
ATOM     21  O   UNL     1     -27.589 -16.353 -14.916  1.00  0.00    -0.504 OA
ATOM     22  H   UNL     1     -27.944 -15.564 -14.390  1.00  0.00     0.293 HD
ENDBRANCH  16  21
ENDBRANCH   1  11
BRANCH  10  23
ATOM     23  O   UNL     1     -24.604 -21.018 -15.670  1.00  0.00    -0.500 OA
ATOM     24  H   UNL     1     -25.475 -20.792 -16.136  1.00  0.00     0.294 HD
ENDBRANCH  10  23
BRANCH   5  25
ATOM     25  O   UNL     1     -24.313 -22.806  -8.123  1.00  0.00    -0.507 OA
ATOM     26  H   UNL     1     -25.175 -22.897  -7.599  1.00  0.00     0.293 HD
ENDBRANCH   5  25
BRANCH   7  27
ATOM     27  O   UNL     1     -23.933 -25.031 -12.378  1.00  0.00    -0.507 OA
ATOM     28  H   UNL     1     -23.136 -25.640 -12.258  1.00  0.00     0.293 HD
ENDBRANCH   7  27
TORSDOF 7
ENDMDL
MODEL 2
REMARK VINA RESULT:    -7.629      2.133      7.366
REMARK INTER + INTRA:          -9.792
REMARK INTER:                  -9.407
REMARK INTRA:                  -0.385
REMARK UNBOUND:                -0.378
REMARK SMILES Oc1cc(O)c2cc(O)c(-c3cc(O)c(O)c(O)c3)[o+]c2c1
REMARK SMILES IDX 10 1 20 2 21 3 22 4 2 5 3 6 4 7 6 8 7 9 8 10 11 11 12 12
REMARK SMILES IDX 13 13 19 14 15 15 17 16 14 17 16 19 18 21 9 23 1 25 5 27
REMARK H PARENT 14 18 16 20 18 22 9 24 1 26 5 28
REMARK Flexibility Score: inf
ROOT
ATOM      1  C   UNL     1     -24.488 -17.520 -13.950  1.00  0.00     0.402 A 
ATOM      2  O   UNL     1     -23.296 -16.978 -13.716  1.00  0.00    -0.202 OA
ATOM      3  C   UNL     1     -22.940 -15.778 -14.161  1.00  0.00     0.368 A 
ATOM      4  C   UNL     1     -21.665 -15.293 -13.860  1.00  0.00     0.162 A 
ATOM      5  C   UNL     1     -21.264 -14.034 -14.311  1.00  0.00     0.128 A 
ATOM      6  C   UNL     1     -22.145 -13.252 -15.067  1.00  0.00     0.093 A 
ATOM      7  C   UNL     1     -23.429 -13.716 -15.382  1.00  0.00     0.136 A 
ATOM      8  C   UNL     1     -23.838 -14.997 -14.927  1.00  0.00     0.125 A 
ATOM      9  C   UNL     1     -25.100 -15.549 -15.206  1.00  0.00     0.078 A 
ATOM     10  C   UNL     1     -25.429 -16.821 -14.727  1.00  0.00     0.223 A 
ENDROOT
BRANCH   1  11
ATOM     11  C   UNL     1     -24.769 -18.863 -13.392  1.00  0.00     0.091 A 
ATOM     12  C   UNL     1     -24.373 -20.004 -14.107  1.00  0.00     0.068 A 
ATOM     13  C   UNL     1     -24.608 -21.285 -13.595  1.00  0.00     0.162 A 
ATOM     14  C   UNL     1     -25.375 -19.021 -12.135  1.00  0.00     0.068 A 
ATOM     15  C   UNL     1     -25.233 -21.437 -12.346  1.00  0.00     0.200 A 
ATOM     16  C   UNL     1     -25.613 -20.300 -11.613  1.00  0.00     0.162 A 
BRANCH  13  17
ATOM     17  O   UNL     1     -24.211 -22.393 -14.343  1.00  0.00    -0.504 OA
ATOM     18  H   UNL     1     -24.625 -22.612 -15.241  1.00  0.00     0.293 HD
ENDBRANCH  13  17
BRANCH  15  19
ATOM     19  O   UNL     1     -25.466 -22.719 -11.844  1.00  0.00    -0.502 OA
ATOM     20  H   UNL     1     -26.149 -22.898 -11.118  1.00  0.00     0.293 HD
ENDBRANCH  15  19
BRANCH  16  21
ATOM     21  O   UNL     1     -26.219 -20.444 -10.366  1.00  0.00    -0.504 OA
ATOM     22  H   UNL     1     -25.883 -21.116  -9.687  1.00  0.00     0.293 HD
ENDBRANCH  16  21
ENDBRANCH   1  11
BRANCH  10  23
ATOM     23  O   UNL     1     -26.663 -17.389 -15.045  1.00  0.00    -0.500 OA
ATOM     24  H   UNL     1     -27.536 -16.935 -14.804  1.00  0.00     0.294 HD
ENDBRANCH  10  23
BRANCH   5  25
ATOM     25  O   UNL     1     -19.989 -13.568 -14.000  1.00  0.00    -0.507 OA
ATOM     26  H   UNL     1     -19.548 -13.784 -13.114  1.00  0.00     0.293 HD
ENDBRANCH   5  25
BRANCH   7  27
ATOM     27  O   UNL     1     -24.249 -12.875 -16.138  1.00  0.00    -0.507 OA
ATOM     28  H   UNL     1     -23.930 -12.316 -16.917  1.00  0.00     0.293 HD
ENDBRANCH   7  27
TORSDOF 7
ENDMDL
MODEL 3
REMARK VINA RESULT:    -7.418      2.178      7.439
REMARK INTER + INTRA:          -9.531
REMARK INTER:                  -9.153
REMARK INTRA:                  -0.378
REMARK UNBOUND:                -0.378
REMARK SMILES Oc1cc(O)c2cc(O)c(-c3cc(O)c(O)c(O)c3)[o+]c2c1
REMARK SMILES IDX 10 1 20 2 21 3 22 4 2 5 3 6 4 7 6 8 7 9 8 10 11 11 12 12
REMARK SMILES IDX 13 13 19 14 15 15 17 16 14 17 16 19 18 21 9 23 1 25 5 27
REMARK H PARENT 14 18 16 20 18 22 9 24 1 26 5 28
REMARK Flexibility Score: inf
ROOT
ATOM      1  C   UNL     1     -24.548 -17.460 -13.840  1.00  0.00     0.402 A 
ATOM      2  O   UNL     1     -23.347 -16.933 -13.619  1.00  0.00    -0.202 OA
ATOM      3  C   UNL     1     -22.971 -15.750 -14.093  1.00  0.00     0.368 A 
ATOM      4  C   UNL     1     -21.687 -15.279 -13.803  1.00  0.00     0.162 A 
ATOM      5  C   UNL     1     -21.265 -14.039 -14.284  1.00  0.00     0.128 A 
ATOM      6  C   UNL     1     -22.133 -13.261 -15.060  1.00  0.00     0.093 A 
ATOM      7  C   UNL     1     -23.424 -13.711 -15.364  1.00  0.00     0.136 A 
ATOM      8  C   UNL     1     -23.855 -14.973 -14.879  1.00  0.00     0.125 A 
ATOM      9  C   UNL     1     -25.126 -15.510 -15.144  1.00  0.00     0.078 A 
ATOM     10  C   UNL     1     -25.477 -16.764 -14.635  1.00  0.00     0.223 A 
ENDROOT
BRANCH   1  11
ATOM     11  C   UNL     1     -24.852 -18.784 -13.250  1.00  0.00     0.091 A 
ATOM     12  C   UNL     1     -25.426 -18.854 -11.972  1.00  0.00     0.068 A 
ATOM     13  C   UNL     1     -25.742 -20.090 -11.397  1.00  0.00     0.162 A 
ATOM     14  C   UNL     1     -24.631 -19.972 -13.966  1.00  0.00     0.068 A 
ATOM     15  C   UNL     1     -25.499 -21.277 -12.109  1.00  0.00     0.200 A 
ATOM     16  C   UNL     1     -24.946 -21.215 -13.399  1.00  0.00     0.162 A 
BRANCH  13  17
ATOM     17  O   UNL     1     -26.298 -20.116 -10.118  1.00  0.00    -0.504 OA
ATOM     18  H   UNL     1     -25.990 -20.772  -9.411  1.00  0.00     0.293 HD
ENDBRANCH  13  17
BRANCH  15  19
ATOM     19  O   UNL     1     -25.815 -22.506 -11.527  1.00  0.00    -0.502 OA
ATOM     20  H   UNL     1     -26.756 -22.882 -11.539  1.00  0.00     0.293 HD
ENDBRANCH  15  19
BRANCH  16  21
ATOM     21  O   UNL     1     -24.717 -22.388 -14.116  1.00  0.00    -0.504 OA
ATOM     22  H   UNL     1     -24.607 -22.382 -15.123  1.00  0.00     0.293 HD
ENDBRANCH  16  21
ENDBRANCH   1  11
BRANCH  10  23
ATOM     23  O   UNL     1     -26.720 -17.319 -14.940  1.00  0.00    -0.500 OA
ATOM     24  H   UNL     1     -27.137 -17.219 -15.858  1.00  0.00     0.294 HD
ENDBRANCH  10  23
BRANCH   5  25
ATOM     25  O   UNL     1     -19.983 -13.587 -13.985  1.00  0.00    -0.507 OA
ATOM     26  H   UNL     1     -19.826 -12.854 -13.302  1.00  0.00     0.293 HD
ENDBRANCH   5  25
BRANCH   7  27
ATOM     27  O   UNL     1     -24.230 -12.875 -16.142  1.00  0.00    -0.507 OA
ATOM     28  H   UNL     1     -23.879 -12.176 -16.781  1.00  0.00     0.293 HD
ENDBRANCH   7  27
TORSDOF 7
ENDMDL
MODEL 4
REMARK VINA RESULT:    -7.168      1.140      3.140
REMARK INTER + INTRA:          -9.223
REMARK INTER:                  -8.952
REMARK INTRA:                  -0.271
REMARK UNBOUND:                -0.378
REMARK SMILES Oc1cc(O)c2cc(O)c(-c3cc(O)c(O)c(O)c3)[o+]c2c1
REMARK SMILES IDX 10 1 20 2 21 3 22 4 2 5 3 6 4 7 6 8 7 9 8 10 11 11 12 12
REMARK SMILES IDX 13 13 19 14 15 15 17 16 14 17 16 19 18 21 9 23 1 25 5 27
REMARK H PARENT 14 18 16 20 18 22 9 24 1 26 5 28
REMARK Flexibility Score: inf
ROOT
ATOM      1  C   UNL     1     -24.954 -19.662 -13.125  1.00  0.00     0.402 A 
ATOM      2  O   UNL     1     -24.490 -20.734 -13.762  1.00  0.00    -0.202 OA
ATOM      3  C   UNL     1     -24.419 -21.938 -13.206  1.00  0.00     0.368 A 
ATOM      4  C   UNL     1     -23.920 -23.006 -13.958  1.00  0.00     0.162 A 
ATOM      5  C   UNL     1     -23.837 -24.283 -13.401  1.00  0.00     0.128 A 
ATOM      6  C   UNL     1     -24.256 -24.497 -12.084  1.00  0.00     0.093 A 
ATOM      7  C   UNL     1     -24.761 -23.445 -11.309  1.00  0.00     0.136 A 
ATOM      8  C   UNL     1     -24.845 -22.144 -11.871  1.00  0.00     0.125 A 
ATOM      9  C   UNL     1     -25.323 -21.027 -11.166  1.00  0.00     0.078 A 
ATOM     10  C   UNL     1     -25.371 -19.775 -11.786  1.00  0.00     0.223 A 
ENDROOT
BRANCH   1  11
ATOM     11  C   UNL     1     -24.992 -18.374 -13.857  1.00  0.00     0.091 A 
ATOM     12  C   UNL     1     -26.230 -17.801 -14.180  1.00  0.00     0.068 A 
ATOM     13  C   UNL     1     -26.297 -16.576 -14.852  1.00  0.00     0.162 A 
ATOM     14  C   UNL     1     -23.813 -17.685 -14.185  1.00  0.00     0.068 A 
ATOM     15  C   UNL     1     -25.114 -15.900 -15.198  1.00  0.00     0.200 A 
ATOM     16  C   UNL     1     -23.870 -16.456 -14.858  1.00  0.00     0.162 A 
BRANCH  13  17
ATOM     17  O   UNL     1     -27.548 -16.047 -15.167  1.00  0.00    -0.504 OA
ATOM     18  H   UNL     1     -27.786 -15.080 -14.981  1.00  0.00     0.293 HD
ENDBRANCH  13  17
BRANCH  15  19
ATOM     19  O   UNL     1     -25.190 -14.680 -15.871  1.00  0.00    -0.502 OA
ATOM     20  H   UNL     1     -24.949 -14.589 -16.851  1.00  0.00     0.293 HD
ENDBRANCH  15  19
BRANCH  16  21
ATOM     21  O   UNL     1     -22.693 -15.783 -15.183  1.00  0.00    -0.504 OA
ATOM     22  H   UNL     1     -21.784 -16.142 -14.915  1.00  0.00     0.293 HD
ENDBRANCH  16  21
ENDBRANCH   1  11
BRANCH  10  23
ATOM     23  O   UNL     1     -25.800 -18.656 -11.071  1.00  0.00    -0.500 OA
ATOM     24  H   UNL     1     -26.450 -17.988 -11.468  1.00  0.00     0.294 HD
ENDBRANCH  10  23
BRANCH   5  25
ATOM     25  O   UNL     1     -23.337 -25.333 -14.167  1.00  0.00    -0.507 OA
ATOM     26  H   UNL     1     -22.644 -25.975 -13.797  1.00  0.00     0.293 HD
ENDBRANCH   5  25
BRANCH   7  27
ATOM     27  O   UNL     1     -25.161 -23.740 -10.004  1.00  0.00    -0.507 OA
ATOM     28  H   UNL     1     -24.680 -23.426  -9.173  1.00  0.00     0.293 HD
ENDBRANCH   7  27
TORSDOF 7
ENDMDL
MODEL 5
REMARK VINA RESULT:    -7.116      1.172      2.604
REMARK INTER + INTRA:          -9.158
REMARK INTER:                  -8.847
REMARK INTRA:                  -0.311
REMARK UNBOUND:                -0.378
REMARK SMILES Oc1cc(O)c2cc(O)c(-c3cc(O)c(O)c(O)c3)[o+]c2c1
REMARK SMILES IDX 10 1 20 2 21 3 22 4 2 5 3 6 4 7 6 8 7 9 8 10 11 11 12 12
REMARK SMILES IDX 13 13 19 14 15 15 17 16 14 17 16 19 18 21 9 23 1 25 5 27
REMARK H PARENT 14 18 16 20 18 22 9 24 1 26 5 28
REMARK Flexibility Score: inf
ROOT
ATOM      1  C   UNL     1     -24.985 -19.716 -13.118  1.00  0.00     0.402 A 
ATOM      2  O   UNL     1     -24.517 -20.767 -13.787  1.00  0.00    -0.202 OA
ATOM      3  C   UNL     1     -24.433 -21.986 -13.265  1.00  0.00     0.368 A 
ATOM      4  C   UNL     1     -23.930 -23.028 -14.049  1.00  0.00     0.162 A 
ATOM      5  C   UNL     1     -23.833 -24.319 -13.528  1.00  0.00     0.128 A 
ATOM      6  C   UNL     1     -24.242 -24.573 -12.215  1.00  0.00     0.093 A 
ATOM      7  C   UNL     1     -24.750 -23.546 -11.408  1.00  0.00     0.136 A 
ATOM      8  C   UNL     1     -24.848 -22.231 -11.934  1.00  0.00     0.125 A 
ATOM      9  C   UNL     1     -25.331 -21.138 -11.195  1.00  0.00     0.078 A 
ATOM     10  C   UNL     1     -25.393 -19.870 -11.780  1.00  0.00     0.223 A 
ENDROOT
BRANCH   1  11
ATOM     11  C   UNL     1     -25.038 -18.410 -13.813  1.00  0.00     0.091 A 
ATOM     12  C   UNL     1     -23.842 -17.761 -14.154  1.00  0.00     0.068 A 
ATOM     13  C   UNL     1     -23.861 -16.536 -14.829  1.00  0.00     0.162 A 
ATOM     14  C   UNL     1     -26.261 -17.831 -14.190  1.00  0.00     0.068 A 
ATOM     15  C   UNL     1     -25.088 -15.950 -15.185  1.00  0.00     0.200 A 
ATOM     16  C   UNL     1     -26.290 -16.604 -14.868  1.00  0.00     0.162 A 
BRANCH  13  17
ATOM     17  O   UNL     1     -22.650 -15.916 -15.137  1.00  0.00    -0.504 OA
ATOM     18  H   UNL     1     -22.193 -15.280 -14.496  1.00  0.00     0.293 HD
ENDBRANCH  13  17
BRANCH  15  19
ATOM     19  O   UNL     1     -25.098 -14.726 -15.856  1.00  0.00    -0.502 OA
ATOM     20  H   UNL     1     -25.420 -14.638 -16.812  1.00  0.00     0.293 HD
ENDBRANCH  15  19
BRANCH  16  21
ATOM     21  O   UNL     1     -27.510 -16.036 -15.232  1.00  0.00    -0.504 OA
ATOM     22  H   UNL     1     -28.377 -16.559 -15.177  1.00  0.00     0.293 HD
ENDBRANCH  16  21
ENDBRANCH   1  11
BRANCH  10  23
ATOM     23  O   UNL     1     -25.826 -18.775 -11.032  1.00  0.00    -0.500 OA
ATOM     24  H   UNL     1     -25.951 -18.832 -10.028  1.00  0.00     0.294 HD
ENDBRANCH  10  23
BRANCH   5  25
ATOM     25  O   UNL     1     -23.330 -25.344 -14.326  1.00  0.00    -0.507 OA
ATOM     26  H   UNL     1     -22.556 -25.188 -14.962  1.00  0.00     0.293 HD
ENDBRANCH   5  25
BRANCH   7  27
ATOM     27  O   UNL     1     -25.140 -23.881 -10.109  1.00  0.00    -0.507 OA
ATOM     28  H   UNL     1     -25.411 -24.809  -9.815  1.00  0.00     0.293 HD
ENDBRANCH   7  27
TORSDOF 7
ENDMDL
MODEL 6
REMARK VINA RESULT:    -6.804      2.214      2.808
REMARK INTER + INTRA:          -8.773
REMARK INTER:                  -8.611
REMARK INTRA:                  -0.162
REMARK UNBOUND:                -0.378
REMARK SMILES Oc1cc(O)c2cc(O)c(-c3cc(O)c(O)c(O)c3)[o+]c2c1
REMARK SMILES IDX 10 1 20 2 21 3 22 4 2 5 3 6 4 7 6 8 7 9 8 10 11 11 12 12
REMARK SMILES IDX 13 13 19 14 15 15 17 16 14 17 16 19 18 21 9 23 1 25 5 27
REMARK H PARENT 14 18 16 20 18 22 9 24 1 26 5 28
REMARK Flexibility Score: inf
ROOT
ATOM      1  C   UNL     1     -24.736 -18.387 -13.162  1.00  0.00     0.402 A 
ATOM      2  O   UNL     1     -25.588 -18.690 -12.186  1.00  0.00    -0.202 OA
ATOM      3  C   UNL     1     -25.908 -19.937 -11.859  1.00  0.00     0.368 A 
ATOM      4  C   UNL     1     -26.812 -20.155 -10.816  1.00  0.00     0.162 A 
ATOM      5  C   UNL     1     -27.165 -21.454 -10.447  1.00  0.00     0.128 A 
ATOM      6  C   UNL     1     -26.609 -22.545 -11.124  1.00  0.00     0.093 A 
ATOM      7  C   UNL     1     -25.701 -22.354 -12.173  1.00  0.00     0.136 A 
ATOM      8  C   UNL     1     -25.342 -21.034 -12.552  1.00  0.00     0.125 A 
ATOM      9  C   UNL     1     -24.451 -20.746 -13.599  1.00  0.00     0.078 A 
ATOM     10  C   UNL     1     -24.149 -19.418 -13.918  1.00  0.00     0.223 A 
ENDROOT
BRANCH   1  11
ATOM     11  C   UNL     1     -24.452 -16.957 -13.426  1.00  0.00     0.091 A 
ATOM     12  C   UNL     1     -24.785 -16.408 -14.673  1.00  0.00     0.068 A 
ATOM     13  C   UNL     1     -24.548 -15.056 -14.944  1.00  0.00     0.162 A 
ATOM     14  C   UNL     1     -23.909 -16.124 -12.435  1.00  0.00     0.068 A 
ATOM     15  C   UNL     1     -23.984 -14.230 -13.956  1.00  0.00     0.200 A 
ATOM     16  C   UNL     1     -23.669 -14.768 -12.696  1.00  0.00     0.162 A 
BRANCH  13  17
ATOM     17  O   UNL     1     -24.879 -14.551 -16.201  1.00  0.00    -0.504 OA
ATOM     18  H   UNL     1     -24.175 -14.244 -16.861  1.00  0.00     0.293 HD
ENDBRANCH  13  17
BRANCH  15  19
ATOM     19  O   UNL     1     -23.748 -12.883 -14.235  1.00  0.00    -0.502 OA
ATOM     20  H   UNL     1     -22.822 -12.531 -14.446  1.00  0.00     0.293 HD
ENDBRANCH  15  19
BRANCH  16  21
ATOM     21  O   UNL     1     -23.124 -13.951 -11.706  1.00  0.00    -0.504 OA
ATOM     22  H   UNL     1     -22.220 -13.510 -11.820  1.00  0.00     0.293 HD
ENDBRANCH  16  21
ENDBRANCH   1  11
BRANCH  10  23
ATOM     23  O   UNL     1     -23.303 -19.131 -14.989  1.00  0.00    -0.500 OA
ATOM     24  H   UNL     1     -22.581 -19.778 -15.285  1.00  0.00     0.294 HD
ENDBRANCH  10  23
BRANCH   5  25
ATOM     25  O   UNL     1     -28.068 -21.650  -9.405  1.00  0.00    -0.507 OA
ATOM     26  H   UNL     1     -29.044 -21.390  -9.493  1.00  0.00     0.293 HD
ENDBRANCH   5  25
BRANCH   7  27
ATOM     27  O   UNL     1     -25.189 -23.494 -12.797  1.00  0.00    -0.507 OA
ATOM     28  H   UNL     1     -25.299 -23.706 -13.779  1.00  0.00     0.293 HD
ENDBRANCH   7  27
TORSDOF 7
ENDMDL
MODEL 7
REMARK VINA RESULT:    -6.773      2.636      6.759
REMARK INTER + INTRA:          -8.735
REMARK INTER:                  -8.423
REMARK INTRA:                  -0.312
REMARK UNBOUND:                -0.378
REMARK SMILES Oc1cc(O)c2cc(O)c(-c3cc(O)c(O)c(O)c3)[o+]c2c1
REMARK SMILES IDX 10 1 20 2 21 3 22 4 2 5 3 6 4 7 6 8 7 9 8 10 11 11 12 12
REMARK SMILES IDX 13 13 19 14 15 15 17 16 14 17 16 19 18 21 9 23 1 25 5 27
REMARK H PARENT 14 18 16 20 18 22 9 24 1 26 5 28
REMARK Flexibility Score: inf
ROOT
ATOM      1  C   UNL     1     -24.817 -18.401 -12.928  1.00  0.00     0.402 A 
ATOM      2  O   UNL     1     -24.607 -17.282 -12.240  1.00  0.00    -0.202 OA
ATOM      3  C   UNL     1     -23.915 -16.253 -12.715  1.00  0.00     0.368 A 
ATOM      4  C   UNL     1     -23.750 -15.117 -11.917  1.00  0.00     0.162 A 
ATOM      5  C   UNL     1     -23.030 -14.019 -12.391  1.00  0.00     0.128 A 
ATOM      6  C   UNL     1     -22.472 -14.054 -13.673  1.00  0.00     0.093 A 
ATOM      7  C   UNL     1     -22.622 -15.179 -14.493  1.00  0.00     0.136 A 
ATOM      8  C   UNL     1     -23.351 -16.299 -14.013  1.00  0.00     0.125 A 
ATOM      9  C   UNL     1     -23.542 -17.474 -14.759  1.00  0.00     0.078 A 
ATOM     10  C   UNL     1     -24.268 -18.539 -14.216  1.00  0.00     0.223 A 
ENDROOT
BRANCH   1  11
ATOM     11  C   UNL     1     -25.614 -19.475 -12.293  1.00  0.00     0.091 A 
ATOM     12  C   UNL     1     -24.962 -20.607 -11.782  1.00  0.00     0.068 A 
ATOM     13  C   UNL     1     -25.686 -21.629 -11.158  1.00  0.00     0.162 A 
ATOM     14  C   UNL     1     -27.006 -19.361 -12.139  1.00  0.00     0.068 A 
ATOM     15  C   UNL     1     -27.082 -21.519 -11.026  1.00  0.00     0.200 A 
ATOM     16  C   UNL     1     -27.740 -20.378 -11.514  1.00  0.00     0.162 A 
BRANCH  13  17
ATOM     17  O   UNL     1     -25.002 -22.744 -10.676  1.00  0.00    -0.504 OA
ATOM     18  H   UNL     1     -23.993 -22.820 -10.728  1.00  0.00     0.293 HD
ENDBRANCH  13  17
BRANCH  15  19
ATOM     19  O   UNL     1     -27.797 -22.544 -10.405  1.00  0.00    -0.502 OA
ATOM     20  H   UNL     1     -27.467 -23.502 -10.393  1.00  0.00     0.293 HD
ENDBRANCH  15  19
BRANCH  16  21
ATOM     21  O   UNL     1     -29.122 -20.256 -11.372  1.00  0.00    -0.504 OA
ATOM     22  H   UNL     1     -29.561 -20.221 -10.460  1.00  0.00     0.293 HD
ENDBRANCH  16  21
ENDBRANCH   1  11
BRANCH  10  23
ATOM     23  O   UNL     1     -24.415 -19.724 -14.937  1.00  0.00    -0.500 OA
ATOM     24  H   UNL     1     -25.312 -20.011 -15.312  1.00  0.00     0.294 HD
ENDBRANCH  10  23
BRANCH   5  25
ATOM     25  O   UNL     1     -22.878 -12.897 -11.580  1.00  0.00    -0.507 OA
ATOM     26  H   UNL     1     -22.071 -12.786 -10.976  1.00  0.00     0.293 HD
ENDBRANCH   5  25
BRANCH   7  27
ATOM     27  O   UNL     1     -22.036 -15.135 -15.761  1.00  0.00    -0.507 OA
ATOM     28  H   UNL     1     -21.386 -15.823 -16.114  1.00  0.00     0.293 HD
ENDBRANCH   7  27
TORSDOF 7
ENDMDL
MODEL 8
REMARK VINA RESULT:    -6.742      2.096      2.464
REMARK INTER + INTRA:          -8.696
REMARK INTER:                  -8.535
REMARK INTRA:                  -0.161
REMARK UNBOUND:                -0.378
REMARK SMILES Oc1cc(O)c2cc(O)c(-c3cc(O)c(O)c(O)c3)[o+]c2c1
REMARK SMILES IDX 10 1 20 2 21 3 22 4 2 5 3 6 4 7 6 8 7 9 8 10 11 11 12 12
REMARK SMILES IDX 13 13 19 14 15 15 17 16 14 17 16 19 18 21 9 23 1 25 5 27
REMARK H PARENT 14 18 16 20 18 22 9 24 1 26 5 28
REMARK Flexibility Score: inf
ROOT
ATOM      1  C   UNL     1     -24.788 -18.474 -13.199  1.00  0.00     0.402 A 
ATOM      2  O   UNL     1     -25.573 -18.768 -12.165  1.00  0.00    -0.202 OA
ATOM      3  C   UNL     1     -25.859 -20.011 -11.796  1.00  0.00     0.368 A 
ATOM      4  C   UNL     1     -26.691 -20.219 -10.693  1.00  0.00     0.162 A 
ATOM      5  C   UNL     1     -27.007 -21.515 -10.281  1.00  0.00     0.128 A 
ATOM      6  C   UNL     1     -26.487 -22.612 -10.975  1.00  0.00     0.093 A 
ATOM      7  C   UNL     1     -25.650 -22.432 -12.084  1.00  0.00     0.136 A 
ATOM      8  C   UNL     1     -25.329 -21.115 -12.508  1.00  0.00     0.125 A 
ATOM      9  C   UNL     1     -24.511 -20.838 -13.615  1.00  0.00     0.078 A 
ATOM     10  C   UNL     1     -24.243 -19.514 -13.975  1.00  0.00     0.223 A 
ENDROOT
BRANCH   1  11
ATOM     11  C   UNL     1     -24.536 -17.047 -13.504  1.00  0.00     0.091 A 
ATOM     12  C   UNL     1     -23.885 -16.244 -12.557  1.00  0.00     0.068 A 
ATOM     13  C   UNL     1     -23.615 -14.897 -12.826  1.00  0.00     0.162 A 
ATOM     14  C   UNL     1     -24.884 -16.493 -14.747  1.00  0.00     0.068 A 
ATOM     15  C   UNL     1     -23.985 -14.342 -14.063  1.00  0.00     0.200 A 
ATOM     16  C   UNL     1     -24.617 -15.145 -15.026  1.00  0.00     0.162 A 
BRANCH  13  17
ATOM     17  O   UNL     1     -22.979 -14.129 -11.851  1.00  0.00    -0.504 OA
ATOM     18  H   UNL     1     -21.984 -14.197 -11.678  1.00  0.00     0.293 HD
ENDBRANCH  13  17
BRANCH  15  19
ATOM     19  O   UNL     1     -23.715 -12.997 -14.322  1.00  0.00    -0.502 OA
ATOM     20  H   UNL     1     -22.794 -12.675 -14.595  1.00  0.00     0.293 HD
ENDBRANCH  15  19
BRANCH  16  21
ATOM     21  O   UNL     1     -24.972 -14.604 -16.262  1.00  0.00    -0.504 OA
ATOM     22  H   UNL     1     -25.383 -15.174 -16.992  1.00  0.00     0.293 HD
ENDBRANCH  16  21
ENDBRANCH   1  11
BRANCH  10  23
ATOM     23  O   UNL     1     -23.471 -19.238 -15.104  1.00  0.00    -0.500 OA
ATOM     24  H   UNL     1     -22.488 -19.477 -15.147  1.00  0.00     0.294 HD
ENDBRANCH  10  23
BRANCH   5  25
ATOM     25  O   UNL     1     -27.838 -21.700  -9.178  1.00  0.00    -0.507 OA
ATOM     26  H   UNL     1     -27.480 -22.061  -8.301  1.00  0.00     0.293 HD
ENDBRANCH   5  25
BRANCH   7  27
ATOM     27  O   UNL     1     -25.170 -23.578 -12.722  1.00  0.00    -0.507 OA
ATOM     28  H   UNL     1     -24.743 -23.586 -13.637  1.00  0.00     0.293 HD
ENDBRANCH   7  27
TORSDOF 7
ENDMDL
MODEL 9
REMARK VINA RESULT:    -6.721      1.626      2.661
REMARK INTER + INTRA:          -8.671
REMARK INTER:                  -8.783
REMARK INTRA:                   0.112
REMARK UNBOUND:                -0.378
REMARK SMILES Oc1cc(O)c2cc(O)c(-c3cc(O)c(O)c(O)c3)[o+]c2c1
REMARK SMILES IDX 10 1 20 2 21 3 22 4 2 5 3 6 4 7 6 8 7 9 8 10 11 11 12 12
REMARK SMILES IDX 13 13 19 14 15 15 17 16 14 17 16 19 18 21 9 23 1 25 5 27
REMARK H PARENT 14 18 16 20 18 22 9 24 1 26 5 28
REMARK Flexibility Score: inf
ROOT
ATOM      1  C   UNL     1     -24.990 -20.618 -12.154  1.00  0.00     0.402 A 
ATOM      2  O   UNL     1     -25.823 -20.817 -11.135  1.00  0.00    -0.202 OA
ATOM      3  C   UNL     1     -25.693 -21.818 -10.272  1.00  0.00     0.368 A 
ATOM      4  C   UNL     1     -26.618 -21.942  -9.232  1.00  0.00     0.162 A 
ATOM      5  C   UNL     1     -26.505 -22.982  -8.307  1.00  0.00     0.128 A 
ATOM      6  C   UNL     1     -25.459 -23.904  -8.421  1.00  0.00     0.093 A 
ATOM      7  C   UNL     1     -24.519 -23.802  -9.454  1.00  0.00     0.136 A 
ATOM      8  C   UNL     1     -24.632 -22.747 -10.398  1.00  0.00     0.125 A 
ATOM      9  C   UNL     1     -23.745 -22.573 -11.473  1.00  0.00     0.078 A 
ATOM     10  C   UNL     1     -23.924 -21.512 -12.365  1.00  0.00     0.223 A 
ENDROOT
BRANCH   1  11
ATOM     11  C   UNL     1     -25.235 -19.459 -13.044  1.00  0.00     0.091 A 
ATOM     12  C   UNL     1     -26.549 -19.019 -13.256  1.00  0.00     0.068 A 
ATOM     13  C   UNL     1     -26.810 -17.915 -14.075  1.00  0.00     0.162 A 
ATOM     14  C   UNL     1     -24.174 -18.755 -13.636  1.00  0.00     0.068 A 
ATOM     15  C   UNL     1     -25.746 -17.226 -14.683  1.00  0.00     0.200 A 
ATOM     16  C   UNL     1     -24.424 -17.647 -14.458  1.00  0.00     0.162 A 
BRANCH  13  17
ATOM     17  O   UNL     1     -28.132 -17.517 -14.272  1.00  0.00    -0.504 OA
ATOM     18  H   UNL     1     -28.795 -17.461 -13.509  1.00  0.00     0.293 HD
ENDBRANCH  13  17
BRANCH  15  19
ATOM     19  O   UNL     1     -26.014 -16.128 -15.502  1.00  0.00    -0.502 OA
ATOM     20  H   UNL     1     -26.118 -16.216 -16.505  1.00  0.00     0.293 HD
ENDBRANCH  15  19
BRANCH  16  21
ATOM     21  O   UNL     1     -23.363 -16.960 -15.046  1.00  0.00    -0.504 OA
ATOM     22  H   UNL     1     -22.568 -17.447 -15.440  1.00  0.00     0.293 HD
ENDBRANCH  16  21
ENDBRANCH   1  11
BRANCH  10  23
ATOM     23  O   UNL     1     -23.073 -21.368 -13.461  1.00  0.00    -0.500 OA
ATOM     24  H   UNL     1     -22.578 -20.502 -13.641  1.00  0.00     0.294 HD
ENDBRANCH  10  23
BRANCH   5  25
ATOM     25  O   UNL     1     -27.437 -23.089  -7.278  1.00  0.00    -0.507 OA
ATOM     26  H   UNL     1     -27.383 -23.830  -6.589  1.00  0.00     0.293 HD
ENDBRANCH   5  25
BRANCH   7  27
ATOM     27  O   UNL     1     -23.503 -24.760  -9.498  1.00  0.00    -0.507 OA
ATOM     28  H   UNL     1     -22.712 -24.782  -8.869  1.00  0.00     0.293 HD
ENDBRANCH   7  27
TORSDOF 7
ENDMDL
