MODEL 1
REMARK VINA RESULT:     4.355      0.000      0.000
REMARK INTER + INTRA:          11.408
REMARK INTER:                  11.483
REMARK INTRA:                  -0.075
REMARK UNBOUND:                -0.075
REMARK SMILES CCCCCCCCCCCCCCCCCCCCCCCCCCCCCC(=O)[O-]
REMARK SMILES IDX 16 1 17 2 18 3 19 4 20 5 21 6 22 7 23 8 24 9 25 10 26 11
REMARK SMILES IDX 27 12 28 13 29 14 30 15 31 16 32 17 15 18 14 19 13 20 12 21
REMARK SMILES IDX 11 22 10 23 9 24 8 25 7 26 6 27 5 28 4 29 3 30 2 31 1 32
REMARK H PARENT
REMARK Flexibility Score: inf
ROOT
ATOM      1  C   UNL     1       5.854  17.900  21.299  1.00  0.00     0.000 C 
ENDROOT
BRANCH   1   2
ATOM      2  C   UNL     1       7.253  17.596  21.854  1.00  0.00     0.000 C 
BRANCH   2   3
ATOM      3  C   UNL     1       7.702  16.147  21.591  1.00  0.00     0.000 C 
BRANCH   3   4
ATOM      4  C   UNL     1       8.941  16.002  20.689  1.00  0.00     0.000 C 
BRANCH   4   5
ATOM      5  C   UNL     1       9.921  17.179  20.829  1.00  0.00     0.000 C 
BRANCH   5   6
ATOM      6  C   UNL     1      11.389  16.751  20.667  1.00  0.00     0.000 C 
BRANCH   6   7
ATOM      7  C   UNL     1      11.547  15.229  20.498  1.00  0.00     0.000 C 
BRANCH   7   8
ATOM      8  C   UNL     1      12.971  14.819  20.086  1.00  0.00     0.000 C 
BRANCH   8   9
ATOM      9  C   UNL     1      13.079  13.458  19.369  1.00  0.00     0.000 C 
BRANCH   9  10
ATOM     10  C   UNL     1      13.661  12.314  20.221  1.00  0.00     0.000 C 
BRANCH  10  11
ATOM     11  C   UNL     1      14.947  12.668  20.992  1.00  0.00     0.000 C 
BRANCH  11  12
ATOM     12  C   UNL     1      15.125  11.875  22.305  1.00  0.00     0.000 C 
BRANCH  12  13
ATOM     13  C   UNL     1      14.815  12.723  23.552  1.00  0.00     0.006 C 
BRANCH  13  14
ATOM     14  C   UNL     1      14.906  11.907  24.848  1.00  0.00     0.053 C 
BRANCH  14  15
ATOM     15  C   UNL     1      13.993  12.438  25.911  1.00  0.00     0.041 C 
ATOM     16  O   UNL     1      14.465  13.065  26.897  1.00  0.00    -0.550 OA
ATOM     17  O   UNL     1      12.620  12.256  25.803  1.00  0.00    -0.550 OA
ENDBRANCH  14  15
ENDBRANCH  13  14
ENDBRANCH  12  13
ENDBRANCH  11  12
ENDBRANCH  10  11
ENDBRANCH   9  10
ENDBRANCH   8   9
ENDBRANCH   7   8
ENDBRANCH   6   7
ENDBRANCH   5   6
ENDBRANCH   4   5
ENDBRANCH   3   4
ENDBRANCH   2   3
ENDBRANCH   1   2
BRANCH   1  18
ATOM     18  C   UNL     1       4.796  17.017  21.970  1.00  0.00     0.000 C 
BRANCH  18  19
ATOM     19  C   UNL     1       4.716  15.639  21.296  1.00  0.00     0.000 C 
BRANCH  19  20
ATOM     20  C   UNL     1       5.517  15.578  19.986  1.00  0.00     0.000 C 
BRANCH  20  21
ATOM     21  C   UNL     1       5.840  14.136  19.557  1.00  0.00     0.000 C 
BRANCH  21  22
ATOM     22  C   UNL     1       5.634  13.916  18.044  1.00  0.00     0.000 C 
BRANCH  22  23
ATOM     23  C   UNL     1       4.219  14.273  17.554  1.00  0.00     0.000 C 
BRANCH  23  24
ATOM     24  C   UNL     1       4.033  14.044  16.045  1.00  0.00    -0.000 C 
BRANCH  24  25
ATOM     25  C   UNL     1       2.578  13.715  15.676  1.00  0.00    -0.000 C 
BRANCH  25  26
ATOM     26  C   UNL     1       2.468  12.943  14.349  1.00  0.00    -0.000 C 
BRANCH  26  27
ATOM     27  C   UNL     1       2.794  13.823  13.132  1.00  0.00    -0.000 C 
BRANCH  27  28
ATOM     28  C   UNL     1       4.002  13.298  12.335  1.00  0.00    -0.000 C 
BRANCH  28  29
ATOM     29  C   UNL     1       3.593  12.649  11.004  1.00  0.00    -0.000 C 
BRANCH  29  30
ATOM     30  C   UNL     1       3.499  13.669   9.855  1.00  0.00    -0.000 C 
BRANCH  30  31
ATOM     31  C   UNL     1       4.855  13.914   9.176  1.00  0.00    -0.003 C 
ATOM     32  C   UNL     1       5.607  12.618   8.876  1.00  0.00     0.004 C 
ENDBRANCH  30  31
ENDBRANCH  29  30
ENDBRANCH  28  29
ENDBRANCH  27  28
ENDBRANCH  26  27
ENDBRANCH  25  26
ENDBRANCH  24  25
ENDBRANCH  23  24
ENDBRANCH  22  23
ENDBRANCH  21  22
ENDBRANCH  20  21
ENDBRANCH  19  20
ENDBRANCH  18  19
ENDBRANCH   1  18
TORSDOF 28
ENDMDL
MODEL 2
REMARK VINA RESULT:     4.494      4.537     12.338
REMARK INTER + INTRA:          11.776
REMARK INTER:                  13.117
REMARK INTRA:                  -1.341
REMARK UNBOUND:                -0.075
REMARK SMILES CCCCCCCCCCCCCCCCCCCCCCCCCCCCCC(=O)[O-]
REMARK SMILES IDX 16 1 17 2 18 3 19 4 20 5 21 6 22 7 23 8 24 9 25 10 26 11
REMARK SMILES IDX 27 12 28 13 29 14 30 15 31 16 32 17 15 18 14 19 13 20 12 21
REMARK SMILES IDX 11 22 10 23 9 24 8 25 7 26 6 27 5 28 4 29 3 30 2 31 1 32
REMARK H PARENT
REMARK Flexibility Score: inf
ROOT
ATOM      1  C   UNL     1       4.401  16.301  21.601  1.00  0.00     0.000 C 
ENDROOT
BRANCH   1   2
ATOM      2  C   UNL     1       5.041  15.747  20.320  1.00  0.00     0.000 C 
BRANCH   2   3
ATOM      3  C   UNL     1       5.331  14.237  20.398  1.00  0.00     0.000 C 
BRANCH   3   4
ATOM      4  C   UNL     1       5.381  13.511  19.041  1.00  0.00     0.000 C 
BRANCH   4   5
ATOM      5  C   UNL     1       5.892  14.411  17.902  1.00  0.00     0.000 C 
BRANCH   5   6
ATOM      6  C   UNL     1       5.215  14.106  16.556  1.00  0.00     0.000 C 
BRANCH   6   7
ATOM      7  C   UNL     1       3.681  14.047  16.664  1.00  0.00     0.000 C 
BRANCH   7   8
ATOM      8  C   UNL     1       2.974  14.462  15.362  1.00  0.00     0.000 C 
BRANCH   8   9
ATOM      9  C   UNL     1       3.637  13.950  14.067  1.00  0.00     0.000 C 
BRANCH   9  10
ATOM     10  C   UNL     1       3.156  12.567  13.588  1.00  0.00     0.000 C 
BRANCH  10  11
ATOM     11  C   UNL     1       3.102  12.392  12.058  1.00  0.00     0.000 C 
BRANCH  11  12
ATOM     12  C   UNL     1       3.687  13.585  11.273  1.00  0.00     0.000 C 
BRANCH  12  13
ATOM     13  C   UNL     1       3.410  13.488   9.762  1.00  0.00     0.006 C 
BRANCH  13  14
ATOM     14  C   UNL     1       4.610  12.932   8.984  1.00  0.00     0.053 C 
BRANCH  14  15
ATOM     15  C   UNL     1       5.878  13.661   9.313  1.00  0.00     0.041 C 
ATOM     16  O   UNL     1       6.833  13.053   9.867  1.00  0.00    -0.550 OA
ATOM     17  O   UNL     1       6.011  15.005   8.990  1.00  0.00    -0.550 OA
ENDBRANCH  14  15
ENDBRANCH  13  14
ENDBRANCH  12  13
ENDBRANCH  11  12
ENDBRANCH  10  11
ENDBRANCH   9  10
ENDBRANCH   8   9
ENDBRANCH   7   8
ENDBRANCH   6   7
ENDBRANCH   5   6
ENDBRANCH   4   5
ENDBRANCH   3   4
ENDBRANCH   2   3
ENDBRANCH   1   2
BRANCH   1  18
ATOM     18  C   UNL     1       5.266  17.412  22.207  1.00  0.00     0.000 C 
BRANCH  18  19
ATOM     19  C   UNL     1       6.564  17.602  21.408  1.00  0.00     0.000 C 
BRANCH  19  20
ATOM     20  C   UNL     1       7.724  16.759  21.961  1.00  0.00     0.000 C 
BRANCH  20  21
ATOM     21  C   UNL     1       8.528  16.058  20.852  1.00  0.00     0.000 C 
BRANCH  21  22
ATOM     22  C   UNL     1       9.907  16.711  20.628  1.00  0.00     0.000 C 
BRANCH  22  23
ATOM     23  C   UNL     1      11.010  15.710  20.243  1.00  0.00     0.000 C 
BRANCH  23  24
ATOM     24  C   UNL     1      12.414  16.174  20.668  1.00  0.00    -0.000 C 
BRANCH  24  25
ATOM     25  C   UNL     1      13.455  15.048  20.583  1.00  0.00    -0.000 C 
BRANCH  25  26
ATOM     26  C   UNL     1      12.817  13.677  20.297  1.00  0.00    -0.000 C 
BRANCH  26  27
ATOM     27  C   UNL     1      13.811  12.692  19.660  1.00  0.00    -0.000 C 
BRANCH  27  28
ATOM     28  C   UNL     1      14.611  11.904  20.713  1.00  0.00    -0.000 C 
BRANCH  28  29
ATOM     29  C   UNL     1      14.817  12.698  22.013  1.00  0.00    -0.000 C 
BRANCH  29  30
ATOM     30  C   UNL     1      14.469  11.876  23.266  1.00  0.00    -0.000 C 
BRANCH  30  31
ATOM     31  C   UNL     1      14.490  12.723  24.548  1.00  0.00    -0.003 C 
ATOM     32  C   UNL     1      13.544  12.189  25.623  1.00  0.00     0.004 C 
ENDBRANCH  30  31
ENDBRANCH  29  30
ENDBRANCH  28  29
ENDBRANCH  27  28
ENDBRANCH  26  27
ENDBRANCH  25  26
ENDBRANCH  24  25
ENDBRANCH  23  24
ENDBRANCH  22  23
ENDBRANCH  21  22
ENDBRANCH  20  21
ENDBRANCH  19  20
ENDBRANCH  18  19
ENDBRANCH   1  18
TORSDOF 28
ENDMDL
MODEL 3
REMARK VINA RESULT:     5.146      5.015     11.344
REMARK INTER + INTRA:          13.495
REMARK INTER:                  14.233
REMARK INTRA:                  -0.738
REMARK UNBOUND:                -0.075
REMARK SMILES CCCCCCCCCCCCCCCCCCCCCCCCCCCCCC(=O)[O-]
REMARK SMILES IDX 16 1 17 2 18 3 19 4 20 5 21 6 22 7 23 8 24 9 25 10 26 11
REMARK SMILES IDX 27 12 28 13 29 14 30 15 31 16 32 17 15 18 14 19 13 20 12 21
REMARK SMILES IDX 11 22 10 23 9 24 8 25 7 26 6 27 5 28 4 29 3 30 2 31 1 32
REMARK H PARENT
REMARK Flexibility Score: inf
ROOT
ATOM      1  C   UNL     1       4.473  16.622  21.558  1.00  0.00     0.000 C 
ENDROOT
BRANCH   1   2
ATOM      2  C   UNL     1       5.094  16.190  20.221  1.00  0.00     0.000 C 
BRANCH   2   3
ATOM      3  C   UNL     1       5.590  14.733  20.233  1.00  0.00     0.000 C 
BRANCH   3   4
ATOM      4  C   UNL     1       6.077  14.199  18.874  1.00  0.00     0.000 C 
BRANCH   4   5
ATOM      5  C   UNL     1       4.993  13.408  18.121  1.00  0.00     0.000 C 
BRANCH   5   6
ATOM      6  C   UNL     1       4.541  14.105  16.828  1.00  0.00     0.000 C 
BRANCH   6   7
ATOM      7  C   UNL     1       3.028  14.386  16.804  1.00  0.00     0.000 C 
BRANCH   7   8
ATOM      8  C   UNL     1       2.246  13.374  15.949  1.00  0.00     0.000 C 
BRANCH   8   9
ATOM      9  C   UNL     1       1.951  13.828  14.505  1.00  0.00     0.000 C 
BRANCH   9  10
ATOM     10  C   UNL     1       3.115  14.543  13.792  1.00  0.00     0.000 C 
BRANCH  10  11
ATOM     11  C   UNL     1       4.226  13.613  13.271  1.00  0.00     0.000 C 
BRANCH  11  12
ATOM     12  C   UNL     1       3.732  12.560  12.255  1.00  0.00     0.000 C 
BRANCH  12  13
ATOM     13  C   UNL     1       3.501  13.156  10.855  1.00  0.00     0.006 C 
BRANCH  13  14
ATOM     14  C   UNL     1       4.399  12.509   9.792  1.00  0.00     0.053 C 
BRANCH  14  15
ATOM     15  C   UNL     1       5.518  13.414   9.375  1.00  0.00     0.041 C 
ATOM     16  O   UNL     1       6.682  12.956   9.228  1.00  0.00    -0.550 OA
ATOM     17  O   UNL     1       5.271  14.760   9.132  1.00  0.00    -0.550 OA
ENDBRANCH  14  15
ENDBRANCH  13  14
ENDBRANCH  12  13
ENDBRANCH  11  12
ENDBRANCH  10  11
ENDBRANCH   9  10
ENDBRANCH   8   9
ENDBRANCH   7   8
ENDBRANCH   6   7
ENDBRANCH   5   6
ENDBRANCH   4   5
ENDBRANCH   3   4
ENDBRANCH   2   3
ENDBRANCH   1   2
BRANCH   1  18
ATOM     18  C   UNL     1       5.306  17.729  22.215  1.00  0.00     0.000 C 
BRANCH  18  19
ATOM     19  C   UNL     1       6.788  17.611  21.828  1.00  0.00     0.000 C 
BRANCH  19  20
ATOM     20  C   UNL     1       7.361  16.214  22.113  1.00  0.00     0.000 C 
BRANCH  20  21
ATOM     21  C   UNL     1       8.586  15.887  21.241  1.00  0.00     0.000 C 
BRANCH  21  22
ATOM     22  C   UNL     1       9.139  17.133  20.518  1.00  0.00     0.000 C 
BRANCH  22  23
ATOM     23  C   UNL     1      10.640  17.043  20.191  1.00  0.00     0.000 C 
BRANCH  23  24
ATOM     24  C   UNL     1      11.250  15.679  20.554  1.00  0.00    -0.000 C 
BRANCH  24  25
ATOM     25  C   UNL     1      12.759  15.616  20.268  1.00  0.00    -0.000 C 
BRANCH  25  26
ATOM     26  C   UNL     1      13.276  14.172  20.153  1.00  0.00    -0.000 C 
BRANCH  26  27
ATOM     27  C   UNL     1      13.537  13.758  18.696  1.00  0.00    -0.000 C 
BRANCH  27  28
ATOM     28  C   UNL     1      14.140  14.901  17.861  1.00  0.00    -0.000 C 
BRANCH  28  29
ATOM     29  C   UNL     1      13.528  14.990  16.454  1.00  0.00    -0.000 C 
BRANCH  29  30
ATOM     30  C   UNL     1      14.322  15.926  15.525  1.00  0.00    -0.000 C 
BRANCH  30  31
ATOM     31  C   UNL     1      14.647  17.273  16.187  1.00  0.00    -0.003 C 
ATOM     32  C   UNL     1      14.408  18.461  15.255  1.00  0.00     0.004 C 
ENDBRANCH  30  31
ENDBRANCH  29  30
ENDBRANCH  28  29
ENDBRANCH  27  28
ENDBRANCH  26  27
ENDBRANCH  25  26
ENDBRANCH  24  25
ENDBRANCH  23  24
ENDBRANCH  22  23
ENDBRANCH  21  22
ENDBRANCH  20  21
ENDBRANCH  19  20
ENDBRANCH  18  19
ENDBRANCH   1  18
TORSDOF 28
ENDMDL
MODEL 4
REMARK VINA RESULT:     5.651      7.315     13.529
REMARK INTER + INTRA:          14.827
REMARK INTER:                  15.576
REMARK INTRA:                  -0.749
REMARK UNBOUND:                -0.075
REMARK SMILES CCCCCCCCCCCCCCCCCCCCCCCCCCCCCC(=O)[O-]
REMARK SMILES IDX 16 1 17 2 18 3 19 4 20 5 21 6 22 7 23 8 24 9 25 10 26 11
REMARK SMILES IDX 27 12 28 13 29 14 30 15 31 16 32 17 15 18 14 19 13 20 12 21
REMARK SMILES IDX 11 22 10 23 9 24 8 25 7 26 6 27 5 28 4 29 3 30 2 31 1 32
REMARK H PARENT
REMARK Flexibility Score: inf
ROOT
ATOM      1  C   UNL     1       5.526  17.417  21.196  1.00  0.00     0.000 C 
ENDROOT
BRANCH   1   2
ATOM      2  C   UNL     1       6.866  16.686  21.369  1.00  0.00     0.000 C 
BRANCH   2   3
ATOM      3  C   UNL     1       6.924  15.351  20.604  1.00  0.00     0.000 C 
BRANCH   3   4
ATOM      4  C   UNL     1       5.609  14.550  20.589  1.00  0.00     0.000 C 
BRANCH   4   5
ATOM      5  C   UNL     1       5.749  13.185  19.894  1.00  0.00     0.000 C 
BRANCH   5   6
ATOM      6  C   UNL     1       6.024  13.314  18.387  1.00  0.00     0.000 C 
BRANCH   6   7
ATOM      7  C   UNL     1       5.135  14.372  17.710  1.00  0.00     0.000 C 
BRANCH   7   8
ATOM      8  C   UNL     1       3.832  13.783  17.142  1.00  0.00     0.000 C 
BRANCH   8   9
ATOM      9  C   UNL     1       3.349  14.417  15.822  1.00  0.00     0.000 C 
BRANCH   9  10
ATOM     10  C   UNL     1       1.858  14.201  15.500  1.00  0.00     0.000 C 
BRANCH  10  11
ATOM     11  C   UNL     1       1.529  12.865  14.807  1.00  0.00     0.000 C 
BRANCH  11  12
ATOM     12  C   UNL     1       2.729  12.233  14.070  1.00  0.00     0.000 C 
BRANCH  12  13
ATOM     13  C   UNL     1       3.310  13.162  12.987  1.00  0.00     0.006 C 
BRANCH  13  14
ATOM     14  C   UNL     1       4.050  12.384  11.890  1.00  0.00     0.053 C 
BRANCH  14  15
ATOM     15  C   UNL     1       3.654  12.836  10.517  1.00  0.00     0.041 C 
ATOM     16  O   UNL     1       3.175  13.988  10.343  1.00  0.00    -0.550 OA
ATOM     17  O   UNL     1       3.832  11.991   9.429  1.00  0.00    -0.550 OA
ENDBRANCH  14  15
ENDBRANCH  13  14
ENDBRANCH  12  13
ENDBRANCH  11  12
ENDBRANCH  10  11
ENDBRANCH   9  10
ENDBRANCH   8   9
ENDBRANCH   7   8
ENDBRANCH   6   7
ENDBRANCH   5   6
ENDBRANCH   4   5
ENDBRANCH   3   4
ENDBRANCH   2   3
ENDBRANCH   1   2
BRANCH   1  18
ATOM     18  C   UNL     1       4.477  16.872  22.172  1.00  0.00     0.000 C 
BRANCH  18  19
ATOM     19  C   UNL     1       3.925  17.987  23.073  1.00  0.00     0.000 C 
BRANCH  19  20
ATOM     20  C   UNL     1       4.137  19.386  22.473  1.00  0.00     0.000 C 
BRANCH  20  21
ATOM     21  C   UNL     1       3.270  20.460  23.153  1.00  0.00     0.000 C 
BRANCH  21  22
ATOM     22  C   UNL     1       1.805  20.418  22.674  1.00  0.00     0.000 C 
BRANCH  22  23
ATOM     23  C   UNL     1       0.986  21.657  23.079  1.00  0.00     0.000 C 
BRANCH  23  24
ATOM     24  C   UNL     1      -0.501  21.341  23.309  1.00  0.00    -0.000 C 
BRANCH  24  25
ATOM     25  C   UNL     1      -1.113  22.186  24.437  1.00  0.00    -0.000 C 
BRANCH  25  26
ATOM     26  C   UNL     1      -1.736  21.321  25.548  1.00  0.00    -0.000 C 
BRANCH  26  27
ATOM     27  C   UNL     1      -1.322  21.787  26.953  1.00  0.00    -0.000 C 
BRANCH  27  28
ATOM     28  C   UNL     1      -2.431  22.591  27.654  1.00  0.00    -0.000 C 
BRANCH  28  29
ATOM     29  C   UNL     1      -3.839  22.161  27.213  1.00  0.00    -0.000 C 
BRANCH  29  30
ATOM     30  C   UNL     1      -4.728  21.750  28.401  1.00  0.00    -0.000 C 
BRANCH  30  31
ATOM     31  C   UNL     1      -5.088  20.256  28.376  1.00  0.00    -0.003 C 
ATOM     32  C   UNL     1      -4.184  19.448  27.445  1.00  0.00     0.004 C 
ENDBRANCH  30  31
ENDBRANCH  29  30
ENDBRANCH  28  29
ENDBRANCH  27  28
ENDBRANCH  26  27
ENDBRANCH  25  26
ENDBRANCH  24  25
ENDBRANCH  23  24
ENDBRANCH  22  23
ENDBRANCH  21  22
ENDBRANCH  20  21
ENDBRANCH  19  20
ENDBRANCH  18  19
ENDBRANCH   1  18
TORSDOF 28
ENDMDL
MODEL 5
REMARK VINA RESULT:     5.708      3.563      5.081
REMARK INTER + INTRA:          14.975
REMARK INTER:                  14.362
REMARK INTRA:                   0.614
REMARK UNBOUND:                -0.075
REMARK SMILES CCCCCCCCCCCCCCCCCCCCCCCCCCCCCC(=O)[O-]
REMARK SMILES IDX 16 1 17 2 18 3 19 4 20 5 21 6 22 7 23 8 24 9 25 10 26 11
REMARK SMILES IDX 27 12 28 13 29 14 30 15 31 16 32 17 15 18 14 19 13 20 12 21
REMARK SMILES IDX 11 22 10 23 9 24 8 25 7 26 6 27 5 28 4 29 3 30 2 31 1 32
REMARK H PARENT
REMARK Flexibility Score: inf
ROOT
ATOM      1  C   UNL     1       5.672  14.693  20.221  1.00  0.00     0.000 C 
ENDROOT
BRANCH   1   2
ATOM      2  C   UNL     1       5.379  16.195  20.089  1.00  0.00     0.000 C 
BRANCH   2   3
ATOM      3  C   UNL     1       4.769  16.802  21.365  1.00  0.00     0.000 C 
BRANCH   3   4
ATOM      4  C   UNL     1       5.768  17.532  22.282  1.00  0.00     0.000 C 
BRANCH   4   5
ATOM      5  C   UNL     1       7.124  17.786  21.602  1.00  0.00     0.000 C 
BRANCH   5   6
ATOM      6  C   UNL     1       7.671  16.541  20.885  1.00  0.00     0.000 C 
BRANCH   6   7
ATOM      7  C   UNL     1       9.122  16.216  21.282  1.00  0.00     0.000 C 
BRANCH   7   8
ATOM      8  C   UNL     1      10.154  16.811  20.309  1.00  0.00     0.000 C 
BRANCH   8   9
ATOM      9  C   UNL     1      11.627  16.507  20.651  1.00  0.00     0.000 C 
BRANCH   9  10
ATOM     10  C   UNL     1      12.056  15.041  20.448  1.00  0.00     0.000 C 
BRANCH  10  11
ATOM     11  C   UNL     1      13.498  14.851  19.942  1.00  0.00     0.000 C 
BRANCH  11  12
ATOM     12  C   UNL     1      13.621  14.828  18.403  1.00  0.00     0.000 C 
BRANCH  12  13
ATOM     13  C   UNL     1      14.848  15.610  17.900  1.00  0.00     0.006 C 
BRANCH  13  14
ATOM     14  C   UNL     1      14.454  16.871  17.119  1.00  0.00     0.053 C 
BRANCH  14  15
ATOM     15  C   UNL     1      13.944  16.546  15.748  1.00  0.00     0.041 C 
ATOM     16  O   UNL     1      13.510  17.463  15.000  1.00  0.00    -0.550 OA
ATOM     17  O   UNL     1      13.964  15.235  15.291  1.00  0.00    -0.550 OA
ENDBRANCH  14  15
ENDBRANCH  13  14
ENDBRANCH  12  13
ENDBRANCH  11  12
ENDBRANCH  10  11
ENDBRANCH   9  10
ENDBRANCH   8   9
ENDBRANCH   7   8
ENDBRANCH   6   7
ENDBRANCH   5   6
ENDBRANCH   4   5
ENDBRANCH   3   4
ENDBRANCH   2   3
ENDBRANCH   1   2
BRANCH   1  18
ATOM     18  C   UNL     1       6.167  14.114  18.891  1.00  0.00     0.000 C 
BRANCH  18  19
ATOM     19  C   UNL     1       5.058  13.322  18.184  1.00  0.00     0.000 C 
BRANCH  19  20
ATOM     20  C   UNL     1       4.756  13.860  16.776  1.00  0.00     0.000 C 
BRANCH  20  21
ATOM     21  C   UNL     1       3.295  14.315  16.616  1.00  0.00     0.000 C 
BRANCH  21  22
ATOM     22  C   UNL     1       2.787  14.154  15.169  1.00  0.00     0.000 C 
BRANCH  22  23
ATOM     23  C   UNL     1       1.925  12.897  14.952  1.00  0.00     0.000 C 
BRANCH  23  24
ATOM     24  C   UNL     1       2.377  12.064  13.741  1.00  0.00    -0.000 C 
BRANCH  24  25
ATOM     25  C   UNL     1       3.660  12.612  13.097  1.00  0.00    -0.000 C 
BRANCH  25  26
ATOM     26  C   UNL     1       3.953  11.970  11.730  1.00  0.00    -0.000 C 
BRANCH  26  27
ATOM     27  C   UNL     1       3.227  12.686  10.580  1.00  0.00    -0.000 C 
BRANCH  27  28
ATOM     28  C   UNL     1       3.524  14.196  10.550  1.00  0.00    -0.000 C 
BRANCH  28  29
ATOM     29  C   UNL     1       3.788  14.717   9.129  1.00  0.00    -0.000 C 
BRANCH  29  30
ATOM     30  C   UNL     1       5.278  15.009   8.876  1.00  0.00    -0.000 C 
BRANCH  30  31
ATOM     31  C   UNL     1       6.199  14.223   9.822  1.00  0.00    -0.003 C 
ATOM     32  C   UNL     1       6.502  12.814   9.313  1.00  0.00     0.004 C 
ENDBRANCH  30  31
ENDBRANCH  29  30
ENDBRANCH  28  29
ENDBRANCH  27  28
ENDBRANCH  26  27
ENDBRANCH  25  26
ENDBRANCH  24  25
ENDBRANCH  23  24
ENDBRANCH  22  23
ENDBRANCH  21  22
ENDBRANCH  20  21
ENDBRANCH  19  20
ENDBRANCH  18  19
ENDBRANCH   1  18
TORSDOF 28
ENDMDL
MODEL 6
REMARK VINA RESULT:     5.718      6.846     13.477
REMARK INTER + INTRA:          15.003
REMARK INTER:                  16.122
REMARK INTRA:                  -1.119
REMARK UNBOUND:                -0.075
REMARK SMILES CCCCCCCCCCCCCCCCCCCCCCCCCCCCCC(=O)[O-]
REMARK SMILES IDX 16 1 17 2 18 3 19 4 20 5 21 6 22 7 23 8 24 9 25 10 26 11
REMARK SMILES IDX 27 12 28 13 29 14 30 15 31 16 32 17 15 18 14 19 13 20 12 21
REMARK SMILES IDX 11 22 10 23 9 24 8 25 7 26 6 27 5 28 4 29 3 30 2 31 1 32
REMARK H PARENT
REMARK Flexibility Score: inf
ROOT
ATOM      1  C   UNL     1       7.257  16.209  21.034  1.00  0.00     0.000 C 
ENDROOT
BRANCH   1   2
ATOM      2  C   UNL     1       5.919  15.608  20.580  1.00  0.00     0.000 C 
BRANCH   2   3
ATOM      3  C   UNL     1       5.925  14.068  20.569  1.00  0.00     0.000 C 
BRANCH   3   4
ATOM      4  C   UNL     1       5.656  13.424  19.197  1.00  0.00     0.000 C 
BRANCH   4   5
ATOM      5  C   UNL     1       4.928  14.371  18.227  1.00  0.00     0.000 C 
BRANCH   5   6
ATOM      6  C   UNL     1       4.785  13.778  16.816  1.00  0.00     0.000 C 
BRANCH   6   7
ATOM      7  C   UNL     1       3.683  14.466  15.992  1.00  0.00     0.000 C 
BRANCH   7   8
ATOM      8  C   UNL     1       2.332  13.734  16.072  1.00  0.00     0.000 C 
BRANCH   8   9
ATOM      9  C   UNL     1       1.794  13.205  14.727  1.00  0.00     0.000 C 
BRANCH   9  10
ATOM     10  C   UNL     1       2.713  12.204  14.002  1.00  0.00     0.000 C 
BRANCH  10  11
ATOM     11  C   UNL     1       2.616  12.227  12.465  1.00  0.00     0.000 C 
BRANCH  11  12
ATOM     12  C   UNL     1       3.871  12.795  11.769  1.00  0.00     0.000 C 
BRANCH  12  13
ATOM     13  C   UNL     1       3.995  12.329  10.307  1.00  0.00     0.006 C 
BRANCH  13  14
ATOM     14  C   UNL     1       4.413  13.467   9.367  1.00  0.00     0.053 C 
BRANCH  14  15
ATOM     15  C   UNL     1       5.856  13.836   9.539  1.00  0.00     0.041 C 
ATOM     16  O   UNL     1       6.718  12.940   9.743  1.00  0.00    -0.550 OA
ATOM     17  O   UNL     1       6.249  15.165   9.456  1.00  0.00    -0.550 OA
ENDBRANCH  14  15
ENDBRANCH  13  14
ENDBRANCH  12  13
ENDBRANCH  11  12
ENDBRANCH  10  11
ENDBRANCH   9  10
ENDBRANCH   8   9
ENDBRANCH   7   8
ENDBRANCH   6   7
ENDBRANCH   5   6
ENDBRANCH   4   5
ENDBRANCH   3   4
ENDBRANCH   2   3
ENDBRANCH   1   2
BRANCH   1  18
ATOM     18  C   UNL     1       7.031  17.455  21.897  1.00  0.00     0.000 C 
BRANCH  18  19
ATOM     19  C   UNL     1       5.685  17.381  22.636  1.00  0.00     0.000 C 
BRANCH  19  20
ATOM     20  C   UNL     1       4.641  18.346  22.052  1.00  0.00     0.000 C 
BRANCH  20  21
ATOM     21  C   UNL     1       3.501  18.653  23.040  1.00  0.00     0.000 C 
BRANCH  21  22
ATOM     22  C   UNL     1       2.947  20.082  22.868  1.00  0.00     0.000 C 
BRANCH  22  23
ATOM     23  C   UNL     1       1.411  20.161  22.926  1.00  0.00     0.000 C 
BRANCH  23  24
ATOM     24  C   UNL     1       0.891  21.604  23.035  1.00  0.00    -0.000 C 
BRANCH  24  25
ATOM     25  C   UNL     1      -0.614  21.664  23.340  1.00  0.00    -0.000 C 
BRANCH  25  26
ATOM     26  C   UNL     1      -0.926  22.479  24.607  1.00  0.00    -0.000 C 
BRANCH  26  27
ATOM     27  C   UNL     1      -1.279  21.584  25.806  1.00  0.00    -0.000 C 
BRANCH  27  28
ATOM     28  C   UNL     1      -1.854  22.386  26.986  1.00  0.00    -0.000 C 
BRANCH  28  29
ATOM     29  C   UNL     1      -3.302  21.990  27.319  1.00  0.00    -0.000 C 
BRANCH  29  30
ATOM     30  C   UNL     1      -3.504  20.465  27.346  1.00  0.00    -0.000 C 
BRANCH  30  31
ATOM     31  C   UNL     1      -4.806  20.058  28.052  1.00  0.00    -0.003 C 
ATOM     32  C   UNL     1      -5.091  18.560  27.946  1.00  0.00     0.004 C 
ENDBRANCH  30  31
ENDBRANCH  29  30
ENDBRANCH  28  29
ENDBRANCH  27  28
ENDBRANCH  26  27
ENDBRANCH  25  26
ENDBRANCH  24  25
ENDBRANCH  23  24
ENDBRANCH  22  23
ENDBRANCH  21  22
ENDBRANCH  20  21
ENDBRANCH  19  20
ENDBRANCH  18  19
ENDBRANCH   1  18
TORSDOF 28
ENDMDL
MODEL 7
REMARK VINA RESULT:     6.476      7.392     11.892
REMARK INTER + INTRA:          17.001
REMARK INTER:                  18.504
REMARK INTRA:                  -1.503
REMARK UNBOUND:                -0.075
REMARK SMILES CCCCCCCCCCCCCCCCCCCCCCCCCCCCCC(=O)[O-]
REMARK SMILES IDX 16 1 17 2 18 3 19 4 20 5 21 6 22 7 23 8 24 9 25 10 26 11
REMARK SMILES IDX 27 12 28 13 29 14 30 15 31 16 32 17 15 18 14 19 13 20 12 21
REMARK SMILES IDX 11 22 10 23 9 24 8 25 7 26 6 27 5 28 4 29 3 30 2 31 1 32
REMARK H PARENT
REMARK Flexibility Score: inf
ROOT
ATOM      1  C   UNL     1       4.322  16.677  21.790  1.00  0.00     0.000 C 
ENDROOT
BRANCH   1   2
ATOM      2  C   UNL     1       4.531  17.678  22.936  1.00  0.00     0.000 C 
BRANCH   2   3
ATOM      3  C   UNL     1       4.245  19.133  22.521  1.00  0.00     0.000 C 
BRANCH   3   4
ATOM      4  C   UNL     1       2.794  19.600  22.736  1.00  0.00     0.000 C 
BRANCH   4   5
ATOM      5  C   UNL     1       2.700  21.073  23.171  1.00  0.00     0.000 C 
BRANCH   5   6
ATOM      6  C   UNL     1       1.369  21.727  22.766  1.00  0.00     0.000 C 
BRANCH   6   7
ATOM      7  C   UNL     1       0.146  20.897  23.194  1.00  0.00     0.000 C 
BRANCH   7   8
ATOM      8  C   UNL     1      -1.021  21.766  23.693  1.00  0.00     0.000 C 
BRANCH   8   9
ATOM      9  C   UNL     1      -1.004  22.082  25.202  1.00  0.00     0.000 C 
BRANCH   9  10
ATOM     10  C   UNL     1      -2.391  22.244  25.852  1.00  0.00     0.000 C 
BRANCH  10  11
ATOM     11  C   UNL     1      -2.564  21.524  27.203  1.00  0.00     0.000 C 
BRANCH  11  12
ATOM     12  C   UNL     1      -3.566  22.213  28.153  1.00  0.00     0.000 C 
BRANCH  12  13
ATOM     13  C   UNL     1      -4.980  21.610  28.054  1.00  0.00     0.006 C 
BRANCH  13  14
ATOM     14  C   UNL     1      -5.095  20.272  28.798  1.00  0.00     0.053 C 
BRANCH  14  15
ATOM     15  C   UNL     1      -5.100  19.106  27.858  1.00  0.00     0.041 C 
ATOM     16  O   UNL     1      -5.124  19.296  26.612  1.00  0.00    -0.550 OA
ATOM     17  O   UNL     1      -5.060  17.810  28.356  1.00  0.00    -0.550 OA
ENDBRANCH  14  15
ENDBRANCH  13  14
ENDBRANCH  12  13
ENDBRANCH  11  12
ENDBRANCH  10  11
ENDBRANCH   9  10
ENDBRANCH   8   9
ENDBRANCH   7   8
ENDBRANCH   6   7
ENDBRANCH   5   6
ENDBRANCH   4   5
ENDBRANCH   3   4
ENDBRANCH   2   3
ENDBRANCH   1   2
BRANCH   1  18
ATOM     18  C   UNL     1       5.363  16.887  20.685  1.00  0.00     0.000 C 
BRANCH  18  19
ATOM     19  C   UNL     1       6.486  15.844  20.775  1.00  0.00     0.000 C 
BRANCH  19  20
ATOM     20  C   UNL     1       5.959  14.403  20.687  1.00  0.00     0.000 C 
BRANCH  20  21
ATOM     21  C   UNL     1       6.085  13.811  19.272  1.00  0.00     0.000 C 
BRANCH  21  22
ATOM     22  C   UNL     1       4.972  14.310  18.329  1.00  0.00     0.000 C 
BRANCH  22  23
ATOM     23  C   UNL     1       5.022  13.679  16.926  1.00  0.00     0.000 C 
BRANCH  23  24
ATOM     24  C   UNL     1       4.126  14.408  15.910  1.00  0.00    -0.000 C 
BRANCH  24  25
ATOM     25  C   UNL     1       2.630  14.200  16.192  1.00  0.00    -0.000 C 
BRANCH  25  26
ATOM     26  C   UNL     1       2.075  12.934  15.517  1.00  0.00    -0.000 C 
BRANCH  26  27
ATOM     27  C   UNL     1       2.004  13.069  13.988  1.00  0.00    -0.000 C 
BRANCH  27  28
ATOM     28  C   UNL     1       2.846  12.003  13.265  1.00  0.00    -0.000 C 
BRANCH  28  29
ATOM     29  C   UNL     1       4.094  12.594  12.591  1.00  0.00    -0.000 C 
BRANCH  29  30
ATOM     30  C   UNL     1       3.751  13.414  11.334  1.00  0.00    -0.000 C 
BRANCH  30  31
ATOM     31  C   UNL     1       3.469  12.526  10.113  1.00  0.00    -0.003 C 
ATOM     32  C   UNL     1       2.673  13.252   9.028  1.00  0.00     0.004 C 
ENDBRANCH  30  31
ENDBRANCH  29  30
ENDBRANCH  28  29
ENDBRANCH  27  28
ENDBRANCH  26  27
ENDBRANCH  25  26
ENDBRANCH  24  25
ENDBRANCH  23  24
ENDBRANCH  22  23
ENDBRANCH  21  22
ENDBRANCH  20  21
ENDBRANCH  19  20
ENDBRANCH  18  19
ENDBRANCH   1  18
TORSDOF 28
ENDMDL
MODEL 8
REMARK VINA RESULT:     7.093      5.612     12.130
REMARK INTER + INTRA:          18.628
REMARK INTER:                  18.771
REMARK INTRA:                  -0.143
REMARK UNBOUND:                -0.075
REMARK SMILES CCCCCCCCCCCCCCCCCCCCCCCCCCCCCC(=O)[O-]
REMARK SMILES IDX 16 1 17 2 18 3 19 4 20 5 21 6 22 7 23 8 24 9 25 10 26 11
REMARK SMILES IDX 27 12 28 13 29 14 30 15 31 16 32 17 15 18 14 19 13 20 12 21
REMARK SMILES IDX 11 22 10 23 9 24 8 25 7 26 6 27 5 28 4 29 3 30 2 31 1 32
REMARK H PARENT
REMARK Flexibility Score: inf
ROOT
ATOM      1  C   UNL     1       4.340  16.455  20.933  1.00  0.00     0.000 C 
ENDROOT
BRANCH   1   2
ATOM      2  C   UNL     1       5.319  15.277  20.818  1.00  0.00     0.000 C 
BRANCH   2   3
ATOM      3  C   UNL     1       5.764  15.006  19.369  1.00  0.00     0.000 C 
BRANCH   3   4
ATOM      4  C   UNL     1       6.120  13.540  19.060  1.00  0.00     0.000 C 
BRANCH   4   5
ATOM      5  C   UNL     1       5.429  13.014  17.790  1.00  0.00     0.000 C 
BRANCH   5   6
ATOM      6  C   UNL     1       4.788  14.136  16.956  1.00  0.00     0.000 C 
BRANCH   6   7
ATOM      7  C   UNL     1       5.235  14.110  15.484  1.00  0.00     0.000 C 
BRANCH   7   8
ATOM      8  C   UNL     1       4.085  14.400  14.505  1.00  0.00     0.000 C 
BRANCH   8   9
ATOM      9  C   UNL     1       2.887  13.433  14.599  1.00  0.00     0.000 C 
BRANCH   9  10
ATOM     10  C   UNL     1       2.835  12.347  13.508  1.00  0.00     0.000 C 
BRANCH  10  11
ATOM     11  C   UNL     1       3.542  12.715  12.190  1.00  0.00     0.000 C 
BRANCH  11  12
ATOM     12  C   UNL     1       2.791  12.242  10.927  1.00  0.00     0.000 C 
BRANCH  12  13
ATOM     13  C   UNL     1       3.566  12.548   9.633  1.00  0.00     0.006 C 
BRANCH  13  14
ATOM     14  C   UNL     1       4.124  13.978   9.614  1.00  0.00     0.053 C 
BRANCH  14  15
ATOM     15  C   UNL     1       5.611  13.998   9.424  1.00  0.00     0.041 C 
ATOM     16  O   UNL     1       6.268  12.924   9.454  1.00  0.00    -0.550 OA
ATOM     17  O   UNL     1       6.267  15.202   9.197  1.00  0.00    -0.550 OA
ENDBRANCH  14  15
ENDBRANCH  13  14
ENDBRANCH  12  13
ENDBRANCH  11  12
ENDBRANCH  10  11
ENDBRANCH   9  10
ENDBRANCH   8   9
ENDBRANCH   7   8
ENDBRANCH   6   7
ENDBRANCH   5   6
ENDBRANCH   4   5
ENDBRANCH   3   4
ENDBRANCH   2   3
ENDBRANCH   1   2
BRANCH   1  18
ATOM     18  C   UNL     1       3.729  16.522  22.337  1.00  0.00     0.000 C 
BRANCH  18  19
ATOM     19  C   UNL     1       4.468  17.542  23.216  1.00  0.00     0.000 C 
BRANCH  19  20
ATOM     20  C   UNL     1       4.673  18.890  22.506  1.00  0.00     0.000 C 
BRANCH  20  21
ATOM     21  C   UNL     1       6.044  18.993  21.815  1.00  0.00     0.000 C 
BRANCH  21  22
ATOM     22  C   UNL     1       6.930  17.760  22.087  1.00  0.00     0.000 C 
BRANCH  22  23
ATOM     23  C   UNL     1       7.760  17.314  20.870  1.00  0.00     0.000 C 
BRANCH  23  24
ATOM     24  C   UNL     1       8.645  16.092  21.166  1.00  0.00    -0.000 C 
BRANCH  24  25
ATOM     25  C   UNL     1      10.073  16.256  20.622  1.00  0.00    -0.000 C 
BRANCH  25  26
ATOM     26  C   UNL     1      10.400  17.715  20.259  1.00  0.00    -0.000 C 
BRANCH  26  27
ATOM     27  C   UNL     1      10.448  18.628  21.495  1.00  0.00    -0.000 C 
BRANCH  27  28
ATOM     28  C   UNL     1      11.428  19.801  21.319  1.00  0.00    -0.000 C 
BRANCH  28  29
ATOM     29  C   UNL     1      11.822  20.446  22.657  1.00  0.00    -0.000 C 
BRANCH  29  30
ATOM     30  C   UNL     1      13.303  20.218  23.008  1.00  0.00    -0.000 C 
BRANCH  30  31
ATOM     31  C   UNL     1      14.243  20.575  21.847  1.00  0.00    -0.003 C 
ATOM     32  C   UNL     1      13.907  21.923  21.210  1.00  0.00     0.004 C 
ENDBRANCH  30  31
ENDBRANCH  29  30
ENDBRANCH  28  29
ENDBRANCH  27  28
ENDBRANCH  26  27
ENDBRANCH  25  26
ENDBRANCH  24  25
ENDBRANCH  23  24
ENDBRANCH  22  23
ENDBRANCH  21  22
ENDBRANCH  20  21
ENDBRANCH  19  20
ENDBRANCH  18  19
ENDBRANCH   1  18
TORSDOF 28
ENDMDL
