MODEL 1
REMARK VINA RESULT:    -3.290      0.000      0.000
REMARK INTER + INTRA:          -7.135
REMARK INTER:                  -5.983
REMARK INTRA:                  -1.152
REMARK UNBOUND:                -1.152
REMARK SMILES CCCCCCCCCCCCCCCC(=O)[O-]
REMARK SMILES IDX 9 1 10 2 11 3 12 4 13 5 14 6 15 7 16 8 17 9 18 10 8 11 7 12
REMARK SMILES IDX 6 13 5 14 4 15 3 16 2 17 1 18
REMARK H PARENT
REMARK Flexibility Score: inf
ROOT
ATOM      1  C   UNL     1      -9.006  15.979 -12.640  1.00  0.00     0.000 C 
ENDROOT
BRANCH   1   2
ATOM      2  C   UNL     1      -7.794  15.052 -12.442  1.00  0.00     0.000 C 
BRANCH   2   3
ATOM      3  C   UNL     1      -8.055  13.621 -12.937  1.00  0.00     0.000 C 
BRANCH   3   4
ATOM      4  C   UNL     1      -6.773  12.995 -13.506  1.00  0.00     0.000 C 
BRANCH   4   5
ATOM      5  C   UNL     1      -6.211  13.796 -14.700  1.00  0.00     0.000 C 
BRANCH   5   6
ATOM      6  C   UNL     1      -6.861  13.432 -16.046  1.00  0.00     0.006 C 
BRANCH   6   7
ATOM      7  C   UNL     1      -8.074  12.508 -15.892  1.00  0.00     0.053 C 
BRANCH   7   8
ATOM      8  C   UNL     1      -9.343  13.294 -15.988  1.00  0.00     0.041 C 
ATOM      9  O   UNL     1      -9.306  14.544 -16.125  1.00  0.00    -0.550 OA
ATOM     10  O   UNL     1     -10.569  12.638 -15.982  1.00  0.00    -0.550 OA
ENDBRANCH   7   8
ENDBRANCH   6   7
ENDBRANCH   5   6
ENDBRANCH   4   5
ENDBRANCH   3   4
ENDBRANCH   2   3
ENDBRANCH   1   2
BRANCH   1  11
ATOM     11  C   UNL     1      -8.597  17.409 -13.035  1.00  0.00     0.000 C 
BRANCH  11  12
ATOM     12  C   UNL     1      -8.515  17.598 -14.558  1.00  0.00    -0.000 C 
BRANCH  12  13
ATOM     13  C   UNL     1      -7.153  17.177 -15.135  1.00  0.00    -0.000 C 
BRANCH  13  14
ATOM     14  C   UNL     1      -6.248  18.380 -15.460  1.00  0.00    -0.000 C 
BRANCH  14  15
ATOM     15  C   UNL     1      -6.989  19.624 -15.989  1.00  0.00    -0.000 C 
BRANCH  15  16
ATOM     16  C   UNL     1      -6.612  20.953 -15.304  1.00  0.00    -0.000 C 
BRANCH  16  17
ATOM     17  C   UNL     1      -5.930  20.803 -13.934  1.00  0.00    -0.003 C 
ATOM     18  C   UNL     1      -6.925  20.763 -12.774  1.00  0.00     0.004 C 
ENDBRANCH  16  17
ENDBRANCH  15  16
ENDBRANCH  14  15
ENDBRANCH  13  14
ENDBRANCH  12  13
ENDBRANCH  11  12
ENDBRANCH   1  11
TORSDOF 14
ENDMDL
MODEL 2
REMARK VINA RESULT:    -2.966      2.694      6.427
REMARK INTER + INTRA:          -6.544
REMARK INTER:                  -5.266
REMARK INTRA:                  -1.278
REMARK UNBOUND:                -1.152
REMARK SMILES CCCCCCCCCCCCCCCC(=O)[O-]
REMARK SMILES IDX 9 1 10 2 11 3 12 4 13 5 14 6 15 7 16 8 17 9 18 10 8 11 7 12
REMARK SMILES IDX 6 13 5 14 4 15 3 16 2 17 1 18
REMARK H PARENT
REMARK Flexibility Score: inf
ROOT
ATOM      1  C   UNL     1      -8.666  15.575 -13.941  1.00  0.00     0.000 C 
ENDROOT
BRANCH   1   2
ATOM      2  C   UNL     1      -8.981  17.004 -14.413  1.00  0.00     0.000 C 
BRANCH   2   3
ATOM      3  C   UNL     1      -8.384  17.318 -15.793  1.00  0.00     0.000 C 
BRANCH   3   4
ATOM      4  C   UNL     1      -6.936  16.816 -15.892  1.00  0.00     0.000 C 
BRANCH   4   5
ATOM      5  C   UNL     1      -5.909  17.941 -15.638  1.00  0.00     0.000 C 
BRANCH   5   6
ATOM      6  C   UNL     1      -6.509  19.354 -15.730  1.00  0.00     0.006 C 
BRANCH   6   7
ATOM      7  C   UNL     1      -5.875  20.338 -14.740  1.00  0.00     0.053 C 
BRANCH   7   8
ATOM      8  C   UNL     1      -6.705  20.439 -13.501  1.00  0.00     0.041 C 
ATOM      9  O   UNL     1      -6.153  20.534 -12.374  1.00  0.00    -0.550 OA
ATOM     10  O   UNL     1      -8.092  20.485 -13.594  1.00  0.00    -0.550 OA
ENDBRANCH   7   8
ENDBRANCH   6   7
ENDBRANCH   5   6
ENDBRANCH   4   5
ENDBRANCH   3   4
ENDBRANCH   2   3
ENDBRANCH   1   2
BRANCH   1  11
ATOM     11  C   UNL     1      -7.750  15.549 -12.705  1.00  0.00     0.000 C 
BRANCH  11  12
ATOM     12  C   UNL     1      -7.652  14.151 -12.075  1.00  0.00    -0.000 C 
BRANCH  12  13
ATOM     13  C   UNL     1      -7.972  13.026 -13.074  1.00  0.00    -0.000 C 
BRANCH  13  14
ATOM     14  C   UNL     1      -6.721  12.512 -13.811  1.00  0.00    -0.000 C 
BRANCH  14  15
ATOM     15  C   UNL     1      -6.541  13.060 -15.241  1.00  0.00    -0.000 C 
BRANCH  15  16
ATOM     16  C   UNL     1      -7.843  13.225 -16.050  1.00  0.00    -0.000 C 
BRANCH  16  17
ATOM     17  C   UNL     1      -8.722  11.965 -16.125  1.00  0.00    -0.003 C 
ATOM     18  C   UNL     1     -10.203  12.257 -15.889  1.00  0.00     0.004 C 
ENDBRANCH  16  17
ENDBRANCH  15  16
ENDBRANCH  14  15
ENDBRANCH  13  14
ENDBRANCH  12  13
ENDBRANCH  11  12
ENDBRANCH   1  11
TORSDOF 14
ENDMDL
MODEL 3
REMARK VINA RESULT:    -2.610      2.515      5.702
REMARK INTER + INTRA:          -5.898
REMARK INTER:                  -4.802
REMARK INTRA:                  -1.096
REMARK UNBOUND:                -1.152
REMARK SMILES CCCCCCCCCCCCCCCC(=O)[O-]
REMARK SMILES IDX 9 1 10 2 11 3 12 4 13 5 14 6 15 7 16 8 17 9 18 10 8 11 7 12
REMARK SMILES IDX 6 13 5 14 4 15 3 16 2 17 1 18
REMARK H PARENT
REMARK Flexibility Score: inf
ROOT
ATOM      1  C   UNL     1      -8.551  12.821 -15.447  1.00  0.00     0.000 C 
ENDROOT
BRANCH   1   2
ATOM      2  C   UNL     1      -9.074  14.098 -16.125  1.00  0.00     0.000 C 
BRANCH   2   3
ATOM      3  C   UNL     1      -8.479  15.379 -15.519  1.00  0.00     0.000 C 
BRANCH   3   4
ATOM      4  C   UNL     1      -7.081  15.658 -16.091  1.00  0.00     0.000 C 
BRANCH   4   5
ATOM      5  C   UNL     1      -6.369  16.814 -15.353  1.00  0.00     0.000 C 
BRANCH   5   6
ATOM      6  C   UNL     1      -6.780  18.209 -15.854  1.00  0.00     0.006 C 
BRANCH   6   7
ATOM      7  C   UNL     1      -6.268  19.340 -14.956  1.00  0.00     0.053 C 
BRANCH   7   8
ATOM      8  C   UNL     1      -7.412  20.034 -14.288  1.00  0.00     0.041 C 
ATOM      9  O   UNL     1      -8.579  19.918 -14.746  1.00  0.00    -0.550 OA
ATOM     10  O   UNL     1      -7.198  20.767 -13.126  1.00  0.00    -0.550 OA
ENDBRANCH   7   8
ENDBRANCH   6   7
ENDBRANCH   5   6
ENDBRANCH   4   5
ENDBRANCH   3   4
ENDBRANCH   2   3
ENDBRANCH   1   2
BRANCH   1  11
ATOM     11  C   UNL     1      -7.284  12.269 -16.124  1.00  0.00     0.000 C 
BRANCH  11  12
ATOM     12  C   UNL     1      -6.028  12.446 -15.257  1.00  0.00    -0.000 C 
BRANCH  12  13
ATOM     13  C   UNL     1      -6.332  12.372 -13.751  1.00  0.00    -0.000 C 
BRANCH  13  14
ATOM     14  C   UNL     1      -6.593  13.756 -13.129  1.00  0.00    -0.000 C 
BRANCH  14  15
ATOM     15  C   UNL     1      -7.732  13.795 -12.090  1.00  0.00    -0.000 C 
BRANCH  15  16
ATOM     16  C   UNL     1      -8.169  15.207 -11.649  1.00  0.00    -0.000 C 
BRANCH  16  17
ATOM     17  C   UNL     1      -9.194  15.884 -12.575  1.00  0.00    -0.003 C 
ATOM     18  C   UNL     1      -9.154  17.410 -12.491  1.00  0.00     0.004 C 
ENDBRANCH  16  17
ENDBRANCH  15  16
ENDBRANCH  14  15
ENDBRANCH  13  14
ENDBRANCH  12  13
ENDBRANCH  11  12
ENDBRANCH   1  11
TORSDOF 14
ENDMDL
MODEL 4
REMARK VINA RESULT:    -2.392      1.792      3.170
REMARK INTER + INTRA:          -5.501
REMARK INTER:                  -4.953
REMARK INTRA:                  -0.548
REMARK UNBOUND:                -1.152
REMARK SMILES CCCCCCCCCCCCCCCC(=O)[O-]
REMARK SMILES IDX 9 1 10 2 11 3 12 4 13 5 14 6 15 7 16 8 17 9 18 10 8 11 7 12
REMARK SMILES IDX 6 13 5 14 4 15 3 16 2 17 1 18
REMARK H PARENT
REMARK Flexibility Score: inf
ROOT
ATOM      1  C   UNL     1      -9.045  13.787 -15.099  1.00  0.00     0.000 C 
ENDROOT
BRANCH   1   2
ATOM      2  C   UNL     1      -8.219  12.497 -14.959  1.00  0.00     0.000 C 
BRANCH   2   3
ATOM      3  C   UNL     1      -6.716  12.770 -14.792  1.00  0.00     0.000 C 
BRANCH   3   4
ATOM      4  C   UNL     1      -6.457  13.705 -13.600  1.00  0.00     0.000 C 
BRANCH   4   5
ATOM      5  C   UNL     1      -7.352  13.367 -12.388  1.00  0.00     0.000 C 
BRANCH   5   6
ATOM      6  C   UNL     1      -8.485  14.381 -12.158  1.00  0.00     0.006 C 
BRANCH   6   7
ATOM      7  C   UNL     1      -7.975  15.812 -11.958  1.00  0.00     0.053 C 
BRANCH   7   8
ATOM      8  C   UNL     1      -9.027  16.801 -12.348  1.00  0.00     0.041 C 
ATOM      9  O   UNL     1      -8.771  18.033 -12.347  1.00  0.00    -0.550 OA
ATOM     10  O   UNL     1     -10.277  16.357 -12.767  1.00  0.00    -0.550 OA
ENDBRANCH   7   8
ENDBRANCH   6   7
ENDBRANCH   5   6
ENDBRANCH   4   5
ENDBRANCH   3   4
ENDBRANCH   2   3
ENDBRANCH   1   2
BRANCH   1  11
ATOM     11  C   UNL     1      -8.444  14.765 -16.125  1.00  0.00     0.000 C 
BRANCH  11  12
ATOM     12  C   UNL     1      -8.443  16.217 -15.623  1.00  0.00    -0.000 C 
BRANCH  12  13
ATOM     13  C   UNL     1      -7.040  16.706 -15.223  1.00  0.00    -0.000 C 
BRANCH  13  14
ATOM     14  C   UNL     1      -6.601  17.956 -16.006  1.00  0.00    -0.000 C 
BRANCH  14  15
ATOM     15  C   UNL     1      -7.536  19.174 -15.860  1.00  0.00    -0.000 C 
BRANCH  15  16
ATOM     16  C   UNL     1      -6.879  20.439 -15.274  1.00  0.00    -0.000 C 
BRANCH  16  17
ATOM     17  C   UNL     1      -5.985  20.194 -14.047  1.00  0.00    -0.003 C 
ATOM     18  C   UNL     1      -6.450  20.959 -12.808  1.00  0.00     0.004 C 
ENDBRANCH  16  17
ENDBRANCH  15  16
ENDBRANCH  14  15
ENDBRANCH  13  14
ENDBRANCH  12  13
ENDBRANCH  11  12
ENDBRANCH   1  11
TORSDOF 14
ENDMDL
MODEL 5
REMARK VINA RESULT:    -2.317      0.985      2.349
REMARK INTER + INTRA:          -5.364
REMARK INTER:                  -4.257
REMARK INTRA:                  -1.107
REMARK UNBOUND:                -1.152
REMARK SMILES CCCCCCCCCCCCCCCC(=O)[O-]
REMARK SMILES IDX 9 1 10 2 11 3 12 4 13 5 14 6 15 7 16 8 17 9 18 10 8 11 7 12
REMARK SMILES IDX 6 13 5 14 4 15 3 16 2 17 1 18
REMARK H PARENT
REMARK Flexibility Score: inf
ROOT
ATOM      1  C   UNL     1      -9.056  16.926 -12.972  1.00  0.00     0.000 C 
ENDROOT
BRANCH   1   2
ATOM      2  C   UNL     1      -8.988  15.775 -11.954  1.00  0.00     0.000 C 
BRANCH   2   3
ATOM      3  C   UNL     1      -7.628  15.061 -11.956  1.00  0.00     0.000 C 
BRANCH   3   4
ATOM      4  C   UNL     1      -7.733  13.682 -12.624  1.00  0.00     0.000 C 
BRANCH   4   5
ATOM      5  C   UNL     1      -6.823  13.565 -13.867  1.00  0.00     0.000 C 
BRANCH   5   6
ATOM      6  C   UNL     1      -7.403  12.663 -14.970  1.00  0.00     0.006 C 
BRANCH   6   7
ATOM      7  C   UNL     1      -8.864  12.276 -14.718  1.00  0.00     0.053 C 
BRANCH   7   8
ATOM      8  C   UNL     1      -9.772  13.055 -15.616  1.00  0.00     0.041 C 
ATOM      9  O   UNL     1      -9.385  14.140 -16.122  1.00  0.00    -0.550 OA
ATOM     10  O   UNL     1     -11.028  12.554 -15.938  1.00  0.00    -0.550 OA
ENDBRANCH   7   8
ENDBRANCH   6   7
ENDBRANCH   5   6
ENDBRANCH   4   5
ENDBRANCH   3   4
ENDBRANCH   2   3
ENDBRANCH   1   2
BRANCH   1  11
ATOM     11  C   UNL     1      -9.277  18.294 -12.303  1.00  0.00     0.000 C 
BRANCH  11  12
ATOM     12  C   UNL     1      -8.675  19.451 -13.116  1.00  0.00    -0.000 C 
BRANCH  12  13
ATOM     13  C   UNL     1      -7.426  20.056 -12.452  1.00  0.00    -0.000 C 
BRANCH  13  14
ATOM     14  C   UNL     1      -6.389  20.552 -13.477  1.00  0.00    -0.000 C 
BRANCH  14  15
ATOM     15  C   UNL     1      -6.486  19.893 -14.868  1.00  0.00    -0.000 C 
BRANCH  15  16
ATOM     16  C   UNL     1      -5.971  18.441 -14.943  1.00  0.00    -0.000 C 
BRANCH  16  17
ATOM     17  C   UNL     1      -6.517  17.623 -16.125  1.00  0.00    -0.003 C 
ATOM     18  C   UNL     1      -6.930  16.205 -15.727  1.00  0.00     0.004 C 
ENDBRANCH  16  17
ENDBRANCH  15  16
ENDBRANCH  14  15
ENDBRANCH  13  14
ENDBRANCH  12  13
ENDBRANCH  11  12
ENDBRANCH   1  11
TORSDOF 14
ENDMDL
MODEL 6
REMARK VINA RESULT:    -2.128      1.931      3.481
REMARK INTER + INTRA:          -5.022
REMARK INTER:                  -5.173
REMARK INTRA:                   0.151
REMARK UNBOUND:                -1.152
REMARK SMILES CCCCCCCCCCCCCCCC(=O)[O-]
REMARK SMILES IDX 9 1 10 2 11 3 12 4 13 5 14 6 15 7 16 8 17 9 18 10 8 11 7 12
REMARK SMILES IDX 6 13 5 14 4 15 3 16 2 17 1 18
REMARK H PARENT
REMARK Flexibility Score: inf
ROOT
ATOM      1  C   UNL     1      -7.223  16.904 -15.134  1.00  0.00     0.000 C 
ENDROOT
BRANCH   1   2
ATOM      2  C   UNL     1      -6.341  15.992 -16.003  1.00  0.00     0.000 C 
BRANCH   2   3
ATOM      3  C   UNL     1      -5.893  14.721 -15.264  1.00  0.00     0.000 C 
BRANCH   3   4
ATOM      4  C   UNL     1      -6.133  13.472 -16.125  1.00  0.00     0.000 C 
BRANCH   4   5
ATOM      5  C   UNL     1      -7.608  13.015 -16.091  1.00  0.00     0.000 C 
BRANCH   5   6
ATOM      6  C   UNL     1      -8.420  13.639 -14.943  1.00  0.00     0.006 C 
BRANCH   6   7
ATOM      7  C   UNL     1      -8.366  12.810 -13.655  1.00  0.00     0.053 C 
BRANCH   7   8
ATOM      8  C   UNL     1      -7.323  13.351 -12.730  1.00  0.00     0.041 C 
ATOM      9  O   UNL     1      -7.550  14.388 -12.055  1.00  0.00    -0.550 OA
ATOM     10  O   UNL     1      -6.117  12.677 -12.572  1.00  0.00    -0.550 OA
ENDBRANCH   7   8
ENDBRANCH   6   7
ENDBRANCH   5   6
ENDBRANCH   4   5
ENDBRANCH   3   4
ENDBRANCH   2   3
ENDBRANCH   1   2
BRANCH   1  11
ATOM     11  C   UNL     1      -8.318  17.616 -15.947  1.00  0.00     0.000 C 
BRANCH  11  12
ATOM     12  C   UNL     1      -8.110  19.137 -16.008  1.00  0.00    -0.000 C 
BRANCH  12  13
ATOM     13  C   UNL     1      -6.817  19.588 -15.307  1.00  0.00    -0.000 C 
BRANCH  13  14
ATOM     14  C   UNL     1      -7.069  20.645 -14.216  1.00  0.00    -0.000 C 
BRANCH  14  15
ATOM     15  C   UNL     1      -7.794  20.120 -12.960  1.00  0.00    -0.000 C 
BRANCH  15  16
ATOM     16  C   UNL     1      -8.884  19.062 -13.226  1.00  0.00    -0.000 C 
BRANCH  16  17
ATOM     17  C   UNL     1      -8.860  17.856 -12.272  1.00  0.00    -0.003 C 
ATOM     18  C   UNL     1      -9.827  16.748 -12.689  1.00  0.00     0.004 C 
ENDBRANCH  16  17
ENDBRANCH  15  16
ENDBRANCH  14  15
ENDBRANCH  13  14
ENDBRANCH  12  13
ENDBRANCH  11  12
ENDBRANCH   1  11
TORSDOF 14
ENDMDL
MODEL 7
REMARK VINA RESULT:    -1.866      2.056      6.125
REMARK INTER + INTRA:          -4.545
REMARK INTER:                  -4.551
REMARK INTRA:                   0.006
REMARK UNBOUND:                -1.152
REMARK SMILES CCCCCCCCCCCCCCCC(=O)[O-]
REMARK SMILES IDX 9 1 10 2 11 3 12 4 13 5 14 6 15 7 16 8 17 9 18 10 8 11 7 12
REMARK SMILES IDX 6 13 5 14 4 15 3 16 2 17 1 18
REMARK H PARENT
REMARK Flexibility Score: inf
ROOT
ATOM      1  C   UNL     1      -9.062  16.360 -12.362  1.00  0.00     0.000 C 
ENDROOT
BRANCH   1   2
ATOM      2  C   UNL     1      -8.980  17.651 -13.193  1.00  0.00     0.000 C 
BRANCH   2   3
ATOM      3  C   UNL     1      -8.645  18.885 -12.340  1.00  0.00     0.000 C 
BRANCH   3   4
ATOM      4  C   UNL     1      -7.442  19.643 -12.919  1.00  0.00     0.000 C 
BRANCH   4   5
ATOM      5  C   UNL     1      -7.853  20.981 -13.572  1.00  0.00     0.000 C 
BRANCH   5   6
ATOM      6  C   UNL     1      -8.303  20.838 -15.036  1.00  0.00     0.006 C 
BRANCH   6   7
ATOM      7  C   UNL     1      -7.188  20.331 -15.957  1.00  0.00     0.053 C 
BRANCH   7   8
ATOM      8  C   UNL     1      -7.257  18.843 -16.091  1.00  0.00     0.041 C 
ATOM      9  O   UNL     1      -6.202  18.159 -16.123  1.00  0.00    -0.550 OA
ATOM     10  O   UNL     1      -8.492  18.205 -16.125  1.00  0.00    -0.550 OA
ENDBRANCH   7   8
ENDBRANCH   6   7
ENDBRANCH   5   6
ENDBRANCH   4   5
ENDBRANCH   3   4
ENDBRANCH   2   3
ENDBRANCH   1   2
BRANCH   1  11
ATOM     11  C   UNL     1      -8.143  15.250 -12.902  1.00  0.00     0.000 C 
BRANCH  11  12
ATOM     12  C   UNL     1      -7.900  15.373 -14.415  1.00  0.00    -0.000 C 
BRANCH  12  13
ATOM     13  C   UNL     1      -6.439  15.089 -14.805  1.00  0.00    -0.000 C 
BRANCH  13  14
ATOM     14  C   UNL     1      -6.319  14.284 -16.113  1.00  0.00    -0.000 C 
BRANCH  14  15
ATOM     15  C   UNL     1      -6.379  12.753 -15.939  1.00  0.00    -0.000 C 
BRANCH  15  16
ATOM     16  C   UNL     1      -7.759  12.191 -15.542  1.00  0.00    -0.000 C 
BRANCH  16  17
ATOM     17  C   UNL     1      -8.952  13.089 -15.911  1.00  0.00    -0.003 C 
ATOM     18  C   UNL     1     -10.257  12.308 -16.071  1.00  0.00     0.004 C 
ENDBRANCH  16  17
ENDBRANCH  15  16
ENDBRANCH  14  15
ENDBRANCH  13  14
ENDBRANCH  12  13
ENDBRANCH  11  12
ENDBRANCH   1  11
TORSDOF 14
ENDMDL
MODEL 8
REMARK VINA RESULT:    -1.605      1.707      3.164
REMARK INTER + INTRA:          -4.069
REMARK INTER:                  -4.268
REMARK INTRA:                   0.198
REMARK UNBOUND:                -1.152
REMARK SMILES CCCCCCCCCCCCCCCC(=O)[O-]
REMARK SMILES IDX 9 1 10 2 11 3 12 4 13 5 14 6 15 7 16 8 17 9 18 10 8 11 7 12
REMARK SMILES IDX 6 13 5 14 4 15 3 16 2 17 1 18
REMARK H PARENT
REMARK Flexibility Score: inf
ROOT
ATOM      1  C   UNL     1      -6.490  15.788 -14.711  1.00  0.00     0.000 C 
ENDROOT
BRANCH   1   2
ATOM      2  C   UNL     1      -6.319  15.208 -16.124  1.00  0.00     0.000 C 
BRANCH   2   3
ATOM      3  C   UNL     1      -6.170  13.679 -16.123  1.00  0.00     0.000 C 
BRANCH   3   4
ATOM      4  C   UNL     1      -7.531  12.995 -15.930  1.00  0.00     0.000 C 
BRANCH   4   5
ATOM      5  C   UNL     1      -7.555  12.084 -14.683  1.00  0.00     0.000 C 
BRANCH   5   6
ATOM      6  C   UNL     1      -8.301  12.699 -13.486  1.00  0.00     0.006 C 
BRANCH   6   7
ATOM      7  C   UNL     1      -7.466  13.742 -12.735  1.00  0.00     0.053 C 
BRANCH   7   8
ATOM      8  C   UNL     1      -8.285  14.960 -12.451  1.00  0.00     0.041 C 
ATOM      9  O   UNL     1      -7.846  15.855 -11.683  1.00  0.00    -0.550 OA
ATOM     10  O   UNL     1      -9.513  15.134 -13.080  1.00  0.00    -0.550 OA
ENDBRANCH   7   8
ENDBRANCH   6   7
ENDBRANCH   5   6
ENDBRANCH   4   5
ENDBRANCH   3   4
ENDBRANCH   2   3
ENDBRANCH   1   2
BRANCH   1  11
ATOM     11  C   UNL     1      -5.928  17.216 -14.586  1.00  0.00     0.000 C 
BRANCH  11  12
ATOM     12  C   UNL     1      -5.883  17.950 -15.935  1.00  0.00    -0.000 C 
BRANCH  12  13
ATOM     13  C   UNL     1      -7.056  18.928 -16.117  1.00  0.00    -0.000 C 
BRANCH  13  14
ATOM     14  C   UNL     1      -6.762  20.324 -15.537  1.00  0.00    -0.000 C 
BRANCH  14  15
ATOM     15  C   UNL     1      -6.070  20.320 -14.159  1.00  0.00    -0.000 C 
BRANCH  15  16
ATOM     16  C   UNL     1      -7.000  20.574 -12.956  1.00  0.00    -0.000 C 
BRANCH  16  17
ATOM     17  C   UNL     1      -8.479  20.227 -13.198  1.00  0.00    -0.003 C 
ATOM     18  C   UNL     1      -8.736  18.721 -13.250  1.00  0.00     0.004 C 
ENDBRANCH  16  17
ENDBRANCH  15  16
ENDBRANCH  14  15
ENDBRANCH  13  14
ENDBRANCH  12  13
ENDBRANCH  11  12
ENDBRANCH   1  11
TORSDOF 14
ENDMDL
MODEL 9
REMARK VINA RESULT:    -1.401      2.973      6.486
REMARK INTER + INTRA:          -3.699
REMARK INTER:                  -4.135
REMARK INTRA:                   0.436
REMARK UNBOUND:                -1.152
REMARK SMILES CCCCCCCCCCCCCCCC(=O)[O-]
REMARK SMILES IDX 9 1 10 2 11 3 12 4 13 5 14 6 15 7 16 8 17 9 18 10 8 11 7 12
REMARK SMILES IDX 6 13 5 14 4 15 3 16 2 17 1 18
REMARK H PARENT
REMARK Flexibility Score: inf
ROOT
ATOM      1  C   UNL     1      -9.321  15.608 -12.750  1.00  0.00     0.000 C 
ENDROOT
BRANCH   1   2
ATOM      2  C   UNL     1      -8.778  16.998 -12.382  1.00  0.00     0.000 C 
BRANCH   2   3
ATOM      3  C   UNL     1      -8.782  17.971 -13.572  1.00  0.00     0.000 C 
BRANCH   3   4
ATOM      4  C   UNL     1      -7.383  18.082 -14.195  1.00  0.00     0.000 C 
BRANCH   4   5
ATOM      5  C   UNL     1      -7.398  18.858 -15.531  1.00  0.00     0.000 C 
BRANCH   5   6
ATOM      6  C   UNL     1      -6.873  20.298 -15.411  1.00  0.00     0.006 C 
BRANCH   6   7
ATOM      7  C   UNL     1      -5.880  20.478 -14.257  1.00  0.00     0.053 C 
BRANCH   7   8
ATOM      8  C   UNL     1      -6.595  20.912 -13.017  1.00  0.00     0.041 C 
ATOM      9  O   UNL     1      -7.841  21.089 -13.032  1.00  0.00    -0.550 OA
ATOM     10  O   UNL     1      -5.892  21.069 -11.828  1.00  0.00    -0.550 OA
ENDBRANCH   7   8
ENDBRANCH   6   7
ENDBRANCH   5   6
ENDBRANCH   4   5
ENDBRANCH   3   4
ENDBRANCH   2   3
ENDBRANCH   1   2
BRANCH   1  11
ATOM     11  C   UNL     1      -9.014  15.220 -14.208  1.00  0.00     0.000 C 
BRANCH  11  12
ATOM     12  C   UNL     1      -9.688  13.902 -14.621  1.00  0.00    -0.000 C 
BRANCH  12  13
ATOM     13  C   UNL     1      -8.715  12.927 -15.305  1.00  0.00    -0.000 C 
BRANCH  13  14
ATOM     14  C   UNL     1      -7.626  13.649 -16.121  1.00  0.00    -0.000 C 
BRANCH  14  15
ATOM     15  C   UNL     1      -6.217  13.032 -16.010  1.00  0.00    -0.000 C 
BRANCH  15  16
ATOM     16  C   UNL     1      -6.025  12.042 -14.843  1.00  0.00    -0.000 C 
BRANCH  16  17
ATOM     17  C   UNL     1      -5.875  12.696 -13.459  1.00  0.00    -0.003 C 
ATOM     18  C   UNL     1      -7.198  12.789 -12.699  1.00  0.00     0.004 C 
ENDBRANCH  16  17
ENDBRANCH  15  16
ENDBRANCH  14  15
ENDBRANCH  13  14
ENDBRANCH  12  13
ENDBRANCH  11  12
ENDBRANCH   1  11
TORSDOF 14
ENDMDL
