MODEL 1
REMARK VINA RESULT:    -8.052      0.000      0.000
REMARK INTER + INTRA:          -9.756
REMARK INTER:                  -9.465
REMARK INTRA:                  -0.291
REMARK UNBOUND:                -0.291
REMARK SMILES O=c1cc(-c2ccc(O)c(O)c2)oc2cc(O)cc(O)c12
REMARK SMILES IDX 4 1 3 2 2 3 1 4 21 5 19 6 18 7 16 8 15 9 14 10 13 11 5 12
REMARK SMILES IDX 6 13 7 14 8 15 12 16 10 17 9 18 11 20 20 22 17 24
REMARK H PARENT 9 19 11 21 20 23 17 25
REMARK Flexibility Score: inf
ROOT
ATOM      1  C   UNL     1      24.630  11.963  35.089  1.00  0.00     0.138 A 
ATOM      2  C   UNL     1      25.159  12.991  34.297  1.00  0.00     0.100 A 
ATOM      3  C   UNL     1      26.304  13.668  34.719  1.00  0.00     0.197 A 
ATOM      4  O   UNL     1      26.791  14.543  33.957  1.00  0.00    -0.289 OA
ATOM      5  C   UNL     1      26.903  13.333  35.957  1.00  0.00     0.107 A 
ATOM      6  C   UNL     1      28.047  13.983  36.508  1.00  0.00     0.134 A 
ATOM      7  C   UNL     1      28.622  13.489  37.686  1.00  0.00     0.093 A 
ATOM      8  C   UNL     1      28.056  12.406  38.363  1.00  0.00     0.123 A 
ATOM      9  C   UNL     1      26.906  11.799  37.862  1.00  0.00     0.094 A 
ATOM     10  C   UNL     1      26.331  12.247  36.671  1.00  0.00     0.146 A 
ATOM     11  O   UNL     1      25.243  11.631  36.221  1.00  0.00    -0.456 OA
ENDROOT
BRANCH   1  12
ATOM     12  C   UNL     1      23.414  11.211  34.687  1.00  0.00     0.021 A 
ATOM     13  C   UNL     1      22.645  10.565  35.671  1.00  0.00     0.016 A 
ATOM     14  C   UNL     1      21.492   9.858  35.321  1.00  0.00     0.051 A 
ATOM     15  C   UNL     1      21.082   9.790  33.987  1.00  0.00     0.157 A 
ATOM     16  C   UNL     1      22.989  11.151  33.346  1.00  0.00     0.062 A 
ATOM     17  C   UNL     1      21.831  10.442  32.994  1.00  0.00     0.158 A 
BRANCH  15  18
ATOM     18  O   UNL     1      19.927   9.075  33.668  1.00  0.00    -0.504 OA
ATOM     19  H   UNL     1      19.172   9.485  33.132  1.00  0.00     0.293 HD
ENDBRANCH  15  18
BRANCH  17  20
ATOM     20  O   UNL     1      21.421  10.388  31.663  1.00  0.00    -0.504 OA
ATOM     21  H   UNL     1      20.558  10.820  31.354  1.00  0.00     0.293 HD
ENDBRANCH  17  20
ENDBRANCH   1  12
BRANCH   6  22
ATOM     22  O   UNL     1      28.640  15.124  35.955  1.00  0.00    -0.507 OA
ATOM     23  H   UNL     1      28.444  16.070  36.241  1.00  0.00     0.293 HD
ENDBRANCH   6  22
BRANCH   8  24
ATOM     24  O   UNL     1      28.625  11.931  39.543  1.00  0.00    -0.508 OA
ATOM     25  H   UNL     1      29.480  11.387  39.538  1.00  0.00     0.293 HD
ENDBRANCH   8  24
TORSDOF 5
ENDMDL
MODEL 2
REMARK VINA RESULT:    -7.775     13.781     14.717
REMARK INTER + INTRA:          -9.429
REMARK INTER:                  -9.132
REMARK INTRA:                  -0.297
REMARK UNBOUND:                -0.291
REMARK SMILES O=c1cc(-c2ccc(O)c(O)c2)oc2cc(O)cc(O)c12
REMARK SMILES IDX 4 1 3 2 2 3 1 4 21 5 19 6 18 7 16 8 15 9 14 10 13 11 5 12
REMARK SMILES IDX 6 13 7 14 8 15 12 16 10 17 9 18 11 20 20 22 17 24
REMARK H PARENT 9 19 11 21 20 23 17 25
REMARK Flexibility Score: inf
ROOT
ATOM      1  C   UNL     1      18.083  22.435  39.650  1.00  0.00     0.138 A 
ATOM      2  C   UNL     1      17.820  23.545  38.836  1.00  0.00     0.100 A 
ATOM      3  C   UNL     1      16.692  24.329  39.083  1.00  0.00     0.197 A 
ATOM      4  O   UNL     1      16.515  25.355  38.376  1.00  0.00    -0.289 OA
ATOM      5  C   UNL     1      15.807  23.978  40.131  1.00  0.00     0.107 A 
ATOM      6  C   UNL     1      14.606  24.680  40.449  1.00  0.00     0.134 A 
ATOM      7  C   UNL     1      13.870  24.310  41.582  1.00  0.00     0.093 A 
ATOM      8  C   UNL     1      14.261  23.227  42.373  1.00  0.00     0.123 A 
ATOM      9  C   UNL     1      15.403  22.503  42.040  1.00  0.00     0.094 A 
ATOM     10  C   UNL     1      16.177  22.868  40.936  1.00  0.00     0.146 A 
ATOM     11  O   UNL     1      17.267  22.159  40.662  1.00  0.00    -0.456 OA
ENDROOT
BRANCH   1  12
ATOM     12  C   UNL     1      19.269  21.567  39.431  1.00  0.00     0.021 A 
ATOM     13  C   UNL     1      19.447  20.426  40.232  1.00  0.00     0.016 A 
ATOM     14  C   UNL     1      20.548  19.588  40.041  1.00  0.00     0.051 A 
ATOM     15  C   UNL     1      21.486  19.869  39.043  1.00  0.00     0.157 A 
ATOM     16  C   UNL     1      20.208  21.838  38.418  1.00  0.00     0.062 A 
ATOM     17  C   UNL     1      21.314  20.997  38.224  1.00  0.00     0.158 A 
BRANCH  15  18
ATOM     18  O   UNL     1      22.576  19.015  38.878  1.00  0.00    -0.504 OA
ATOM     19  H   UNL     1      23.080  18.949  38.001  1.00  0.00     0.293 HD
ENDBRANCH  15  18
BRANCH  17  20
ATOM     20  O   UNL     1      22.239  21.276  37.220  1.00  0.00    -0.504 OA
ATOM     21  H   UNL     1      23.055  20.693  37.071  1.00  0.00     0.293 HD
ENDBRANCH  17  20
ENDBRANCH   1  12
BRANCH   6  22
ATOM     22  O   UNL     1      14.081  25.721  39.677  1.00  0.00    -0.507 OA
ATOM     23  H   UNL     1      14.442  26.013  38.781  1.00  0.00     0.293 HD
ENDBRANCH   6  22
BRANCH   8  24
ATOM     24  O   UNL     1      13.514  22.857  43.490  1.00  0.00    -0.508 OA
ATOM     25  H   UNL     1      12.974  22.000  43.506  1.00  0.00     0.293 HD
ENDBRANCH   8  24
TORSDOF 5
ENDMDL
MODEL 3
REMARK VINA RESULT:    -7.774     16.000     16.710
REMARK INTER + INTRA:          -9.428
REMARK INTER:                  -9.130
REMARK INTRA:                  -0.298
REMARK UNBOUND:                -0.291
REMARK SMILES O=c1cc(-c2ccc(O)c(O)c2)oc2cc(O)cc(O)c12
REMARK SMILES IDX 4 1 3 2 2 3 1 4 21 5 19 6 18 7 16 8 15 9 14 10 13 11 5 12
REMARK SMILES IDX 6 13 7 14 8 15 12 16 10 17 9 18 11 20 20 22 17 24
REMARK H PARENT 9 19 11 21 20 23 17 25
REMARK Flexibility Score: inf
ROOT
ATOM      1  C   UNL     1      15.550  23.171  40.878  1.00  0.00     0.138 A 
ATOM      2  C   UNL     1      14.913  24.353  40.475  1.00  0.00     0.100 A 
ATOM      3  C   UNL     1      13.917  24.908  41.280  1.00  0.00     0.197 A 
ATOM      4  O   UNL     1      13.407  26.002  40.924  1.00  0.00    -0.289 OA
ATOM      5  C   UNL     1      13.537  24.257  42.478  1.00  0.00     0.107 A 
ATOM      6  C   UNL     1      12.506  24.709  43.356  1.00  0.00     0.134 A 
ATOM      7  C   UNL     1      12.297  24.047  44.573  1.00  0.00     0.093 A 
ATOM      8  C   UNL     1      13.041  22.915  44.914  1.00  0.00     0.123 A 
ATOM      9  C   UNL     1      14.012  22.434  44.038  1.00  0.00     0.094 A 
ATOM     10  C   UNL     1      14.268  23.093  42.833  1.00  0.00     0.146 A 
ATOM     11  O   UNL     1      15.212  22.610  42.034  1.00  0.00    -0.456 OA
ENDROOT
BRANCH   1  12
ATOM     12  C   UNL     1      16.615  22.538  40.059  1.00  0.00     0.021 A 
ATOM     13  C   UNL     1      17.552  23.350  39.396  1.00  0.00     0.016 A 
ATOM     14  C   UNL     1      18.568  22.780  38.627  1.00  0.00     0.051 A 
ATOM     15  C   UNL     1      18.673  21.390  38.512  1.00  0.00     0.157 A 
ATOM     16  C   UNL     1      16.734  21.139  39.951  1.00  0.00     0.062 A 
ATOM     17  C   UNL     1      17.755  20.564  39.180  1.00  0.00     0.158 A 
BRANCH  15  18
ATOM     18  O   UNL     1      19.698  20.850  37.734  1.00  0.00    -0.504 OA
ATOM     19  H   UNL     1      19.637  19.922  37.333  1.00  0.00     0.293 HD
ENDBRANCH  15  18
BRANCH  17  20
ATOM     20  O   UNL     1      17.861  19.179  39.079  1.00  0.00    -0.504 OA
ATOM     21  H   UNL     1      17.201  18.633  38.537  1.00  0.00     0.293 HD
ENDBRANCH  17  20
ENDBRANCH   1  12
BRANCH   6  22
ATOM     22  O   UNL     1      11.651  25.779  43.072  1.00  0.00    -0.507 OA
ATOM     23  H   UNL     1      11.217  26.369  43.765  1.00  0.00     0.293 HD
ENDBRANCH   6  22
BRANCH   8  24
ATOM     24  O   UNL     1      12.815  22.254  46.119  1.00  0.00    -0.508 OA
ATOM     25  H   UNL     1      11.903  22.254  46.562  1.00  0.00     0.293 HD
ENDBRANCH   8  24
TORSDOF 5
ENDMDL
MODEL 4
REMARK VINA RESULT:    -7.625     15.953     16.453
REMARK INTER + INTRA:          -9.253
REMARK INTER:                  -8.938
REMARK INTRA:                  -0.316
REMARK UNBOUND:                -0.291
REMARK SMILES O=c1cc(-c2ccc(O)c(O)c2)oc2cc(O)cc(O)c12
REMARK SMILES IDX 4 1 3 2 2 3 1 4 21 5 19 6 18 7 16 8 15 9 14 10 13 11 5 12
REMARK SMILES IDX 6 13 7 14 8 15 12 16 10 17 9 18 11 20 20 22 17 24
REMARK H PARENT 9 19 11 21 20 23 17 25
REMARK Flexibility Score: inf
ROOT
ATOM      1  C   UNL     1      14.910  23.484  41.553  1.00  0.00     0.138 A 
ATOM      2  C   UNL     1      14.943  24.458  40.544  1.00  0.00     0.100 A 
ATOM      3  C   UNL     1      15.933  24.400  39.563  1.00  0.00     0.197 A 
ATOM      4  O   UNL     1      15.900  25.250  38.635  1.00  0.00    -0.289 OA
ATOM      5  C   UNL     1      16.914  23.381  39.611  1.00  0.00     0.107 A 
ATOM      6  C   UNL     1      17.995  23.248  38.688  1.00  0.00     0.134 A 
ATOM      7  C   UNL     1      18.836  22.131  38.767  1.00  0.00     0.093 A 
ATOM      8  C   UNL     1      18.672  21.176  39.773  1.00  0.00     0.123 A 
ATOM      9  C   UNL     1      17.654  21.325  40.711  1.00  0.00     0.094 A 
ATOM     10  C   UNL     1      16.776  22.410  40.638  1.00  0.00     0.146 A 
ATOM     11  O   UNL     1      15.810  22.506  41.544  1.00  0.00    -0.456 OA
ENDROOT
BRANCH   1  12
ATOM     12  C   UNL     1      13.879  23.499  42.622  1.00  0.00     0.021 A 
ATOM     13  C   UNL     1      12.757  24.335  42.488  1.00  0.00     0.016 A 
ATOM     14  C   UNL     1      11.769  24.361  43.474  1.00  0.00     0.051 A 
ATOM     15  C   UNL     1      11.878  23.549  44.607  1.00  0.00     0.157 A 
ATOM     16  C   UNL     1      13.977  22.672  43.757  1.00  0.00     0.062 A 
ATOM     17  C   UNL     1      12.985  22.696  44.748  1.00  0.00     0.158 A 
BRANCH  15  18
ATOM     18  O   UNL     1      10.876  23.598  45.576  1.00  0.00    -0.504 OA
ATOM     19  H   UNL     1      10.003  23.095  45.473  1.00  0.00     0.293 HD
ENDBRANCH  15  18
BRANCH  17  20
ATOM     20  O   UNL     1      13.094  21.875  45.869  1.00  0.00    -0.504 OA
ATOM     21  H   UNL     1      12.551  22.045  46.707  1.00  0.00     0.293 HD
ENDBRANCH  17  20
ENDBRANCH   1  12
BRANCH   6  22
ATOM     22  O   UNL     1      18.297  24.190  37.699  1.00  0.00    -0.507 OA
ATOM     23  H   UNL     1      17.644  24.535  37.013  1.00  0.00     0.293 HD
ENDBRANCH   6  22
BRANCH   8  24
ATOM     24  O   UNL     1      19.524  20.075  39.852  1.00  0.00    -0.508 OA
ATOM     25  H   UNL     1      19.203  19.139  39.632  1.00  0.00     0.293 HD
ENDBRANCH   8  24
TORSDOF 5
ENDMDL
MODEL 5
REMARK VINA RESULT:    -7.601     14.304     14.875
REMARK INTER + INTRA:          -9.225
REMARK INTER:                  -8.955
REMARK INTRA:                  -0.270
REMARK UNBOUND:                -0.291
REMARK SMILES O=c1cc(-c2ccc(O)c(O)c2)oc2cc(O)cc(O)c12
REMARK SMILES IDX 4 1 3 2 2 3 1 4 21 5 19 6 18 7 16 8 15 9 14 10 13 11 5 12
REMARK SMILES IDX 6 13 7 14 8 15 12 16 10 17 9 18 11 20 20 22 17 24
REMARK H PARENT 9 19 11 21 20 23 17 25
REMARK Flexibility Score: inf
ROOT
ATOM      1  C   UNL     1      16.607  22.232  41.059  1.00  0.00     0.138 A 
ATOM      2  C   UNL     1      16.668  20.832  41.035  1.00  0.00     0.100 A 
ATOM      3  C   UNL     1      17.809  20.200  40.540  1.00  0.00     0.197 A 
ATOM      4  O   UNL     1      17.861  18.944  40.589  1.00  0.00    -0.289 OA
ATOM      5  C   UNL     1      18.881  20.976  40.037  1.00  0.00     0.107 A 
ATOM      6  C   UNL     1      20.076  20.440  39.470  1.00  0.00     0.134 A 
ATOM      7  C   UNL     1      21.118  21.305  39.112  1.00  0.00     0.093 A 
ATOM      8  C   UNL     1      20.983  22.689  39.244  1.00  0.00     0.123 A 
ATOM      9  C   UNL     1      19.799  23.225  39.746  1.00  0.00     0.094 A 
ATOM     10  C   UNL     1      18.755  22.386  40.145  1.00  0.00     0.146 A 
ATOM     11  O   UNL     1      17.649  22.938  40.631  1.00  0.00    -0.456 OA
ENDROOT
BRANCH   1  12
ATOM     12  C   UNL     1      15.416  22.955  41.574  1.00  0.00     0.021 A 
ATOM     13  C   UNL     1      14.761  23.885  40.748  1.00  0.00     0.016 A 
ATOM     14  C   UNL     1      13.634  24.572  41.204  1.00  0.00     0.051 A 
ATOM     15  C   UNL     1      13.137  24.339  42.490  1.00  0.00     0.157 A 
ATOM     16  C   UNL     1      14.902  22.713  42.862  1.00  0.00     0.062 A 
ATOM     17  C   UNL     1      13.770  23.402  43.323  1.00  0.00     0.158 A 
BRANCH  15  18
ATOM     18  O   UNL     1      12.011  25.042  42.919  1.00  0.00    -0.504 OA
ATOM     19  H   UNL     1      12.084  25.918  43.422  1.00  0.00     0.293 HD
ENDBRANCH  15  18
BRANCH  17  20
ATOM     20  O   UNL     1      13.272  23.156  44.601  1.00  0.00    -0.504 OA
ATOM     21  H   UNL     1      12.277  23.163  44.794  1.00  0.00     0.293 HD
ENDBRANCH  17  20
ENDBRANCH   1  12
BRANCH   6  22
ATOM     22  O   UNL     1      20.279  19.080  39.217  1.00  0.00    -0.507 OA
ATOM     23  H   UNL     1      20.958  18.502  39.687  1.00  0.00     0.293 HD
ENDBRANCH   6  22
BRANCH   8  24
ATOM     24  O   UNL     1      22.019  23.543  38.871  1.00  0.00    -0.508 OA
ATOM     25  H   UNL     1      22.743  23.248  38.226  1.00  0.00     0.293 HD
ENDBRANCH   8  24
TORSDOF 5
ENDMDL
MODEL 6
REMARK VINA RESULT:    -7.571      6.579      9.374
REMARK INTER + INTRA:          -9.190
REMARK INTER:                  -8.896
REMARK INTRA:                  -0.294
REMARK UNBOUND:                -0.291
REMARK SMILES O=c1cc(-c2ccc(O)c(O)c2)oc2cc(O)cc(O)c12
REMARK SMILES IDX 4 1 3 2 2 3 1 4 21 5 19 6 18 7 16 8 15 9 14 10 13 11 5 12
REMARK SMILES IDX 6 13 7 14 8 15 12 16 10 17 9 18 11 20 20 22 17 24
REMARK H PARENT 9 19 11 21 20 23 17 25
REMARK Flexibility Score: inf
ROOT
ATOM      1  C   UNL     1      30.670  11.255  40.656  1.00  0.00     0.138 A 
ATOM      2  C   UNL     1      30.605  12.654  40.605  1.00  0.00     0.100 A 
ATOM      3  C   UNL     1      30.604  13.299  39.368  1.00  0.00     0.197 A 
ATOM      4  O   UNL     1      30.481  14.552  39.352  1.00  0.00    -0.289 OA
ATOM      5  C   UNL     1      30.700  12.539  38.178  1.00  0.00     0.107 A 
ATOM      6  C   UNL     1      30.749  13.092  36.863  1.00  0.00     0.134 A 
ATOM      7  C   UNL     1      30.728  12.237  35.754  1.00  0.00     0.093 A 
ATOM      8  C   UNL     1      30.720  10.849  35.914  1.00  0.00     0.123 A 
ATOM      9  C   UNL     1      30.727  10.300  37.195  1.00  0.00     0.094 A 
ATOM     10  C   UNL     1      30.713  11.127  38.320  1.00  0.00     0.146 A 
ATOM     11  O   UNL     1      30.705  10.562  39.523  1.00  0.00    -0.456 OA
ENDROOT
BRANCH   1  12
ATOM     12  C   UNL     1      30.676  10.517  41.946  1.00  0.00     0.021 A 
ATOM     13  C   UNL     1      31.097   9.177  41.973  1.00  0.00     0.016 A 
ATOM     14  C   UNL     1      31.120   8.463  43.173  1.00  0.00     0.051 A 
ATOM     15  C   UNL     1      30.731   9.076  44.368  1.00  0.00     0.157 A 
ATOM     16  C   UNL     1      30.299  11.135  43.154  1.00  0.00     0.062 A 
ATOM     17  C   UNL     1      30.322  10.420  44.360  1.00  0.00     0.158 A 
BRANCH  15  18
ATOM     18  O   UNL     1      30.762   8.337  45.551  1.00  0.00    -0.504 OA
ATOM     19  H   UNL     1      31.235   7.444  45.614  1.00  0.00     0.293 HD
ENDBRANCH  15  18
BRANCH  17  20
ATOM     20  O   UNL     1      29.944  11.040  45.550  1.00  0.00    -0.504 OA
ATOM     21  H   UNL     1      28.970  11.165  45.798  1.00  0.00     0.293 HD
ENDBRANCH  17  20
ENDBRANCH   1  12
BRANCH   6  22
ATOM     22  O   UNL     1      30.844  14.461  36.593  1.00  0.00    -0.507 OA
ATOM     23  H   UNL     1      30.785  15.190  37.287  1.00  0.00     0.293 HD
ENDBRANCH   6  22
BRANCH   8  24
ATOM     24  O   UNL     1      30.714  10.006  34.805  1.00  0.00    -0.508 OA
ATOM     25  H   UNL     1      29.946  10.005  34.144  1.00  0.00     0.293 HD
ENDBRANCH   8  24
TORSDOF 5
ENDMDL
MODEL 7
REMARK VINA RESULT:    -7.565      3.581      8.220
REMARK INTER + INTRA:          -9.182
REMARK INTER:                  -8.915
REMARK INTRA:                  -0.267
REMARK UNBOUND:                -0.291
REMARK SMILES O=c1cc(-c2ccc(O)c(O)c2)oc2cc(O)cc(O)c12
REMARK SMILES IDX 4 1 3 2 2 3 1 4 21 5 19 6 18 7 16 8 15 9 14 10 13 11 5 12
REMARK SMILES IDX 6 13 7 14 8 15 12 16 10 17 9 18 11 20 20 22 17 24
REMARK H PARENT 9 19 11 21 20 23 17 25
REMARK Flexibility Score: inf
ROOT
ATOM      1  C   UNL     1      29.706  12.431  39.054  1.00  0.00     0.138 A 
ATOM      2  C   UNL     1      30.641  13.190  38.337  1.00  0.00     0.100 A 
ATOM      3  C   UNL     1      30.277  13.757  37.115  1.00  0.00     0.197 A 
ATOM      4  O   UNL     1      31.118  14.485  36.525  1.00  0.00    -0.289 OA
ATOM      5  C   UNL     1      28.980  13.536  36.595  1.00  0.00     0.107 A 
ATOM      6  C   UNL     1      28.513  14.030  35.340  1.00  0.00     0.134 A 
ATOM      7  C   UNL     1      27.171  13.846  34.983  1.00  0.00     0.093 A 
ATOM      8  C   UNL     1      26.297  13.133  35.808  1.00  0.00     0.123 A 
ATOM      9  C   UNL     1      26.758  12.600  37.009  1.00  0.00     0.094 A 
ATOM     10  C   UNL     1      28.082  12.797  37.410  1.00  0.00     0.146 A 
ATOM     11  O   UNL     1      28.477  12.284  38.570  1.00  0.00    -0.456 OA
ENDROOT
BRANCH   1  12
ATOM     12  C   UNL     1      30.040  11.805  40.359  1.00  0.00     0.021 A 
ATOM     13  C   UNL     1      30.782  10.611  40.382  1.00  0.00     0.016 A 
ATOM     14  C   UNL     1      31.117  10.005  41.595  1.00  0.00     0.051 A 
ATOM     15  C   UNL     1      30.725  10.584  42.806  1.00  0.00     0.157 A 
ATOM     16  C   UNL     1      29.661  12.391  41.581  1.00  0.00     0.062 A 
ATOM     17  C   UNL     1      29.997  11.785  42.801  1.00  0.00     0.158 A 
BRANCH  15  18
ATOM     18  O   UNL     1      31.073   9.955  44.001  1.00  0.00    -0.504 OA
ATOM     19  H   UNL     1      31.171   8.949  44.071  1.00  0.00     0.293 HD
ENDBRANCH  15  18
BRANCH  17  20
ATOM     20  O   UNL     1      29.614  12.373  44.005  1.00  0.00    -0.504 OA
ATOM     21  H   UNL     1      28.660  12.323  44.341  1.00  0.00     0.293 HD
ENDBRANCH  17  20
ENDBRANCH   1  12
BRANCH   6  22
ATOM     22  O   UNL     1      29.324  14.682  34.406  1.00  0.00    -0.507 OA
ATOM     23  H   UNL     1      30.228  14.356  34.102  1.00  0.00     0.293 HD
ENDBRANCH   6  22
BRANCH   8  24
ATOM     24  O   UNL     1      24.967  12.942  35.437  1.00  0.00    -0.508 OA
ATOM     25  H   UNL     1      24.632  13.198  34.515  1.00  0.00     0.293 HD
ENDBRANCH   8  24
TORSDOF 5
ENDMDL
MODEL 8
REMARK VINA RESULT:    -7.541      3.561      7.091
REMARK INTER + INTRA:          -9.154
REMARK INTER:                  -8.856
REMARK INTRA:                  -0.298
REMARK UNBOUND:                -0.291
REMARK SMILES O=c1cc(-c2ccc(O)c(O)c2)oc2cc(O)cc(O)c12
REMARK SMILES IDX 4 1 3 2 2 3 1 4 21 5 19 6 18 7 16 8 15 9 14 10 13 11 5 12
REMARK SMILES IDX 6 13 7 14 8 15 12 16 10 17 9 18 11 20 20 22 17 24
REMARK H PARENT 9 19 11 21 20 23 17 25
REMARK Flexibility Score: inf
ROOT
ATOM      1  C   UNL     1      29.561  10.769  37.350  1.00  0.00     0.138 A 
ATOM      2  C   UNL     1      30.559  11.660  36.930  1.00  0.00     0.100 A 
ATOM      3  C   UNL     1      30.219  12.747  36.126  1.00  0.00     0.197 A 
ATOM      4  O   UNL     1      31.125  13.564  35.817  1.00  0.00    -0.289 OA
ATOM      5  C   UNL     1      28.876  12.926  35.715  1.00  0.00     0.107 A 
ATOM      6  C   UNL     1      28.420  13.975  34.862  1.00  0.00     0.134 A 
ATOM      7  C   UNL     1      27.048  14.119  34.618  1.00  0.00     0.093 A 
ATOM      8  C   UNL     1      26.124  13.215  35.147  1.00  0.00     0.123 A 
ATOM      9  C   UNL     1      26.565  12.155  35.936  1.00  0.00     0.094 A 
ATOM     10  C   UNL     1      27.923  12.006  36.227  1.00  0.00     0.146 A 
ATOM     11  O   UNL     1      28.299  10.990  36.996  1.00  0.00    -0.456 OA
ENDROOT
BRANCH   1  12
ATOM     12  C   UNL     1      29.868   9.595  38.206  1.00  0.00     0.021 A 
ATOM     13  C   UNL     1      30.813   9.721  39.240  1.00  0.00     0.016 A 
ATOM     14  C   UNL     1      31.114   8.635  40.064  1.00  0.00     0.051 A 
ATOM     15  C   UNL     1      30.473   7.406  39.877  1.00  0.00     0.157 A 
ATOM     16  C   UNL     1      29.215   8.360  38.031  1.00  0.00     0.062 A 
ATOM     17  C   UNL     1      29.516   7.268  38.859  1.00  0.00     0.158 A 
BRANCH  15  18
ATOM     18  O   UNL     1      30.797   6.339  40.715  1.00  0.00    -0.504 OA
ATOM     19  H   UNL     1      31.729   6.214  41.092  1.00  0.00     0.293 HD
ENDBRANCH  15  18
BRANCH  17  20
ATOM     20  O   UNL     1      28.865   6.049  38.675  1.00  0.00    -0.504 OA
ATOM     21  H   UNL     1      28.437   5.803  37.791  1.00  0.00     0.293 HD
ENDBRANCH  17  20
ENDBRANCH   1  12
BRANCH   6  22
ATOM     22  O   UNL     1      29.268  14.881  34.215  1.00  0.00    -0.507 OA
ATOM     23  H   UNL     1      29.126  15.237  33.283  1.00  0.00     0.293 HD
ENDBRANCH   6  22
BRANCH   8  24
ATOM     24  O   UNL     1      24.762  13.357  34.885  1.00  0.00    -0.508 OA
ATOM     25  H   UNL     1      24.142  13.817  35.541  1.00  0.00     0.293 HD
ENDBRANCH   8  24
TORSDOF 5
ENDMDL
MODEL 9
REMARK VINA RESULT:    -7.455      0.604      1.458
REMARK INTER + INTRA:          -9.054
REMARK INTER:                  -8.743
REMARK INTRA:                  -0.311
REMARK UNBOUND:                -0.291
REMARK SMILES O=c1cc(-c2ccc(O)c(O)c2)oc2cc(O)cc(O)c12
REMARK SMILES IDX 4 1 3 2 2 3 1 4 21 5 19 6 18 7 16 8 15 9 14 10 13 11 5 12
REMARK SMILES IDX 6 13 7 14 8 15 12 16 10 17 9 18 11 20 20 22 17 24
REMARK H PARENT 9 19 11 21 20 23 17 25
REMARK Flexibility Score: inf
ROOT
ATOM      1  C   UNL     1      24.617  11.911  34.919  1.00  0.00     0.138 A 
ATOM      2  C   UNL     1      25.136  12.995  34.197  1.00  0.00     0.100 A 
ATOM      3  C   UNL     1      26.227  13.702  34.703  1.00  0.00     0.197 A 
ATOM      4  O   UNL     1      26.710  14.629  34.003  1.00  0.00    -0.289 OA
ATOM      5  C   UNL     1      26.781  13.339  35.954  1.00  0.00     0.107 A 
ATOM      6  C   UNL     1      27.868  14.014  36.587  1.00  0.00     0.134 A 
ATOM      7  C   UNL     1      28.408  13.494  37.771  1.00  0.00     0.093 A 
ATOM      8  C   UNL     1      27.860  12.359  38.374  1.00  0.00     0.123 A 
ATOM      9  C   UNL     1      26.764  11.726  37.792  1.00  0.00     0.094 A 
ATOM     10  C   UNL     1      26.226  12.200  36.594  1.00  0.00     0.146 A 
ATOM     11  O   UNL     1      25.190  11.557  36.065  1.00  0.00    -0.456 OA
ENDROOT
BRANCH   1  12
ATOM     12  C   UNL     1      23.457  11.125  34.427  1.00  0.00     0.021 A 
ATOM     13  C   UNL     1      23.157  11.123  33.054  1.00  0.00     0.016 A 
ATOM     14  C   UNL     1      22.076  10.386  32.563  1.00  0.00     0.051 A 
ATOM     15  C   UNL     1      21.282   9.633  33.433  1.00  0.00     0.157 A 
ATOM     16  C   UNL     1      22.662  10.354  35.296  1.00  0.00     0.062 A 
ATOM     17  C   UNL     1      21.577   9.613  34.806  1.00  0.00     0.158 A 
BRANCH  15  18
ATOM     18  O   UNL     1      20.208   8.909  32.914  1.00  0.00    -0.504 OA
ATOM     19  H   UNL     1      20.114   8.722  31.923  1.00  0.00     0.293 HD
ENDBRANCH  15  18
BRANCH  17  20
ATOM     20  O   UNL     1      20.796   8.855  35.676  1.00  0.00    -0.504 OA
ATOM     21  H   UNL     1      19.828   8.637  35.469  1.00  0.00     0.293 HD
ENDBRANCH  17  20
ENDBRANCH   1  12
BRANCH   6  22
ATOM     22  O   UNL     1      28.434  15.202  36.113  1.00  0.00    -0.507 OA
ATOM     23  H   UNL     1      28.120  16.127  36.359  1.00  0.00     0.293 HD
ENDBRANCH   6  22
BRANCH   8  24
ATOM     24  O   UNL     1      28.393  11.857  39.560  1.00  0.00    -0.508 OA
ATOM     25  H   UNL     1      28.191  12.287  40.456  1.00  0.00     0.293 HD
ENDBRANCH   8  24
TORSDOF 5
ENDMDL
