MODEL 1
REMARK VINA RESULT:    -2.970      0.000      0.000
REMARK INTER + INTRA:          -7.381
REMARK INTER:                  -5.748
REMARK INTRA:                  -1.633
REMARK UNBOUND:                -1.633
REMARK SMILES CCCCCCCCCCCCCCCCCC(=O)[O-]
REMARK SMILES IDX 10 1 11 2 12 3 13 4 14 5 15 6 16 7 17 8 18 9 19 10 20 11
REMARK SMILES IDX 9 12 8 13 7 14 6 15 5 16 4 17 3 18 2 19 1 20
REMARK H PARENT
REMARK Flexibility Score: inf
ROOT
ATOM      1  C   UNL     1      15.927  15.929   9.611  1.00  0.00     0.000 C 
ENDROOT
BRANCH   1   2
ATOM      2  C   UNL     1      17.125  15.327  10.361  1.00  0.00     0.000 C 
BRANCH   2   3
ATOM      3  C   UNL     1      16.721  14.893  11.776  1.00  0.00     0.000 C 
BRANCH   3   4
ATOM      4  C   UNL     1      16.182  13.455  11.781  1.00  0.00     0.000 C 
BRANCH   4   5
ATOM      5  C   UNL     1      14.695  13.380  12.166  1.00  0.00     0.000 C 
BRANCH   5   6
ATOM      6  C   UNL     1      13.846  12.635  11.124  1.00  0.00     0.000 C 
BRANCH   6   7
ATOM      7  C   UNL     1      14.607  12.492   9.796  1.00  0.00     0.006 C 
BRANCH   7   8
ATOM      8  C   UNL     1      14.109  13.481   8.733  1.00  0.00     0.053 C 
BRANCH   8   9
ATOM      9  C   UNL     1      14.627  13.135   7.371  1.00  0.00     0.041 C 
ATOM     10  O   UNL     1      13.844  12.703   6.484  1.00  0.00    -0.550 OA
ATOM     11  O   UNL     1      15.983  13.252   7.093  1.00  0.00    -0.550 OA
ENDBRANCH   8   9
ENDBRANCH   7   8
ENDBRANCH   6   7
ENDBRANCH   5   6
ENDBRANCH   4   5
ENDBRANCH   3   4
ENDBRANCH   2   3
ENDBRANCH   1   2
BRANCH   1  12
ATOM     12  C   UNL     1      16.332  17.079   8.674  1.00  0.00     0.000 C 
BRANCH  12  13
ATOM     13  C   UNL     1      15.819  18.444   9.164  1.00  0.00    -0.000 C 
BRANCH  13  14
ATOM     14  C   UNL     1      16.941  19.334   9.721  1.00  0.00    -0.000 C 
BRANCH  14  15
ATOM     15  C   UNL     1      17.058  19.251  11.255  1.00  0.00    -0.000 C 
BRANCH  15  16
ATOM     16  C   UNL     1      16.939  20.631  11.929  1.00  0.00    -0.000 C 
BRANCH  16  17
ATOM     17  C   UNL     1      15.960  21.588  11.224  1.00  0.00    -0.000 C 
BRANCH  17  18
ATOM     18  C   UNL     1      14.682  21.832  12.045  1.00  0.00    -0.000 C 
BRANCH  18  19
ATOM     19  C   UNL     1      13.491  21.000  11.539  1.00  0.00    -0.003 C 
ATOM     20  C   UNL     1      13.432  19.613  12.183  1.00  0.00     0.004 C 
ENDBRANCH  18  19
ENDBRANCH  17  18
ENDBRANCH  16  17
ENDBRANCH  15  16
ENDBRANCH  14  15
ENDBRANCH  13  14
ENDBRANCH  12  13
ENDBRANCH   1  12
TORSDOF 16
ENDMDL
MODEL 2
REMARK VINA RESULT:    -2.860      3.249      7.546
REMARK INTER + INTRA:          -7.168
REMARK INTER:                  -5.667
REMARK INTRA:                  -1.501
REMARK UNBOUND:                -1.633
REMARK SMILES CCCCCCCCCCCCCCCCCC(=O)[O-]
REMARK SMILES IDX 10 1 11 2 12 3 13 4 14 5 15 6 16 7 17 8 18 9 19 10 20 11
REMARK SMILES IDX 9 12 8 13 7 14 6 15 5 16 4 17 3 18 2 19 1 20
REMARK H PARENT
REMARK Flexibility Score: inf
ROOT
ATOM      1  C   UNL     1      16.006  16.012   9.387  1.00  0.00     0.000 C 
ENDROOT
BRANCH   1   2
ATOM      2  C   UNL     1      16.570  16.838   8.221  1.00  0.00     0.000 C 
BRANCH   2   3
ATOM      3  C   UNL     1      16.845  18.283   8.657  1.00  0.00     0.000 C 
BRANCH   3   4
ATOM      4  C   UNL     1      15.847  18.734   9.735  1.00  0.00     0.000 C 
BRANCH   4   5
ATOM      5  C   UNL     1      16.111  20.166  10.226  1.00  0.00     0.000 C 
BRANCH   5   6
ATOM      6  C   UNL     1      16.552  20.220  11.697  1.00  0.00     0.000 C 
BRANCH   6   7
ATOM      7  C   UNL     1      15.801  21.327  12.456  1.00  0.00     0.006 C 
BRANCH   7   8
ATOM      8  C   UNL     1      14.508  21.745  11.742  1.00  0.00     0.053 C 
BRANCH   8   9
ATOM      9  C   UNL     1      13.301  21.132  12.384  1.00  0.00     0.041 C 
ATOM     10  O   UNL     1      12.458  21.857  12.973  1.00  0.00    -0.550 OA
ATOM     11  O   UNL     1      13.128  19.753  12.364  1.00  0.00    -0.550 OA
ENDBRANCH   8   9
ENDBRANCH   7   8
ENDBRANCH   6   7
ENDBRANCH   5   6
ENDBRANCH   4   5
ENDBRANCH   3   4
ENDBRANCH   2   3
ENDBRANCH   1   2
BRANCH   1  12
ATOM     12  C   UNL     1      17.099  15.246  10.152  1.00  0.00     0.000 C 
BRANCH  12  13
ATOM     13  C   UNL     1      16.985  15.429  11.676  1.00  0.00    -0.000 C 
BRANCH  13  14
ATOM     14  C   UNL     1      15.809  14.646  12.281  1.00  0.00    -0.000 C 
BRANCH  14  15
ATOM     15  C   UNL     1      15.822  13.157  11.886  1.00  0.00    -0.000 C 
BRANCH  15  16
ATOM     16  C   UNL     1      14.403  12.585  11.704  1.00  0.00    -0.000 C 
BRANCH  16  17
ATOM     17  C   UNL     1      14.132  12.027  10.295  1.00  0.00    -0.000 C 
BRANCH  17  18
ATOM     18  C   UNL     1      14.233  13.107   9.204  1.00  0.00    -0.000 C 
BRANCH  18  19
ATOM     19  C   UNL     1      13.793  12.590   7.823  1.00  0.00    -0.003 C 
ATOM     20  C   UNL     1      14.606  13.205   6.682  1.00  0.00     0.004 C 
ENDBRANCH  18  19
ENDBRANCH  17  18
ENDBRANCH  16  17
ENDBRANCH  15  16
ENDBRANCH  14  15
ENDBRANCH  13  14
ENDBRANCH  12  13
ENDBRANCH   1  12
TORSDOF 16
ENDMDL
MODEL 3
REMARK VINA RESULT:    -2.808      3.156      7.058
REMARK INTER + INTRA:          -7.068
REMARK INTER:                  -5.025
REMARK INTRA:                  -2.043
REMARK UNBOUND:                -1.633
REMARK SMILES CCCCCCCCCCCCCCCCCC(=O)[O-]
REMARK SMILES IDX 10 1 11 2 12 3 13 4 14 5 15 6 16 7 17 8 18 9 19 10 20 11
REMARK SMILES IDX 9 12 8 13 7 14 6 15 5 16 4 17 3 18 2 19 1 20
REMARK H PARENT
REMARK Flexibility Score: inf
ROOT
ATOM      1  C   UNL     1      16.152  16.127   8.678  1.00  0.00     0.000 C 
ENDROOT
BRANCH   1   2
ATOM      2  C   UNL     1      15.619  17.566   8.623  1.00  0.00     0.000 C 
BRANCH   2   3
ATOM      3  C   UNL     1      16.455  18.493   9.515  1.00  0.00     0.000 C 
BRANCH   3   4
ATOM      4  C   UNL     1      16.864  19.767   8.759  1.00  0.00     0.000 C 
BRANCH   4   5
ATOM      5  C   UNL     1      17.125  20.956   9.697  1.00  0.00     0.000 C 
BRANCH   5   6
ATOM      6  C   UNL     1      16.965  20.591  11.181  1.00  0.00     0.000 C 
BRANCH   6   7
ATOM      7  C   UNL     1      16.209  21.694  11.940  1.00  0.00     0.006 C 
BRANCH   7   8
ATOM      8  C   UNL     1      15.068  21.130  12.797  1.00  0.00     0.053 C 
BRANCH   8   9
ATOM      9  C   UNL     1      13.830  20.899  11.985  1.00  0.00     0.041 C 
ATOM     10  O   UNL     1      13.152  21.875  11.568  1.00  0.00    -0.550 OA
ATOM     11  O   UNL     1      13.403  19.603  11.721  1.00  0.00    -0.550 OA
ENDBRANCH   8   9
ENDBRANCH   7   8
ENDBRANCH   6   7
ENDBRANCH   5   6
ENDBRANCH   4   5
ENDBRANCH   3   4
ENDBRANCH   2   3
ENDBRANCH   1   2
BRANCH   1  12
ATOM     12  C   UNL     1      15.538  15.226   7.593  1.00  0.00     0.000 C 
BRANCH  12  13
ATOM     13  C   UNL     1      15.667  13.731   7.930  1.00  0.00    -0.000 C 
BRANCH  13  14
ATOM     14  C   UNL     1      14.447  13.187   8.689  1.00  0.00    -0.000 C 
BRANCH  14  15
ATOM     15  C   UNL     1      14.661  13.156  10.215  1.00  0.00    -0.000 C 
BRANCH  15  16
ATOM     16  C   UNL     1      16.074  12.676  10.600  1.00  0.00    -0.000 C 
BRANCH  16  17
ATOM     17  C   UNL     1      16.869  13.690  11.441  1.00  0.00    -0.000 C 
BRANCH  17  18
ATOM     18  C   UNL     1      15.968  14.757  12.086  1.00  0.00    -0.000 C 
BRANCH  18  19
ATOM     19  C   UNL     1      16.718  16.071  12.361  1.00  0.00    -0.003 C 
ATOM     20  C   UNL     1      15.795  17.172  12.888  1.00  0.00     0.004 C 
ENDBRANCH  18  19
ENDBRANCH  17  18
ENDBRANCH  16  17
ENDBRANCH  15  16
ENDBRANCH  14  15
ENDBRANCH  13  14
ENDBRANCH  12  13
ENDBRANCH   1  12
TORSDOF 16
ENDMDL
MODEL 4
REMARK VINA RESULT:    -2.734      2.265      3.154
REMARK INTER + INTRA:          -6.925
REMARK INTER:                  -5.798
REMARK INTRA:                  -1.126
REMARK UNBOUND:                -1.633
REMARK SMILES CCCCCCCCCCCCCCCCCC(=O)[O-]
REMARK SMILES IDX 10 1 11 2 12 3 13 4 14 5 15 6 16 7 17 8 18 9 19 10 20 11
REMARK SMILES IDX 9 12 8 13 7 14 6 15 5 16 4 17 3 18 2 19 1 20
REMARK H PARENT
REMARK Flexibility Score: inf
ROOT
ATOM      1  C   UNL     1      16.180  16.139   9.028  1.00  0.00     0.000 C 
ENDROOT
BRANCH   1   2
ATOM      2  C   UNL     1      16.673  15.467   7.739  1.00  0.00     0.000 C 
BRANCH   2   3
ATOM      3  C   UNL     1      16.492  13.945   7.812  1.00  0.00     0.000 C 
BRANCH   3   4
ATOM      4  C   UNL     1      15.141  13.520   7.216  1.00  0.00     0.000 C 
BRANCH   4   5
ATOM      5  C   UNL     1      14.128  13.090   8.290  1.00  0.00     0.000 C 
BRANCH   5   6
ATOM      6  C   UNL     1      14.795  12.709   9.621  1.00  0.00     0.000 C 
BRANCH   6   7
ATOM      7  C   UNL     1      13.753  12.211  10.635  1.00  0.00     0.006 C 
BRANCH   7   8
ATOM      8  C   UNL     1      13.960  12.822  12.027  1.00  0.00     0.053 C 
BRANCH   8   9
ATOM      9  C   UNL     1      15.295  12.453  12.599  1.00  0.00     0.041 C 
ATOM     10  O   UNL     1      16.068  13.345  13.036  1.00  0.00    -0.550 OA
ATOM     11  O   UNL     1      15.701  11.124  12.613  1.00  0.00    -0.550 OA
ENDBRANCH   8   9
ENDBRANCH   7   8
ENDBRANCH   6   7
ENDBRANCH   5   6
ENDBRANCH   4   5
ENDBRANCH   3   4
ENDBRANCH   2   3
ENDBRANCH   1   2
BRANCH   1  12
ATOM     12  C   UNL     1      15.274  17.352   8.754  1.00  0.00     0.000 C 
BRANCH  12  13
ATOM     13  C   UNL     1      16.068  18.667   8.664  1.00  0.00    -0.000 C 
BRANCH  13  14
ATOM     14  C   UNL     1      16.734  19.050   9.995  1.00  0.00    -0.000 C 
BRANCH  14  15
ATOM     15  C   UNL     1      16.565  20.543  10.336  1.00  0.00    -0.000 C 
BRANCH  15  16
ATOM     16  C   UNL     1      16.145  20.768  11.801  1.00  0.00    -0.000 C 
BRANCH  16  17
ATOM     17  C   UNL     1      15.414  22.100  12.043  1.00  0.00    -0.000 C 
BRANCH  17  18
ATOM     18  C   UNL     1      13.885  21.962  11.935  1.00  0.00    -0.000 C 
BRANCH  18  19
ATOM     19  C   UNL     1      13.422  20.496  11.992  1.00  0.00    -0.003 C 
ATOM     20  C   UNL     1      12.426  20.241  13.125  1.00  0.00     0.004 C 
ENDBRANCH  18  19
ENDBRANCH  17  18
ENDBRANCH  16  17
ENDBRANCH  15  16
ENDBRANCH  14  15
ENDBRANCH  13  14
ENDBRANCH  12  13
ENDBRANCH   1  12
TORSDOF 16
ENDMDL
MODEL 5
REMARK VINA RESULT:    -2.579      2.087      3.204
REMARK INTER + INTRA:          -6.625
REMARK INTER:                  -5.215
REMARK INTRA:                  -1.410
REMARK UNBOUND:                -1.633
REMARK SMILES CCCCCCCCCCCCCCCCCC(=O)[O-]
REMARK SMILES IDX 10 1 11 2 12 3 13 4 14 5 15 6 16 7 17 8 18 9 19 10 20 11
REMARK SMILES IDX 9 12 8 13 7 14 6 15 5 16 4 17 3 18 2 19 1 20
REMARK H PARENT
REMARK Flexibility Score: inf
ROOT
ATOM      1  C   UNL     1      14.973  14.910   7.313  1.00  0.00     0.000 C 
ENDROOT
BRANCH   1   2
ATOM      2  C   UNL     1      15.619  13.658   7.925  1.00  0.00     0.000 C 
BRANCH   2   3
ATOM      3  C   UNL     1      17.039  13.963   8.420  1.00  0.00     0.000 C 
BRANCH   3   4
ATOM      4  C   UNL     1      17.119  13.882   9.952  1.00  0.00     0.000 C 
BRANCH   4   5
ATOM      5  C   UNL     1      15.938  14.579  10.645  1.00  0.00     0.000 C 
BRANCH   5   6
ATOM      6  C   UNL     1      15.995  14.468  12.177  1.00  0.00     0.000 C 
BRANCH   6   7
ATOM      7  C   UNL     1      14.820  13.634  12.712  1.00  0.00     0.006 C 
BRANCH   7   8
ATOM      8  C   UNL     1      15.252  12.220  13.125  1.00  0.00     0.053 C 
BRANCH   8   9
ATOM      9  C   UNL     1      15.385  11.315  11.939  1.00  0.00     0.041 C 
ATOM     10  O   UNL     1      16.293  10.443  11.904  1.00  0.00    -0.550 OA
ATOM     11  O   UNL     1      14.530  11.461  10.854  1.00  0.00    -0.550 OA
ENDBRANCH   8   9
ENDBRANCH   7   8
ENDBRANCH   6   7
ENDBRANCH   5   6
ENDBRANCH   4   5
ENDBRANCH   3   4
ENDBRANCH   2   3
ENDBRANCH   1   2
BRANCH   1  12
ATOM     12  C   UNL     1      15.970  16.069   7.145  1.00  0.00     0.000 C 
BRANCH  12  13
ATOM     13  C   UNL     1      15.788  17.158   8.217  1.00  0.00    -0.000 C 
BRANCH  13  14
ATOM     14  C   UNL     1      17.072  17.965   8.465  1.00  0.00    -0.000 C 
BRANCH  14  15
ATOM     15  C   UNL     1      16.981  18.854   9.720  1.00  0.00    -0.000 C 
BRANCH  15  16
ATOM     16  C   UNL     1      15.525  19.147  10.129  1.00  0.00    -0.000 C 
BRANCH  16  17
ATOM     17  C   UNL     1      15.199  18.778  11.587  1.00  0.00    -0.000 C 
BRANCH  17  18
ATOM     18  C   UNL     1      14.026  19.596  12.154  1.00  0.00    -0.000 C 
BRANCH  18  19
ATOM     19  C   UNL     1      13.972  21.022  11.580  1.00  0.00    -0.003 C 
ATOM     20  C   UNL     1      12.999  21.924  12.343  1.00  0.00     0.004 C 
ENDBRANCH  18  19
ENDBRANCH  17  18
ENDBRANCH  16  17
ENDBRANCH  15  16
ENDBRANCH  14  15
ENDBRANCH  13  14
ENDBRANCH  12  13
ENDBRANCH   1  12
TORSDOF 16
ENDMDL
MODEL 6
REMARK VINA RESULT:    -2.420      3.052      6.940
REMARK INTER + INTRA:          -6.316
REMARK INTER:                  -4.367
REMARK INTRA:                  -1.949
REMARK UNBOUND:                -1.633
REMARK SMILES CCCCCCCCCCCCCCCCCC(=O)[O-]
REMARK SMILES IDX 10 1 11 2 12 3 13 4 14 5 15 6 16 7 17 8 18 9 19 10 20 11
REMARK SMILES IDX 9 12 8 13 7 14 6 15 5 16 4 17 3 18 2 19 1 20
REMARK H PARENT
REMARK Flexibility Score: inf
ROOT
ATOM      1  C   UNL     1      15.497  13.983   7.750  1.00  0.00     0.000 C 
ENDROOT
BRANCH   1   2
ATOM      2  C   UNL     1      15.668  15.429   7.263  1.00  0.00     0.000 C 
BRANCH   2   3
ATOM      3  C   UNL     1      17.084  15.941   7.558  1.00  0.00     0.000 C 
BRANCH   3   4
ATOM      4  C   UNL     1      17.083  16.921   8.741  1.00  0.00     0.000 C 
BRANCH   4   5
ATOM      5  C   UNL     1      15.672  17.411   9.104  1.00  0.00     0.000 C 
BRANCH   5   6
ATOM      6  C   UNL     1      15.609  18.928   9.338  1.00  0.00     0.000 C 
BRANCH   6   7
ATOM      7  C   UNL     1      16.791  19.401  10.199  1.00  0.00     0.006 C 
BRANCH   7   8
ATOM      8  C   UNL     1      16.403  20.556  11.133  1.00  0.00     0.053 C 
BRANCH   8   9
ATOM      9  C   UNL     1      15.277  20.175  12.044  1.00  0.00     0.041 C 
ATOM     10  O   UNL     1      15.389  19.183  12.811  1.00  0.00    -0.550 OA
ATOM     11  O   UNL     1      14.088  20.892  12.017  1.00  0.00    -0.550 OA
ENDBRANCH   8   9
ENDBRANCH   7   8
ENDBRANCH   6   7
ENDBRANCH   5   6
ENDBRANCH   4   5
ENDBRANCH   3   4
ENDBRANCH   2   3
ENDBRANCH   1   2
BRANCH   1  12
ATOM     12  C   UNL     1      14.583  13.877   8.982  1.00  0.00     0.000 C 
BRANCH  12  13
ATOM     13  C   UNL     1      14.104  12.436   9.234  1.00  0.00    -0.000 C 
BRANCH  13  14
ATOM     14  C   UNL     1      14.239  12.016  10.706  1.00  0.00    -0.000 C 
BRANCH  14  15
ATOM     15  C   UNL     1      15.653  11.510  11.051  1.00  0.00    -0.000 C 
BRANCH  15  16
ATOM     16  C   UNL     1      15.948  11.573  12.562  1.00  0.00    -0.000 C 
BRANCH  16  17
ATOM     17  C   UNL     1      16.019  13.004  13.125  1.00  0.00    -0.000 C 
BRANCH  17  18
ATOM     18  C   UNL     1      17.108  13.851  12.444  1.00  0.00    -0.000 C 
BRANCH  18  19
ATOM     19  C   UNL     1      16.552  15.156  11.850  1.00  0.00    -0.003 C 
ATOM     20  C   UNL     1      17.115  16.400  12.540  1.00  0.00     0.004 C 
ENDBRANCH  18  19
ENDBRANCH  17  18
ENDBRANCH  16  17
ENDBRANCH  15  16
ENDBRANCH  14  15
ENDBRANCH  13  14
ENDBRANCH  12  13
ENDBRANCH   1  12
TORSDOF 16
ENDMDL
MODEL 7
REMARK VINA RESULT:    -2.286      1.313      3.023
REMARK INTER + INTRA:          -6.056
REMARK INTER:                  -4.549
REMARK INTRA:                  -1.508
REMARK UNBOUND:                -1.633
REMARK SMILES CCCCCCCCCCCCCCCCCC(=O)[O-]
REMARK SMILES IDX 10 1 11 2 12 3 13 4 14 5 15 6 16 7 17 8 18 9 19 10 20 11
REMARK SMILES IDX 9 12 8 13 7 14 6 15 5 16 4 17 3 18 2 19 1 20
REMARK H PARENT
REMARK Flexibility Score: inf
ROOT
ATOM      1  C   UNL     1      15.322  17.980  12.255  1.00  0.00     0.000 C 
ENDROOT
BRANCH   1   2
ATOM      2  C   UNL     1      16.618  17.751  13.048  1.00  0.00     0.000 C 
BRANCH   2   3
ATOM      3  C   UNL     1      16.955  16.256  13.125  1.00  0.00     0.000 C 
BRANCH   3   4
ATOM      4  C   UNL     1      15.938  15.419  12.334  1.00  0.00     0.000 C 
BRANCH   4   5
ATOM      5  C   UNL     1      16.064  13.913  12.614  1.00  0.00     0.000 C 
BRANCH   5   6
ATOM      6  C   UNL     1      14.982  13.083  11.905  1.00  0.00     0.000 C 
BRANCH   6   7
ATOM      7  C   UNL     1      15.379  12.789  10.450  1.00  0.00     0.006 C 
BRANCH   7   8
ATOM      8  C   UNL     1      14.667  13.716   9.456  1.00  0.00     0.053 C 
BRANCH   8   9
ATOM      9  C   UNL     1      15.240  13.592   8.077  1.00  0.00     0.041 C 
ATOM     10  O   UNL     1      16.416  13.974   7.842  1.00  0.00    -0.550 OA
ATOM     11  O   UNL     1      14.460  13.090   7.043  1.00  0.00    -0.550 OA
ENDBRANCH   8   9
ENDBRANCH   7   8
ENDBRANCH   6   7
ENDBRANCH   5   6
ENDBRANCH   4   5
ENDBRANCH   3   4
ENDBRANCH   2   3
ENDBRANCH   1   2
BRANCH   1  12
ATOM     12  C   UNL     1      14.249  18.716  13.075  1.00  0.00     0.000 C 
BRANCH  12  13
ATOM     13  C   UNL     1      13.515  19.788  12.250  1.00  0.00    -0.000 C 
BRANCH  13  14
ATOM     14  C   UNL     1      14.445  20.524  11.272  1.00  0.00    -0.000 C 
BRANCH  14  15
ATOM     15  C   UNL     1      15.176  21.711  11.928  1.00  0.00    -0.000 C 
BRANCH  15  16
ATOM     16  C   UNL     1      16.575  21.945  11.326  1.00  0.00    -0.000 C 
BRANCH  16  17
ATOM     17  C   UNL     1      17.120  20.745  10.531  1.00  0.00    -0.000 C 
BRANCH  17  18
ATOM     18  C   UNL     1      16.911  20.899   9.014  1.00  0.00    -0.000 C 
BRANCH  18  19
ATOM     19  C   UNL     1      17.124  19.578   8.255  1.00  0.00    -0.003 C 
ATOM     20  C   UNL     1      16.411  18.399   8.919  1.00  0.00     0.004 C 
ENDBRANCH  18  19
ENDBRANCH  17  18
ENDBRANCH  16  17
ENDBRANCH  15  16
ENDBRANCH  14  15
ENDBRANCH  13  14
ENDBRANCH  12  13
ENDBRANCH   1  12
TORSDOF 16
ENDMDL
MODEL 8
REMARK VINA RESULT:    -2.220      2.032      3.785
REMARK INTER + INTRA:          -5.930
REMARK INTER:                  -4.505
REMARK INTRA:                  -1.425
REMARK UNBOUND:                -1.633
REMARK SMILES CCCCCCCCCCCCCCCCCC(=O)[O-]
REMARK SMILES IDX 10 1 11 2 12 3 13 4 14 5 15 6 16 7 17 8 18 9 19 10 20 11
REMARK SMILES IDX 9 12 8 13 7 14 6 15 5 16 4 17 3 18 2 19 1 20
REMARK H PARENT
REMARK Flexibility Score: inf
ROOT
ATOM      1  C   UNL     1      14.545  18.771  11.998  1.00  0.00     0.000 C 
ENDROOT
BRANCH   1   2
ATOM      2  C   UNL     1      15.362  18.120  13.124  1.00  0.00     0.000 C 
BRANCH   2   3
ATOM      3  C   UNL     1      15.523  16.614  12.881  1.00  0.00     0.000 C 
BRANCH   3   4
ATOM      4  C   UNL     1      16.912  16.292  12.308  1.00  0.00     0.000 C 
BRANCH   4   5
ATOM      5  C   UNL     1      16.845  15.424  11.041  1.00  0.00     0.000 C 
BRANCH   5   6
ATOM      6  C   UNL     1      15.635  14.476  11.031  1.00  0.00     0.000 C 
BRANCH   6   7
ATOM      7  C   UNL     1      15.341  13.975   9.608  1.00  0.00     0.006 C 
BRANCH   7   8
ATOM      8  C   UNL     1      14.519  12.679   9.608  1.00  0.00     0.053 C 
BRANCH   8   9
ATOM      9  C   UNL     1      14.371  12.119  10.990  1.00  0.00     0.041 C 
ATOM     10  O   UNL     1      15.199  11.277  11.427  1.00  0.00    -0.550 OA
ATOM     11  O   UNL     1      13.295  12.499  11.782  1.00  0.00    -0.550 OA
ENDBRANCH   8   9
ENDBRANCH   7   8
ENDBRANCH   6   7
ENDBRANCH   5   6
ENDBRANCH   4   5
ENDBRANCH   3   4
ENDBRANCH   2   3
ENDBRANCH   1   2
BRANCH   1  12
ATOM     12  C   UNL     1      13.406  19.658  12.529  1.00  0.00     0.000 C 
BRANCH  12  13
ATOM     13  C   UNL     1      13.756  21.156  12.475  1.00  0.00    -0.000 C 
BRANCH  13  14
ATOM     14  C   UNL     1      14.690  21.505  11.306  1.00  0.00    -0.000 C 
BRANCH  14  15
ATOM     15  C   UNL     1      16.142  21.751  11.759  1.00  0.00    -0.000 C 
BRANCH  15  16
ATOM     16  C   UNL     1      17.124  21.818  10.574  1.00  0.00    -0.000 C 
BRANCH  16  17
ATOM     17  C   UNL     1      16.811  20.818   9.446  1.00  0.00    -0.000 C 
BRANCH  17  18
ATOM     18  C   UNL     1      17.011  19.356   9.882  1.00  0.00    -0.000 C 
BRANCH  18  19
ATOM     19  C   UNL     1      16.949  18.377   8.698  1.00  0.00    -0.003 C 
ATOM     20  C   UNL     1      15.622  17.617   8.635  1.00  0.00     0.004 C 
ENDBRANCH  18  19
ENDBRANCH  17  18
ENDBRANCH  16  17
ENDBRANCH  15  16
ENDBRANCH  14  15
ENDBRANCH  13  14
ENDBRANCH  12  13
ENDBRANCH   1  12
TORSDOF 16
ENDMDL
