MODEL 1
REMARK VINA RESULT:    -7.003      0.000      0.000
REMARK INTER + INTRA:          -8.549
REMARK INTER:                  -8.232
REMARK INTRA:                  -0.317
REMARK UNBOUND:                -0.317
REMARK SMILES O=c1cc(-c2ccc(O)c(O)c2)oc2cc(O)cc(O)c12
REMARK SMILES IDX 4 1 3 2 2 3 1 4 21 5 19 6 18 7 16 8 15 9 14 10 13 11 5 12
REMARK SMILES IDX 6 13 7 14 8 15 12 16 10 17 9 18 11 20 20 22 17 24
REMARK H PARENT 9 19 11 21 20 23 17 25
REMARK Flexibility Score: inf
ROOT
ATOM      1  C   UNL     1       8.957  24.385  40.776  1.00  0.00     0.138 A 
ATOM      2  C   UNL     1       8.522  23.421  39.851  1.00  0.00     0.100 A 
ATOM      3  C   UNL     1       9.110  23.369  38.586  1.00  0.00     0.197 A 
ATOM      4  O   UNL     1       8.712  22.502  37.762  1.00  0.00    -0.289 OA
ATOM      5  C   UNL     1      10.130  24.284  38.254  1.00  0.00     0.107 A 
ATOM      6  C   UNL     1      10.778  24.299  36.997  1.00  0.00     0.134 A 
ATOM      7  C   UNL     1      11.780  25.247  36.743  1.00  0.00     0.093 A 
ATOM      8  C   UNL     1      12.144  26.179  37.719  1.00  0.00     0.123 A 
ATOM      9  C   UNL     1      11.506  26.169  38.964  1.00  0.00     0.094 A 
ATOM     10  C   UNL     1      10.505  25.231  39.237  1.00  0.00     0.146 A 
ATOM     11  O   UNL     1       9.915  25.241  40.428  1.00  0.00    -0.456 OA
ENDROOT
BRANCH   1  12
ATOM     12  C   UNL     1       8.367  24.488  42.135  1.00  0.00     0.021 A 
ATOM     13  C   UNL     1       7.494  23.484  42.587  1.00  0.00     0.016 A 
ATOM     14  C   UNL     1       6.921  23.560  43.859  1.00  0.00     0.051 A 
ATOM     15  C   UNL     1       7.202  24.647  44.696  1.00  0.00     0.157 A 
ATOM     16  C   UNL     1       8.636  25.585  42.977  1.00  0.00     0.062 A 
ATOM     17  C   UNL     1       8.058  25.662  44.253  1.00  0.00     0.158 A 
BRANCH  15  18
ATOM     18  O   UNL     1       6.633  24.725  45.965  1.00  0.00    -0.504 OA
ATOM     19  H   UNL     1       6.275  25.598  46.334  1.00  0.00     0.293 HD
ENDBRANCH  15  18
BRANCH  17  20
ATOM     20  O   UNL     1       8.327  26.747  45.085  1.00  0.00    -0.504 OA
ATOM     21  H   UNL     1       8.193  26.693  46.088  1.00  0.00     0.293 HD
ENDBRANCH  17  20
ENDBRANCH   1  12
BRANCH   6  22
ATOM     22  O   UNL     1      10.437  23.382  36.003  1.00  0.00    -0.507 OA
ATOM     23  H   UNL     1       9.477  23.256  35.700  1.00  0.00     0.293 HD
ENDBRANCH   6  22
BRANCH   8  24
ATOM     24  O   UNL     1      13.142  27.110  37.441  1.00  0.00    -0.508 OA
ATOM     25  H   UNL     1      12.969  27.910  36.844  1.00  0.00     0.293 HD
ENDBRANCH   8  24
TORSDOF 5
ENDMDL
MODEL 2
REMARK VINA RESULT:    -6.966      2.764      6.830
REMARK INTER + INTRA:          -8.505
REMARK INTER:                  -8.214
REMARK INTRA:                  -0.291
REMARK UNBOUND:                -0.317
REMARK SMILES O=c1cc(-c2ccc(O)c(O)c2)oc2cc(O)cc(O)c12
REMARK SMILES IDX 4 1 3 2 2 3 1 4 21 5 19 6 18 7 16 8 15 9 14 10 13 11 5 12
REMARK SMILES IDX 6 13 7 14 8 15 12 16 10 17 9 18 11 20 20 22 17 24
REMARK H PARENT 9 19 11 21 20 23 17 25
REMARK Flexibility Score: inf
ROOT
ATOM      1  C   UNL     1      10.842  25.700  40.352  1.00  0.00     0.138 A 
ATOM      2  C   UNL     1      10.480  24.954  41.486  1.00  0.00     0.100 A 
ATOM      3  C   UNL     1      10.483  25.567  42.740  1.00  0.00     0.197 A 
ATOM      4  O   UNL     1      10.158  24.889  43.752  1.00  0.00    -0.289 OA
ATOM      5  C   UNL     1      10.849  26.923  42.852  1.00  0.00     0.107 A 
ATOM      6  C   UNL     1      10.877  27.620  44.083  1.00  0.00     0.134 A 
ATOM      7  C   UNL     1      11.260  28.968  44.110  1.00  0.00     0.093 A 
ATOM      8  C   UNL     1      11.616  29.633  42.933  1.00  0.00     0.123 A 
ATOM      9  C   UNL     1      11.591  28.949  41.712  1.00  0.00     0.094 A 
ATOM     10  C   UNL     1      11.211  27.604  41.664  1.00  0.00     0.146 A 
ATOM     11  O   UNL     1      11.194  26.977  40.493  1.00  0.00    -0.456 OA
ENDROOT
BRANCH   1  12
ATOM     12  C   UNL     1      10.859  25.102  38.993  1.00  0.00     0.021 A 
ATOM     13  C   UNL     1       9.770  24.322  38.569  1.00  0.00     0.016 A 
ATOM     14  C   UNL     1       9.764  23.742  37.297  1.00  0.00     0.051 A 
ATOM     15  C   UNL     1      10.851  23.923  36.434  1.00  0.00     0.157 A 
ATOM     16  C   UNL     1      11.955  25.269  38.124  1.00  0.00     0.062 A 
ATOM     17  C   UNL     1      11.949  24.684  36.849  1.00  0.00     0.158 A 
BRANCH  15  18
ATOM     18  O   UNL     1      10.848  23.346  35.165  1.00  0.00    -0.504 OA
ATOM     19  H   UNL     1      10.665  22.359  35.031  1.00  0.00     0.293 HD
ENDBRANCH  15  18
BRANCH  17  20
ATOM     20  O   UNL     1      13.034  24.854  35.991  1.00  0.00    -0.504 OA
ATOM     21  H   UNL     1      13.884  25.315  36.294  1.00  0.00     0.293 HD
ENDBRANCH  17  20
ENDBRANCH   1  12
BRANCH   6  22
ATOM     22  O   UNL     1      10.528  26.984  45.274  1.00  0.00    -0.507 OA
ATOM     23  H   UNL     1      10.687  27.418  46.177  1.00  0.00     0.293 HD
ENDBRANCH   6  22
BRANCH   8  24
ATOM     24  O   UNL     1      11.993  30.973  42.988  1.00  0.00    -0.508 OA
ATOM     25  H   UNL     1      11.851  31.596  42.201  1.00  0.00     0.293 HD
ENDBRANCH   8  24
TORSDOF 5
ENDMDL
MODEL 3
REMARK VINA RESULT:    -6.951      2.430      7.142
REMARK INTER + INTRA:          -8.487
REMARK INTER:                  -8.213
REMARK INTRA:                  -0.274
REMARK UNBOUND:                -0.317
REMARK SMILES O=c1cc(-c2ccc(O)c(O)c2)oc2cc(O)cc(O)c12
REMARK SMILES IDX 4 1 3 2 2 3 1 4 21 5 19 6 18 7 16 8 15 9 14 10 13 11 5 12
REMARK SMILES IDX 6 13 7 14 8 15 12 16 10 17 9 18 11 20 20 22 17 24
REMARK H PARENT 9 19 11 21 20 23 17 25
REMARK Flexibility Score: inf
ROOT
ATOM      1  C   UNL     1      10.848  26.070  41.500  1.00  0.00     0.138 A 
ATOM      2  C   UNL     1      10.589  24.692  41.411  1.00  0.00     0.100 A 
ATOM      3  C   UNL     1       9.583  24.131  42.200  1.00  0.00     0.197 A 
ATOM      4  O   UNL     1       9.359  22.893  42.114  1.00  0.00    -0.289 OA
ATOM      5  C   UNL     1       8.845  24.952  43.076  1.00  0.00     0.107 A 
ATOM      6  C   UNL     1       7.811  24.464  43.908  1.00  0.00     0.134 A 
ATOM      7  C   UNL     1       7.127  25.347  44.757  1.00  0.00     0.093 A 
ATOM      8  C   UNL     1       7.458  26.704  44.790  1.00  0.00     0.123 A 
ATOM      9  C   UNL     1       8.481  27.192  43.970  1.00  0.00     0.094 A 
ATOM     10  C   UNL     1       9.173  26.328  43.116  1.00  0.00     0.146 A 
ATOM     11  O   UNL     1      10.140  26.816  42.345  1.00  0.00    -0.456 OA
ENDROOT
BRANCH   1  12
ATOM     12  C   UNL     1      11.905  26.722  40.686  1.00  0.00     0.021 A 
ATOM     13  C   UNL     1      12.851  27.548  41.317  1.00  0.00     0.016 A 
ATOM     14  C   UNL     1      13.852  28.179  40.573  1.00  0.00     0.051 A 
ATOM     15  C   UNL     1      13.918  28.002  39.186  1.00  0.00     0.157 A 
ATOM     16  C   UNL     1      11.970  26.558  39.288  1.00  0.00     0.062 A 
ATOM     17  C   UNL     1      12.974  27.193  38.543  1.00  0.00     0.158 A 
BRANCH  15  18
ATOM     18  O   UNL     1      14.916  28.628  38.442  1.00  0.00    -0.504 OA
ATOM     19  H   UNL     1      15.674  29.131  38.887  1.00  0.00     0.293 HD
ENDBRANCH  15  18
BRANCH  17  20
ATOM     20  O   UNL     1      13.037  27.028  37.160  1.00  0.00    -0.504 OA
ATOM     21  H   UNL     1      13.843  27.330  36.625  1.00  0.00     0.293 HD
ENDBRANCH  17  20
ENDBRANCH   1  12
BRANCH   6  22
ATOM     22  O   UNL     1       7.457  23.115  43.897  1.00  0.00    -0.507 OA
ATOM     23  H   UNL     1       7.058  22.661  44.712  1.00  0.00     0.293 HD
ENDBRANCH   6  22
BRANCH   8  24
ATOM     24  O   UNL     1       6.763  27.559  45.643  1.00  0.00    -0.508 OA
ATOM     25  H   UNL     1       6.040  27.216  46.264  1.00  0.00     0.293 HD
ENDBRANCH   8  24
TORSDOF 5
ENDMDL
MODEL 4
REMARK VINA RESULT:    -6.902      2.745      4.673
REMARK INTER + INTRA:          -8.430
REMARK INTER:                  -8.142
REMARK INTRA:                  -0.287
REMARK UNBOUND:                -0.317
REMARK SMILES O=c1cc(-c2ccc(O)c(O)c2)oc2cc(O)cc(O)c12
REMARK SMILES IDX 4 1 3 2 2 3 1 4 21 5 19 6 18 7 16 8 15 9 14 10 13 11 5 12
REMARK SMILES IDX 6 13 7 14 8 15 12 16 10 17 9 18 11 20 20 22 17 24
REMARK H PARENT 9 19 11 21 20 23 17 25
REMARK Flexibility Score: inf
ROOT
ATOM      1  C   UNL     1       9.799  24.855  39.969  1.00  0.00     0.138 A 
ATOM      2  C   UNL     1      10.351  25.233  41.205  1.00  0.00     0.100 A 
ATOM      3  C   UNL     1      11.381  26.174  41.237  1.00  0.00     0.197 A 
ATOM      4  O   UNL     1      11.870  26.506  42.350  1.00  0.00    -0.289 OA
ATOM      5  C   UNL     1      11.854  26.730  40.031  1.00  0.00     0.107 A 
ATOM      6  C   UNL     1      12.892  27.689  39.976  1.00  0.00     0.134 A 
ATOM      7  C   UNL     1      13.311  28.189  38.734  1.00  0.00     0.093 A 
ATOM      8  C   UNL     1      12.713  27.750  37.550  1.00  0.00     0.123 A 
ATOM      9  C   UNL     1      11.686  26.800  37.599  1.00  0.00     0.094 A 
ATOM     10  C   UNL     1      11.254  26.290  38.827  1.00  0.00     0.146 A 
ATOM     11  O   UNL     1      10.275  25.391  38.848  1.00  0.00    -0.456 OA
ENDROOT
BRANCH   1  12
ATOM     12  C   UNL     1       8.702  23.858  39.873  1.00  0.00     0.021 A 
ATOM     13  C   UNL     1       7.564  24.004  40.684  1.00  0.00     0.016 A 
ATOM     14  C   UNL     1       6.520  23.076  40.617  1.00  0.00     0.051 A 
ATOM     15  C   UNL     1       6.603  21.982  39.748  1.00  0.00     0.157 A 
ATOM     16  C   UNL     1       8.785  22.748  39.010  1.00  0.00     0.062 A 
ATOM     17  C   UNL     1       7.738  21.816  38.946  1.00  0.00     0.158 A 
BRANCH  15  18
ATOM     18  O   UNL     1       5.564  21.056  39.679  1.00  0.00    -0.504 OA
ATOM     19  H   UNL     1       5.665  20.182  39.178  1.00  0.00     0.293 HD
ENDBRANCH  15  18
BRANCH  17  20
ATOM     20  O   UNL     1       7.822  20.720  38.089  1.00  0.00    -0.504 OA
ATOM     21  H   UNL     1       6.994  20.308  37.672  1.00  0.00     0.293 HD
ENDBRANCH  17  20
ENDBRANCH   1  12
BRANCH   6  22
ATOM     22  O   UNL     1      13.509  28.147  41.140  1.00  0.00    -0.507 OA
ATOM     23  H   UNL     1      13.960  27.513  41.791  1.00  0.00     0.293 HD
ENDBRANCH   6  22
BRANCH   8  24
ATOM     24  O   UNL     1      13.148  28.262  36.330  1.00  0.00    -0.508 OA
ATOM     25  H   UNL     1      12.603  28.149  35.483  1.00  0.00     0.293 HD
ENDBRANCH   8  24
TORSDOF 5
ENDMDL
MODEL 5
REMARK VINA RESULT:    -6.858      2.238      7.254
REMARK INTER + INTRA:          -8.377
REMARK INTER:                  -8.066
REMARK INTRA:                  -0.311
REMARK UNBOUND:                -0.317
REMARK SMILES O=c1cc(-c2ccc(O)c(O)c2)oc2cc(O)cc(O)c12
REMARK SMILES IDX 4 1 3 2 2 3 1 4 21 5 19 6 18 7 16 8 15 9 14 10 13 11 5 12
REMARK SMILES IDX 6 13 7 14 8 15 12 16 10 17 9 18 11 20 20 22 17 24
REMARK H PARENT 9 19 11 21 20 23 17 25
REMARK Flexibility Score: inf
ROOT
ATOM      1  C   UNL     1      10.740  26.645  41.547  1.00  0.00     0.138 A 
ATOM      2  C   UNL     1      10.498  27.152  42.835  1.00  0.00     0.100 A 
ATOM      3  C   UNL     1       9.438  26.641  43.585  1.00  0.00     0.197 A 
ATOM      4  O   UNL     1       9.228  27.103  44.739  1.00  0.00    -0.289 OA
ATOM      5  C   UNL     1       8.625  25.626  43.041  1.00  0.00     0.107 A 
ATOM      6  C   UNL     1       7.533  25.053  43.735  1.00  0.00     0.134 A 
ATOM      7  C   UNL     1       6.768  24.051  43.121  1.00  0.00     0.093 A 
ATOM      8  C   UNL     1       7.073  23.612  41.829  1.00  0.00     0.123 A 
ATOM      9  C   UNL     1       8.152  24.176  41.138  1.00  0.00     0.094 A 
ATOM     10  C   UNL     1       8.927  25.175  41.734  1.00  0.00     0.146 A 
ATOM     11  O   UNL     1       9.947  25.693  41.058  1.00  0.00    -0.456 OA
ENDROOT
BRANCH   1  12
ATOM     12  C   UNL     1      11.852  27.151  40.702  1.00  0.00     0.021 A 
ATOM     13  C   UNL     1      12.949  27.783  41.311  1.00  0.00     0.016 A 
ATOM     14  C   UNL     1      14.005  28.273  40.539  1.00  0.00     0.051 A 
ATOM     15  C   UNL     1      13.977  28.150  39.144  1.00  0.00     0.157 A 
ATOM     16  C   UNL     1      11.823  27.041  39.298  1.00  0.00     0.062 A 
ATOM     17  C   UNL     1      12.883  27.536  38.523  1.00  0.00     0.158 A 
BRANCH  15  18
ATOM     18  O   UNL     1      15.029  28.637  38.372  1.00  0.00    -0.504 OA
ATOM     19  H   UNL     1      15.394  29.573  38.501  1.00  0.00     0.293 HD
ENDBRANCH  15  18
BRANCH  17  20
ATOM     20  O   UNL     1      12.853  27.425  37.135  1.00  0.00    -0.504 OA
ATOM     21  H   UNL     1      13.065  28.213  36.534  1.00  0.00     0.293 HD
ENDBRANCH  17  20
ENDBRANCH   1  12
BRANCH   6  22
ATOM     22  O   UNL     1       7.204  25.471  45.025  1.00  0.00    -0.507 OA
ATOM     23  H   UNL     1       7.895  25.875  45.647  1.00  0.00     0.293 HD
ENDBRANCH   6  22
BRANCH   8  24
ATOM     24  O   UNL     1       6.297  22.615  41.242  1.00  0.00    -0.508 OA
ATOM     25  H   UNL     1       5.924  22.717  40.305  1.00  0.00     0.293 HD
ENDBRANCH   8  24
TORSDOF 5
ENDMDL
MODEL 6
REMARK VINA RESULT:    -6.808      9.400     11.089
REMARK INTER + INTRA:          -8.319
REMARK INTER:                  -8.048
REMARK INTRA:                  -0.271
REMARK UNBOUND:                -0.317
REMARK SMILES O=c1cc(-c2ccc(O)c(O)c2)oc2cc(O)cc(O)c12
REMARK SMILES IDX 4 1 3 2 2 3 1 4 21 5 19 6 18 7 16 8 15 9 14 10 13 11 5 12
REMARK SMILES IDX 6 13 7 14 8 15 12 16 10 17 9 18 11 20 20 22 17 24
REMARK H PARENT 9 19 11 21 20 23 17 25
REMARK Flexibility Score: inf
ROOT
ATOM      1  C   UNL     1      16.930  18.505  40.169  1.00  0.00     0.138 A 
ATOM      2  C   UNL     1      16.565  19.358  41.225  1.00  0.00     0.100 A 
ATOM      3  C   UNL     1      17.397  20.427  41.562  1.00  0.00     0.197 A 
ATOM      4  O   UNL     1      17.062  21.185  42.511  1.00  0.00    -0.289 OA
ATOM      5  C   UNL     1      18.590  20.635  40.842  1.00  0.00     0.107 A 
ATOM      6  C   UNL     1      19.487  21.693  41.118  1.00  0.00     0.134 A 
ATOM      7  C   UNL     1      20.658  21.828  40.358  1.00  0.00     0.093 A 
ATOM      8  C   UNL     1      20.950  20.927  39.331  1.00  0.00     0.123 A 
ATOM      9  C   UNL     1      20.066  19.877  39.054  1.00  0.00     0.094 A 
ATOM     10  C   UNL     1      18.893  19.726  39.799  1.00  0.00     0.146 A 
ATOM     11  O   UNL     1      18.069  18.723  39.515  1.00  0.00    -0.456 OA
ENDROOT
BRANCH   1  12
ATOM     12  C   UNL     1      16.086  17.351  39.766  1.00  0.00     0.021 A 
ATOM     13  C   UNL     1      16.648  16.064  39.729  1.00  0.00     0.016 A 
ATOM     14  C   UNL     1      15.877  14.963  39.347  1.00  0.00     0.051 A 
ATOM     15  C   UNL     1      14.535  15.132  38.986  1.00  0.00     0.157 A 
ATOM     16  C   UNL     1      14.738  17.516  39.389  1.00  0.00     0.062 A 
ATOM     17  C   UNL     1      13.966  16.410  39.004  1.00  0.00     0.158 A 
BRANCH  15  18
ATOM     18  O   UNL     1      13.764  14.035  38.606  1.00  0.00    -0.504 OA
ATOM     19  H   UNL     1      13.630  13.792  37.633  1.00  0.00     0.293 HD
ENDBRANCH  15  18
BRANCH  17  20
ATOM     20  O   UNL     1      12.633  16.576  38.634  1.00  0.00    -0.504 OA
ATOM     21  H   UNL     1      11.908  16.745  39.322  1.00  0.00     0.293 HD
ENDBRANCH  17  20
ENDBRANCH   1  12
BRANCH   6  22
ATOM     22  O   UNL     1      19.224  22.609  42.137  1.00  0.00    -0.507 OA
ATOM     23  H   UNL     1      18.688  23.454  41.970  1.00  0.00     0.293 HD
ENDBRANCH   6  22
BRANCH   8  24
ATOM     24  O   UNL     1      22.120  21.083  38.592  1.00  0.00    -0.508 OA
ATOM     25  H   UNL     1      22.122  21.014  37.581  1.00  0.00     0.293 HD
ENDBRANCH   8  24
TORSDOF 5
ENDMDL
MODEL 7
REMARK VINA RESULT:    -6.760      1.990      7.277
REMARK INTER + INTRA:          -8.262
REMARK INTER:                  -7.968
REMARK INTRA:                  -0.294
REMARK UNBOUND:                -0.317
REMARK SMILES O=c1cc(-c2ccc(O)c(O)c2)oc2cc(O)cc(O)c12
REMARK SMILES IDX 4 1 3 2 2 3 1 4 21 5 19 6 18 7 16 8 15 9 14 10 13 11 5 12
REMARK SMILES IDX 6 13 7 14 8 15 12 16 10 17 9 18 11 20 20 22 17 24
REMARK H PARENT 9 19 11 21 20 23 17 25
REMARK Flexibility Score: inf
ROOT
ATOM      1  C   UNL     1      10.689  26.023  40.128  1.00  0.00     0.138 A 
ATOM      2  C   UNL     1      11.593  27.043  40.469  1.00  0.00     0.100 A 
ATOM      3  C   UNL     1      11.496  27.658  41.718  1.00  0.00     0.197 A 
ATOM      4  O   UNL     1      12.311  28.573  42.014  1.00  0.00    -0.289 OA
ATOM      5  C   UNL     1      10.492  27.249  42.619  1.00  0.00     0.107 A 
ATOM      6  C   UNL     1      10.325  27.819  43.903  1.00  0.00     0.134 A 
ATOM      7  C   UNL     1       9.296  27.360  44.738  1.00  0.00     0.093 A 
ATOM      8  C   UNL     1       8.433  26.346  44.315  1.00  0.00     0.123 A 
ATOM      9  C   UNL     1       8.593  25.780  43.045  1.00  0.00     0.094 A 
ATOM     10  C   UNL     1       9.613  26.223  42.198  1.00  0.00     0.146 A 
ATOM     11  O   UNL     1       9.745  25.668  40.998  1.00  0.00    -0.456 OA
ENDROOT
BRANCH   1  12
ATOM     12  C   UNL     1      10.743  25.334  38.814  1.00  0.00     0.021 A 
ATOM     13  C   UNL     1       9.641  24.576  38.386  1.00  0.00     0.016 A 
ATOM     14  C   UNL     1       9.669  23.913  37.156  1.00  0.00     0.051 A 
ATOM     15  C   UNL     1      10.804  23.988  36.339  1.00  0.00     0.157 A 
ATOM     16  C   UNL     1      11.887  25.395  37.993  1.00  0.00     0.062 A 
ATOM     17  C   UNL     1      11.915  24.727  36.760  1.00  0.00     0.158 A 
BRANCH  15  18
ATOM     18  O   UNL     1      10.835  23.328  35.112  1.00  0.00    -0.504 OA
ATOM     19  H   UNL     1      11.459  23.618  34.369  1.00  0.00     0.293 HD
ENDBRANCH  15  18
BRANCH  17  20
ATOM     20  O   UNL     1      13.047  24.791  35.949  1.00  0.00    -0.504 OA
ATOM     21  H   UNL     1      12.974  24.834  34.939  1.00  0.00     0.293 HD
ENDBRANCH  17  20
ENDBRANCH   1  12
BRANCH   6  22
ATOM     22  O   UNL     1      11.171  28.832  44.354  1.00  0.00    -0.507 OA
ATOM     23  H   UNL     1      11.727  29.388  43.713  1.00  0.00     0.293 HD
ENDBRANCH   6  22
BRANCH   8  24
ATOM     24  O   UNL     1       7.418  25.909  45.164  1.00  0.00    -0.508 OA
ATOM     25  H   UNL     1       6.904  25.056  44.980  1.00  0.00     0.293 HD
ENDBRANCH   8  24
TORSDOF 5
ENDMDL
MODEL 8
REMARK VINA RESULT:    -6.712      1.246      2.904
REMARK INTER + INTRA:          -8.206
REMARK INTER:                  -7.912
REMARK INTRA:                  -0.295
REMARK UNBOUND:                -0.317
REMARK SMILES O=c1cc(-c2ccc(O)c(O)c2)oc2cc(O)cc(O)c12
REMARK SMILES IDX 4 1 3 2 2 3 1 4 21 5 19 6 18 7 16 8 15 9 14 10 13 11 5 12
REMARK SMILES IDX 6 13 7 14 8 15 12 16 10 17 9 18 11 20 20 22 17 24
REMARK H PARENT 9 19 11 21 20 23 17 25
REMARK Flexibility Score: inf
ROOT
ATOM      1  C   UNL     1       9.997  25.916  41.211  1.00  0.00     0.138 A 
ATOM      2  C   UNL     1      10.837  27.039  41.130  1.00  0.00     0.100 A 
ATOM      3  C   UNL     1      11.622  27.228  39.991  1.00  0.00     0.197 A 
ATOM      4  O   UNL     1      12.373  28.238  39.928  1.00  0.00    -0.289 OA
ATOM      5  C   UNL     1      11.562  26.290  38.941  1.00  0.00     0.107 A 
ATOM      6  C   UNL     1      12.322  26.407  37.754  1.00  0.00     0.134 A 
ATOM      7  C   UNL     1      12.211  25.426  36.758  1.00  0.00     0.093 A 
ATOM      8  C   UNL     1      11.357  24.333  36.925  1.00  0.00     0.123 A 
ATOM      9  C   UNL     1      10.603  24.212  38.098  1.00  0.00     0.094 A 
ATOM     10  C   UNL     1      10.700  25.179  39.103  1.00  0.00     0.146 A 
ATOM     11  O   UNL     1       9.972  25.043  40.206  1.00  0.00    -0.456 OA
ENDROOT
BRANCH   1  12
ATOM     12  C   UNL     1       9.141  25.662  42.398  1.00  0.00     0.021 A 
ATOM     13  C   UNL     1       8.565  24.393  42.576  1.00  0.00     0.016 A 
ATOM     14  C   UNL     1       7.751  24.130  43.680  1.00  0.00     0.051 A 
ATOM     15  C   UNL     1       7.490  25.135  44.620  1.00  0.00     0.157 A 
ATOM     16  C   UNL     1       8.864  26.673  43.340  1.00  0.00     0.062 A 
ATOM     17  C   UNL     1       8.044  26.408  44.447  1.00  0.00     0.158 A 
BRANCH  15  18
ATOM     18  O   UNL     1       6.679  24.876  45.723  1.00  0.00    -0.504 OA
ATOM     19  H   UNL     1       6.939  25.174  46.655  1.00  0.00     0.293 HD
ENDBRANCH  15  18
BRANCH  17  20
ATOM     20  O   UNL     1       7.773  27.409  45.379  1.00  0.00    -0.504 OA
ATOM     21  H   UNL     1       7.663  27.201  46.365  1.00  0.00     0.293 HD
ENDBRANCH  17  20
ENDBRANCH   1  12
BRANCH   6  22
ATOM     22  O   UNL     1      13.184  27.486  37.557  1.00  0.00    -0.507 OA
ATOM     23  H   UNL     1      12.892  28.442  37.733  1.00  0.00     0.293 HD
ENDBRANCH   6  22
BRANCH   8  24
ATOM     24  O   UNL     1      11.265  23.372  35.921  1.00  0.00    -0.508 OA
ATOM     25  H   UNL     1      11.885  22.571  35.895  1.00  0.00     0.293 HD
ENDBRANCH   8  24
TORSDOF 5
ENDMDL
MODEL 9
REMARK VINA RESULT:    -6.611      1.708      6.687
REMARK INTER + INTRA:          -8.088
REMARK INTER:                  -7.770
REMARK INTRA:                  -0.318
REMARK UNBOUND:                -0.317
REMARK SMILES O=c1cc(-c2ccc(O)c(O)c2)oc2cc(O)cc(O)c12
REMARK SMILES IDX 4 1 3 2 2 3 1 4 21 5 19 6 18 7 16 8 15 9 14 10 13 11 5 12
REMARK SMILES IDX 6 13 7 14 8 15 12 16 10 17 9 18 11 20 20 22 17 24
REMARK H PARENT 9 19 11 21 20 23 17 25
REMARK Flexibility Score: inf
ROOT
ATOM      1  C   UNL     1       9.395  25.057  40.481  1.00  0.00     0.138 A 
ATOM      2  C   UNL     1       8.206  24.587  41.066  1.00  0.00     0.100 A 
ATOM      3  C   UNL     1       7.872  24.989  42.359  1.00  0.00     0.197 A 
ATOM      4  O   UNL     1       6.805  24.561  42.876  1.00  0.00    -0.289 OA
ATOM      5  C   UNL     1       8.731  25.859  43.062  1.00  0.00     0.107 A 
ATOM      6  C   UNL     1       8.466  26.315  44.374  1.00  0.00     0.134 A 
ATOM      7  C   UNL     1       9.375  27.175  45.008  1.00  0.00     0.093 A 
ATOM      8  C   UNL     1      10.541  27.586  44.356  1.00  0.00     0.123 A 
ATOM      9  C   UNL     1      10.808  27.137  43.058  1.00  0.00     0.094 A 
ATOM     10  C   UNL     1       9.914  26.280  42.409  1.00  0.00     0.146 A 
ATOM     11  O   UNL     1      10.189  25.869  41.175  1.00  0.00    -0.456 OA
ENDROOT
BRANCH   1  12
ATOM     12  C   UNL     1       9.802  24.662  39.109  1.00  0.00     0.021 A 
ATOM     13  C   UNL     1       9.072  23.672  38.430  1.00  0.00     0.016 A 
ATOM     14  C   UNL     1       9.438  23.278  37.140  1.00  0.00     0.051 A 
ATOM     15  C   UNL     1      10.547  23.858  36.513  1.00  0.00     0.157 A 
ATOM     16  C   UNL     1      10.925  25.233  38.477  1.00  0.00     0.062 A 
ATOM     17  C   UNL     1      11.293  24.834  37.183  1.00  0.00     0.158 A 
BRANCH  15  18
ATOM     18  O   UNL     1      10.914  23.467  35.227  1.00  0.00    -0.504 OA
ATOM     19  H   UNL     1      10.889  24.114  34.448  1.00  0.00     0.293 HD
ENDBRANCH  15  18
BRANCH  17  20
ATOM     20  O   UNL     1      12.402  25.402  36.560  1.00  0.00    -0.504 OA
ATOM     21  H   UNL     1      13.282  25.523  37.049  1.00  0.00     0.293 HD
ENDBRANCH  17  20
ENDBRANCH   1  12
BRANCH   6  22
ATOM     22  O   UNL     1       7.311  25.923  45.051  1.00  0.00    -0.507 OA
ATOM     23  H   UNL     1       7.287  25.840  46.062  1.00  0.00     0.293 HD
ENDBRANCH   6  22
BRANCH   8  24
ATOM     24  O   UNL     1      11.427  28.440  45.007  1.00  0.00    -0.508 OA
ATOM     25  H   UNL     1      12.429  28.372  44.867  1.00  0.00     0.293 HD
ENDBRANCH   8  24
TORSDOF 5
ENDMDL
