MODEL 1
REMARK VINA RESULT:    -2.567      0.000      0.000
REMARK INTER + INTRA:          -6.134
REMARK INTER:                  -4.818
REMARK INTRA:                  -1.316
REMARK UNBOUND:                -1.316
REMARK SMILES CCCCCCCCC=CCCCCCCCC(=O)[O-]
REMARK SMILES IDX 10 1 9 2 11 3 12 4 13 5 14 6 15 7 16 8 17 9 18 10 19 11
REMARK SMILES IDX 20 12 8 13 7 14 6 15 5 16 4 17 3 18 2 19 1 20
REMARK H PARENT
REMARK Flexibility Score: inf
ROOT
ATOM      1  C   UNL     1      -8.908  14.216 -15.216  1.00  0.00    -0.031 C 
ATOM      2  C   UNL     1      -8.291  15.009 -16.105  1.00  0.00    -0.031 C 
ENDROOT
BRANCH   1   3
ATOM      3  C   UNL     1      -8.723  12.723 -15.263  1.00  0.00     0.027 C 
BRANCH   3   4
ATOM      4  C   UNL     1      -7.281  12.327 -15.612  1.00  0.00     0.004 C 
BRANCH   4   5
ATOM      5  C   UNL     1      -6.430  12.075 -14.356  1.00  0.00     0.000 C 
BRANCH   5   6
ATOM      6  C   UNL     1      -6.452  13.263 -13.381  1.00  0.00     0.000 C 
BRANCH   6   7
ATOM      7  C   UNL     1      -7.391  13.027 -12.186  1.00  0.00     0.000 C 
BRANCH   7   8
ATOM      8  C   UNL     1      -7.972  14.331 -11.610  1.00  0.00     0.006 C 
BRANCH   8   9
ATOM      9  C   UNL     1      -7.652  15.580 -12.451  1.00  0.00     0.053 C 
BRANCH   9  10
ATOM     10  C   UNL     1      -8.788  16.559 -12.481  1.00  0.00     0.041 C 
ATOM     11  O   UNL     1      -9.947  16.173 -12.782  1.00  0.00    -0.550 OA
ATOM     12  O   UNL     1      -8.559  17.902 -12.211  1.00  0.00    -0.550 OA
ENDBRANCH   9  10
ENDBRANCH   8   9
ENDBRANCH   7   8
ENDBRANCH   6   7
ENDBRANCH   5   6
ENDBRANCH   4   5
ENDBRANCH   3   4
ENDBRANCH   1   3
BRANCH   2  13
ATOM     13  C   UNL     1      -8.459  16.505 -16.080  1.00  0.00     0.027 C 
BRANCH  13  14
ATOM     14  C   UNL     1      -7.159  17.235 -15.709  1.00  0.00     0.004 C 
BRANCH  14  15
ATOM     15  C   UNL     1      -7.193  18.718 -16.118  1.00  0.00     0.000 C 
BRANCH  15  16
ATOM     16  C   UNL     1      -8.375  19.476 -15.495  1.00  0.00     0.000 C 
BRANCH  16  17
ATOM     17  C   UNL     1      -8.002  20.902 -15.053  1.00  0.00    -0.000 C 
BRANCH  17  18
ATOM     18  C   UNL     1      -6.475  21.119 -15.018  1.00  0.00    -0.000 C 
BRANCH  18  19
ATOM     19  C   UNL     1      -5.877  21.061 -13.602  1.00  0.00    -0.003 C 
ATOM     20  C   UNL     1      -6.939  21.013 -12.505  1.00  0.00     0.004 C 
ENDBRANCH  18  19
ENDBRANCH  17  18
ENDBRANCH  16  17
ENDBRANCH  15  16
ENDBRANCH  14  15
ENDBRANCH  13  14
ENDBRANCH   2  13
TORSDOF 15
ENDMDL
MODEL 2
REMARK VINA RESULT:    -2.173      1.839      4.038
REMARK INTER + INTRA:          -5.394
REMARK INTER:                  -4.489
REMARK INTRA:                  -0.905
REMARK UNBOUND:                -1.316
REMARK SMILES CCCCCCCCC=CCCCCCCCC(=O)[O-]
REMARK SMILES IDX 10 1 9 2 11 3 12 4 13 5 14 6 15 7 16 8 17 9 18 10 19 11
REMARK SMILES IDX 20 12 8 13 7 14 6 15 5 16 4 17 3 18 2 19 1 20
REMARK H PARENT
REMARK Flexibility Score: inf
ROOT
ATOM      1  C   UNL     1      -9.252  17.268 -12.687  1.00  0.00    -0.031 C 
ATOM      2  C   UNL     1      -8.496  18.345 -12.944  1.00  0.00    -0.031 C 
ENDROOT
BRANCH   1   3
ATOM      3  C   UNL     1      -8.835  15.905 -13.173  1.00  0.00     0.027 C 
BRANCH   3   4
ATOM      4  C   UNL     1      -8.245  15.043 -12.048  1.00  0.00     0.004 C 
BRANCH   4   5
ATOM      5  C   UNL     1      -7.464  13.835 -12.594  1.00  0.00     0.000 C 
BRANCH   5   6
ATOM      6  C   UNL     1      -6.917  14.077 -14.009  1.00  0.00     0.000 C 
BRANCH   6   7
ATOM      7  C   UNL     1      -6.497  12.774 -14.710  1.00  0.00     0.000 C 
BRANCH   7   8
ATOM      8  C   UNL     1      -7.100  12.626 -16.119  1.00  0.00     0.006 C 
BRANCH   8   9
ATOM      9  C   UNL     1      -8.546  12.096 -16.125  1.00  0.00     0.053 C 
BRANCH   9  10
ATOM     10  C   UNL     1      -9.562  13.196 -16.058  1.00  0.00     0.041 C 
ATOM     11  O   UNL     1     -10.787  12.921 -15.976  1.00  0.00    -0.550 OA
ATOM     12  O   UNL     1      -9.158  14.524 -16.121  1.00  0.00    -0.550 OA
ENDBRANCH   9  10
ENDBRANCH   8   9
ENDBRANCH   7   8
ENDBRANCH   6   7
ENDBRANCH   5   6
ENDBRANCH   4   5
ENDBRANCH   3   4
ENDBRANCH   1   3
BRANCH   2  13
ATOM     13  C   UNL     1      -8.889  19.719 -12.470  1.00  0.00     0.027 C 
BRANCH  13  14
ATOM     14  C   UNL     1      -8.014  20.824 -13.080  1.00  0.00     0.004 C 
BRANCH  14  15
ATOM     15  C   UNL     1      -6.527  20.430 -13.116  1.00  0.00     0.000 C 
BRANCH  15  16
ATOM     16  C   UNL     1      -5.876  20.709 -14.481  1.00  0.00     0.000 C 
BRANCH  16  17
ATOM     17  C   UNL     1      -6.880  20.636 -15.645  1.00  0.00    -0.000 C 
BRANCH  17  18
ATOM     18  C   UNL     1      -7.110  19.188 -16.125  1.00  0.00    -0.000 C 
BRANCH  18  19
ATOM     19  C   UNL     1      -6.397  18.133 -15.262  1.00  0.00    -0.003 C 
ATOM     20  C   UNL     1      -6.291  16.772 -15.947  1.00  0.00     0.004 C 
ENDBRANCH  18  19
ENDBRANCH  17  18
ENDBRANCH  16  17
ENDBRANCH  15  16
ENDBRANCH  14  15
ENDBRANCH  13  14
ENDBRANCH   2  13
TORSDOF 15
ENDMDL
MODEL 3
REMARK VINA RESULT:    -1.648      1.726      3.081
REMARK INTER + INTRA:          -4.409
REMARK INTER:                  -3.463
REMARK INTRA:                  -0.946
REMARK UNBOUND:                -1.316
REMARK SMILES CCCCCCCCC=CCCCCCCCC(=O)[O-]
REMARK SMILES IDX 10 1 9 2 11 3 12 4 13 5 14 6 15 7 16 8 17 9 18 10 19 11
REMARK SMILES IDX 20 12 8 13 7 14 6 15 5 16 4 17 3 18 2 19 1 20
REMARK H PARENT
REMARK Flexibility Score: inf
ROOT
ATOM      1  C   UNL     1      -8.799  15.808 -12.633  1.00  0.00    -0.031 C 
ATOM      2  C   UNL     1      -8.791  16.991 -12.001  1.00  0.00    -0.031 C 
ENDROOT
BRANCH   1   3
ATOM      3  C   UNL     1      -8.557  14.532 -11.872  1.00  0.00     0.027 C 
BRANCH   3   4
ATOM      4  C   UNL     1      -7.195  13.907 -12.206  1.00  0.00     0.004 C 
BRANCH   4   5
ATOM      5  C   UNL     1      -7.338  12.548 -12.912  1.00  0.00     0.000 C 
BRANCH   5   6
ATOM      6  C   UNL     1      -8.357  12.586 -14.063  1.00  0.00     0.000 C 
BRANCH   6   7
ATOM      7  C   UNL     1      -7.693  12.447 -15.443  1.00  0.00     0.000 C 
BRANCH   7   8
ATOM      8  C   UNL     1      -6.198  12.811 -15.432  1.00  0.00     0.006 C 
BRANCH   8   9
ATOM      9  C   UNL     1      -5.876  14.148 -16.125  1.00  0.00     0.053 C 
BRANCH   9  10
ATOM     10  C   UNL     1      -6.630  15.299 -15.530  1.00  0.00     0.041 C 
ATOM     11  O   UNL     1      -7.787  15.577 -15.940  1.00  0.00    -0.550 OA
ATOM     12  O   UNL     1      -6.041  16.087 -14.548  1.00  0.00    -0.550 OA
ENDBRANCH   9  10
ENDBRANCH   8   9
ENDBRANCH   7   8
ENDBRANCH   6   7
ENDBRANCH   5   6
ENDBRANCH   4   5
ENDBRANCH   3   4
ENDBRANCH   1   3
BRANCH   2  13
ATOM     13  C   UNL     1      -9.031  18.282 -12.738  1.00  0.00     0.027 C 
BRANCH  13  14
ATOM     14  C   UNL     1      -9.280  18.065 -14.238  1.00  0.00     0.004 C 
BRANCH  14  15
ATOM     15  C   UNL     1      -8.213  18.753 -15.108  1.00  0.00     0.000 C 
BRANCH  15  16
ATOM     16  C   UNL     1      -8.579  20.205 -15.452  1.00  0.00     0.000 C 
BRANCH  16  17
ATOM     17  C   UNL     1      -7.347  21.123 -15.541  1.00  0.00    -0.000 C 
BRANCH  17  18
ATOM     18  C   UNL     1      -6.040  20.378 -15.201  1.00  0.00    -0.000 C 
BRANCH  18  19
ATOM     19  C   UNL     1      -5.911  20.009 -13.713  1.00  0.00    -0.003 C 
ATOM     20  C   UNL     1      -6.444  21.093 -12.779  1.00  0.00     0.004 C 
ENDBRANCH  18  19
ENDBRANCH  17  18
ENDBRANCH  16  17
ENDBRANCH  15  16
ENDBRANCH  14  15
ENDBRANCH  13  14
ENDBRANCH   2  13
TORSDOF 15
ENDMDL
MODEL 4
REMARK VINA RESULT:    -1.630      1.322      5.485
REMARK INTER + INTRA:          -4.376
REMARK INTER:                  -2.978
REMARK INTRA:                  -1.398
REMARK UNBOUND:                -1.316
REMARK SMILES CCCCCCCCC=CCCCCCCCC(=O)[O-]
REMARK SMILES IDX 10 1 9 2 11 3 12 4 13 5 14 6 15 7 16 8 17 9 18 10 19 11
REMARK SMILES IDX 20 12 8 13 7 14 6 15 5 16 4 17 3 18 2 19 1 20
REMARK H PARENT
REMARK Flexibility Score: inf
ROOT
ATOM      1  C   UNL     1      -8.048  14.481 -15.683  1.00  0.00    -0.031 C 
ATOM      2  C   UNL     1      -8.590  13.262 -15.823  1.00  0.00    -0.031 C 
ENDROOT
BRANCH   1   3
ATOM      3  C   UNL     1      -8.825  15.713 -16.064  1.00  0.00     0.027 C 
BRANCH   3   4
ATOM      4  C   UNL     1      -7.962  16.982 -16.012  1.00  0.00     0.004 C 
BRANCH   4   5
ATOM      5  C   UNL     1      -6.721  16.802 -15.121  1.00  0.00     0.000 C 
BRANCH   5   6
ATOM      6  C   UNL     1      -5.875  18.082 -15.023  1.00  0.00     0.000 C 
BRANCH   6   7
ATOM      7  C   UNL     1      -6.317  19.159 -16.029  1.00  0.00     0.000 C 
BRANCH   7   8
ATOM      8  C   UNL     1      -7.529  19.975 -15.544  1.00  0.00     0.006 C 
BRANCH   8   9
ATOM      9  C   UNL     1      -7.171  21.092 -14.548  1.00  0.00     0.053 C 
BRANCH   9  10
ATOM     10  C   UNL     1      -7.346  20.667 -13.121  1.00  0.00     0.041 C 
ATOM     11  O   UNL     1      -6.496  20.998 -12.253  1.00  0.00    -0.550 OA
ATOM     12  O   UNL     1      -8.427  19.875 -12.755  1.00  0.00    -0.550 OA
ENDBRANCH   9  10
ENDBRANCH   8   9
ENDBRANCH   7   8
ENDBRANCH   6   7
ENDBRANCH   5   6
ENDBRANCH   4   5
ENDBRANCH   3   4
ENDBRANCH   1   3
BRANCH   2  13
ATOM     13  C   UNL     1      -7.835  12.014 -15.449  1.00  0.00     0.027 C 
BRANCH  13  14
ATOM     14  C   UNL     1      -6.337  12.276 -15.235  1.00  0.00     0.004 C 
BRANCH  14  15
ATOM     15  C   UNL     1      -5.959  12.291 -13.743  1.00  0.00     0.000 C 
BRANCH  15  16
ATOM     16  C   UNL     1      -7.149  12.647 -12.837  1.00  0.00     0.000 C 
BRANCH  16  17
ATOM     17  C   UNL     1      -7.011  14.036 -12.191  1.00  0.00    -0.000 C 
BRANCH  17  18
ATOM     18  C   UNL     1      -8.381  14.695 -11.928  1.00  0.00    -0.000 C 
BRANCH  18  19
ATOM     19  C   UNL     1      -8.484  16.135 -12.458  1.00  0.00    -0.003 C 
ATOM     20  C   UNL     1      -9.922  16.645 -12.530  1.00  0.00     0.004 C 
ENDBRANCH  18  19
ENDBRANCH  17  18
ENDBRANCH  16  17
ENDBRANCH  15  16
ENDBRANCH  14  15
ENDBRANCH  13  14
ENDBRANCH   2  13
TORSDOF 15
ENDMDL
MODEL 5
REMARK VINA RESULT:    -1.626      1.759      3.599
REMARK INTER + INTRA:          -4.368
REMARK INTER:                  -4.124
REMARK INTRA:                  -0.244
REMARK UNBOUND:                -1.316
REMARK SMILES CCCCCCCCC=CCCCCCCCC(=O)[O-]
REMARK SMILES IDX 10 1 9 2 11 3 12 4 13 5 14 6 15 7 16 8 17 9 18 10 19 11
REMARK SMILES IDX 20 12 8 13 7 14 6 15 5 16 4 17 3 18 2 19 1 20
REMARK H PARENT
REMARK Flexibility Score: inf
ROOT
ATOM      1  C   UNL     1      -8.706  16.450 -12.854  1.00  0.00    -0.031 C 
ATOM      2  C   UNL     1      -8.909  17.683 -13.343  1.00  0.00    -0.031 C 
ENDROOT
BRANCH   1   3
ATOM      3  C   UNL     1      -8.731  15.251 -13.765  1.00  0.00     0.027 C 
BRANCH   3   4
ATOM      4  C   UNL     1      -8.720  15.647 -15.248  1.00  0.00     0.004 C 
BRANCH   4   5
ATOM      5  C   UNL     1      -8.021  14.594 -16.124  1.00  0.00     0.000 C 
BRANCH   5   6
ATOM      6  C   UNL     1      -6.494  14.602 -15.949  1.00  0.00     0.000 C 
BRANCH   6   7
ATOM      7  C   UNL     1      -5.875  13.202 -16.104  1.00  0.00     0.000 C 
BRANCH   7   8
ATOM      8  C   UNL     1      -6.088  12.309 -14.868  1.00  0.00     0.006 C 
BRANCH   8   9
ATOM      9  C   UNL     1      -6.031  13.071 -13.532  1.00  0.00     0.053 C 
BRANCH   9  10
ATOM     10  C   UNL     1      -7.334  13.031 -12.791  1.00  0.00     0.041 C 
ATOM     11  O   UNL     1      -8.347  12.504 -13.321  1.00  0.00    -0.550 OA
ATOM     12  O   UNL     1      -7.439  13.605 -11.530  1.00  0.00    -0.550 OA
ENDBRANCH   9  10
ENDBRANCH   8   9
ENDBRANCH   7   8
ENDBRANCH   6   7
ENDBRANCH   5   6
ENDBRANCH   4   5
ENDBRANCH   3   4
ENDBRANCH   1   3
BRANCH   2  13
ATOM     13  C   UNL     1      -8.889  18.898 -12.455  1.00  0.00     0.027 C 
BRANCH  13  14
ATOM     14  C   UNL     1      -8.458  20.167 -13.206  1.00  0.00     0.004 C 
BRANCH  14  15
ATOM     15  C   UNL     1      -7.079  20.672 -12.746  1.00  0.00     0.000 C 
BRANCH  15  16
ATOM     16  C   UNL     1      -6.195  21.125 -13.918  1.00  0.00     0.000 C 
BRANCH  16  17
ATOM     17  C   UNL     1      -6.801  20.776 -15.289  1.00  0.00    -0.000 C 
BRANCH  17  18
ATOM     18  C   UNL     1      -5.885  19.845 -16.110  1.00  0.00    -0.000 C 
BRANCH  18  19
ATOM     19  C   UNL     1      -6.226  18.353 -15.955  1.00  0.00    -0.003 C 
ATOM     20  C   UNL     1      -5.931  17.814 -14.557  1.00  0.00     0.004 C 
ENDBRANCH  18  19
ENDBRANCH  17  18
ENDBRANCH  16  17
ENDBRANCH  15  16
ENDBRANCH  14  15
ENDBRANCH  13  14
ENDBRANCH   2  13
TORSDOF 15
ENDMDL
MODEL 6
REMARK VINA RESULT:    -1.221      1.378      6.335
REMARK INTER + INTRA:          -3.608
REMARK INTER:                  -4.360
REMARK INTRA:                   0.752
REMARK UNBOUND:                -1.316
REMARK SMILES CCCCCCCCC=CCCCCCCCC(=O)[O-]
REMARK SMILES IDX 10 1 9 2 11 3 12 4 13 5 14 6 15 7 16 8 17 9 18 10 19 11
REMARK SMILES IDX 20 12 8 13 7 14 6 15 5 16 4 17 3 18 2 19 1 20
REMARK H PARENT
REMARK Flexibility Score: inf
ROOT
ATOM      1  C   UNL     1      -7.241  15.700 -15.166  1.00  0.00    -0.031 C 
ATOM      2  C   UNL     1      -6.842  15.144 -14.013  1.00  0.00    -0.031 C 
ENDROOT
BRANCH   1   3
ATOM      3  C   UNL     1      -6.281  16.506 -16.001  1.00  0.00     0.027 C 
BRANCH   3   4
ATOM      4  C   UNL     1      -6.704  17.978 -16.113  1.00  0.00     0.004 C 
BRANCH   4   5
ATOM      5  C   UNL     1      -6.728  18.679 -14.744  1.00  0.00     0.000 C 
BRANCH   5   6
ATOM      6  C   UNL     1      -6.293  20.150 -14.827  1.00  0.00     0.000 C 
BRANCH   6   7
ATOM      7  C   UNL     1      -6.753  20.971 -13.610  1.00  0.00     0.000 C 
BRANCH   7   8
ATOM      8  C   UNL     1      -7.477  20.122 -12.549  1.00  0.00     0.006 C 
BRANCH   8   9
ATOM      9  C   UNL     1      -8.875  19.643 -12.981  1.00  0.00     0.053 C 
BRANCH   9  10
ATOM     10  C   UNL     1      -9.051  18.163 -12.821  1.00  0.00     0.041 C 
ATOM     11  O   UNL     1      -8.638  17.586 -11.781  1.00  0.00    -0.550 OA
ATOM     12  O   UNL     1      -9.638  17.416 -13.834  1.00  0.00    -0.550 OA
ENDBRANCH   9  10
ENDBRANCH   8   9
ENDBRANCH   7   8
ENDBRANCH   6   7
ENDBRANCH   5   6
ENDBRANCH   4   5
ENDBRANCH   3   4
ENDBRANCH   1   3
BRANCH   2  13
ATOM     13  C   UNL     1      -7.781  14.334 -13.160  1.00  0.00     0.027 C 
BRANCH  13  14
ATOM     14  C   UNL     1      -7.783  12.846 -13.539  1.00  0.00     0.004 C 
BRANCH  14  15
ATOM     15  C   UNL     1      -6.361  12.260 -13.591  1.00  0.00     0.000 C 
BRANCH  15  16
ATOM     16  C   UNL     1      -5.901  11.955 -15.026  1.00  0.00     0.000 C 
BRANCH  16  17
ATOM     17  C   UNL     1      -6.871  12.497 -16.090  1.00  0.00    -0.000 C 
BRANCH  17  18
ATOM     18  C   UNL     1      -8.196  11.708 -16.125  1.00  0.00    -0.000 C 
BRANCH  18  19
ATOM     19  C   UNL     1      -9.447  12.602 -16.080  1.00  0.00    -0.003 C 
ATOM     20  C   UNL     1     -10.713  11.843 -15.687  1.00  0.00     0.004 C 
ENDBRANCH  18  19
ENDBRANCH  17  18
ENDBRANCH  16  17
ENDBRANCH  15  16
ENDBRANCH  14  15
ENDBRANCH  13  14
ENDBRANCH   2  13
TORSDOF 15
ENDMDL
MODEL 7
REMARK VINA RESULT:    -1.123      1.688      6.356
REMARK INTER + INTRA:          -3.425
REMARK INTER:                  -2.479
REMARK INTRA:                  -0.945
REMARK UNBOUND:                -1.316
REMARK SMILES CCCCCCCCC=CCCCCCCCC(=O)[O-]
REMARK SMILES IDX 10 1 9 2 11 3 12 4 13 5 14 6 15 7 16 8 17 9 18 10 19 11
REMARK SMILES IDX 20 12 8 13 7 14 6 15 5 16 4 17 3 18 2 19 1 20
REMARK H PARENT
REMARK Flexibility Score: inf
ROOT
ATOM      1  C   UNL     1      -9.295  16.236 -12.445  1.00  0.00    -0.031 C 
ATOM      2  C   UNL     1      -9.049  15.926 -13.726  1.00  0.00    -0.031 C 
ENDROOT
BRANCH   1   3
ATOM      3  C   UNL     1      -8.965  17.605 -11.911  1.00  0.00     0.027 C 
BRANCH   3   4
ATOM      4  C   UNL     1      -9.218  18.709 -12.947  1.00  0.00     0.004 C 
BRANCH   4   5
ATOM      5  C   UNL     1      -8.018  19.663 -13.081  1.00  0.00     0.000 C 
BRANCH   5   6
ATOM      6  C   UNL     1      -8.199  20.680 -14.219  1.00  0.00     0.000 C 
BRANCH   6   7
ATOM      7  C   UNL     1      -6.905  20.903 -15.022  1.00  0.00     0.000 C 
BRANCH   7   8
ATOM      8  C   UNL     1      -5.876  19.775 -14.830  1.00  0.00     0.006 C 
BRANCH   8   9
ATOM      9  C   UNL     1      -6.030  18.614 -15.828  1.00  0.00     0.053 C 
BRANCH   9  10
ATOM     10  C   UNL     1      -6.053  17.275 -15.154  1.00  0.00     0.041 C 
ATOM     11  O   UNL     1      -6.201  17.198 -13.906  1.00  0.00    -0.550 OA
ATOM     12  O   UNL     1      -5.875  16.115 -15.898  1.00  0.00    -0.550 OA
ENDBRANCH   9  10
ENDBRANCH   8   9
ENDBRANCH   7   8
ENDBRANCH   6   7
ENDBRANCH   5   6
ENDBRANCH   4   5
ENDBRANCH   3   4
ENDBRANCH   1   3
BRANCH   2  13
ATOM     13  C   UNL     1      -9.369  14.566 -14.286  1.00  0.00     0.027 C 
BRANCH  13  14
ATOM     14  C   UNL     1      -9.044  14.455 -15.783  1.00  0.00     0.004 C 
BRANCH  14  15
ATOM     15  C   UNL     1      -8.332  13.134 -16.124  1.00  0.00     0.000 C 
BRANCH  15  16
ATOM     16  C   UNL     1      -6.811  13.213 -15.916  1.00  0.00     0.000 C 
BRANCH  16  17
ATOM     17  C   UNL     1      -6.207  11.881 -15.438  1.00  0.00    -0.000 C 
BRANCH  17  18
ATOM     18  C   UNL     1      -6.161  11.782 -13.899  1.00  0.00    -0.000 C 
BRANCH  18  19
ATOM     19  C   UNL     1      -6.114  13.148 -13.195  1.00  0.00    -0.003 C 
ATOM     20  C   UNL     1      -7.268  13.358 -12.216  1.00  0.00     0.004 C 
ENDBRANCH  18  19
ENDBRANCH  17  18
ENDBRANCH  16  17
ENDBRANCH  15  16
ENDBRANCH  14  15
ENDBRANCH  13  14
ENDBRANCH   2  13
TORSDOF 15
ENDMDL
