MODEL 1
REMARK VINA RESULT:    -4.591      0.000      0.000
REMARK INTER + INTRA:         -10.842
REMARK INTER:                  -8.348
REMARK INTRA:                  -2.494
REMARK UNBOUND:                -2.494
REMARK SMILES CCCCCCCCCCCCCCCC(=O)[O-]
REMARK SMILES IDX 9 1 10 2 11 3 12 4 13 5 14 6 15 7 16 8 17 9 18 10 8 11 7 12
REMARK SMILES IDX 6 13 5 14 4 15 3 16 2 17 1 18
REMARK H PARENT
REMARK Flexibility Score: inf
ROOT
ATOM      1  C   UNL     1     -34.416  38.072  43.640  1.00  0.00     0.000 C 
ENDROOT
BRANCH   1   2
ATOM      2  C   UNL     1     -35.415  37.592  44.705  1.00  0.00     0.000 C 
BRANCH   2   3
ATOM      3  C   UNL     1     -35.180  38.248  46.073  1.00  0.00     0.000 C 
BRANCH   3   4
ATOM      4  C   UNL     1     -36.488  38.498  46.843  1.00  0.00     0.000 C 
BRANCH   4   5
ATOM      5  C   UNL     1     -37.716  37.879  46.151  1.00  0.00     0.000 C 
BRANCH   5   6
ATOM      6  C   UNL     1     -39.075  38.375  46.678  1.00  0.00     0.006 C 
BRANCH   6   7
ATOM      7  C   UNL     1     -39.900  37.265  47.341  1.00  0.00     0.053 C 
BRANCH   7   8
ATOM      8  C   UNL     1     -40.209  37.622  48.761  1.00  0.00     0.041 C 
ATOM      9  O   UNL     1     -39.288  37.991  49.536  1.00  0.00    -0.550 OA
ATOM     10  O   UNL     1     -41.506  37.501  49.242  1.00  0.00    -0.550 OA
ENDBRANCH   7   8
ENDBRANCH   6   7
ENDBRANCH   5   6
ENDBRANCH   4   5
ENDBRANCH   3   4
ENDBRANCH   2   3
ENDBRANCH   1   2
BRANCH   1  11
ATOM     11  C   UNL     1     -35.147  38.592  42.395  1.00  0.00     0.000 C 
BRANCH  11  12
ATOM     12  C   UNL     1     -36.639  38.213  42.367  1.00  0.00    -0.000 C 
BRANCH  12  13
ATOM     13  C   UNL     1     -37.607  39.372  42.062  1.00  0.00    -0.000 C 
BRANCH  13  14
ATOM     14  C   UNL     1     -38.313  39.909  43.317  1.00  0.00    -0.000 C 
BRANCH  14  15
ATOM     15  C   UNL     1     -37.862  41.332  43.697  1.00  0.00    -0.000 C 
BRANCH  15  16
ATOM     16  C   UNL     1     -36.620  41.406  44.604  1.00  0.00    -0.000 C 
BRANCH  16  17
ATOM     17  C   UNL     1     -35.440  42.136  43.949  1.00  0.00    -0.003 C 
ATOM     18  C   UNL     1     -34.108  41.637  44.501  1.00  0.00     0.004 C 
ENDBRANCH  16  17
ENDBRANCH  15  16
ENDBRANCH  14  15
ENDBRANCH  13  14
ENDBRANCH  12  13
ENDBRANCH  11  12
ENDBRANCH   1  11
TORSDOF 14
ENDMDL
MODEL 2
REMARK VINA RESULT:    -4.539      6.214      8.841
REMARK INTER + INTRA:         -10.747
REMARK INTER:                  -8.691
REMARK INTRA:                  -2.056
REMARK UNBOUND:                -2.494
REMARK SMILES CCCCCCCCCCCCCCCC(=O)[O-]
REMARK SMILES IDX 9 1 10 2 11 3 12 4 13 5 14 6 15 7 16 8 17 9 18 10 8 11 7 12
REMARK SMILES IDX 6 13 5 14 4 15 3 16 2 17 1 18
REMARK H PARENT
REMARK Flexibility Score: inf
ROOT
ATOM      1  C   UNL     1     -33.753  41.762  43.683  1.00  0.00     0.000 C 
ENDROOT
BRANCH   1   2
ATOM      2  C   UNL     1     -34.071  41.177  42.299  1.00  0.00     0.000 C 
BRANCH   2   3
ATOM      3  C   UNL     1     -33.168  41.747  41.195  1.00  0.00     0.000 C 
BRANCH   3   4
ATOM      4  C   UNL     1     -33.968  42.348  40.028  1.00  0.00     0.000 C 
BRANCH   4   5
ATOM      5  C   UNL     1     -34.710  43.641  40.414  1.00  0.00     0.000 C 
BRANCH   5   6
ATOM      6  C   UNL     1     -34.378  44.864  39.541  1.00  0.00     0.006 C 
BRANCH   6   7
ATOM      7  C   UNL     1     -32.907  44.906  39.107  1.00  0.00     0.053 C 
BRANCH   7   8
ATOM      8  C   UNL     1     -32.804  45.189  37.641  1.00  0.00     0.041 C 
ATOM      9  O   UNL     1     -33.713  44.808  36.857  1.00  0.00    -0.550 OA
ATOM     10  O   UNL     1     -31.681  45.829  37.133  1.00  0.00    -0.550 OA
ENDBRANCH   7   8
ENDBRANCH   6   7
ENDBRANCH   5   6
ENDBRANCH   4   5
ENDBRANCH   3   4
ENDBRANCH   2   3
ENDBRANCH   1   2
BRANCH   1  11
ATOM     11  C   UNL     1     -35.027  42.271  44.373  1.00  0.00     0.000 C 
BRANCH  11  12
ATOM     12  C   UNL     1     -36.220  42.409  43.410  1.00  0.00    -0.000 C 
BRANCH  12  13
ATOM     13  C   UNL     1     -37.510  41.696  43.856  1.00  0.00    -0.000 C 
BRANCH  13  14
ATOM     14  C   UNL     1     -37.240  40.377  44.599  1.00  0.00    -0.000 C 
BRANCH  14  15
ATOM     15  C   UNL     1     -37.016  39.186  43.647  1.00  0.00    -0.000 C 
BRANCH  15  16
ATOM     16  C   UNL     1     -37.873  39.199  42.368  1.00  0.00    -0.000 C 
BRANCH  16  17
ATOM     17  C   UNL     1     -37.035  39.263  41.083  1.00  0.00    -0.003 C 
ATOM     18  C   UNL     1     -37.315  40.548  40.307  1.00  0.00     0.004 C 
ENDBRANCH  16  17
ENDBRANCH  15  16
ENDBRANCH  14  15
ENDBRANCH  13  14
ENDBRANCH  12  13
ENDBRANCH  11  12
ENDBRANCH   1  11
TORSDOF 14
ENDMDL
MODEL 3
REMARK VINA RESULT:    -4.532      3.478      5.012
REMARK INTER + INTRA:         -10.735
REMARK INTER:                  -7.896
REMARK INTRA:                  -2.838
REMARK UNBOUND:                -2.494
REMARK SMILES CCCCCCCCCCCCCCCC(=O)[O-]
REMARK SMILES IDX 9 1 10 2 11 3 12 4 13 5 14 6 15 7 16 8 17 9 18 10 8 11 7 12
REMARK SMILES IDX 6 13 5 14 4 15 3 16 2 17 1 18
REMARK H PARENT
REMARK Flexibility Score: inf
ROOT
ATOM      1  C   UNL     1     -32.976  39.375  40.759  1.00  0.00     0.000 C 
ENDROOT
BRANCH   1   2
ATOM      2  C   UNL     1     -32.211  40.700  40.611  1.00  0.00     0.000 C 
BRANCH   2   3
ATOM      3  C   UNL     1     -32.040  41.435  41.949  1.00  0.00     0.000 C 
BRANCH   3   4
ATOM      4  C   UNL     1     -32.717  40.700  43.118  1.00  0.00     0.000 C 
BRANCH   4   5
ATOM      5  C   UNL     1     -33.490  41.648  44.053  1.00  0.00     0.000 C 
BRANCH   5   6
ATOM      6  C   UNL     1     -34.486  40.953  45.001  1.00  0.00     0.006 C 
BRANCH   6   7
ATOM      7  C   UNL     1     -34.467  39.425  44.870  1.00  0.00     0.053 C 
BRANCH   7   8
ATOM      8  C   UNL     1     -34.751  38.786  46.193  1.00  0.00     0.041 C 
ATOM      9  O   UNL     1     -35.010  37.555  46.259  1.00  0.00    -0.550 OA
ATOM     10  O   UNL     1     -34.778  39.558  47.347  1.00  0.00    -0.550 OA
ENDBRANCH   7   8
ENDBRANCH   6   7
ENDBRANCH   5   6
ENDBRANCH   4   5
ENDBRANCH   3   4
ENDBRANCH   2   3
ENDBRANCH   1   2
BRANCH   1  11
ATOM     11  C   UNL     1     -33.862  39.112  39.534  1.00  0.00     0.000 C 
BRANCH  11  12
ATOM     12  C   UNL     1     -35.367  39.219  39.842  1.00  0.00    -0.000 C 
BRANCH  12  13
ATOM     13  C   UNL     1     -35.726  39.313  41.337  1.00  0.00    -0.000 C 
BRANCH  13  14
ATOM     14  C   UNL     1     -36.347  40.666  41.719  1.00  0.00    -0.000 C 
BRANCH  14  15
ATOM     15  C   UNL     1     -36.001  41.789  40.723  1.00  0.00    -0.000 C 
BRANCH  15  16
ATOM     16  C   UNL     1     -35.401  43.061  41.350  1.00  0.00    -0.000 C 
BRANCH  16  17
ATOM     17  C   UNL     1     -34.495  43.837  40.384  1.00  0.00    -0.003 C 
ATOM     18  C   UNL     1     -34.391  43.128  39.036  1.00  0.00     0.004 C 
ENDBRANCH  16  17
ENDBRANCH  15  16
ENDBRANCH  14  15
ENDBRANCH  13  14
ENDBRANCH  12  13
ENDBRANCH  11  12
ENDBRANCH   1  11
TORSDOF 14
ENDMDL
MODEL 4
REMARK VINA RESULT:    -4.527      5.613      8.224
REMARK INTER + INTRA:         -10.726
REMARK INTER:                  -8.053
REMARK INTRA:                  -2.673
REMARK UNBOUND:                -2.494
REMARK SMILES CCCCCCCCCCCCCCCC(=O)[O-]
REMARK SMILES IDX 9 1 10 2 11 3 12 4 13 5 14 6 15 7 16 8 17 9 18 10 8 11 7 12
REMARK SMILES IDX 6 13 5 14 4 15 3 16 2 17 1 18
REMARK H PARENT
REMARK Flexibility Score: inf
ROOT
ATOM      1  C   UNL     1     -37.066  40.586  42.563  1.00  0.00     0.000 C 
ENDROOT
BRANCH   1   2
ATOM      2  C   UNL     1     -36.591  40.806  41.119  1.00  0.00     0.000 C 
BRANCH   2   3
ATOM      3  C   UNL     1     -35.328  40.000  40.783  1.00  0.00     0.000 C 
BRANCH   3   4
ATOM      4  C   UNL     1     -34.206  40.874  40.198  1.00  0.00     0.000 C 
BRANCH   4   5
ATOM      5  C   UNL     1     -34.705  42.251  39.725  1.00  0.00     0.000 C 
BRANCH   5   6
ATOM      6  C   UNL     1     -33.938  43.453  40.306  1.00  0.00     0.006 C 
BRANCH   6   7
ATOM      7  C   UNL     1     -34.697  44.777  40.153  1.00  0.00     0.053 C 
BRANCH   7   8
ATOM      8  C   UNL     1     -34.448  45.368  38.800  1.00  0.00     0.041 C 
ATOM      9  O   UNL     1     -35.403  45.840  38.130  1.00  0.00    -0.550 OA
ATOM     10  O   UNL     1     -33.168  45.352  38.260  1.00  0.00    -0.550 OA
ENDBRANCH   7   8
ENDBRANCH   6   7
ENDBRANCH   5   6
ENDBRANCH   4   5
ENDBRANCH   3   4
ENDBRANCH   2   3
ENDBRANCH   1   2
BRANCH   1  11
ATOM     11  C   UNL     1     -37.252  41.924  43.292  1.00  0.00     0.000 C 
BRANCH  11  12
ATOM     12  C   UNL     1     -35.986  42.801  43.276  1.00  0.00    -0.000 C 
BRANCH  12  13
ATOM     13  C   UNL     1     -34.904  42.412  44.301  1.00  0.00    -0.000 C 
BRANCH  13  14
ATOM     14  C   UNL     1     -33.655  41.797  43.649  1.00  0.00    -0.000 C 
BRANCH  14  15
ATOM     15  C   UNL     1     -33.460  40.311  44.011  1.00  0.00    -0.000 C 
BRANCH  15  16
ATOM     16  C   UNL     1     -34.398  39.774  45.107  1.00  0.00    -0.000 C 
BRANCH  16  17
ATOM     17  C   UNL     1     -35.178  38.526  44.671  1.00  0.00    -0.003 C 
ATOM     18  C   UNL     1     -34.370  37.689  43.682  1.00  0.00     0.004 C 
ENDBRANCH  16  17
ENDBRANCH  15  16
ENDBRANCH  14  15
ENDBRANCH  13  14
ENDBRANCH  12  13
ENDBRANCH  11  12
ENDBRANCH   1  11
TORSDOF 14
ENDMDL
MODEL 5
REMARK VINA RESULT:    -4.517      5.582      7.733
REMARK INTER + INTRA:         -10.708
REMARK INTER:                  -8.488
REMARK INTRA:                  -2.220
REMARK UNBOUND:                -2.494
REMARK SMILES CCCCCCCCCCCCCCCC(=O)[O-]
REMARK SMILES IDX 9 1 10 2 11 3 12 4 13 5 14 6 15 7 16 8 17 9 18 10 8 11 7 12
REMARK SMILES IDX 6 13 5 14 4 15 3 16 2 17 1 18
REMARK H PARENT
REMARK Flexibility Score: inf
ROOT
ATOM      1  C   UNL     1     -36.847  41.191  44.942  1.00  0.00     0.000 C 
ENDROOT
BRANCH   1   2
ATOM      2  C   UNL     1     -35.468  40.701  44.473  1.00  0.00     0.000 C 
BRANCH   2   3
ATOM      3  C   UNL     1     -34.499  41.857  44.184  1.00  0.00     0.000 C 
BRANCH   3   4
ATOM      4  C   UNL     1     -34.265  42.070  42.679  1.00  0.00     0.000 C 
BRANCH   4   5
ATOM      5  C   UNL     1     -35.218  43.113  42.067  1.00  0.00     0.000 C 
BRANCH   5   6
ATOM      6  C   UNL     1     -35.157  43.226  40.532  1.00  0.00     0.006 C 
BRANCH   6   7
ATOM      7  C   UNL     1     -34.772  44.631  40.052  1.00  0.00     0.053 C 
BRANCH   7   8
ATOM      8  C   UNL     1     -33.793  44.546  38.923  1.00  0.00     0.041 C 
ATOM      9  O   UNL     1     -32.597  44.897  39.094  1.00  0.00    -0.550 OA
ATOM     10  O   UNL     1     -34.215  44.125  37.668  1.00  0.00    -0.550 OA
ENDBRANCH   7   8
ENDBRANCH   6   7
ENDBRANCH   5   6
ENDBRANCH   4   5
ENDBRANCH   3   4
ENDBRANCH   2   3
ENDBRANCH   1   2
BRANCH   1  11
ATOM     11  C   UNL     1     -37.833  41.266  43.769  1.00  0.00     0.000 C 
BRANCH  11  12
ATOM     12  C   UNL     1     -38.502  39.915  43.454  1.00  0.00    -0.000 C 
BRANCH  12  13
ATOM     13  C   UNL     1     -38.009  39.220  42.171  1.00  0.00    -0.000 C 
BRANCH  13  14
ATOM     14  C   UNL     1     -37.378  40.197  41.165  1.00  0.00    -0.000 C 
BRANCH  14  15
ATOM     15  C   UNL     1     -36.226  39.568  40.359  1.00  0.00    -0.000 C 
BRANCH  15  16
ATOM     16  C   UNL     1     -35.090  38.962  41.202  1.00  0.00    -0.000 C 
BRANCH  16  17
ATOM     17  C   UNL     1     -33.710  39.111  40.546  1.00  0.00    -0.003 C 
ATOM     18  C   UNL     1     -33.738  40.160  39.437  1.00  0.00     0.004 C 
ENDBRANCH  16  17
ENDBRANCH  15  16
ENDBRANCH  14  15
ENDBRANCH  13  14
ENDBRANCH  12  13
ENDBRANCH  11  12
ENDBRANCH   1  11
TORSDOF 14
ENDMDL
MODEL 6
REMARK VINA RESULT:    -4.517      4.512      6.568
REMARK INTER + INTRA:         -10.707
REMARK INTER:                  -8.204
REMARK INTRA:                  -2.503
REMARK UNBOUND:                -2.494
REMARK SMILES CCCCCCCCCCCCCCCC(=O)[O-]
REMARK SMILES IDX 9 1 10 2 11 3 12 4 13 5 14 6 15 7 16 8 17 9 18 10 8 11 7 12
REMARK SMILES IDX 6 13 5 14 4 15 3 16 2 17 1 18
REMARK H PARENT
REMARK Flexibility Score: inf
ROOT
ATOM      1  C   UNL     1     -34.368  39.790  45.254  1.00  0.00     0.000 C 
ENDROOT
BRANCH   1   2
ATOM      2  C   UNL     1     -35.464  40.417  46.130  1.00  0.00     0.000 C 
BRANCH   2   3
ATOM      3  C   UNL     1     -35.874  41.817  45.650  1.00  0.00     0.000 C 
BRANCH   3   4
ATOM      4  C   UNL     1     -34.879  42.411  44.639  1.00  0.00     0.000 C 
BRANCH   4   5
ATOM      5  C   UNL     1     -35.555  42.878  43.337  1.00  0.00     0.000 C 
BRANCH   5   6
ATOM      6  C   UNL     1     -35.032  42.202  42.057  1.00  0.00     0.006 C 
BRANCH   6   7
ATOM      7  C   UNL     1     -33.587  41.704  42.192  1.00  0.00     0.053 C 
BRANCH   7   8
ATOM      8  C   UNL     1     -32.852  41.881  40.900  1.00  0.00     0.041 C 
ATOM      9  O   UNL     1     -32.929  42.969  40.272  1.00  0.00    -0.550 OA
ATOM     10  O   UNL     1     -32.121  40.828  40.367  1.00  0.00    -0.550 OA
ENDBRANCH   7   8
ENDBRANCH   6   7
ENDBRANCH   5   6
ENDBRANCH   4   5
ENDBRANCH   3   4
ENDBRANCH   2   3
ENDBRANCH   1   2
BRANCH   1  11
ATOM     11  C   UNL     1     -34.783  38.394  44.769  1.00  0.00     0.000 C 
BRANCH  11  12
ATOM     12  C   UNL     1     -34.395  38.124  43.303  1.00  0.00    -0.000 C 
BRANCH  12  13
ATOM     13  C   UNL     1     -35.471  38.485  42.262  1.00  0.00    -0.000 C 
BRANCH  13  14
ATOM     14  C   UNL     1     -36.828  37.822  42.547  1.00  0.00    -0.000 C 
BRANCH  14  15
ATOM     15  C   UNL     1     -38.022  38.756  42.274  1.00  0.00    -0.000 C 
BRANCH  15  16
ATOM     16  C   UNL     1     -38.059  40.039  43.124  1.00  0.00    -0.000 C 
BRANCH  16  17
ATOM     17  C   UNL     1     -39.113  39.991  44.239  1.00  0.00    -0.003 C 
ATOM     18  C   UNL     1     -38.695  39.032  45.351  1.00  0.00     0.004 C 
ENDBRANCH  16  17
ENDBRANCH  15  16
ENDBRANCH  14  15
ENDBRANCH  13  14
ENDBRANCH  12  13
ENDBRANCH  11  12
ENDBRANCH   1  11
TORSDOF 14
ENDMDL
MODEL 7
REMARK VINA RESULT:    -4.499      4.528      6.748
REMARK INTER + INTRA:         -10.676
REMARK INTER:                  -7.986
REMARK INTRA:                  -2.690
REMARK UNBOUND:                -2.494
REMARK SMILES CCCCCCCCCCCCCCCC(=O)[O-]
REMARK SMILES IDX 9 1 10 2 11 3 12 4 13 5 14 6 15 7 16 8 17 9 18 10 8 11 7 12
REMARK SMILES IDX 6 13 5 14 4 15 3 16 2 17 1 18
REMARK H PARENT
REMARK Flexibility Score: inf
ROOT
ATOM      1  C   UNL     1     -34.906  42.396  44.303  1.00  0.00     0.000 C 
ENDROOT
BRANCH   1   2
ATOM      2  C   UNL     1     -33.667  41.493  44.213  1.00  0.00     0.000 C 
BRANCH   2   3
ATOM      3  C   UNL     1     -34.007  40.006  44.390  1.00  0.00     0.000 C 
BRANCH   3   4
ATOM      4  C   UNL     1     -33.334  39.114  43.333  1.00  0.00     0.000 C 
BRANCH   4   5
ATOM      5  C   UNL     1     -34.150  39.010  42.032  1.00  0.00     0.000 C 
BRANCH   5   6
ATOM      6  C   UNL     1     -33.553  39.765  40.830  1.00  0.00     0.006 C 
BRANCH   6   7
ATOM      7  C   UNL     1     -34.290  41.074  40.521  1.00  0.00     0.053 C 
BRANCH   7   8
ATOM      8  C   UNL     1     -33.322  42.213  40.452  1.00  0.00     0.041 C 
ATOM      9  O   UNL     1     -32.093  42.012  40.636  1.00  0.00    -0.550 OA
ATOM     10  O   UNL     1     -33.783  43.505  40.233  1.00  0.00    -0.550 OA
ENDBRANCH   7   8
ENDBRANCH   6   7
ENDBRANCH   5   6
ENDBRANCH   4   5
ENDBRANCH   3   4
ENDBRANCH   2   3
ENDBRANCH   1   2
BRANCH   1  11
ATOM     11  C   UNL     1     -36.170  41.572  44.587  1.00  0.00     0.000 C 
BRANCH  11  12
ATOM     12  C   UNL     1     -37.285  41.800  43.549  1.00  0.00    -0.000 C 
BRANCH  12  13
ATOM     13  C   UNL     1     -37.446  40.682  42.502  1.00  0.00    -0.000 C 
BRANCH  13  14
ATOM     14  C   UNL     1     -38.257  39.484  43.023  1.00  0.00    -0.000 C 
BRANCH  14  15
ATOM     15  C   UNL     1     -37.501  38.148  42.899  1.00  0.00    -0.000 C 
BRANCH  15  16
ATOM     16  C   UNL     1     -36.901  37.609  44.211  1.00  0.00    -0.000 C 
BRANCH  16  17
ATOM     17  C   UNL     1     -37.558  38.208  45.462  1.00  0.00    -0.003 C 
ATOM     18  C   UNL     1     -36.541  38.382  46.588  1.00  0.00     0.004 C 
ENDBRANCH  16  17
ENDBRANCH  15  16
ENDBRANCH  14  15
ENDBRANCH  13  14
ENDBRANCH  12  13
ENDBRANCH  11  12
ENDBRANCH   1  11
TORSDOF 14
ENDMDL
MODEL 8
REMARK VINA RESULT:    -4.497      2.334      3.643
REMARK INTER + INTRA:         -10.671
REMARK INTER:                  -7.938
REMARK INTRA:                  -2.733
REMARK UNBOUND:                -2.494
REMARK SMILES CCCCCCCCCCCCCCCC(=O)[O-]
REMARK SMILES IDX 9 1 10 2 11 3 12 4 13 5 14 6 15 7 16 8 17 9 18 10 8 11 7 12
REMARK SMILES IDX 6 13 5 14 4 15 3 16 2 17 1 18
REMARK H PARENT
REMARK Flexibility Score: inf
ROOT
ATOM      1  C   UNL     1     -36.059  38.453  42.214  1.00  0.00     0.000 C 
ENDROOT
BRANCH   1   2
ATOM      2  C   UNL     1     -37.551  38.433  42.583  1.00  0.00     0.000 C 
BRANCH   2   3
ATOM      3  C   UNL     1     -38.107  39.835  42.871  1.00  0.00     0.000 C 
BRANCH   3   4
ATOM      4  C   UNL     1     -37.981  40.228  44.353  1.00  0.00     0.000 C 
BRANCH   4   5
ATOM      5  C   UNL     1     -38.594  39.183  45.303  1.00  0.00     0.000 C 
BRANCH   5   6
ATOM      6  C   UNL     1     -37.614  38.587  46.331  1.00  0.00     0.006 C 
BRANCH   6   7
ATOM      7  C   UNL     1     -37.437  37.072  46.178  1.00  0.00     0.053 C 
BRANCH   7   8
ATOM      8  C   UNL     1     -36.087  36.652  46.669  1.00  0.00     0.041 C 
ATOM      9  O   UNL     1     -35.535  35.622  46.201  1.00  0.00    -0.550 OA
ATOM     10  O   UNL     1     -35.460  37.372  47.678  1.00  0.00    -0.550 OA
ENDBRANCH   7   8
ENDBRANCH   6   7
ENDBRANCH   5   6
ENDBRANCH   4   5
ENDBRANCH   3   4
ENDBRANCH   2   3
ENDBRANCH   1   2
BRANCH   1  11
ATOM     11  C   UNL     1     -35.224  37.696  43.256  1.00  0.00     0.000 C 
BRANCH  11  12
ATOM     12  C   UNL     1     -34.028  38.512  43.779  1.00  0.00    -0.000 C 
BRANCH  12  13
ATOM     13  C   UNL     1     -34.384  39.651  44.753  1.00  0.00    -0.000 C 
BRANCH  13  14
ATOM     14  C   UNL     1     -33.819  41.012  44.315  1.00  0.00    -0.000 C 
BRANCH  14  15
ATOM     15  C   UNL     1     -34.811  42.171  44.529  1.00  0.00    -0.000 C 
BRANCH  15  16
ATOM     16  C   UNL     1     -35.464  42.722  43.248  1.00  0.00    -0.000 C 
BRANCH  16  17
ATOM     17  C   UNL     1     -34.731  42.294  41.969  1.00  0.00    -0.003 C 
ATOM     18  C   UNL     1     -35.718  41.862  40.888  1.00  0.00     0.004 C 
ENDBRANCH  16  17
ENDBRANCH  15  16
ENDBRANCH  14  15
ENDBRANCH  13  14
ENDBRANCH  12  13
ENDBRANCH  11  12
ENDBRANCH   1  11
TORSDOF 14
ENDMDL
MODEL 9
REMARK VINA RESULT:    -4.461      2.050      3.947
REMARK INTER + INTRA:         -10.607
REMARK INTER:                  -8.018
REMARK INTRA:                  -2.589
REMARK UNBOUND:                -2.494
REMARK SMILES CCCCCCCCCCCCCCCC(=O)[O-]
REMARK SMILES IDX 9 1 10 2 11 3 12 4 13 5 14 6 15 7 16 8 17 9 18 10 8 11 7 12
REMARK SMILES IDX 6 13 5 14 4 15 3 16 2 17 1 18
REMARK H PARENT
REMARK Flexibility Score: inf
ROOT
ATOM      1  C   UNL     1     -35.238  42.471  44.082  1.00  0.00     0.000 C 
ENDROOT
BRANCH   1   2
ATOM      2  C   UNL     1     -36.433  41.683  44.640  1.00  0.00     0.000 C 
BRANCH   2   3
ATOM      3  C   UNL     1     -37.614  41.631  43.661  1.00  0.00     0.000 C 
BRANCH   3   4
ATOM      4  C   UNL     1     -38.419  40.325  43.773  1.00  0.00     0.000 C 
BRANCH   4   5
ATOM      5  C   UNL     1     -37.629  39.093  43.293  1.00  0.00     0.000 C 
BRANCH   5   6
ATOM      6  C   UNL     1     -37.413  38.006  44.362  1.00  0.00     0.006 C 
BRANCH   6   7
ATOM      7  C   UNL     1     -37.889  38.434  45.755  1.00  0.00     0.053 C 
BRANCH   7   8
ATOM      8  C   UNL     1     -38.161  37.234  46.605  1.00  0.00     0.041 C 
ATOM      9  O   UNL     1     -39.147  37.223  47.389  1.00  0.00    -0.550 OA
ATOM     10  O   UNL     1     -37.299  36.145  46.569  1.00  0.00    -0.550 OA
ENDBRANCH   7   8
ENDBRANCH   6   7
ENDBRANCH   5   6
ENDBRANCH   4   5
ENDBRANCH   3   4
ENDBRANCH   2   3
ENDBRANCH   1   2
BRANCH   1  11
ATOM     11  C   UNL     1     -33.922  41.716  44.316  1.00  0.00     0.000 C 
BRANCH  11  12
ATOM     12  C   UNL     1     -34.077  40.187  44.217  1.00  0.00    -0.000 C 
BRANCH  12  13
ATOM     13  C   UNL     1     -33.342  39.527  43.036  1.00  0.00    -0.000 C 
BRANCH  13  14
ATOM     14  C   UNL     1     -34.299  39.006  41.950  1.00  0.00    -0.000 C 
BRANCH  14  15
ATOM     15  C   UNL     1     -34.351  39.917  40.709  1.00  0.00    -0.000 C 
BRANCH  15  16
ATOM     16  C   UNL     1     -35.567  40.858  40.637  1.00  0.00    -0.000 C 
BRANCH  16  17
ATOM     17  C   UNL     1     -35.177  42.329  40.437  1.00  0.00    -0.003 C 
ATOM     18  C   UNL     1     -33.670  42.524  40.578  1.00  0.00     0.004 C 
ENDBRANCH  16  17
ENDBRANCH  15  16
ENDBRANCH  14  15
ENDBRANCH  13  14
ENDBRANCH  12  13
ENDBRANCH  11  12
ENDBRANCH   1  11
TORSDOF 14
ENDMDL
