MODEL 1
REMARK VINA RESULT:    -5.693      0.000      0.000
REMARK INTER + INTRA:          -7.404
REMARK INTER:                  -7.024
REMARK INTRA:                  -0.380
REMARK UNBOUND:                -0.380
REMARK SMILES Oc1cc(O)c2cc(O)c(-c3cc(O)c(O)c(O)c3)[o+]c2c1
REMARK SMILES IDX 10 1 20 2 21 3 22 4 2 5 3 6 4 7 6 8 7 9 8 10 11 11 12 12
REMARK SMILES IDX 13 13 19 14 15 15 17 16 14 17 16 19 18 21 9 23 1 25 5 27
REMARK H PARENT 14 18 16 20 18 22 9 24 1 26 5 28
REMARK Flexibility Score: inf
ROOT
ATOM      1  C   UNL     1      -7.686  23.649  -9.616  1.00  0.00     0.402 A 
ATOM      2  O   UNL     1      -6.505  23.710  -9.007  1.00  0.00    -0.202 OA
ATOM      3  C   UNL     1      -5.747  22.642  -8.777  1.00  0.00     0.368 A 
ATOM      4  C   UNL     1      -4.520  22.807  -8.127  1.00  0.00     0.162 A 
ATOM      5  C   UNL     1      -3.706  21.700  -7.870  1.00  0.00     0.128 A 
ATOM      6  C   UNL     1      -4.119  20.426  -8.264  1.00  0.00     0.093 A 
ATOM      7  C   UNL     1      -5.343  20.235  -8.916  1.00  0.00     0.136 A 
ATOM      8  C   UNL     1      -6.173  21.354  -9.182  1.00  0.00     0.125 A 
ATOM      9  C   UNL     1      -7.408  21.259  -9.842  1.00  0.00     0.078 A 
ATOM     10  C   UNL     1      -8.171  22.409 -10.073  1.00  0.00     0.223 A 
ENDROOT
BRANCH   1  11
ATOM     11  C   UNL     1      -8.443  24.908  -9.805  1.00  0.00     0.091 A 
ATOM     12  C   UNL     1      -8.250  25.659 -10.974  1.00  0.00     0.068 A 
ATOM     13  C   UNL     1      -8.933  26.864 -11.177  1.00  0.00     0.162 A 
ATOM     14  C   UNL     1      -9.307  25.399  -8.814  1.00  0.00     0.068 A 
ATOM     15  C   UNL     1      -9.821  27.340 -10.183  1.00  0.00     0.200 A 
ATOM     16  C   UNL     1      -9.996  26.603  -9.003  1.00  0.00     0.162 A 
BRANCH  13  17
ATOM     17  O   UNL     1      -8.700  27.550 -12.372  1.00  0.00    -0.504 OA
ATOM     18  H   UNL     1      -9.291  27.484 -13.186  1.00  0.00     0.293 HD
ENDBRANCH  13  17
BRANCH  15  19
ATOM     19  O   UNL     1     -10.537  28.531 -10.325  1.00  0.00    -0.502 OA
ATOM     20  H   UNL     1     -11.125  28.928  -9.607  1.00  0.00     0.293 HD
ENDBRANCH  15  19
BRANCH  16  21
ATOM     21  O   UNL     1     -10.857  27.079  -8.017  1.00  0.00    -0.504 OA
ATOM     22  H   UNL     1     -11.694  26.572  -7.751  1.00  0.00     0.293 HD
ENDBRANCH  16  21
ENDBRANCH   1  11
BRANCH  10  23
ATOM     23  O   UNL     1      -9.375  22.322 -10.772  1.00  0.00    -0.500 OA
ATOM     24  H   UNL     1      -9.840  23.145 -11.134  1.00  0.00     0.294 HD
ENDBRANCH  10  23
BRANCH   5  25
ATOM     25  O   UNL     1      -2.481  21.857  -7.224  1.00  0.00    -0.507 OA
ATOM     26  H   UNL     1      -2.373  22.490  -6.440  1.00  0.00     0.293 HD
ENDBRANCH   5  25
BRANCH   7  27
ATOM     27  O   UNL     1      -5.684  18.927  -9.274  1.00  0.00    -0.507 OA
ATOM     28  H   UNL     1      -5.071  18.292  -9.766  1.00  0.00     0.293 HD
ENDBRANCH   7  27
TORSDOF 7
ENDMDL
MODEL 2
REMARK VINA RESULT:    -5.627      0.166      1.806
REMARK INTER + INTRA:          -7.323
REMARK INTER:                  -6.946
REMARK INTRA:                  -0.377
REMARK UNBOUND:                -0.380
REMARK SMILES Oc1cc(O)c2cc(O)c(-c3cc(O)c(O)c(O)c3)[o+]c2c1
REMARK SMILES IDX 10 1 20 2 21 3 22 4 2 5 3 6 4 7 6 8 7 9 8 10 11 11 12 12
REMARK SMILES IDX 13 13 19 14 15 15 17 16 14 17 16 19 18 21 9 23 1 25 5 27
REMARK H PARENT 14 18 16 20 18 22 9 24 1 26 5 28
REMARK Flexibility Score: inf
ROOT
ATOM      1  C   UNL     1      -7.544  23.614  -9.623  1.00  0.00     0.402 A 
ATOM      2  O   UNL     1      -6.394  23.670  -8.956  1.00  0.00    -0.202 OA
ATOM      3  C   UNL     1      -5.651  22.599  -8.693  1.00  0.00     0.368 A 
ATOM      4  C   UNL     1      -4.458  22.758  -7.982  1.00  0.00     0.162 A 
ATOM      5  C   UNL     1      -3.660  21.648  -7.690  1.00  0.00     0.128 A 
ATOM      6  C   UNL     1      -4.056  20.376  -8.109  1.00  0.00     0.093 A 
ATOM      7  C   UNL     1      -5.246  20.191  -8.823  1.00  0.00     0.136 A 
ATOM      8  C   UNL     1      -6.059  21.314  -9.125  1.00  0.00     0.125 A 
ATOM      9  C   UNL     1      -7.261  21.225  -9.846  1.00  0.00     0.078 A 
ATOM     10  C   UNL     1      -8.008  22.378 -10.109  1.00  0.00     0.223 A 
ENDROOT
BRANCH   1  11
ATOM     11  C   UNL     1      -8.287  24.877  -9.844  1.00  0.00     0.091 A 
ATOM     12  C   UNL     1      -9.228  25.298  -8.893  1.00  0.00     0.068 A 
ATOM     13  C   UNL     1      -9.962  26.476  -9.079  1.00  0.00     0.162 A 
ATOM     14  C   UNL     1      -8.111  25.634 -11.013  1.00  0.00     0.068 A 
ATOM     15  C   UNL     1      -9.763  27.246 -10.250  1.00  0.00     0.200 A 
ATOM     16  C   UNL     1      -8.840  26.813 -11.212  1.00  0.00     0.162 A 
BRANCH  13  17
ATOM     17  O   UNL     1     -10.872  26.838  -8.083  1.00  0.00    -0.504 OA
ATOM     18  H   UNL     1     -10.608  27.149  -7.161  1.00  0.00     0.293 HD
ENDBRANCH  13  17
BRANCH  15  19
ATOM     19  O   UNL     1     -10.458  28.432 -10.494  1.00  0.00    -0.502 OA
ATOM     20  H   UNL     1     -10.652  28.796 -11.416  1.00  0.00     0.293 HD
ENDBRANCH  15  19
BRANCH  16  21
ATOM     21  O   UNL     1      -8.654  27.562 -12.373  1.00  0.00    -0.504 OA
ATOM     22  H   UNL     1      -7.759  27.980 -12.598  1.00  0.00     0.293 HD
ENDBRANCH  16  21
ENDBRANCH   1  11
BRANCH  10  23
ATOM     23  O   UNL     1      -9.175  22.297 -10.868  1.00  0.00    -0.500 OA
ATOM     24  H   UNL     1      -9.424  23.013 -11.540  1.00  0.00     0.294 HD
ENDBRANCH  10  23
BRANCH   5  25
ATOM     25  O   UNL     1      -2.469  21.798  -6.982  1.00  0.00    -0.507 OA
ATOM     26  H   UNL     1      -1.661  22.250  -7.395  1.00  0.00     0.293 HD
ENDBRANCH   5  25
BRANCH   7  27
ATOM     27  O   UNL     1      -5.572  18.886  -9.203  1.00  0.00    -0.507 OA
ATOM     28  H   UNL     1      -4.896  18.181  -9.461  1.00  0.00     0.293 HD
ENDBRANCH   7  27
TORSDOF 7
ENDMDL
MODEL 3
REMARK VINA RESULT:    -5.384      1.195      7.092
REMARK INTER + INTRA:          -7.022
REMARK INTER:                  -6.707
REMARK INTRA:                  -0.315
REMARK UNBOUND:                -0.380
REMARK SMILES Oc1cc(O)c2cc(O)c(-c3cc(O)c(O)c(O)c3)[o+]c2c1
REMARK SMILES IDX 10 1 20 2 21 3 22 4 2 5 3 6 4 7 6 8 7 9 8 10 11 11 12 12
REMARK SMILES IDX 13 13 19 14 15 15 17 16 14 17 16 19 18 21 9 23 1 25 5 27
REMARK H PARENT 14 18 16 20 18 22 9 24 1 26 5 28
REMARK Flexibility Score: inf
ROOT
ATOM      1  C   UNL     1      -7.631  23.328  -9.028  1.00  0.00     0.402 A 
ATOM      2  O   UNL     1      -7.370  24.295  -9.903  1.00  0.00    -0.202 OA
ATOM      3  C   UNL     1      -8.127  25.379 -10.040  1.00  0.00     0.368 A 
ATOM      4  C   UNL     1      -7.772  26.341 -10.990  1.00  0.00     0.162 A 
ATOM      5  C   UNL     1      -8.554  27.488 -11.157  1.00  0.00     0.128 A 
ATOM      6  C   UNL     1      -9.693  27.674 -10.371  1.00  0.00     0.093 A 
ATOM      7  C   UNL     1     -10.069  26.725  -9.412  1.00  0.00     0.136 A 
ATOM      8  C   UNL     1      -9.279  25.560  -9.237  1.00  0.00     0.125 A 
ATOM      9  C   UNL     1      -9.573  24.564  -8.293  1.00  0.00     0.078 A 
ATOM     10  C   UNL     1      -8.744  23.443  -8.174  1.00  0.00     0.223 A 
ENDROOT
BRANCH   1  11
ATOM     11  C   UNL     1      -6.717  22.163  -8.977  1.00  0.00     0.091 A 
ATOM     12  C   UNL     1      -7.145  20.928  -9.484  1.00  0.00     0.068 A 
ATOM     13  C   UNL     1      -6.315  19.801  -9.434  1.00  0.00     0.162 A 
ATOM     14  C   UNL     1      -5.449  22.254  -8.381  1.00  0.00     0.068 A 
ATOM     15  C   UNL     1      -5.029  19.907  -8.852  1.00  0.00     0.200 A 
ATOM     16  C   UNL     1      -4.609  21.135  -8.324  1.00  0.00     0.162 A 
BRANCH  13  17
ATOM     17  O   UNL     1      -6.806  18.608  -9.969  1.00  0.00    -0.504 OA
ATOM     18  H   UNL     1      -6.226  17.824 -10.228  1.00  0.00     0.293 HD
ENDBRANCH  13  17
BRANCH  15  19
ATOM     19  O   UNL     1      -4.150  18.824  -8.777  1.00  0.00    -0.502 OA
ATOM     20  H   UNL     1      -4.442  17.859  -8.734  1.00  0.00     0.293 HD
ENDBRANCH  15  19
BRANCH  16  21
ATOM     21  O   UNL     1      -3.349  21.236  -7.737  1.00  0.00    -0.504 OA
ATOM     22  H   UNL     1      -2.505  20.988  -8.241  1.00  0.00     0.293 HD
ENDBRANCH  16  21
ENDBRANCH   1  11
BRANCH  10  23
ATOM     23  O   UNL     1      -9.006  22.478  -7.203  1.00  0.00    -0.500 OA
ATOM     24  H   UNL     1      -9.518  21.631  -7.419  1.00  0.00     0.294 HD
ENDBRANCH  10  23
BRANCH   5  25
ATOM     25  O   UNL     1      -8.205  28.451 -12.101  1.00  0.00    -0.507 OA
ATOM     26  H   UNL     1      -7.289  28.462 -12.533  1.00  0.00     0.293 HD
ENDBRANCH   5  25
BRANCH   7  27
ATOM     27  O   UNL     1     -11.225  26.985  -8.670  1.00  0.00    -0.507 OA
ATOM     28  H   UNL     1     -11.240  27.496  -7.798  1.00  0.00     0.293 HD
ENDBRANCH   7  27
TORSDOF 7
ENDMDL
MODEL 4
REMARK VINA RESULT:    -5.305      1.222      7.093
REMARK INTER + INTRA:          -6.925
REMARK INTER:                  -6.576
REMARK INTRA:                  -0.348
REMARK UNBOUND:                -0.380
REMARK SMILES Oc1cc(O)c2cc(O)c(-c3cc(O)c(O)c(O)c3)[o+]c2c1
REMARK SMILES IDX 10 1 20 2 21 3 22 4 2 5 3 6 4 7 6 8 7 9 8 10 11 11 12 12
REMARK SMILES IDX 13 13 19 14 15 15 17 16 14 17 16 19 18 21 9 23 1 25 5 27
REMARK H PARENT 14 18 16 20 18 22 9 24 1 26 5 28
REMARK Flexibility Score: inf
ROOT
ATOM      1  C   UNL     1      -7.724  23.330  -8.969  1.00  0.00     0.402 A 
ATOM      2  O   UNL     1      -7.415  24.283  -9.845  1.00  0.00    -0.202 OA
ATOM      3  C   UNL     1      -8.131  25.394  -9.996  1.00  0.00     0.368 A 
ATOM      4  C   UNL     1      -7.728  26.337 -10.945  1.00  0.00     0.162 A 
ATOM      5  C   UNL     1      -8.464  27.512 -11.126  1.00  0.00     0.128 A 
ATOM      6  C   UNL     1      -9.606  27.743 -10.356  1.00  0.00     0.093 A 
ATOM      7  C   UNL     1     -10.030  26.813  -9.398  1.00  0.00     0.136 A 
ATOM      8  C   UNL     1      -9.285  25.621  -9.208  1.00  0.00     0.125 A 
ATOM      9  C   UNL     1      -9.628  24.640  -8.264  1.00  0.00     0.078 A 
ATOM     10  C   UNL     1      -8.842  23.490  -8.130  1.00  0.00     0.223 A 
ENDROOT
BRANCH   1  11
ATOM     11  C   UNL     1      -6.854  22.133  -8.902  1.00  0.00     0.091 A 
ATOM     12  C   UNL     1      -5.586  22.235  -8.312  1.00  0.00     0.068 A 
ATOM     13  C   UNL     1      -4.729  21.129  -8.249  1.00  0.00     0.162 A 
ATOM     14  C   UNL     1      -7.247  20.910  -9.468  1.00  0.00     0.068 A 
ATOM     15  C   UNL     1      -5.142  19.893  -8.801  1.00  0.00     0.200 A 
ATOM     16  C   UNL     1      -6.400  19.796  -9.412  1.00  0.00     0.162 A 
BRANCH  13  17
ATOM     17  O   UNL     1      -3.486  21.304  -7.636  1.00  0.00    -0.504 OA
ATOM     18  H   UNL     1      -2.604  21.081  -8.071  1.00  0.00     0.293 HD
ENDBRANCH  13  17
BRANCH  15  19
ATOM     19  O   UNL     1      -4.340  18.751  -8.767  1.00  0.00    -0.502 OA
ATOM     20  H   UNL     1      -3.598  18.599  -8.099  1.00  0.00     0.293 HD
ENDBRANCH  15  19
BRANCH  16  21
ATOM     21  O   UNL     1      -6.802  18.583  -9.970  1.00  0.00    -0.504 OA
ATOM     22  H   UNL     1      -6.150  17.819 -10.107  1.00  0.00     0.293 HD
ENDBRANCH  16  21
ENDBRANCH   1  11
BRANCH  10  23
ATOM     23  O   UNL     1      -9.153  22.539  -7.158  1.00  0.00    -0.500 OA
ATOM     24  H   UNL     1      -9.278  22.793  -6.186  1.00  0.00     0.294 HD
ENDBRANCH  10  23
BRANCH   5  25
ATOM     25  O   UNL     1      -8.069  28.458 -12.070  1.00  0.00    -0.507 OA
ATOM     26  H   UNL     1      -7.736  29.374 -11.794  1.00  0.00     0.293 HD
ENDBRANCH   5  25
BRANCH   7  27
ATOM     27  O   UNL     1     -11.184  27.119  -8.672  1.00  0.00    -0.507 OA
ATOM     28  H   UNL     1     -11.475  26.637  -7.833  1.00  0.00     0.293 HD
ENDBRANCH   7  27
TORSDOF 7
ENDMDL
MODEL 5
REMARK VINA RESULT:    -5.108      3.124      4.959
REMARK INTER + INTRA:          -6.682
REMARK INTER:                  -6.488
REMARK INTRA:                  -0.194
REMARK UNBOUND:                -0.380
REMARK SMILES Oc1cc(O)c2cc(O)c(-c3cc(O)c(O)c(O)c3)[o+]c2c1
REMARK SMILES IDX 10 1 20 2 21 3 22 4 2 5 3 6 4 7 6 8 7 9 8 10 11 11 12 12
REMARK SMILES IDX 13 13 19 14 15 15 17 16 14 17 16 19 18 21 9 23 1 25 5 27
REMARK H PARENT 14 18 16 20 18 22 9 24 1 26 5 28
REMARK Flexibility Score: inf
ROOT
ATOM      1  C   UNL     1      -5.446  22.735  -9.232  1.00  0.00     0.402 A 
ATOM      2  O   UNL     1      -4.999  23.985  -9.322  1.00  0.00    -0.202 OA
ATOM      3  C   UNL     1      -3.723  24.318  -9.151  1.00  0.00     0.368 A 
ATOM      4  C   UNL     1      -3.350  25.660  -9.261  1.00  0.00     0.162 A 
ATOM      5  C   UNL     1      -2.016  26.037  -9.083  1.00  0.00     0.128 A 
ATOM      6  C   UNL     1      -1.052  25.069  -8.793  1.00  0.00     0.093 A 
ATOM      7  C   UNL     1      -1.401  23.717  -8.677  1.00  0.00     0.136 A 
ATOM      8  C   UNL     1      -2.753  23.329  -8.859  1.00  0.00     0.125 A 
ATOM      9  C   UNL     1      -3.191  21.997  -8.774  1.00  0.00     0.078 A 
ATOM     10  C   UNL     1      -4.541  21.689  -8.971  1.00  0.00     0.223 A 
ENDROOT
BRANCH   1  11
ATOM     11  C   UNL     1      -6.893  22.493  -9.433  1.00  0.00     0.091 A 
ATOM     12  C   UNL     1      -7.648  21.926  -8.395  1.00  0.00     0.068 A 
ATOM     13  C   UNL     1      -9.014  21.664  -8.556  1.00  0.00     0.162 A 
ATOM     14  C   UNL     1      -7.517  22.765 -10.660  1.00  0.00     0.068 A 
ATOM     15  C   UNL     1      -9.641  21.964  -9.790  1.00  0.00     0.200 A 
ATOM     16  C   UNL     1      -8.883  22.508 -10.836  1.00  0.00     0.162 A 
BRANCH  13  17
ATOM     17  O   UNL     1      -9.702  21.110  -7.475  1.00  0.00    -0.504 OA
ATOM     18  H   UNL     1      -9.264  20.580  -6.737  1.00  0.00     0.293 HD
ENDBRANCH  13  17
BRANCH  15  19
ATOM     19  O   UNL     1     -11.000  21.734 -10.015  1.00  0.00    -0.502 OA
ATOM     20  H   UNL     1     -11.604  22.362 -10.525  1.00  0.00     0.293 HD
ENDBRANCH  15  19
BRANCH  16  21
ATOM     21  O   UNL     1      -9.496  22.789 -12.056  1.00  0.00    -0.504 OA
ATOM     22  H   UNL     1      -9.869  23.708 -12.265  1.00  0.00     0.293 HD
ENDBRANCH  16  21
ENDBRANCH   1  11
BRANCH  10  23
ATOM     23  O   UNL     1      -4.968  20.362  -8.936  1.00  0.00    -0.500 OA
ATOM     24  H   UNL     1      -5.853  20.098  -8.519  1.00  0.00     0.294 HD
ENDBRANCH  10  23
BRANCH   5  25
ATOM     25  O   UNL     1      -1.636  27.373  -9.193  1.00  0.00    -0.507 OA
ATOM     26  H   UNL     1      -2.240  28.061  -9.628  1.00  0.00     0.293 HD
ENDBRANCH   5  25
BRANCH   7  27
ATOM     27  O   UNL     1      -0.377  22.812  -8.381  1.00  0.00    -0.507 OA
ATOM     28  H   UNL     1      -0.399  21.830  -8.614  1.00  0.00     0.293 HD
ENDBRANCH   7  27
TORSDOF 7
ENDMDL
MODEL 6
REMARK VINA RESULT:    -5.106      1.514      7.349
REMARK INTER + INTRA:          -6.679
REMARK INTER:                  -6.525
REMARK INTRA:                  -0.154
REMARK UNBOUND:                -0.380
REMARK SMILES Oc1cc(O)c2cc(O)c(-c3cc(O)c(O)c(O)c3)[o+]c2c1
REMARK SMILES IDX 10 1 20 2 21 3 22 4 2 5 3 6 4 7 6 8 7 9 8 10 11 11 12 12
REMARK SMILES IDX 13 13 19 14 15 15 17 16 14 17 16 19 18 21 9 23 1 25 5 27
REMARK H PARENT 14 18 16 20 18 22 9 24 1 26 5 28
REMARK Flexibility Score: inf
ROOT
ATOM      1  C   UNL     1      -6.070  23.372  -9.133  1.00  0.00     0.402 A 
ATOM      2  O   UNL     1      -7.373  23.594  -8.982  1.00  0.00    -0.202 OA
ATOM      3  C   UNL     1      -7.942  24.775  -9.205  1.00  0.00     0.368 A 
ATOM      4  C   UNL     1      -9.320  24.912  -9.015  1.00  0.00     0.162 A 
ATOM      5  C   UNL     1      -9.942  26.143  -9.239  1.00  0.00     0.128 A 
ATOM      6  C   UNL     1      -9.185  27.241  -9.655  1.00  0.00     0.093 A 
ATOM      7  C   UNL     1      -7.803  27.129  -9.852  1.00  0.00     0.136 A 
ATOM      8  C   UNL     1      -7.166  25.881  -9.628  1.00  0.00     0.125 A 
ATOM      9  C   UNL     1      -5.790  25.673  -9.813  1.00  0.00     0.078 A 
ATOM     10  C   UNL     1      -5.232  24.412  -9.576  1.00  0.00     0.223 A 
ENDROOT
BRANCH   1  11
ATOM     11  C   UNL     1      -5.553  22.014  -8.843  1.00  0.00     0.091 A 
ATOM     12  C   UNL     1      -6.154  20.903  -9.453  1.00  0.00     0.068 A 
ATOM     13  C   UNL     1      -5.705  19.604  -9.186  1.00  0.00     0.162 A 
ATOM     14  C   UNL     1      -4.511  21.809  -7.926  1.00  0.00     0.068 A 
ATOM     15  C   UNL     1      -4.637  19.407  -8.278  1.00  0.00     0.200 A 
ATOM     16  C   UNL     1      -4.052  20.515  -7.650  1.00  0.00     0.162 A 
BRANCH  13  17
ATOM     17  O   UNL     1      -6.344  18.548  -9.840  1.00  0.00    -0.504 OA
ATOM     18  H   UNL     1      -5.876  17.711 -10.154  1.00  0.00     0.293 HD
ENDBRANCH  13  17
BRANCH  15  19
ATOM     19  O   UNL     1      -4.137  18.139  -7.973  1.00  0.00    -0.502 OA
ATOM     20  H   UNL     1      -4.620  17.275  -8.176  1.00  0.00     0.293 HD
ENDBRANCH  15  19
BRANCH  16  21
ATOM     21  O   UNL     1      -3.011  20.320  -6.743  1.00  0.00    -0.504 OA
ATOM     22  H   UNL     1      -2.360  21.063  -6.513  1.00  0.00     0.293 HD
ENDBRANCH  16  21
ENDBRANCH   1  11
BRANCH  10  23
ATOM     23  O   UNL     1      -3.875  24.192  -9.807  1.00  0.00    -0.500 OA
ATOM     24  H   UNL     1      -3.364  23.464  -9.323  1.00  0.00     0.294 HD
ENDBRANCH  10  23
BRANCH   5  25
ATOM     25  O   UNL     1     -11.316  26.287  -9.053  1.00  0.00    -0.507 OA
ATOM     26  H   UNL     1     -11.850  25.617  -8.514  1.00  0.00     0.293 HD
ENDBRANCH   5  25
BRANCH   7  27
ATOM     27  O   UNL     1      -7.118  28.275 -10.265  1.00  0.00    -0.507 OA
ATOM     28  H   UNL     1      -7.167  28.665 -11.195  1.00  0.00     0.293 HD
ENDBRANCH   7  27
TORSDOF 7
ENDMDL
MODEL 7
REMARK VINA RESULT:    -5.104      3.134      4.668
REMARK INTER + INTRA:          -6.677
REMARK INTER:                  -6.415
REMARK INTRA:                  -0.262
REMARK UNBOUND:                -0.380
REMARK SMILES Oc1cc(O)c2cc(O)c(-c3cc(O)c(O)c(O)c3)[o+]c2c1
REMARK SMILES IDX 10 1 20 2 21 3 22 4 2 5 3 6 4 7 6 8 7 9 8 10 11 11 12 12
REMARK SMILES IDX 13 13 19 14 15 15 17 16 14 17 16 19 18 21 9 23 1 25 5 27
REMARK H PARENT 14 18 16 20 18 22 9 24 1 26 5 28
REMARK Flexibility Score: inf
ROOT
ATOM      1  C   UNL     1      -5.453  22.703  -9.212  1.00  0.00     0.402 A 
ATOM      2  O   UNL     1      -5.037  23.963  -9.308  1.00  0.00    -0.202 OA
ATOM      3  C   UNL     1      -3.769  24.327  -9.148  1.00  0.00     0.368 A 
ATOM      4  C   UNL     1      -3.429  25.678  -9.264  1.00  0.00     0.162 A 
ATOM      5  C   UNL     1      -2.102  26.087  -9.098  1.00  0.00     0.128 A 
ATOM      6  C   UNL     1      -1.113  25.143  -8.814  1.00  0.00     0.093 A 
ATOM      7  C   UNL     1      -1.428  23.784  -8.693  1.00  0.00     0.136 A 
ATOM      8  C   UNL     1      -2.772  23.362  -8.863  1.00  0.00     0.125 A 
ATOM      9  C   UNL     1      -3.177  22.021  -8.772  1.00  0.00     0.078 A 
ATOM     10  C   UNL     1      -4.521  21.680  -8.957  1.00  0.00     0.223 A 
ENDROOT
BRANCH   1  11
ATOM     11  C   UNL     1      -6.896  22.425  -9.400  1.00  0.00     0.091 A 
ATOM     12  C   UNL     1      -7.499  22.717 -10.632  1.00  0.00     0.068 A 
ATOM     13  C   UNL     1      -8.865  22.487 -10.839  1.00  0.00     0.162 A 
ATOM     14  C   UNL     1      -7.688  21.929  -8.353  1.00  0.00     0.068 A 
ATOM     15  C   UNL     1      -9.652  21.964  -9.784  1.00  0.00     0.200 A 
ATOM     16  C   UNL     1      -9.055  21.694  -8.545  1.00  0.00     0.162 A 
BRANCH  13  17
ATOM     17  O   UNL     1      -9.392  22.790 -12.096  1.00  0.00    -0.504 OA
ATOM     18  H   UNL     1     -10.001  22.177 -12.616  1.00  0.00     0.293 HD
ENDBRANCH  13  17
BRANCH  15  19
ATOM     19  O   UNL     1     -11.017  21.705  -9.926  1.00  0.00    -0.502 OA
ATOM     20  H   UNL     1     -11.419  21.186 -10.693  1.00  0.00     0.293 HD
ENDBRANCH  15  19
BRANCH  16  21
ATOM     21  O   UNL     1      -9.832  21.195  -7.502  1.00  0.00    -0.504 OA
ATOM     22  H   UNL     1     -10.657  21.683  -7.172  1.00  0.00     0.293 HD
ENDBRANCH  16  21
ENDBRANCH   1  11
BRANCH  10  23
ATOM     23  O   UNL     1      -4.916  20.343  -8.916  1.00  0.00    -0.500 OA
ATOM     24  H   UNL     1      -5.657  20.025  -8.303  1.00  0.00     0.294 HD
ENDBRANCH  10  23
BRANCH   5  25
ATOM     25  O   UNL     1      -1.756  27.432  -9.213  1.00  0.00    -0.507 OA
ATOM     26  H   UNL     1      -2.461  28.154  -9.308  1.00  0.00     0.293 HD
ENDBRANCH   5  25
BRANCH   7  27
ATOM     27  O   UNL     1      -0.380  22.904  -8.404  1.00  0.00    -0.507 OA
ATOM     28  H   UNL     1       0.116  22.878  -7.525  1.00  0.00     0.293 HD
ENDBRANCH   7  27
TORSDOF 7
ENDMDL
MODEL 8
REMARK VINA RESULT:    -5.004      3.417      7.359
REMARK INTER + INTRA:          -6.553
REMARK INTER:                  -6.240
REMARK INTRA:                  -0.314
REMARK UNBOUND:                -0.380
REMARK SMILES Oc1cc(O)c2cc(O)c(-c3cc(O)c(O)c(O)c3)[o+]c2c1
REMARK SMILES IDX 10 1 20 2 21 3 22 4 2 5 3 6 4 7 6 8 7 9 8 10 11 11 12 12
REMARK SMILES IDX 13 13 19 14 15 15 17 16 14 17 16 19 18 21 9 23 1 25 5 27
REMARK H PARENT 14 18 16 20 18 22 9 24 1 26 5 28
REMARK Flexibility Score: inf
ROOT
ATOM      1  C   UNL     1      -5.855  21.860  -6.635  1.00  0.00     0.402 A 
ATOM      2  O   UNL     1      -6.239  22.089  -7.888  1.00  0.00    -0.202 OA
ATOM      3  C   UNL     1      -7.507  22.037  -8.283  1.00  0.00     0.368 A 
ATOM      4  C   UNL     1      -7.812  22.289  -9.624  1.00  0.00     0.162 A 
ATOM      5  C   UNL     1      -9.138  22.238 -10.066  1.00  0.00     0.128 A 
ATOM      6  C   UNL     1     -10.160  21.932  -9.165  1.00  0.00     0.093 A 
ATOM      7  C   UNL     1      -9.880  21.676  -7.817  1.00  0.00     0.136 A 
ATOM      8  C   UNL     1      -8.538  21.729  -7.362  1.00  0.00     0.125 A 
ATOM      9  C   UNL     1      -8.166  21.498  -6.028  1.00  0.00     0.078 A 
ATOM     10  C   UNL     1      -6.820  21.572  -5.652  1.00  0.00     0.223 A 
ENDROOT
BRANCH   1  11
ATOM     11  C   UNL     1      -4.410  21.937  -6.320  1.00  0.00     0.091 A 
ATOM     12  C   UNL     1      -3.757  23.178  -6.376  1.00  0.00     0.068 A 
ATOM     13  C   UNL     1      -2.388  23.285  -6.105  1.00  0.00     0.162 A 
ATOM     14  C   UNL     1      -3.663  20.787  -6.022  1.00  0.00     0.068 A 
ATOM     15  C   UNL     1      -1.647  22.123  -5.782  1.00  0.00     0.200 A 
ATOM     16  C   UNL     1      -2.293  20.880  -5.749  1.00  0.00     0.162 A 
BRANCH  13  17
ATOM     17  O   UNL     1      -1.810  24.555  -6.168  1.00  0.00    -0.504 OA
ATOM     18  H   UNL     1      -0.988  24.829  -5.652  1.00  0.00     0.293 HD
ENDBRANCH  13  17
BRANCH  15  19
ATOM     19  O   UNL     1      -0.281  22.161  -5.495  1.00  0.00    -0.502 OA
ATOM     20  H   UNL     1       0.116  22.617  -4.686  1.00  0.00     0.293 HD
ENDBRANCH  15  19
BRANCH  16  21
ATOM     21  O   UNL     1      -1.560  19.732  -5.447  1.00  0.00    -0.504 OA
ATOM     22  H   UNL     1      -1.120  19.605  -4.543  1.00  0.00     0.293 HD
ENDBRANCH  16  21
ENDBRANCH   1  11
BRANCH  10  23
ATOM     23  O   UNL     1      -6.455  21.393  -4.318  1.00  0.00    -0.500 OA
ATOM     24  H   UNL     1      -5.572  20.969  -4.060  1.00  0.00     0.294 HD
ENDBRANCH  10  23
BRANCH   5  25
ATOM     25  O   UNL     1      -9.449  22.489 -11.400  1.00  0.00    -0.507 OA
ATOM     26  H   UNL     1     -10.282  23.005 -11.661  1.00  0.00     0.293 HD
ENDBRANCH   5  25
BRANCH   7  27
ATOM     27  O   UNL     1     -10.960  21.374  -6.982  1.00  0.00    -0.507 OA
ATOM     28  H   UNL     1     -11.007  21.612  -6.002  1.00  0.00     0.293 HD
ENDBRANCH   7  27
TORSDOF 7
ENDMDL
