MODEL 1
REMARK VINA RESULT:    -1.439      0.000      0.000
REMARK INTER + INTRA:          -3.926
REMARK INTER:                  -2.617
REMARK INTRA:                  -1.309
REMARK UNBOUND:                -1.309
REMARK SMILES CCCCCCCCCCCCCCCC(=O)[O-]
REMARK SMILES IDX 9 1 10 2 11 3 12 4 13 5 14 6 15 7 16 8 17 9 18 10 8 11 7 12
REMARK SMILES IDX 6 13 5 14 4 15 3 16 2 17 1 18
REMARK H PARENT
REMARK Flexibility Score: inf
ROOT
ATOM      1  C   UNL     1      23.037  20.887  12.997  1.00  0.00     0.000 C 
ENDROOT
BRANCH   1   2
ATOM      2  C   UNL     1      24.166  19.875  12.711  1.00  0.00     0.000 C 
BRANCH   2   3
ATOM      3  C   UNL     1      25.518  20.242  13.359  1.00  0.00     0.000 C 
BRANCH   3   4
ATOM      4  C   UNL     1      26.683  20.167  12.359  1.00  0.00     0.000 C 
BRANCH   4   5
ATOM      5  C   UNL     1      27.582  21.420  12.422  1.00  0.00     0.000 C 
BRANCH   5   6
ATOM      6  C   UNL     1      28.970  21.213  11.788  1.00  0.00     0.006 C 
BRANCH   6   7
ATOM      7  C   UNL     1      29.049  20.021  10.817  1.00  0.00     0.053 C 
BRANCH   7   8
ATOM      8  C   UNL     1      29.042  20.409   9.364  1.00  0.00     0.041 C 
ATOM      9  O   UNL     1      28.077  20.105   8.613  1.00  0.00    -0.550 OA
ATOM     10  O   UNL     1      30.125  21.099   8.835  1.00  0.00    -0.550 OA
ENDBRANCH   7   8
ENDBRANCH   6   7
ENDBRANCH   5   6
ENDBRANCH   4   5
ENDBRANCH   3   4
ENDBRANCH   2   3
ENDBRANCH   1   2
BRANCH   1  11
ATOM     11  C   UNL     1      21.866  20.331  13.825  1.00  0.00     0.000 C 
BRANCH  11  12
ATOM     12  C   UNL     1      22.274  19.947  15.256  1.00  0.00    -0.000 C 
BRANCH  12  13
ATOM     13  C   UNL     1      22.485  21.197  16.125  1.00  0.00    -0.000 C 
BRANCH  13  14
ATOM     14  C   UNL     1      23.944  21.370  16.574  1.00  0.00    -0.000 C 
BRANCH  14  15
ATOM     15  C   UNL     1      24.765  20.075  16.458  1.00  0.00    -0.000 C 
BRANCH  15  16
ATOM     16  C   UNL     1      26.164  20.258  17.066  1.00  0.00    -0.000 C 
BRANCH  16  17
ATOM     17  C   UNL     1      27.074  21.145  16.199  1.00  0.00    -0.003 C 
ATOM     18  C   UNL     1      28.475  20.561  16.016  1.00  0.00     0.004 C 
ENDBRANCH  16  17
ENDBRANCH  15  16
ENDBRANCH  14  15
ENDBRANCH  13  14
ENDBRANCH  12  13
ENDBRANCH  11  12
ENDBRANCH   1  11
TORSDOF 14
ENDMDL
MODEL 2
REMARK VINA RESULT:    -1.001     12.623     16.164
REMARK INTER + INTRA:          -3.130
REMARK INTER:                  -1.544
REMARK INTRA:                  -1.585
REMARK UNBOUND:                -1.309
REMARK SMILES CCCCCCCCCCCCCCCC(=O)[O-]
REMARK SMILES IDX 9 1 10 2 11 3 12 4 13 5 14 6 15 7 16 8 17 9 18 10 8 11 7 12
REMARK SMILES IDX 6 13 5 14 4 15 3 16 2 17 1 18
REMARK H PARENT
REMARK Flexibility Score: inf
ROOT
ATOM      1  C   UNL     1      10.171  23.238  17.017  1.00  0.00     0.000 C 
ENDROOT
BRANCH   1   2
ATOM      2  C   UNL     1       9.879  22.041  17.944  1.00  0.00     0.000 C 
BRANCH   2   3
ATOM      3  C   UNL     1      10.944  21.819  19.039  1.00  0.00     0.000 C 
BRANCH   3   4
ATOM      4  C   UNL     1      11.198  20.328  19.312  1.00  0.00     0.000 C 
BRANCH   4   5
ATOM      5  C   UNL     1      11.058  19.982  20.810  1.00  0.00     0.000 C 
BRANCH   5   6
ATOM      6  C   UNL     1      12.312  20.319  21.637  1.00  0.00     0.006 C 
BRANCH   6   7
ATOM      7  C   UNL     1      12.018  21.037  22.967  1.00  0.00     0.053 C 
BRANCH   7   8
ATOM      8  C   UNL     1      11.406  22.402  22.808  1.00  0.00     0.041 C 
ATOM      9  O   UNL     1      10.169  22.585  22.966  1.00  0.00    -0.550 OA
ATOM     10  O   UNL     1      12.214  23.477  22.463  1.00  0.00    -0.550 OA
ENDBRANCH   7   8
ENDBRANCH   6   7
ENDBRANCH   5   6
ENDBRANCH   4   5
ENDBRANCH   3   4
ENDBRANCH   2   3
ENDBRANCH   1   2
BRANCH   1  11
ATOM     11  C   UNL     1      10.311  22.882  15.527  1.00  0.00     0.000 C 
BRANCH  11  12
ATOM     12  C   UNL     1      11.774  22.787  15.068  1.00  0.00    -0.000 C 
BRANCH  12  13
ATOM     13  C   UNL     1      12.123  21.358  14.624  1.00  0.00    -0.000 C 
BRANCH  13  14
ATOM     14  C   UNL     1      12.552  20.459  15.793  1.00  0.00    -0.000 C 
BRANCH  14  15
ATOM     15  C   UNL     1      13.760  21.015  16.565  1.00  0.00    -0.000 C 
BRANCH  15  16
ATOM     16  C   UNL     1      14.225  20.022  17.642  1.00  0.00    -0.000 C 
BRANCH  16  17
ATOM     17  C   UNL     1      15.755  19.884  17.698  1.00  0.00    -0.003 C 
ATOM     18  C   UNL     1      16.444  20.392  16.431  1.00  0.00     0.004 C 
ENDBRANCH  16  17
ENDBRANCH  15  16
ENDBRANCH  14  15
ENDBRANCH  13  14
ENDBRANCH  12  13
ENDBRANCH  11  12
ENDBRANCH   1  11
TORSDOF 14
ENDMDL
MODEL 3
REMARK VINA RESULT:     0.084     11.990     15.209
REMARK INTER + INTRA:          -1.156
REMARK INTER:                  -1.576
REMARK INTRA:                   0.420
REMARK UNBOUND:                -1.309
REMARK SMILES CCCCCCCCCCCCCCCC(=O)[O-]
REMARK SMILES IDX 9 1 10 2 11 3 12 4 13 5 14 6 15 7 16 8 17 9 18 10 8 11 7 12
REMARK SMILES IDX 6 13 5 14 4 15 3 16 2 17 1 18
REMARK H PARENT
REMARK Flexibility Score: inf
ROOT
ATOM      1  C   UNL     1      10.006  23.526  17.428  1.00  0.00     0.000 C 
ENDROOT
BRANCH   1   2
ATOM      2  C   UNL     1      11.081  23.406  16.328  1.00  0.00     0.000 C 
BRANCH   2   3
ATOM      3  C   UNL     1      10.664  22.519  15.136  1.00  0.00     0.000 C 
BRANCH   3   4
ATOM      4  C   UNL     1      11.651  21.366  14.894  1.00  0.00     0.000 C 
BRANCH   4   5
ATOM      5  C   UNL     1      12.902  21.477  15.791  1.00  0.00     0.000 C 
BRANCH   5   6
ATOM      6  C   UNL     1      12.979  20.387  16.875  1.00  0.00     0.006 C 
BRANCH   6   7
ATOM      7  C   UNL     1      14.411  20.036  17.319  1.00  0.00     0.053 C 
BRANCH   7   8
ATOM      8  C   UNL     1      15.488  20.701  16.506  1.00  0.00     0.041 C 
ATOM      9  O   UNL     1      15.232  21.691  15.770  1.00  0.00    -0.550 OA
ATOM     10  O   UNL     1      16.784  20.204  16.552  1.00  0.00    -0.550 OA
ENDBRANCH   7   8
ENDBRANCH   6   7
ENDBRANCH   5   6
ENDBRANCH   4   5
ENDBRANCH   3   4
ENDBRANCH   2   3
ENDBRANCH   1   2
BRANCH   1  11
ATOM     11  C   UNL     1      10.063  22.433  18.509  1.00  0.00     0.000 C 
BRANCH  11  12
ATOM     12  C   UNL     1       9.875  21.018  17.939  1.00  0.00    -0.000 C 
BRANCH  12  13
ATOM     13  C   UNL     1      10.073  19.952  19.029  1.00  0.00    -0.000 C 
BRANCH  13  14
ATOM     14  C   UNL     1      10.113  20.548  20.444  1.00  0.00    -0.000 C 
BRANCH  14  15
ATOM     15  C   UNL     1      11.441  20.277  21.171  1.00  0.00    -0.000 C 
BRANCH  15  16
ATOM     16  C   UNL     1      11.829  21.467  22.063  1.00  0.00    -0.000 C 
BRANCH  16  17
ATOM     17  C   UNL     1      10.619  22.081  22.787  1.00  0.00    -0.003 C 
ATOM     18  C   UNL     1       9.875  21.072  23.663  1.00  0.00     0.004 C 
ENDBRANCH  16  17
ENDBRANCH  15  16
ENDBRANCH  14  15
ENDBRANCH  13  14
ENDBRANCH  12  13
ENDBRANCH  11  12
ENDBRANCH   1  11
TORSDOF 14
ENDMDL
MODEL 4
REMARK VINA RESULT:     1.160     13.012     16.737
REMARK INTER + INTRA:           0.800
REMARK INTER:                  -0.115
REMARK INTRA:                   0.915
REMARK UNBOUND:                -1.309
REMARK SMILES CCCCCCCCCCCCCCCC(=O)[O-]
REMARK SMILES IDX 9 1 10 2 11 3 12 4 13 5 14 6 15 7 16 8 17 9 18 10 8 11 7 12
REMARK SMILES IDX 6 13 5 14 4 15 3 16 2 17 1 18
REMARK H PARENT
REMARK Flexibility Score: inf
ROOT
ATOM      1  C   UNL     1      11.160  20.863  18.309  1.00  0.00     0.000 C 
ENDROOT
BRANCH   1   2
ATOM      2  C   UNL     1      10.933  21.183  19.801  1.00  0.00     0.000 C 
BRANCH   2   3
ATOM      3  C   UNL     1      11.181  22.660  20.171  1.00  0.00     0.000 C 
BRANCH   3   4
ATOM      4  C   UNL     1      10.157  23.186  21.190  1.00  0.00     0.000 C 
BRANCH   4   5
ATOM      5  C   UNL     1      10.095  22.304  22.455  1.00  0.00     0.000 C 
BRANCH   5   6
ATOM      6  C   UNL     1       9.937  20.803  22.151  1.00  0.00     0.006 C 
BRANCH   6   7
ATOM      7  C   UNL     1      10.653  19.876  23.151  1.00  0.00     0.053 C 
BRANCH   7   8
ATOM      8  C   UNL     1      11.923  20.447  23.719  1.00  0.00     0.041 C 
ATOM      9  O   UNL     1      12.491  19.914  24.709  1.00  0.00    -0.550 OA
ATOM     10  O   UNL     1      12.469  21.593  23.157  1.00  0.00    -0.550 OA
ENDBRANCH   7   8
ENDBRANCH   6   7
ENDBRANCH   5   6
ENDBRANCH   4   5
ENDBRANCH   3   4
ENDBRANCH   2   3
ENDBRANCH   1   2
BRANCH   1  11
ATOM     11  C   UNL     1      10.796  22.002  17.342  1.00  0.00     0.000 C 
BRANCH  11  12
ATOM     12  C   UNL     1      10.168  21.498  16.033  1.00  0.00    -0.000 C 
BRANCH  12  13
ATOM     13  C   UNL     1      11.212  21.438  14.906  1.00  0.00    -0.000 C 
BRANCH  13  14
ATOM     14  C   UNL     1      12.123  22.674  14.872  1.00  0.00    -0.000 C 
BRANCH  14  15
ATOM     15  C   UNL     1      13.609  22.319  14.696  1.00  0.00    -0.000 C 
BRANCH  15  16
ATOM     16  C   UNL     1      13.991  21.114  15.570  1.00  0.00    -0.000 C 
BRANCH  16  17
ATOM     17  C   UNL     1      15.323  21.319  16.309  1.00  0.00    -0.003 C 
ATOM     18  C   UNL     1      15.862  20.032  16.934  1.00  0.00     0.004 C 
ENDBRANCH  16  17
ENDBRANCH  15  16
ENDBRANCH  14  15
ENDBRANCH  13  14
ENDBRANCH  12  13
ENDBRANCH  11  12
ENDBRANCH   1  11
TORSDOF 14
ENDMDL
