MODEL 1
REMARK VINA RESULT:    -7.583      0.000      0.000
REMARK INTER + INTRA:          -9.298
REMARK INTER:                  -9.134
REMARK INTRA:                  -0.163
REMARK UNBOUND:                -0.163
REMARK SMILES O=c1c(O)c(-c2ccc(O)c(O)c2)oc2cc(O)cc(O)c12
REMARK SMILES IDX 5 1 3 2 2 3 1 4 22 5 20 6 19 7 17 8 16 9 15 10 14 11 6 12
REMARK SMILES IDX 7 13 8 14 9 15 13 16 11 17 10 18 12 20 4 22 21 24 18 26
REMARK H PARENT 10 19 12 21 4 23 21 25 18 27
REMARK Flexibility Score: inf
ROOT
ATOM      1  C   UNL     1      36.022  76.540   1.917  1.00  0.00     0.180 A 
ATOM      2  C   UNL     1      36.136  77.773   2.589  1.00  0.00     0.208 A 
ATOM      3  C   UNL     1      36.457  77.774   3.955  1.00  0.00     0.238 A 
ATOM      4  O   UNL     1      36.573  78.872   4.565  1.00  0.00    -0.285 OA
ATOM      5  C   UNL     1      36.637  76.549   4.630  1.00  0.00     0.111 A 
ATOM      6  C   UNL     1      36.958  76.463   6.006  1.00  0.00     0.134 A 
ATOM      7  C   UNL     1      37.113  75.204   6.607  1.00  0.00     0.093 A 
ATOM      8  C   UNL     1      36.952  74.033   5.858  1.00  0.00     0.123 A 
ATOM      9  C   UNL     1      36.636  74.113   4.502  1.00  0.00     0.094 A 
ATOM     10  C   UNL     1      36.479  75.357   3.884  1.00  0.00     0.146 A 
ATOM     11  O   UNL     1      36.183  75.405   2.589  1.00  0.00    -0.452 OA
ENDROOT
BRANCH   1  12
ATOM     12  C   UNL     1      35.704  76.457   0.474  1.00  0.00     0.025 A 
ATOM     13  C   UNL     1      36.605  76.986  -0.463  1.00  0.00     0.016 A 
ATOM     14  C   UNL     1      36.315  76.935  -1.829  1.00  0.00     0.051 A 
ATOM     15  C   UNL     1      35.117  76.371  -2.278  1.00  0.00     0.157 A 
ATOM     16  C   UNL     1      34.491  75.908   0.022  1.00  0.00     0.062 A 
ATOM     17  C   UNL     1      34.197  75.858  -1.349  1.00  0.00     0.158 A 
BRANCH  15  18
ATOM     18  O   UNL     1      34.857  76.333  -3.648  1.00  0.00    -0.504 OA
ATOM     19  H   UNL     1      35.477  76.756  -4.326  1.00  0.00     0.293 HD
ENDBRANCH  15  18
BRANCH  17  20
ATOM     20  O   UNL     1      32.995  75.307  -1.789  1.00  0.00    -0.504 OA
ATOM     21  H   UNL     1      32.281  75.875  -2.232  1.00  0.00     0.293 HD
ENDBRANCH  17  20
ENDBRANCH   1  12
BRANCH   2  22
ATOM     22  O   UNL     1      35.904  78.971   1.909  1.00  0.00    -0.502 OA
ATOM     23  H   UNL     1      36.619  79.431   1.359  1.00  0.00     0.293 HD
ENDBRANCH   2  22
BRANCH   6  24
ATOM     24  O   UNL     1      37.125  77.613   6.779  1.00  0.00    -0.507 OA
ATOM     25  H   UNL     1      36.548  77.799   7.590  1.00  0.00     0.293 HD
ENDBRANCH   6  24
BRANCH   8  26
ATOM     26  O   UNL     1      37.104  72.783   6.456  1.00  0.00    -0.508 OA
ATOM     27  H   UNL     1      36.735  72.589   7.379  1.00  0.00     0.293 HD
ENDBRANCH   8  26
TORSDOF 6
ENDMDL
MODEL 2
REMARK VINA RESULT:    -7.170      1.055      1.304
REMARK INTER + INTRA:          -8.801
REMARK INTER:                  -8.620
REMARK INTRA:                  -0.181
REMARK UNBOUND:                -0.163
REMARK SMILES O=c1c(O)c(-c2ccc(O)c(O)c2)oc2cc(O)cc(O)c12
REMARK SMILES IDX 5 1 3 2 2 3 1 4 22 5 20 6 19 7 17 8 16 9 15 10 14 11 6 12
REMARK SMILES IDX 7 13 8 14 9 15 13 16 11 17 10 18 12 20 4 22 21 24 18 26
REMARK H PARENT 10 19 12 21 4 23 21 25 18 27
REMARK Flexibility Score: inf
ROOT
ATOM      1  C   UNL     1      35.823  76.991   0.730  1.00  0.00     0.180 A 
ATOM      2  C   UNL     1      35.957  78.262   1.322  1.00  0.00     0.208 A 
ATOM      3  C   UNL     1      36.336  78.344   2.671  1.00  0.00     0.238 A 
ATOM      4  O   UNL     1      36.471  79.478   3.210  1.00  0.00    -0.285 OA
ATOM      5  C   UNL     1      36.553  77.163   3.408  1.00  0.00     0.111 A 
ATOM      6  C   UNL     1      36.933  77.159   4.772  1.00  0.00     0.134 A 
ATOM      7  C   UNL     1      37.122  75.939   5.439  1.00  0.00     0.093 A 
ATOM      8  C   UNL     1      36.937  74.724   4.768  1.00  0.00     0.123 A 
ATOM      9  C   UNL     1      36.563  74.723   3.424  1.00  0.00     0.094 A 
ATOM     10  C   UNL     1      36.372  75.928   2.742  1.00  0.00     0.146 A 
ATOM     11  O   UNL     1      36.021  75.898   1.460  1.00  0.00    -0.452 OA
ENDROOT
BRANCH   1  12
ATOM     12  C   UNL     1      35.445  76.821  -0.691  1.00  0.00     0.025 A 
ATOM     13  C   UNL     1      36.320  77.260  -1.696  1.00  0.00     0.016 A 
ATOM     14  C   UNL     1      35.974  77.128  -3.043  1.00  0.00     0.051 A 
ATOM     15  C   UNL     1      34.744  76.570  -3.406  1.00  0.00     0.157 A 
ATOM     16  C   UNL     1      34.200  76.279  -1.057  1.00  0.00     0.062 A 
ATOM     17  C   UNL     1      33.850  76.146  -2.409  1.00  0.00     0.158 A 
BRANCH  15  18
ATOM     18  O   UNL     1      34.427  76.448  -4.759  1.00  0.00    -0.504 OA
ATOM     19  H   UNL     1      35.048  75.997  -5.419  1.00  0.00     0.293 HD
ENDBRANCH  15  18
BRANCH  17  20
ATOM     20  O   UNL     1      32.616  75.603  -2.764  1.00  0.00    -0.504 OA
ATOM     21  H   UNL     1      32.523  74.964  -3.545  1.00  0.00     0.293 HD
ENDBRANCH  17  20
ENDBRANCH   1  12
BRANCH   2  22
ATOM     22  O   UNL     1      35.688  79.417   0.584  1.00  0.00    -0.502 OA
ATOM     23  H   UNL     1      36.168  79.632  -0.281  1.00  0.00     0.293 HD
ENDBRANCH   2  22
BRANCH   6  24
ATOM     24  O   UNL     1      37.125  78.353   5.468  1.00  0.00    -0.507 OA
ATOM     25  H   UNL     1      37.947  78.513   6.038  1.00  0.00     0.293 HD
ENDBRANCH   6  24
BRANCH   8  26
ATOM     26  O   UNL     1      37.123  73.513   5.431  1.00  0.00    -0.508 OA
ATOM     27  H   UNL     1      37.146  72.632   4.930  1.00  0.00     0.293 HD
ENDBRANCH   8  26
TORSDOF 6
ENDMDL
MODEL 3
REMARK VINA RESULT:    -7.077      1.463      2.260
REMARK INTER + INTRA:          -8.688
REMARK INTER:                  -8.615
REMARK INTRA:                  -0.072
REMARK UNBOUND:                -0.163
REMARK SMILES O=c1c(O)c(-c2ccc(O)c(O)c2)oc2cc(O)cc(O)c12
REMARK SMILES IDX 5 1 3 2 2 3 1 4 22 5 20 6 19 7 17 8 16 9 15 10 14 11 6 12
REMARK SMILES IDX 7 13 8 14 9 15 13 16 11 17 10 18 12 20 4 22 21 24 18 26
REMARK H PARENT 10 19 12 21 4 23 21 25 18 27
REMARK Flexibility Score: inf
ROOT
ATOM      1  C   UNL     1      36.019  77.377  -0.159  1.00  0.00     0.180 A 
ATOM      2  C   UNL     1      36.138  78.669   0.388  1.00  0.00     0.208 A 
ATOM      3  C   UNL     1      36.400  78.802   1.760  1.00  0.00     0.238 A 
ATOM      4  O   UNL     1      36.520  79.955   2.260  1.00  0.00    -0.285 OA
ATOM      5  C   UNL     1      36.518  77.649   2.563  1.00  0.00     0.111 A 
ATOM      6  C   UNL     1      36.778  77.697   3.954  1.00  0.00     0.134 A 
ATOM      7  C   UNL     1      36.872  76.504   4.686  1.00  0.00     0.093 A 
ATOM      8  C   UNL     1      36.712  75.266   4.054  1.00  0.00     0.123 A 
ATOM      9  C   UNL     1      36.456  75.214   2.683  1.00  0.00     0.094 A 
ATOM     10  C   UNL     1      36.360  76.391   1.936  1.00  0.00     0.146 A 
ATOM     11  O   UNL     1      36.121  76.312   0.631  1.00  0.00    -0.452 OA
ENDROOT
BRANCH   1  12
ATOM     12  C   UNL     1      35.761  77.153  -1.600  1.00  0.00     0.025 A 
ATOM     13  C   UNL     1      36.638  77.697  -2.551  1.00  0.00     0.016 A 
ATOM     14  C   UNL     1      36.402  77.515  -3.916  1.00  0.00     0.051 A 
ATOM     15  C   UNL     1      35.281  76.801  -4.351  1.00  0.00     0.157 A 
ATOM     16  C   UNL     1      34.624  76.452  -2.039  1.00  0.00     0.062 A 
ATOM     17  C   UNL     1      34.384  76.270  -3.410  1.00  0.00     0.158 A 
BRANCH  15  18
ATOM     18  O   UNL     1      35.073  76.633  -5.720  1.00  0.00    -0.504 OA
ATOM     19  H   UNL     1      35.216  77.385  -6.382  1.00  0.00     0.293 HD
ENDBRANCH  15  18
BRANCH  17  20
ATOM     20  O   UNL     1      33.257  75.570  -3.838  1.00  0.00    -0.504 OA
ATOM     21  H   UNL     1      33.334  74.666  -4.290  1.00  0.00     0.293 HD
ENDBRANCH  17  20
ENDBRANCH   1  12
BRANCH   2  22
ATOM     22  O   UNL     1      35.968  79.796  -0.419  1.00  0.00    -0.502 OA
ATOM     23  H   UNL     1      36.722  80.189  -0.969  1.00  0.00     0.293 HD
ENDBRANCH   2  22
BRANCH   6  24
ATOM     24  O   UNL     1      36.942  78.916   4.613  1.00  0.00    -0.507 OA
ATOM     25  H   UNL     1      37.564  79.014   5.406  1.00  0.00     0.293 HD
ENDBRANCH   6  24
BRANCH   8  26
ATOM     26  O   UNL     1      36.804  74.081   4.781  1.00  0.00    -0.508 OA
ATOM     27  H   UNL     1      36.028  73.737   5.336  1.00  0.00     0.293 HD
ENDBRANCH   8  26
TORSDOF 6
ENDMDL
MODEL 4
REMARK VINA RESULT:    -6.596      2.624      7.813
REMARK INTER + INTRA:          -8.108
REMARK INTER:                  -8.324
REMARK INTRA:                   0.216
REMARK UNBOUND:                -0.163
REMARK SMILES O=c1c(O)c(-c2ccc(O)c(O)c2)oc2cc(O)cc(O)c12
REMARK SMILES IDX 5 1 3 2 2 3 1 4 22 5 20 6 19 7 17 8 16 9 15 10 14 11 6 12
REMARK SMILES IDX 7 13 8 14 9 15 13 16 11 17 10 18 12 20 4 22 21 24 18 26
REMARK H PARENT 10 19 12 21 4 23 21 25 18 27
REMARK Flexibility Score: inf
ROOT
ATOM      1  C   UNL     1      35.535  78.107  -0.588  1.00  0.00     0.180 A 
ATOM      2  C   UNL     1      34.801  79.303  -0.705  1.00  0.00     0.208 A 
ATOM      3  C   UNL     1      34.406  79.734  -1.981  1.00  0.00     0.238 A 
ATOM      4  O   UNL     1      33.738  80.798  -2.097  1.00  0.00    -0.285 OA
ATOM      5  C   UNL     1      34.767  78.979  -3.115  1.00  0.00     0.111 A 
ATOM      6  C   UNL     1      34.412  79.346  -4.435  1.00  0.00     0.134 A 
ATOM      7  C   UNL     1      34.818  78.545  -5.514  1.00  0.00     0.093 A 
ATOM      8  C   UNL     1      35.571  77.385  -5.296  1.00  0.00     0.123 A 
ATOM      9  C   UNL     1      35.922  77.020  -3.996  1.00  0.00     0.094 A 
ATOM     10  C   UNL     1      35.527  77.804  -2.909  1.00  0.00     0.146 A 
ATOM     11  O   UNL     1      35.871  77.429  -1.681  1.00  0.00    -0.452 OA
ENDROOT
BRANCH   1  12
ATOM     12  C   UNL     1      35.972  77.576   0.723  1.00  0.00     0.025 A 
ATOM     13  C   UNL     1      35.953  76.191   0.949  1.00  0.00     0.016 A 
ATOM     14  C   UNL     1      36.341  75.671   2.186  1.00  0.00     0.051 A 
ATOM     15  C   UNL     1      36.740  76.525   3.219  1.00  0.00     0.157 A 
ATOM     16  C   UNL     1      36.353  78.435   1.770  1.00  0.00     0.062 A 
ATOM     17  C   UNL     1      36.743  77.914   3.013  1.00  0.00     0.158 A 
BRANCH  15  18
ATOM     18  O   UNL     1      37.125  75.976   4.442  1.00  0.00    -0.504 OA
ATOM     19  H   UNL     1      36.452  75.612   5.104  1.00  0.00     0.293 HD
ENDBRANCH  15  18
BRANCH  17  20
ATOM     20  O   UNL     1      37.125  78.771   4.044  1.00  0.00    -0.504 OA
ATOM     21  H   UNL     1      37.600  78.428   4.871  1.00  0.00     0.293 HD
ENDBRANCH  17  20
ENDBRANCH   1  12
BRANCH   2  22
ATOM     22  O   UNL     1      34.498  80.059   0.430  1.00  0.00    -0.502 OA
ATOM     23  H   UNL     1      35.049  80.010   1.278  1.00  0.00     0.293 HD
ENDBRANCH   2  22
BRANCH   6  24
ATOM     24  O   UNL     1      33.662  80.497  -4.685  1.00  0.00    -0.507 OA
ATOM     25  H   UNL     1      34.083  81.335  -5.066  1.00  0.00     0.293 HD
ENDBRANCH   6  24
BRANCH   8  26
ATOM     26  O   UNL     1      35.975  76.591  -6.367  1.00  0.00    -0.508 OA
ATOM     27  H   UNL     1      36.682  76.903  -7.021  1.00  0.00     0.293 HD
ENDBRANCH   8  26
TORSDOF 6
ENDMDL
MODEL 5
REMARK VINA RESULT:    -6.475      2.132      7.737
REMARK INTER + INTRA:          -7.963
REMARK INTER:                  -8.080
REMARK INTRA:                   0.118
REMARK UNBOUND:                -0.163
REMARK SMILES O=c1c(O)c(-c2ccc(O)c(O)c2)oc2cc(O)cc(O)c12
REMARK SMILES IDX 5 1 3 2 2 3 1 4 22 5 20 6 19 7 17 8 16 9 15 10 14 11 6 12
REMARK SMILES IDX 7 13 8 14 9 15 13 16 11 17 10 18 12 20 4 22 21 24 18 26
REMARK H PARENT 10 19 12 21 4 23 21 25 18 27
REMARK Flexibility Score: inf
ROOT
ATOM      1  C   UNL     1      35.466  77.239   0.123  1.00  0.00     0.180 A 
ATOM      2  C   UNL     1      34.344  76.626  -0.467  1.00  0.00     0.208 A 
ATOM      3  C   UNL     1      33.990  76.979  -1.779  1.00  0.00     0.238 A 
ATOM      4  O   UNL     1      32.993  76.428  -2.322  1.00  0.00    -0.285 OA
ATOM      5  C   UNL     1      34.746  77.948  -2.468  1.00  0.00     0.111 A 
ATOM      6  C   UNL     1      34.454  78.362  -3.790  1.00  0.00     0.134 A 
ATOM      7  C   UNL     1      35.250  79.340  -4.406  1.00  0.00     0.093 A 
ATOM      8  C   UNL     1      36.332  79.911  -3.724  1.00  0.00     0.123 A 
ATOM      9  C   UNL     1      36.623  79.505  -2.421  1.00  0.00     0.094 A 
ATOM     10  C   UNL     1      35.843  78.531  -1.792  1.00  0.00     0.146 A 
ATOM     11  O   UNL     1      36.147  78.160  -0.552  1.00  0.00    -0.452 OA
ENDROOT
BRANCH   1  12
ATOM     12  C   UNL     1      35.914  76.907   1.494  1.00  0.00     0.025 A 
ATOM     13  C   UNL     1      35.933  75.567   1.910  1.00  0.00     0.016 A 
ATOM     14  C   UNL     1      36.333  75.234   3.207  1.00  0.00     0.051 A 
ATOM     15  C   UNL     1      36.705  76.233   4.111  1.00  0.00     0.157 A 
ATOM     16  C   UNL     1      36.269  77.913   2.411  1.00  0.00     0.062 A 
ATOM     17  C   UNL     1      36.669  77.581   3.715  1.00  0.00     0.158 A 
BRANCH  15  18
ATOM     18  O   UNL     1      37.102  75.870   5.398  1.00  0.00    -0.504 OA
ATOM     19  H   UNL     1      37.976  76.184   5.800  1.00  0.00     0.293 HD
ENDBRANCH  15  18
BRANCH  17  20
ATOM     20  O   UNL     1      37.024  78.582   4.616  1.00  0.00    -0.504 OA
ATOM     21  H   UNL     1      37.175  78.383   5.598  1.00  0.00     0.293 HD
ENDBRANCH  17  20
ENDBRANCH   1  12
BRANCH   2  22
ATOM     22  O   UNL     1      33.582  75.705   0.255  1.00  0.00    -0.502 OA
ATOM     23  H   UNL     1      33.982  74.868   0.662  1.00  0.00     0.293 HD
ENDBRANCH   2  22
BRANCH   6  24
ATOM     24  O   UNL     1      33.383  77.812  -4.496  1.00  0.00    -0.507 OA
ATOM     25  H   UNL     1      32.899  78.329  -5.220  1.00  0.00     0.293 HD
ENDBRANCH   6  24
BRANCH   8  26
ATOM     26  O   UNL     1      37.121  80.883  -4.334  1.00  0.00    -0.508 OA
ATOM     27  H   UNL     1      37.083  81.854  -4.047  1.00  0.00     0.293 HD
ENDBRANCH   8  26
TORSDOF 6
ENDMDL
MODEL 6
REMARK VINA RESULT:    -6.197      1.425      6.596
REMARK INTER + INTRA:          -7.628
REMARK INTER:                  -7.605
REMARK INTRA:                  -0.023
REMARK UNBOUND:                -0.163
REMARK SMILES O=c1c(O)c(-c2ccc(O)c(O)c2)oc2cc(O)cc(O)c12
REMARK SMILES IDX 5 1 3 2 2 3 1 4 22 5 20 6 19 7 17 8 16 9 15 10 14 11 6 12
REMARK SMILES IDX 7 13 8 14 9 15 13 16 11 17 10 18 12 20 4 22 21 24 18 26
REMARK H PARENT 10 19 12 21 4 23 21 25 18 27
REMARK Flexibility Score: inf
ROOT
ATOM      1  C   UNL     1      36.429  76.483   3.600  1.00  0.00     0.180 A 
ATOM      2  C   UNL     1      36.738  77.848   3.764  1.00  0.00     0.208 A 
ATOM      3  C   UNL     1      36.677  78.695   2.647  1.00  0.00     0.238 A 
ATOM      4  O   UNL     1      36.940  79.922   2.783  1.00  0.00    -0.285 OA
ATOM      5  C   UNL     1      36.332  78.165   1.387  1.00  0.00     0.111 A 
ATOM      6  C   UNL     1      36.253  78.950   0.211  1.00  0.00     0.134 A 
ATOM      7  C   UNL     1      35.910  78.345  -1.008  1.00  0.00     0.093 A 
ATOM      8  C   UNL     1      35.647  76.972  -1.073  1.00  0.00     0.123 A 
ATOM      9  C   UNL     1      35.725  76.195   0.083  1.00  0.00     0.094 A 
ATOM     10  C   UNL     1      36.062  76.779   1.308  1.00  0.00     0.146 A 
ATOM     11  O   UNL     1      36.123  76.015   2.394  1.00  0.00    -0.452 OA
ENDROOT
BRANCH   1  12
ATOM     12  C   UNL     1      36.452  75.529   4.732  1.00  0.00     0.025 A 
ATOM     13  C   UNL     1      37.108  74.297   4.584  1.00  0.00     0.016 A 
ATOM     14  C   UNL     1      37.123  73.374   5.633  1.00  0.00     0.051 A 
ATOM     15  C   UNL     1      36.474  73.661   6.837  1.00  0.00     0.157 A 
ATOM     16  C   UNL     1      35.782  75.808   5.937  1.00  0.00     0.062 A 
ATOM     17  C   UNL     1      35.796  74.881   6.991  1.00  0.00     0.158 A 
BRANCH  15  18
ATOM     18  O   UNL     1      36.509  72.721   7.867  1.00  0.00    -0.504 OA
ATOM     19  H   UNL     1      36.251  71.753   7.722  1.00  0.00     0.293 HD
ENDBRANCH  15  18
BRANCH  17  20
ATOM     20  O   UNL     1      35.134  75.166   8.183  1.00  0.00    -0.504 OA
ATOM     21  H   UNL     1      35.608  75.120   9.078  1.00  0.00     0.293 HD
ENDBRANCH  17  20
ENDBRANCH   1  12
BRANCH   2  22
ATOM     22  O   UNL     1      37.125  78.339   5.013  1.00  0.00    -0.502 OA
ATOM     23  H   UNL     1      37.212  77.743   5.827  1.00  0.00     0.293 HD
ENDBRANCH   2  22
BRANCH   6  24
ATOM     24  O   UNL     1      36.509  80.321   0.244  1.00  0.00    -0.507 OA
ATOM     25  H   UNL     1      37.420  80.688   0.491  1.00  0.00     0.293 HD
ENDBRANCH   6  24
BRANCH   8  26
ATOM     26  O   UNL     1      35.310  76.371  -2.284  1.00  0.00    -0.508 OA
ATOM     27  H   UNL     1      35.043  76.921  -3.092  1.00  0.00     0.293 HD
ENDBRANCH   8  26
TORSDOF 6
ENDMDL
MODEL 7
REMARK VINA RESULT:    -6.182      2.205      4.098
REMARK INTER + INTRA:          -7.610
REMARK INTER:                  -7.478
REMARK INTRA:                  -0.132
REMARK UNBOUND:                -0.163
REMARK SMILES O=c1c(O)c(-c2ccc(O)c(O)c2)oc2cc(O)cc(O)c12
REMARK SMILES IDX 5 1 3 2 2 3 1 4 22 5 20 6 19 7 17 8 16 9 15 10 14 11 6 12
REMARK SMILES IDX 7 13 8 14 9 15 13 16 11 17 10 18 12 20 4 22 21 24 18 26
REMARK H PARENT 10 19 12 21 4 23 21 25 18 27
REMARK Flexibility Score: inf
ROOT
ATOM      1  C   UNL     1      35.652  77.596   0.734  1.00  0.00     0.180 A 
ATOM      2  C   UNL     1      35.937  76.801   1.860  1.00  0.00     0.208 A 
ATOM      3  C   UNL     1      36.328  77.430   3.053  1.00  0.00     0.238 A 
ATOM      4  O   UNL     1      36.575  76.728   4.072  1.00  0.00    -0.285 OA
ATOM      5  C   UNL     1      36.447  78.833   3.095  1.00  0.00     0.111 A 
ATOM      6  C   UNL     1      36.839  79.543   4.255  1.00  0.00     0.134 A 
ATOM      7  C   UNL     1      36.943  80.942   4.214  1.00  0.00     0.093 A 
ATOM      8  C   UNL     1      36.663  81.642   3.034  1.00  0.00     0.123 A 
ATOM      9  C   UNL     1      36.277  80.947   1.888  1.00  0.00     0.094 A 
ATOM     10  C   UNL     1      36.166  79.553   1.910  1.00  0.00     0.146 A 
ATOM     11  O   UNL     1      35.790  78.917   0.806  1.00  0.00    -0.452 OA
ENDROOT
BRANCH   1  12
ATOM     12  C   UNL     1      35.217  77.011  -0.554  1.00  0.00     0.025 A 
ATOM     13  C   UNL     1      35.948  77.284  -1.720  1.00  0.00     0.016 A 
ATOM     14  C   UNL     1      35.542  76.758  -2.949  1.00  0.00     0.051 A 
ATOM     15  C   UNL     1      34.394  75.965  -3.035  1.00  0.00     0.157 A 
ATOM     16  C   UNL     1      34.050  76.229  -0.645  1.00  0.00     0.062 A 
ATOM     17  C   UNL     1      33.640  75.701  -1.879  1.00  0.00     0.158 A 
BRANCH  15  18
ATOM     18  O   UNL     1      34.015  75.451  -4.275  1.00  0.00    -0.504 OA
ATOM     19  H   UNL     1      33.863  76.046  -5.080  1.00  0.00     0.293 HD
ENDBRANCH  15  18
BRANCH  17  20
ATOM     20  O   UNL     1      32.487  74.923  -1.960  1.00  0.00    -0.504 OA
ATOM     21  H   UNL     1      32.308  74.169  -1.307  1.00  0.00     0.293 HD
ENDBRANCH  17  20
ENDBRANCH   1  12
BRANCH   2  22
ATOM     22  O   UNL     1      35.860  75.409   1.779  1.00  0.00    -0.502 OA
ATOM     23  H   UNL     1      36.683  74.819   1.761  1.00  0.00     0.293 HD
ENDBRANCH   2  22
BRANCH   6  24
ATOM     24  O   UNL     1      37.125  78.874   5.446  1.00  0.00    -0.507 OA
ATOM     25  H   UNL     1      37.919  78.251   5.530  1.00  0.00     0.293 HD
ENDBRANCH   6  24
BRANCH   8  26
ATOM     26  O   UNL     1      36.768  83.031   2.993  1.00  0.00    -0.508 OA
ATOM     27  H   UNL     1      35.953  83.627   3.074  1.00  0.00     0.293 HD
ENDBRANCH   8  26
TORSDOF 6
ENDMDL
MODEL 8
REMARK VINA RESULT:    -5.888      2.063      7.373
REMARK INTER + INTRA:          -7.256
REMARK INTER:                  -7.729
REMARK INTRA:                   0.473
REMARK UNBOUND:                -0.163
REMARK SMILES O=c1c(O)c(-c2ccc(O)c(O)c2)oc2cc(O)cc(O)c12
REMARK SMILES IDX 5 1 3 2 2 3 1 4 22 5 20 6 19 7 17 8 16 9 15 10 14 11 6 12
REMARK SMILES IDX 7 13 8 14 9 15 13 16 11 17 10 18 12 20 4 22 21 24 18 26
REMARK H PARENT 10 19 12 21 4 23 21 25 18 27
REMARK Flexibility Score: inf
ROOT
ATOM      1  C   UNL     1      36.138  77.691  -0.201  1.00  0.00     0.180 A 
ATOM      2  C   UNL     1      36.513  78.923  -0.770  1.00  0.00     0.208 A 
ATOM      3  C   UNL     1      36.288  79.134  -2.139  1.00  0.00     0.238 A 
ATOM      4  O   UNL     1      36.609  80.238  -2.658  1.00  0.00    -0.285 OA
ATOM      5  C   UNL     1      35.714  78.108  -2.918  1.00  0.00     0.111 A 
ATOM      6  C   UNL     1      35.458  78.239  -4.304  1.00  0.00     0.134 A 
ATOM      7  C   UNL     1      34.892  77.167  -5.011  1.00  0.00     0.093 A 
ATOM      8  C   UNL     1      34.578  75.969  -4.359  1.00  0.00     0.123 A 
ATOM      9  C   UNL     1      34.829  75.836  -2.993  1.00  0.00     0.094 A 
ATOM     10  C   UNL     1      35.391  76.893  -2.270  1.00  0.00     0.146 A 
ATOM     11  O   UNL     1      35.613  76.741  -0.969  1.00  0.00    -0.452 OA
ENDROOT
BRANCH   1  12
ATOM     12  C   UNL     1      36.326  77.399   1.238  1.00  0.00     0.025 A 
ATOM     13  C   UNL     1      36.607  78.449   2.126  1.00  0.00     0.016 A 
ATOM     14  C   UNL     1      36.808  78.192   3.484  1.00  0.00     0.051 A 
ATOM     15  C   UNL     1      36.746  76.884   3.974  1.00  0.00     0.157 A 
ATOM     16  C   UNL     1      36.284  76.081   1.729  1.00  0.00     0.062 A 
ATOM     17  C   UNL     1      36.487  75.821   3.093  1.00  0.00     0.158 A 
BRANCH  15  18
ATOM     18  O   UNL     1      36.948  76.660   5.336  1.00  0.00    -0.504 OA
ATOM     19  H   UNL     1      36.359  76.035   5.872  1.00  0.00     0.293 HD
ENDBRANCH  15  18
BRANCH  17  20
ATOM     20  O   UNL     1      36.439  74.514   3.573  1.00  0.00    -0.504 OA
ATOM     21  H   UNL     1      37.255  73.913   3.558  1.00  0.00     0.293 HD
ENDBRANCH  17  20
ENDBRANCH   1  12
BRANCH   2  22
ATOM     22  O   UNL     1      37.125  79.905   0.013  1.00  0.00    -0.502 OA
ATOM     23  H   UNL     1      37.102  80.887  -0.232  1.00  0.00     0.293 HD
ENDBRANCH   2  22
BRANCH   6  24
ATOM     24  O   UNL     1      35.760  79.420  -4.982  1.00  0.00    -0.507 OA
ATOM     25  H   UNL     1      35.922  79.435  -5.981  1.00  0.00     0.293 HD
ENDBRANCH   6  24
BRANCH   8  26
ATOM     26  O   UNL     1      34.018  74.905  -5.062  1.00  0.00    -0.508 OA
ATOM     27  H   UNL     1      33.232  75.037  -5.687  1.00  0.00     0.293 HD
ENDBRANCH   8  26
TORSDOF 6
ENDMDL
