MODEL 1
REMARK VINA RESULT:    -6.818      0.000      0.000
REMARK INTER + INTRA:          -8.089
REMARK INTER:                  -8.412
REMARK INTRA:                   0.323
REMARK UNBOUND:                 0.323
REMARK SMILES Oc1cc(O)c2cc(O)c(-c3cc(O)c(O)c(O)c3)[o+]c2c1
REMARK SMILES IDX 10 1 20 2 21 3 22 4 2 5 3 6 4 7 6 8 7 9 8 10 11 11 12 12
REMARK SMILES IDX 13 13 19 14 15 15 17 16 14 17 16 19 18 21 9 23 1 25 5 27
REMARK H PARENT 14 18 16 20 18 22 9 24 1 26 5 28
REMARK Flexibility Score: inf
ROOT
ATOM      1  C   UNL     1      -5.134  -8.920  23.858  1.00  0.00     0.402 A 
ATOM      2  O   UNL     1      -3.985  -8.319  23.563  1.00  0.00    -0.202 OA
ATOM      3  C   UNL     1      -2.805  -8.926  23.634  1.00  0.00     0.368 A 
ATOM      4  C   UNL     1      -1.651  -8.209  23.306  1.00  0.00     0.162 A 
ATOM      5  C   UNL     1      -0.398  -8.818  23.375  1.00  0.00     0.128 A 
ATOM      6  C   UNL     1      -0.295 -10.156  23.773  1.00  0.00     0.093 A 
ATOM      7  C   UNL     1      -1.437 -10.896  24.108  1.00  0.00     0.136 A 
ATOM      8  C   UNL     1      -2.713 -10.279  24.037  1.00  0.00     0.125 A 
ATOM      9  C   UNL     1      -3.911 -10.947  24.339  1.00  0.00     0.078 A 
ATOM     10  C   UNL     1      -5.133 -10.274  24.242  1.00  0.00     0.223 A 
ENDROOT
BRANCH   1  11
ATOM     11  C   UNL     1      -6.385  -8.133  23.749  1.00  0.00     0.091 A 
ATOM     12  C   UNL     1      -7.586  -8.586  24.321  1.00  0.00     0.068 A 
ATOM     13  C   UNL     1      -8.754  -7.817  24.227  1.00  0.00     0.162 A 
ATOM     14  C   UNL     1      -6.360  -6.883  23.113  1.00  0.00     0.068 A 
ATOM     15  C   UNL     1      -8.725  -6.577  23.568  1.00  0.00     0.200 A 
ATOM     16  C   UNL     1      -7.525  -6.110  23.014  1.00  0.00     0.162 A 
BRANCH  13  17
ATOM     17  O   UNL     1      -9.943  -8.278  24.792  1.00  0.00    -0.504 OA
ATOM     18  H   UNL     1     -10.561  -8.905  24.290  1.00  0.00     0.293 HD
ENDBRANCH  13  17
BRANCH  15  19
ATOM     19  O   UNL     1      -9.875  -5.795  23.458  1.00  0.00    -0.502 OA
ATOM     20  H   UNL     1      -9.928  -5.000  22.832  1.00  0.00     0.293 HD
ENDBRANCH  15  19
BRANCH  16  21
ATOM     21  O   UNL     1      -7.499  -4.875  22.368  1.00  0.00    -0.504 OA
ATOM     22  H   UNL     1      -8.352  -4.381  22.136  1.00  0.00     0.293 HD
ENDBRANCH  16  21
ENDBRANCH   1  11
BRANCH  10  23
ATOM     23  O   UNL     1      -6.326 -10.950  24.494  1.00  0.00    -0.500 OA
ATOM     24  H   UNL     1      -7.104 -10.502  24.963  1.00  0.00     0.294 HD
ENDBRANCH  10  23
BRANCH   5  25
ATOM     25  O   UNL     1       0.740  -8.088  23.043  1.00  0.00    -0.507 OA
ATOM     26  H   UNL     1       1.636  -8.538  22.898  1.00  0.00     0.293 HD
ENDBRANCH   5  25
BRANCH   7  27
ATOM     27  O   UNL     1      -1.250 -12.225  24.500  1.00  0.00    -0.507 OA
ATOM     28  H   UNL     1      -1.185 -13.004  23.862  1.00  0.00     0.293 HD
ENDBRANCH   7  27
TORSDOF 7
ENDMDL
MODEL 2
REMARK VINA RESULT:    -6.761      0.104      1.791
REMARK INTER + INTRA:          -8.019
REMARK INTER:                  -8.452
REMARK INTRA:                   0.433
REMARK UNBOUND:                 0.323
REMARK SMILES Oc1cc(O)c2cc(O)c(-c3cc(O)c(O)c(O)c3)[o+]c2c1
REMARK SMILES IDX 10 1 20 2 21 3 22 4 2 5 3 6 4 7 6 8 7 9 8 10 11 11 12 12
REMARK SMILES IDX 13 13 19 14 15 15 17 16 14 17 16 19 18 21 9 23 1 25 5 27
REMARK H PARENT 14 18 16 20 18 22 9 24 1 26 5 28
REMARK Flexibility Score: inf
ROOT
ATOM      1  C   UNL     1      -5.065  -8.934  23.859  1.00  0.00     0.402 A 
ATOM      2  O   UNL     1      -3.904  -8.355  23.564  1.00  0.00    -0.202 OA
ATOM      3  C   UNL     1      -2.736  -8.986  23.633  1.00  0.00     0.368 A 
ATOM      4  C   UNL     1      -1.568  -8.291  23.305  1.00  0.00     0.162 A 
ATOM      5  C   UNL     1      -0.328  -8.926  23.372  1.00  0.00     0.128 A 
ATOM      6  C   UNL     1      -0.251 -10.266  23.768  1.00  0.00     0.093 A 
ATOM      7  C   UNL     1      -1.407 -10.984  24.102  1.00  0.00     0.136 A 
ATOM      8  C   UNL     1      -2.670 -10.342  24.033  1.00  0.00     0.125 A 
ATOM      9  C   UNL     1      -3.882 -10.986  24.335  1.00  0.00     0.078 A 
ATOM     10  C   UNL     1      -5.090 -10.288  24.240  1.00  0.00     0.223 A 
ENDROOT
BRANCH   1  11
ATOM     11  C   UNL     1      -6.299  -8.122  23.752  1.00  0.00     0.091 A 
ATOM     12  C   UNL     1      -6.296  -6.866  23.120  1.00  0.00     0.068 A 
ATOM     13  C   UNL     1      -7.479  -6.122  23.009  1.00  0.00     0.162 A 
ATOM     14  C   UNL     1      -7.509  -8.638  24.240  1.00  0.00     0.068 A 
ATOM     15  C   UNL     1      -8.681  -6.638  23.521  1.00  0.00     0.200 A 
ATOM     16  C   UNL     1      -8.694  -7.898  24.134  1.00  0.00     0.162 A 
BRANCH  13  17
ATOM     17  O   UNL     1      -7.465  -4.875  22.385  1.00  0.00    -0.504 OA
ATOM     18  H   UNL     1      -7.839  -4.744  21.453  1.00  0.00     0.293 HD
ENDBRANCH  13  17
BRANCH  15  19
ATOM     19  O   UNL     1      -9.871  -5.915  23.426  1.00  0.00    -0.502 OA
ATOM     20  H   UNL     1     -10.639  -6.056  24.071  1.00  0.00     0.293 HD
ENDBRANCH  15  19
BRANCH  16  21
ATOM     21  O   UNL     1      -9.891  -8.409  24.633  1.00  0.00    -0.504 OA
ATOM     22  H   UNL     1     -10.702  -7.818  24.774  1.00  0.00     0.293 HD
ENDBRANCH  16  21
ENDBRANCH   1  11
BRANCH  10  23
ATOM     23  O   UNL     1      -6.296 -10.941  24.491  1.00  0.00    -0.500 OA
ATOM     24  H   UNL     1      -6.914 -10.651  25.240  1.00  0.00     0.294 HD
ENDBRANCH  10  23
BRANCH   5  25
ATOM     25  O   UNL     1       0.825  -8.218  23.041  1.00  0.00    -0.507 OA
ATOM     26  H   UNL     1       0.828  -7.206  22.986  1.00  0.00     0.293 HD
ENDBRANCH   5  25
BRANCH   7  27
ATOM     27  O   UNL     1      -1.247 -12.318  24.491  1.00  0.00    -0.507 OA
ATOM     28  H   UNL     1      -0.381 -12.714  24.824  1.00  0.00     0.293 HD
ENDBRANCH   7  27
TORSDOF 7
ENDMDL
MODEL 3
REMARK VINA RESULT:    -6.740      1.409      2.481
REMARK INTER + INTRA:          -7.992
REMARK INTER:                  -7.822
REMARK INTRA:                  -0.170
REMARK UNBOUND:                 0.323
REMARK SMILES Oc1cc(O)c2cc(O)c(-c3cc(O)c(O)c(O)c3)[o+]c2c1
REMARK SMILES IDX 10 1 20 2 21 3 22 4 2 5 3 6 4 7 6 8 7 9 8 10 11 11 12 12
REMARK SMILES IDX 13 13 19 14 15 15 17 16 14 17 16 19 18 21 9 23 1 25 5 27
REMARK H PARENT 14 18 16 20 18 22 9 24 1 26 5 28
REMARK Flexibility Score: inf
ROOT
ATOM      1  C   UNL     1      -4.896  -8.799  23.732  1.00  0.00     0.402 A 
ATOM      2  O   UNL     1      -4.781  -9.976  23.124  1.00  0.00    -0.202 OA
ATOM      3  C   UNL     1      -3.651 -10.676  23.097  1.00  0.00     0.368 A 
ATOM      4  C   UNL     1      -3.628 -11.904  22.429  1.00  0.00     0.162 A 
ATOM      5  C   UNL     1      -2.456 -12.658  22.380  1.00  0.00     0.128 A 
ATOM      6  C   UNL     1      -1.296 -12.184  23.004  1.00  0.00     0.093 A 
ATOM      7  C   UNL     1      -1.293 -10.957  23.679  1.00  0.00     0.136 A 
ATOM      8  C   UNL     1      -2.484 -10.188  23.732  1.00  0.00     0.125 A 
ATOM      9  C   UNL     1      -2.579  -8.955  24.397  1.00  0.00     0.078 A 
ATOM     10  C   UNL     1      -3.789  -8.255  24.411  1.00  0.00     0.223 A 
ENDROOT
BRANCH   1  11
ATOM     11  C   UNL     1      -6.207  -8.112  23.685  1.00  0.00     0.091 A 
ATOM     12  C   UNL     1      -7.360  -8.696  24.237  1.00  0.00     0.068 A 
ATOM     13  C   UNL     1      -8.587  -8.021  24.203  1.00  0.00     0.162 A 
ATOM     14  C   UNL     1      -6.293  -6.826  23.129  1.00  0.00     0.068 A 
ATOM     15  C   UNL     1      -8.668  -6.743  23.624  1.00  0.00     0.200 A 
ATOM     16  C   UNL     1      -7.517  -6.146  23.090  1.00  0.00     0.162 A 
BRANCH  13  17
ATOM     17  O   UNL     1      -9.727  -8.611  24.749  1.00  0.00    -0.504 OA
ATOM     18  H   UNL     1     -10.172  -8.238  25.579  1.00  0.00     0.293 HD
ENDBRANCH  13  17
BRANCH  15  19
ATOM     19  O   UNL     1      -9.879  -6.052  23.574  1.00  0.00    -0.502 OA
ATOM     20  H   UNL     1     -10.019  -5.255  22.966  1.00  0.00     0.293 HD
ENDBRANCH  15  19
BRANCH  16  21
ATOM     21  O   UNL     1      -7.600  -4.875  22.523  1.00  0.00    -0.504 OA
ATOM     22  H   UNL     1      -6.770  -4.334  22.312  1.00  0.00     0.293 HD
ENDBRANCH  16  21
ENDBRANCH   1  11
BRANCH  10  23
ATOM     23  O   UNL     1      -3.896  -7.055  25.113  1.00  0.00    -0.500 OA
ATOM     24  H   UNL     1      -4.490  -6.966  25.929  1.00  0.00     0.294 HD
ENDBRANCH  10  23
BRANCH   5  25
ATOM     25  O   UNL     1      -2.452 -13.879  21.710  1.00  0.00    -0.507 OA
ATOM     26  H   UNL     1      -1.603 -14.266  21.317  1.00  0.00     0.293 HD
ENDBRANCH   5  25
BRANCH   7  27
ATOM     27  O   UNL     1      -0.093 -10.551  24.272  1.00  0.00    -0.507 OA
ATOM     28  H   UNL     1       0.264 -10.917  25.142  1.00  0.00     0.293 HD
ENDBRANCH   7  27
TORSDOF 7
ENDMDL
MODEL 4
REMARK VINA RESULT:    -6.707      1.420      3.043
REMARK INTER + INTRA:          -7.953
REMARK INTER:                  -7.698
REMARK INTRA:                  -0.255
REMARK UNBOUND:                 0.323
REMARK SMILES Oc1cc(O)c2cc(O)c(-c3cc(O)c(O)c(O)c3)[o+]c2c1
REMARK SMILES IDX 10 1 20 2 21 3 22 4 2 5 3 6 4 7 6 8 7 9 8 10 11 11 12 12
REMARK SMILES IDX 13 13 19 14 15 15 17 16 14 17 16 19 18 21 9 23 1 25 5 27
REMARK H PARENT 14 18 16 20 18 22 9 24 1 26 5 28
REMARK Flexibility Score: inf
ROOT
ATOM      1  C   UNL     1      -4.858  -8.781  23.753  1.00  0.00     0.402 A 
ATOM      2  O   UNL     1      -4.745  -9.934  23.099  1.00  0.00    -0.202 OA
ATOM      3  C   UNL     1      -3.632 -10.661  23.088  1.00  0.00     0.368 A 
ATOM      4  C   UNL     1      -3.610 -11.859  22.368  1.00  0.00     0.162 A 
ATOM      5  C   UNL     1      -2.455 -12.641  22.336  1.00  0.00     0.128 A 
ATOM      6  C   UNL     1      -1.312 -12.225  23.028  1.00  0.00     0.093 A 
ATOM      7  C   UNL     1      -1.309 -11.028  23.757  1.00  0.00     0.136 A 
ATOM      8  C   UNL     1      -2.483 -10.232  23.793  1.00  0.00     0.125 A 
ATOM      9  C   UNL     1      -2.576  -9.026  24.508  1.00  0.00     0.078 A 
ATOM     10  C   UNL     1      -3.769  -8.297  24.501  1.00  0.00     0.223 A 
ENDROOT
BRANCH   1  11
ATOM     11  C   UNL     1      -6.148  -8.059  23.681  1.00  0.00     0.091 A 
ATOM     12  C   UNL     1      -6.245  -6.792  23.078  1.00  0.00     0.068 A 
ATOM     13  C   UNL     1      -7.479  -6.133  22.998  1.00  0.00     0.162 A 
ATOM     14  C   UNL     1      -7.311  -8.671  24.172  1.00  0.00     0.068 A 
ATOM     15  C   UNL     1      -8.634  -6.746  23.514  1.00  0.00     0.200 A 
ATOM     16  C   UNL     1      -8.548  -8.017  24.098  1.00  0.00     0.162 A 
BRANCH  13  17
ATOM     17  O   UNL     1      -7.564  -4.875  22.404  1.00  0.00    -0.504 OA
ATOM     18  H   UNL     1      -8.168  -4.151  22.776  1.00  0.00     0.293 HD
ENDBRANCH  13  17
BRANCH  15  19
ATOM     19  O   UNL     1      -9.874  -6.108  23.451  1.00  0.00    -0.502 OA
ATOM     20  H   UNL     1     -10.622  -6.320  24.100  1.00  0.00     0.293 HD
ENDBRANCH  15  19
BRANCH  16  21
ATOM     21  O   UNL     1      -9.698  -8.624  24.601  1.00  0.00    -0.504 OA
ATOM     22  H   UNL     1     -10.466  -8.888  23.994  1.00  0.00     0.293 HD
ENDBRANCH  16  21
ENDBRANCH   1  11
BRANCH  10  23
ATOM     23  O   UNL     1      -3.877  -7.126  25.251  1.00  0.00    -0.500 OA
ATOM     24  H   UNL     1      -3.186  -6.873  25.947  1.00  0.00     0.294 HD
ENDBRANCH  10  23
BRANCH   5  25
ATOM     25  O   UNL     1      -2.452 -13.832  21.613  1.00  0.00    -0.507 OA
ATOM     26  H   UNL     1      -2.139 -14.702  22.027  1.00  0.00     0.293 HD
ENDBRANCH   5  25
BRANCH   7  27
ATOM     27  O   UNL     1      -0.127 -10.680  24.418  1.00  0.00    -0.507 OA
ATOM     28  H   UNL     1      -0.012  -9.851  24.980  1.00  0.00     0.293 HD
ENDBRANCH   7  27
TORSDOF 7
ENDMDL
MODEL 5
REMARK VINA RESULT:    -6.559      0.964      7.036
REMARK INTER + INTRA:          -7.769
REMARK INTER:                  -8.231
REMARK INTRA:                   0.462
REMARK UNBOUND:                 0.323
REMARK SMILES Oc1cc(O)c2cc(O)c(-c3cc(O)c(O)c(O)c3)[o+]c2c1
REMARK SMILES IDX 10 1 20 2 21 3 22 4 2 5 3 6 4 7 6 8 7 9 8 10 11 11 12 12
REMARK SMILES IDX 13 13 19 14 15 15 17 16 14 17 16 19 18 21 9 23 1 25 5 27
REMARK H PARENT 14 18 16 20 18 22 9 24 1 26 5 28
REMARK Flexibility Score: inf
ROOT
ATOM      1  C   UNL     1      -4.805  -8.857  23.909  1.00  0.00     0.402 A 
ATOM      2  O   UNL     1      -5.388  -7.744  23.472  1.00  0.00    -0.202 OA
ATOM      3  C   UNL     1      -6.698  -7.530  23.543  1.00  0.00     0.368 A 
ATOM      4  C   UNL     1      -7.218  -6.329  23.053  1.00  0.00     0.162 A 
ATOM      5  C   UNL     1      -8.589  -6.079  23.110  1.00  0.00     0.128 A 
ATOM      6  C   UNL     1      -9.450  -7.034  23.662  1.00  0.00     0.093 A 
ATOM      7  C   UNL     1      -8.953  -8.247  24.159  1.00  0.00     0.136 A 
ATOM      8  C   UNL     1      -7.559  -8.504  24.104  1.00  0.00     0.125 A 
ATOM      9  C   UNL     1      -6.971  -9.683  24.590  1.00  0.00     0.078 A 
ATOM     10  C   UNL     1      -5.587  -9.864  24.506  1.00  0.00     0.223 A 
ENDROOT
BRANCH   1  11
ATOM     11  C   UNL     1      -3.336  -8.981  23.766  1.00  0.00     0.091 A 
ATOM     12  C   UNL     1      -2.579  -7.992  23.117  1.00  0.00     0.068 A 
ATOM     13  C   UNL     1      -1.186  -8.115  23.011  1.00  0.00     0.162 A 
ATOM     14  C   UNL     1      -2.677 -10.080  24.339  1.00  0.00     0.068 A 
ATOM     15  C   UNL     1      -0.538  -9.230  23.568  1.00  0.00     0.200 A 
ATOM     16  C   UNL     1      -1.286 -10.210  24.234  1.00  0.00     0.162 A 
BRANCH  13  17
ATOM     17  O   UNL     1      -0.444  -7.131  22.359  1.00  0.00    -0.504 OA
ATOM     18  H   UNL     1      -0.891  -6.400  21.818  1.00  0.00     0.293 HD
ENDBRANCH  13  17
BRANCH  15  19
ATOM     19  O   UNL     1       0.846  -9.378  23.472  1.00  0.00    -0.502 OA
ATOM     20  H   UNL     1       1.450  -8.615  23.191  1.00  0.00     0.293 HD
ENDBRANCH  15  19
BRANCH  16  21
ATOM     21  O   UNL     1      -0.637 -11.311  24.792  1.00  0.00    -0.504 OA
ATOM     22  H   UNL     1      -0.352 -12.101  24.225  1.00  0.00     0.293 HD
ENDBRANCH  16  21
ENDBRANCH   1  11
BRANCH  10  23
ATOM     23  O   UNL     1      -4.998 -11.013  25.033  1.00  0.00    -0.500 OA
ATOM     24  H   UNL     1      -4.711 -11.784  24.442  1.00  0.00     0.294 HD
ENDBRANCH  10  23
BRANCH   5  25
ATOM     25  O   UNL     1      -9.088  -4.875  22.618  1.00  0.00    -0.507 OA
ATOM     26  H   UNL     1      -9.375  -4.776  21.651  1.00  0.00     0.293 HD
ENDBRANCH   5  25
BRANCH   7  27
ATOM     27  O   UNL     1      -9.878  -9.151  24.690  1.00  0.00    -0.507 OA
ATOM     28  H   UNL     1      -9.646  -9.887  25.340  1.00  0.00     0.293 HD
ENDBRANCH   7  27
TORSDOF 7
ENDMDL
MODEL 6
REMARK VINA RESULT:    -6.553      0.968      6.827
REMARK INTER + INTRA:          -7.763
REMARK INTER:                  -8.148
REMARK INTRA:                   0.385
REMARK UNBOUND:                 0.323
REMARK SMILES Oc1cc(O)c2cc(O)c(-c3cc(O)c(O)c(O)c3)[o+]c2c1
REMARK SMILES IDX 10 1 20 2 21 3 22 4 2 5 3 6 4 7 6 8 7 9 8 10 11 11 12 12
REMARK SMILES IDX 13 13 19 14 15 15 17 16 14 17 16 19 18 21 9 23 1 25 5 27
REMARK H PARENT 14 18 16 20 18 22 9 24 1 26 5 28
REMARK Flexibility Score: inf
ROOT
ATOM      1  C   UNL     1      -4.809  -8.848  23.962  1.00  0.00     0.402 A 
ATOM      2  O   UNL     1      -5.388  -7.735  23.519  1.00  0.00    -0.202 OA
ATOM      3  C   UNL     1      -6.700  -7.526  23.567  1.00  0.00     0.368 A 
ATOM      4  C   UNL     1      -7.215  -6.324  23.074  1.00  0.00     0.162 A 
ATOM      5  C   UNL     1      -8.588  -6.079  23.107  1.00  0.00     0.128 A 
ATOM      6  C   UNL     1      -9.455  -7.041  23.638  1.00  0.00     0.093 A 
ATOM      7  C   UNL     1      -8.964  -8.254  24.138  1.00  0.00     0.136 A 
ATOM      8  C   UNL     1      -7.567  -8.505  24.108  1.00  0.00     0.125 A 
ATOM      9  C   UNL     1      -6.984  -9.685  24.599  1.00  0.00     0.078 A 
ATOM     10  C   UNL     1      -5.598  -9.860  24.539  1.00  0.00     0.223 A 
ENDROOT
BRANCH   1  11
ATOM     11  C   UNL     1      -3.338  -8.966  23.845  1.00  0.00     0.091 A 
ATOM     12  C   UNL     1      -2.647 -10.067  24.380  1.00  0.00     0.068 A 
ATOM     13  C   UNL     1      -1.257 -10.173  24.240  1.00  0.00     0.162 A 
ATOM     14  C   UNL     1      -2.621  -7.989  23.138  1.00  0.00     0.068 A 
ATOM     15  C   UNL     1      -0.545  -9.178  23.549  1.00  0.00     0.200 A 
ATOM     16  C   UNL     1      -1.230  -8.088  22.996  1.00  0.00     0.162 A 
BRANCH  13  17
ATOM     17  O   UNL     1      -0.580 -11.267  24.779  1.00  0.00    -0.504 OA
ATOM     18  H   UNL     1      -0.051 -11.904  24.195  1.00  0.00     0.293 HD
ENDBRANCH  13  17
BRANCH  15  19
ATOM     19  O   UNL     1       0.840  -9.259  23.400  1.00  0.00    -0.502 OA
ATOM     20  H   UNL     1       1.437  -8.444  23.471  1.00  0.00     0.293 HD
ENDBRANCH  15  19
BRANCH  16  21
ATOM     21  O   UNL     1      -0.521  -7.107  22.305  1.00  0.00    -0.504 OA
ATOM     22  H   UNL     1      -0.893  -6.173  22.180  1.00  0.00     0.293 HD
ENDBRANCH  16  21
ENDBRANCH   1  11
BRANCH  10  23
ATOM     23  O   UNL     1      -5.015 -11.010  25.072  1.00  0.00    -0.500 OA
ATOM     24  H   UNL     1      -4.380 -10.968  25.860  1.00  0.00     0.294 HD
ENDBRANCH  10  23
BRANCH   5  25
ATOM     25  O   UNL     1      -9.083  -4.875  22.611  1.00  0.00    -0.507 OA
ATOM     26  H   UNL     1     -10.078  -4.696  22.550  1.00  0.00     0.293 HD
ENDBRANCH   5  25
BRANCH   7  27
ATOM     27  O   UNL     1      -9.894  -9.164  24.648  1.00  0.00    -0.507 OA
ATOM     28  H   UNL     1      -9.810 -10.167  24.573  1.00  0.00     0.293 HD
ENDBRANCH   7  27
TORSDOF 7
ENDMDL
MODEL 7
REMARK VINA RESULT:    -6.491      1.976      7.642
REMARK INTER + INTRA:          -7.685
REMARK INTER:                  -7.307
REMARK INTRA:                  -0.378
REMARK UNBOUND:                 0.323
REMARK SMILES Oc1cc(O)c2cc(O)c(-c3cc(O)c(O)c(O)c3)[o+]c2c1
REMARK SMILES IDX 10 1 20 2 21 3 22 4 2 5 3 6 4 7 6 8 7 9 8 10 11 11 12 12
REMARK SMILES IDX 13 13 19 14 15 15 17 16 14 17 16 19 18 21 9 23 1 25 5 27
REMARK H PARENT 14 18 16 20 18 22 9 24 1 26 5 28
REMARK Flexibility Score: inf
ROOT
ATOM      1  C   UNL     1      -7.026  -8.195  24.004  1.00  0.00     0.402 A 
ATOM      2  O   UNL     1      -7.900  -8.574  24.933  1.00  0.00    -0.202 OA
ATOM      3  C   UNL     1      -9.021  -7.910  25.196  1.00  0.00     0.368 A 
ATOM      4  C   UNL     1      -9.875  -8.387  26.193  1.00  0.00     0.162 A 
ATOM      5  C   UNL     1     -11.056  -7.708  26.494  1.00  0.00     0.128 A 
ATOM      6  C   UNL     1     -11.389  -6.544  25.791  1.00  0.00     0.093 A 
ATOM      7  C   UNL     1     -10.549  -6.045  24.787  1.00  0.00     0.136 A 
ATOM      8  C   UNL     1      -9.348  -6.735  24.478  1.00  0.00     0.125 A 
ATOM      9  C   UNL     1      -8.453  -6.317  23.479  1.00  0.00     0.078 A 
ATOM     10  C   UNL     1      -7.289  -7.051  23.228  1.00  0.00     0.223 A 
ENDROOT
BRANCH   1  11
ATOM     11  C   UNL     1      -5.808  -9.015  23.812  1.00  0.00     0.091 A 
ATOM     12  C   UNL     1      -5.796 -10.112  22.933  1.00  0.00     0.068 A 
ATOM     13  C   UNL     1      -4.627 -10.863  22.747  1.00  0.00     0.162 A 
ATOM     14  C   UNL     1      -4.624  -8.658  24.475  1.00  0.00     0.068 A 
ATOM     15  C   UNL     1      -3.452 -10.511  23.433  1.00  0.00     0.200 A 
ATOM     16  C   UNL     1      -3.453  -9.406  24.295  1.00  0.00     0.162 A 
BRANCH  13  17
ATOM     17  O   UNL     1      -4.627 -11.953  21.878  1.00  0.00    -0.504 OA
ATOM     18  H   UNL     1      -5.271 -12.010  21.098  1.00  0.00     0.293 HD
ENDBRANCH  13  17
BRANCH  15  19
ATOM     19  O   UNL     1      -2.278 -11.245  23.267  1.00  0.00    -0.502 OA
ATOM     20  H   UNL     1      -1.506 -11.181  23.920  1.00  0.00     0.293 HD
ENDBRANCH  15  19
BRANCH  16  21
ATOM     21  O   UNL     1      -2.282  -9.056  24.967  1.00  0.00    -0.504 OA
ATOM     22  H   UNL     1      -1.839  -9.689  25.623  1.00  0.00     0.293 HD
ENDBRANCH  16  21
ENDBRANCH   1  11
BRANCH  10  23
ATOM     23  O   UNL     1      -6.426  -6.665  22.203  1.00  0.00    -0.500 OA
ATOM     24  H   UNL     1      -6.766  -6.447  21.273  1.00  0.00     0.294 HD
ENDBRANCH  10  23
BRANCH   5  25
ATOM     25  O   UNL     1     -11.896  -8.199  27.491  1.00  0.00    -0.507 OA
ATOM     26  H   UNL     1     -12.755  -8.688  27.267  1.00  0.00     0.293 HD
ENDBRANCH   5  25
BRANCH   7  27
ATOM     27  O   UNL     1     -10.949  -4.875  24.135  1.00  0.00    -0.507 OA
ATOM     28  H   UNL     1     -11.613  -4.844  23.376  1.00  0.00     0.293 HD
ENDBRANCH   7  27
TORSDOF 7
ENDMDL
MODEL 8
REMARK VINA RESULT:    -6.198      2.376      7.057
REMARK INTER + INTRA:          -7.324
REMARK INTER:                  -7.537
REMARK INTRA:                   0.214
REMARK UNBOUND:                 0.323
REMARK SMILES Oc1cc(O)c2cc(O)c(-c3cc(O)c(O)c(O)c3)[o+]c2c1
REMARK SMILES IDX 10 1 20 2 21 3 22 4 2 5 3 6 4 7 6 8 7 9 8 10 11 11 12 12
REMARK SMILES IDX 13 13 19 14 15 15 17 16 14 17 16 19 18 21 9 23 1 25 5 27
REMARK H PARENT 14 18 16 20 18 22 9 24 1 26 5 28
REMARK Flexibility Score: inf
ROOT
ATOM      1  C   UNL     1      -4.493  -7.089  23.681  1.00  0.00     0.402 A 
ATOM      2  O   UNL     1      -5.438  -6.266  24.126  1.00  0.00    -0.202 OA
ATOM      3  C   UNL     1      -6.739  -6.512  24.000  1.00  0.00     0.368 A 
ATOM      4  C   UNL     1      -7.656  -5.583  24.498  1.00  0.00     0.162 A 
ATOM      5  C   UNL     1      -9.027  -5.812  24.377  1.00  0.00     0.128 A 
ATOM      6  C   UNL     1      -9.487  -6.978  23.754  1.00  0.00     0.093 A 
ATOM      7  C   UNL     1      -8.587  -7.924  23.246  1.00  0.00     0.136 A 
ATOM      8  C   UNL     1      -7.192  -7.695  23.370  1.00  0.00     0.125 A 
ATOM      9  C   UNL     1      -6.217  -8.592  22.904  1.00  0.00     0.078 A 
ATOM     10  C   UNL     1      -4.859  -8.301  23.066  1.00  0.00     0.223 A 
ENDROOT
BRANCH   1  11
ATOM     11  C   UNL     1      -3.077  -6.699  23.873  1.00  0.00     0.091 A 
ATOM     12  C   UNL     1      -2.669  -5.957  24.995  1.00  0.00     0.068 A 
ATOM     13  C   UNL     1      -1.320  -5.617  25.171  1.00  0.00     0.162 A 
ATOM     14  C   UNL     1      -2.112  -7.126  22.948  1.00  0.00     0.068 A 
ATOM     15  C   UNL     1      -0.365  -6.029  24.228  1.00  0.00     0.200 A 
ATOM     16  C   UNL     1      -0.763  -6.787  23.118  1.00  0.00     0.162 A 
BRANCH  13  17
ATOM     17  O   UNL     1      -0.926  -4.875  26.284  1.00  0.00    -0.504 OA
ATOM     18  H   UNL     1      -1.563  -4.241  26.752  1.00  0.00     0.293 HD
ENDBRANCH  13  17
BRANCH  15  19
ATOM     19  O   UNL     1       0.982  -5.700  24.379  1.00  0.00    -0.502 OA
ATOM     20  H   UNL     1       1.633  -6.304  24.867  1.00  0.00     0.293 HD
ENDBRANCH  15  19
BRANCH  16  21
ATOM     21  O   UNL     1       0.190  -7.201  22.189  1.00  0.00    -0.504 OA
ATOM     22  H   UNL     1       0.469  -6.608  21.416  1.00  0.00     0.293 HD
ENDBRANCH  16  21
ENDBRANCH   1  11
BRANCH  10  23
ATOM     23  O   UNL     1      -3.893  -9.215  22.648  1.00  0.00    -0.500 OA
ATOM     24  H   UNL     1      -4.057 -10.214  22.676  1.00  0.00     0.294 HD
ENDBRANCH  10  23
BRANCH   5  25
ATOM     25  O   UNL     1      -9.927  -4.875  24.880  1.00  0.00    -0.507 OA
ATOM     26  H   UNL     1      -9.616  -3.978  25.235  1.00  0.00     0.293 HD
ENDBRANCH   5  25
BRANCH   7  27
ATOM     27  O   UNL     1      -9.124  -9.060  22.634  1.00  0.00    -0.507 OA
ATOM     28  H   UNL     1     -10.106  -9.195  22.445  1.00  0.00     0.293 HD
ENDBRANCH   7  27
TORSDOF 7
ENDMDL
MODEL 9
REMARK VINA RESULT:    -6.147      1.693      7.305
REMARK INTER + INTRA:          -7.261
REMARK INTER:                  -7.187
REMARK INTRA:                  -0.074
REMARK UNBOUND:                 0.323
REMARK SMILES Oc1cc(O)c2cc(O)c(-c3cc(O)c(O)c(O)c3)[o+]c2c1
REMARK SMILES IDX 10 1 20 2 21 3 22 4 2 5 3 6 4 7 6 8 7 9 8 10 11 11 12 12
REMARK SMILES IDX 13 13 19 14 15 15 17 16 14 17 16 19 18 21 9 23 1 25 5 27
REMARK H PARENT 14 18 16 20 18 22 9 24 1 26 5 28
REMARK Flexibility Score: inf
ROOT
ATOM      1  C   UNL     1      -3.825  -7.349  23.894  1.00  0.00     0.402 A 
ATOM      2  O   UNL     1      -4.844  -8.073  23.439  1.00  0.00    -0.202 OA
ATOM      3  C   UNL     1      -6.112  -7.687  23.534  1.00  0.00     0.368 A 
ATOM      4  C   UNL     1      -7.115  -8.520  23.029  1.00  0.00     0.162 A 
ATOM      5  C   UNL     1      -8.455  -8.143  23.118  1.00  0.00     0.128 A 
ATOM      6  C   UNL     1      -8.798  -6.924  23.715  1.00  0.00     0.093 A 
ATOM      7  C   UNL     1      -7.812  -6.073  24.229  1.00  0.00     0.136 A 
ATOM      8  C   UNL     1      -6.448  -6.453  24.139  1.00  0.00     0.125 A 
ATOM      9  C   UNL     1      -5.392  -5.658  24.614  1.00  0.00     0.078 A 
ATOM     10  C   UNL     1      -4.070  -6.096  24.485  1.00  0.00     0.223 A 
ENDROOT
BRANCH   1  11
ATOM     11  C   UNL     1      -2.455  -7.892  23.737  1.00  0.00     0.091 A 
ATOM     12  C   UNL     1      -2.124  -9.183  24.186  1.00  0.00     0.068 A 
ATOM     13  C   UNL     1      -0.829  -9.688  24.009  1.00  0.00     0.162 A 
ATOM     14  C   UNL     1      -1.481  -7.128  23.078  1.00  0.00     0.068 A 
ATOM     15  C   UNL     1       0.146  -8.906  23.368  1.00  0.00     0.200 A 
ATOM     16  C   UNL     1      -0.184  -7.627  22.900  1.00  0.00     0.162 A 
BRANCH  13  17
ATOM     17  O   UNL     1      -0.509 -10.967  24.463  1.00  0.00    -0.504 OA
ATOM     18  H   UNL     1      -0.972 -11.377  25.265  1.00  0.00     0.293 HD
ENDBRANCH  13  17
BRANCH  15  19
ATOM     19  O   UNL     1       1.443  -9.385  23.183  1.00  0.00    -0.502 OA
ATOM     20  H   UNL     1       2.208  -9.117  23.791  1.00  0.00     0.293 HD
ENDBRANCH  15  19
BRANCH  16  21
ATOM     21  O   UNL     1       0.785  -6.858  22.257  1.00  0.00    -0.504 OA
ATOM     22  H   UNL     1       1.381  -6.218  22.770  1.00  0.00     0.293 HD
ENDBRANCH  16  21
ENDBRANCH   1  11
BRANCH  10  23
ATOM     23  O   UNL     1      -3.019  -5.285  24.911  1.00  0.00    -0.500 OA
ATOM     24  H   UNL     1      -3.125  -4.282  25.008  1.00  0.00     0.294 HD
ENDBRANCH  10  23
BRANCH   5  25
ATOM     25  O   UNL     1      -9.440  -8.985  22.607  1.00  0.00    -0.507 OA
ATOM     26  H   UNL     1      -9.537  -9.942  22.926  1.00  0.00     0.293 HD
ENDBRANCH   5  25
BRANCH   7  27
ATOM     27  O   UNL     1      -8.236  -4.876  24.814  1.00  0.00    -0.507 OA
ATOM     28  H   UNL     1      -8.209  -4.685  25.804  1.00  0.00     0.293 HD
ENDBRANCH   7  27
TORSDOF 7
ENDMDL
