MODEL 1
REMARK VINA RESULT:     7.741      0.000      0.000
REMARK INTER + INTRA:          11.565
REMARK INTER:                  10.230
REMARK INTRA:                   1.336
REMARK UNBOUND:                 1.336
REMARK SMILES CC[C@H](C=C[C@@H](C)[C@@H]1CC[C@H]2[C@H]3CC=C4C[C@@H](O)CC[C@@]4(C)[C@H]3CC[C@@]21C)C(C)C
REMARK SMILES IDX 6 1 7 2 5 3 4 4 3 5 2 6 1 7 28 8 29 9 30 10 8 11 9 12 26 13
REMARK SMILES IDX 10 14 11 15 25 16 27 17 12 18 24 19 23 20 13 21 21 22 14 23
REMARK SMILES IDX 15 24 20 25 22 26 16 27 19 28 17 29 18 30
REMARK H PARENT 18 31
REMARK Flexibility Score: inf
ROOT
ATOM      1  C   UNL     1      72.721  35.273  54.194  1.00  0.00     0.012 C 
ATOM      2  C   UNL     1      73.953  36.125  54.569  1.00  0.00     0.012 C 
ENDROOT
BRANCH   1   3
ATOM      3  C   UNL     1      71.981  34.916  55.470  1.00  0.00    -0.028 C 
ATOM      4  C   UNL     1      72.384  33.929  56.289  1.00  0.00    -0.027 C 
BRANCH   4   5
ATOM      5  C   UNL     1      71.623  33.573  57.552  1.00  0.00     0.014 C 
BRANCH   5   6
ATOM      6  C   UNL     1      70.138  33.284  57.204  1.00  0.00     0.004 C 
ATOM      7  C   UNL     1      69.327  34.506  56.755  1.00  0.00     0.004 C 
ENDBRANCH   5   6
BRANCH   5   8
ATOM      8  C   UNL     1      72.343  32.428  58.336  1.00  0.00    -0.011 C 
ATOM      9  C   UNL     1      73.671  32.046  57.653  1.00  0.00     0.008 C 
ATOM     10  C   UNL     1      72.630  32.819  59.797  1.00  0.00     0.008 C 
ENDBRANCH   5   8
ENDBRANCH   4   5
ENDBRANCH   1   3
BRANCH   1  11
ATOM     11  C   UNL     1      73.087  33.992  53.364  1.00  0.00     0.002 C 
ATOM     12  C   UNL     1      73.376  32.739  54.256  1.00  0.00     0.005 C 
ATOM     13  C   UNL     1      74.359  34.097  52.437  1.00  0.00    -0.026 C 
ATOM     14  C   UNL     1      74.838  32.324  54.035  1.00  0.00     0.005 C 
ATOM     15  C   UNL     1      75.445  33.542  53.379  1.00  0.00    -0.001 C 
ATOM     16  C   UNL     1      74.834  35.496  51.964  1.00  0.00     0.007 C 
ATOM     17  C   UNL     1      74.050  33.233  51.174  1.00  0.00     0.012 C 
ATOM     18  C   UNL     1      76.898  33.472  52.850  1.00  0.00     0.000 C 
ATOM     19  C   UNL     1      76.255  35.457  51.340  1.00  0.00     0.005 C 
ATOM     20  C   UNL     1      77.322  34.872  52.317  1.00  0.00     0.003 C 
ATOM     21  C   UNL     1      77.186  32.329  51.863  1.00  0.00     0.031 C 
ATOM     22  C   UNL     1      78.824  34.878  51.806  1.00  0.00    -0.008 C 
ATOM     23  C   UNL     1      78.518  32.452  51.182  1.00  0.00    -0.027 C 
ATOM     24  C   UNL     1      79.188  33.611  51.023  1.00  0.00    -0.065 C 
ATOM     25  C   UNL     1      79.109  36.124  50.907  1.00  0.00     0.014 C 
ATOM     26  C   UNL     1      79.750  34.947  53.054  1.00  0.00     0.016 C 
ATOM     27  C   UNL     1      80.512  33.571  50.276  1.00  0.00     0.063 C 
ATOM     28  C   UNL     1      80.509  36.125  50.271  1.00  0.00     0.033 C 
ATOM     29  C   UNL     1      80.763  34.849  49.453  1.00  0.00     0.118 C 
BRANCH  29  30
ATOM     30  O   UNL     1      80.015  34.860  48.256  1.00  0.00    -0.393 OA
ATOM     31  H   UNL     1      79.518  34.005  48.193  1.00  0.00     0.210 HD
ENDBRANCH  29  30
ENDBRANCH   1  11
TORSDOF 6
ENDMDL
MODEL 2
REMARK VINA RESULT:     9.848      2.844      8.910
REMARK INTER + INTRA:          14.351
REMARK INTER:                  13.689
REMARK INTRA:                   0.661
REMARK UNBOUND:                 1.336
REMARK SMILES CC[C@H](C=C[C@@H](C)[C@@H]1CC[C@H]2[C@H]3CC=C4C[C@@H](O)CC[C@@]4(C)[C@H]3CC[C@@]21C)C(C)C
REMARK SMILES IDX 6 1 7 2 5 3 4 4 3 5 2 6 1 7 28 8 29 9 30 10 8 11 9 12 26 13
REMARK SMILES IDX 10 14 11 15 25 16 27 17 12 18 24 19 23 20 13 21 21 22 14 23
REMARK SMILES IDX 15 24 20 25 22 26 16 27 19 28 17 29 18 30
REMARK H PARENT 18 31
REMARK Flexibility Score: inf
ROOT
ATOM      1  C   UNL     1      76.740  33.371  51.578  1.00  0.00     0.012 C 
ATOM      2  C   UNL     1      76.523  32.336  52.703  1.00  0.00     0.012 C 
ENDROOT
BRANCH   1   3
ATOM      3  C   UNL     1      78.218  33.707  51.518  1.00  0.00    -0.028 C 
ATOM      4  C   UNL     1      78.686  34.814  50.914  1.00  0.00    -0.027 C 
BRANCH   4   5
ATOM      5  C   UNL     1      80.169  35.126  50.848  1.00  0.00     0.014 C 
BRANCH   5   6
ATOM      6  C   UNL     1      80.944  34.194  51.816  1.00  0.00     0.004 C 
ATOM      7  C   UNL     1      81.236  34.792  53.198  1.00  0.00     0.004 C 
ENDBRANCH   5   6
BRANCH   5   8
ATOM      8  C   UNL     1      80.681  35.101  49.371  1.00  0.00    -0.011 C 
ATOM      9  C   UNL     1      80.622  33.674  48.793  1.00  0.00     0.008 C 
ATOM     10  C   UNL     1      79.867  36.039  48.460  1.00  0.00     0.008 C 
ENDBRANCH   5   8
ENDBRANCH   4   5
ENDBRANCH   1   3
BRANCH   1  11
ATOM     11  C   UNL     1      75.863  34.662  51.751  1.00  0.00     0.002 C 
ATOM     12  C   UNL     1      76.616  35.829  52.473  1.00  0.00     0.005 C 
ATOM     13  C   UNL     1      74.533  34.500  52.583  1.00  0.00    -0.026 C 
ATOM     14  C   UNL     1      75.885  36.125  53.790  1.00  0.00     0.005 C 
ATOM     15  C   UNL     1      75.025  34.898  53.988  1.00  0.00    -0.001 C 
ATOM     16  C   UNL     1      73.887  33.095  52.706  1.00  0.00     0.007 C 
ATOM     17  C   UNL     1      73.491  35.462  51.930  1.00  0.00     0.012 C 
ATOM     18  C   UNL     1      74.002  34.870  55.150  1.00  0.00     0.000 C 
ATOM     19  C   UNL     1      72.787  33.044  53.800  1.00  0.00     0.005 C 
ATOM     20  C   UNL     1      73.319  33.472  55.203  1.00  0.00     0.003 C 
ATOM     21  C   UNL     1      73.006  36.040  55.179  1.00  0.00     0.031 C 
ATOM     22  C   UNL     1      72.294  33.363  56.409  1.00  0.00    -0.008 C 
ATOM     23  C   UNL     1      71.881  35.840  56.154  1.00  0.00    -0.027 C 
ATOM     24  C   UNL     1      71.462  34.638  56.596  1.00  0.00    -0.065 C 
ATOM     25  C   UNL     1      71.324  32.153  56.218  1.00  0.00     0.014 C 
ATOM     26  C   UNL     1      73.115  33.138  57.712  1.00  0.00     0.016 C 
ATOM     27  C   UNL     1      70.284  34.604  57.556  1.00  0.00     0.063 C 
ATOM     28  C   UNL     1      70.221  32.065  57.285  1.00  0.00     0.033 C 
ATOM     29  C   UNL     1      69.396  33.360  57.358  1.00  0.00     0.118 C 
BRANCH  29  30
ATOM     30  O   UNL     1      68.556  33.487  56.231  1.00  0.00    -0.393 OA
ATOM     31  H   UNL     1      68.430  32.587  55.835  1.00  0.00     0.210 HD
ENDBRANCH  29  30
ENDBRANCH   1  11
TORSDOF 6
ENDMDL
