MODEL 1
REMARK VINA RESULT:    -3.570      0.000      0.000
REMARK INTER + INTRA:          -9.143
REMARK INTER:                  -6.701
REMARK INTRA:                  -2.442
REMARK UNBOUND:                -2.442
REMARK SMILES CCCCCCCCC=CCCCCCCCC(=O)[O-]
REMARK SMILES IDX 10 1 9 2 11 3 12 4 13 5 14 6 15 7 16 8 17 9 18 10 19 11
REMARK SMILES IDX 20 12 8 13 7 14 6 15 5 16 4 17 3 18 2 19 1 20
REMARK H PARENT
REMARK Flexibility Score: inf
ROOT
ATOM      1  C   UNL     1      16.825 -13.938  -2.946  1.00  0.00    -0.031 C 
ATOM      2  C   UNL     1      17.280 -12.704  -2.689  1.00  0.00    -0.031 C 
ENDROOT
BRANCH   1   3
ATOM      3  C   UNL     1      17.093 -15.095  -2.021  1.00  0.00     0.027 C 
BRANCH   3   4
ATOM      4  C   UNL     1      16.897 -14.743  -0.534  1.00  0.00     0.004 C 
BRANCH   4   5
ATOM      5  C   UNL     1      15.891 -15.647   0.204  1.00  0.00     0.000 C 
BRANCH   5   6
ATOM      6  C   UNL     1      16.520 -16.944   0.743  1.00  0.00     0.000 C 
BRANCH   6   7
ATOM      7  C   UNL     1      18.006 -16.764   1.125  1.00  0.00     0.000 C 
BRANCH   7   8
ATOM      8  C   UNL     1      18.933 -17.798   0.459  1.00  0.00     0.006 C 
BRANCH   8   9
ATOM      9  C   UNL     1      18.256 -18.619  -0.647  1.00  0.00     0.053 C 
BRANCH   9  10
ATOM     10  C   UNL     1      19.209 -19.585  -1.284  1.00  0.00     0.041 C 
ATOM     11  O   UNL     1      18.896 -20.181  -2.347  1.00  0.00    -0.550 OA
ATOM     12  O   UNL     1      20.441 -19.835  -0.694  1.00  0.00    -0.550 OA
ENDBRANCH   9  10
ENDBRANCH   8   9
ENDBRANCH   7   8
ENDBRANCH   6   7
ENDBRANCH   5   6
ENDBRANCH   4   5
ENDBRANCH   3   4
ENDBRANCH   1   3
BRANCH   2  13
ATOM     13  C   UNL     1      16.916 -11.549  -3.584  1.00  0.00     0.027 C 
BRANCH  13  14
ATOM     14  C   UNL     1      16.621 -10.273  -2.784  1.00  0.00     0.004 C 
BRANCH  14  15
ATOM     15  C   UNL     1      16.099 -10.588  -1.370  1.00  0.00     0.000 C 
BRANCH  15  16
ATOM     16  C   UNL     1      14.565 -10.635  -1.303  1.00  0.00     0.000 C 
BRANCH  16  17
ATOM     17  C   UNL     1      14.037 -11.989  -0.808  1.00  0.00    -0.000 C 
BRANCH  17  18
ATOM     18  C   UNL     1      13.447 -12.803  -1.966  1.00  0.00    -0.000 C 
BRANCH  18  19
ATOM     19  C   UNL     1      13.131 -14.237  -1.527  1.00  0.00    -0.003 C 
ATOM     20  C   UNL     1      13.348 -15.225  -2.670  1.00  0.00     0.004 C 
ENDBRANCH  18  19
ENDBRANCH  17  18
ENDBRANCH  16  17
ENDBRANCH  15  16
ENDBRANCH  14  15
ENDBRANCH  13  14
ENDBRANCH   2  13
TORSDOF 15
ENDMDL
MODEL 2
REMARK VINA RESULT:    -3.516      5.480      8.279
REMARK INTER + INTRA:          -9.040
REMARK INTER:                  -6.335
REMARK INTRA:                  -2.705
REMARK UNBOUND:                -2.442
REMARK SMILES CCCCCCCCC=CCCCCCCCC(=O)[O-]
REMARK SMILES IDX 10 1 9 2 11 3 12 4 13 5 14 6 15 7 16 8 17 9 18 10 19 11
REMARK SMILES IDX 20 12 8 13 7 14 6 15 5 16 4 17 3 18 2 19 1 20
REMARK H PARENT
REMARK Flexibility Score: inf
ROOT
ATOM      1  C   UNL     1      17.106 -12.633  -2.742  1.00  0.00    -0.031 C 
ATOM      2  C   UNL     1      16.666 -13.886  -2.932  1.00  0.00    -0.031 C 
ENDROOT
BRANCH   1   3
ATOM      3  C   UNL     1      16.899 -11.552  -3.768  1.00  0.00     0.027 C 
BRANCH   3   4
ATOM      4  C   UNL     1      16.784 -10.144  -3.153  1.00  0.00     0.004 C 
BRANCH   4   5
ATOM      5  C   UNL     1      16.476 -10.134  -1.643  1.00  0.00     0.000 C 
BRANCH   5   6
ATOM      6  C   UNL     1      15.499  -9.019  -1.230  1.00  0.00     0.000 C 
BRANCH   6   7
ATOM      7  C   UNL     1      14.525  -8.637  -2.366  1.00  0.00     0.000 C 
BRANCH   7   8
ATOM      8  C   UNL     1      13.267  -7.903  -1.866  1.00  0.00     0.006 C 
BRANCH   8   9
ATOM      9  C   UNL     1      11.956  -8.442  -2.457  1.00  0.00     0.053 C 
BRANCH   9  10
ATOM     10  C   UNL     1      11.172  -7.365  -3.142  1.00  0.00     0.041 C 
ATOM     11  O   UNL     1      10.034  -7.612  -3.622  1.00  0.00    -0.550 OA
ATOM     12  O   UNL     1      11.704  -6.088  -3.261  1.00  0.00    -0.550 OA
ENDBRANCH   9  10
ENDBRANCH   8   9
ENDBRANCH   7   8
ENDBRANCH   6   7
ENDBRANCH   5   6
ENDBRANCH   4   5
ENDBRANCH   3   4
ENDBRANCH   1   3
BRANCH   2  13
ATOM     13  C   UNL     1      16.804 -14.921  -1.848  1.00  0.00     0.027 C 
BRANCH  13  14
ATOM     14  C   UNL     1      15.442 -15.358  -1.293  1.00  0.00     0.004 C 
BRANCH  14  15
ATOM     15  C   UNL     1      14.357 -15.380  -2.385  1.00  0.00     0.000 C 
BRANCH  15  16
ATOM     16  C   UNL     1      13.095 -14.602  -1.982  1.00  0.00     0.000 C 
BRANCH  16  17
ATOM     17  C   UNL     1      12.897 -13.326  -2.811  1.00  0.00    -0.000 C 
BRANCH  17  18
ATOM     18  C   UNL     1      13.471 -12.104  -2.084  1.00  0.00    -0.000 C 
BRANCH  18  19
ATOM     19  C   UNL     1      12.957 -12.029  -0.642  1.00  0.00    -0.003 C 
ATOM     20  C   UNL     1      14.105 -12.114   0.359  1.00  0.00     0.004 C 
ENDBRANCH  18  19
ENDBRANCH  17  18
ENDBRANCH  16  17
ENDBRANCH  15  16
ENDBRANCH  14  15
ENDBRANCH  13  14
ENDBRANCH   2  13
TORSDOF 15
ENDMDL
MODEL 3
REMARK VINA RESULT:    -3.497      5.050      7.936
REMARK INTER + INTRA:          -9.005
REMARK INTER:                  -6.194
REMARK INTRA:                  -2.811
REMARK UNBOUND:                -2.442
REMARK SMILES CCCCCCCCC=CCCCCCCCC(=O)[O-]
REMARK SMILES IDX 10 1 9 2 11 3 12 4 13 5 14 6 15 7 16 8 17 9 18 10 19 11
REMARK SMILES IDX 20 12 8 13 7 14 6 15 5 16 4 17 3 18 2 19 1 20
REMARK H PARENT
REMARK Flexibility Score: inf
ROOT
ATOM      1  C   UNL     1      17.102 -12.584  -2.636  1.00  0.00    -0.031 C 
ATOM      2  C   UNL     1      16.795 -13.840  -2.990  1.00  0.00    -0.031 C 
ENDROOT
BRANCH   1   3
ATOM      3  C   UNL     1      16.862 -11.415  -3.553  1.00  0.00     0.027 C 
BRANCH   3   4
ATOM      4  C   UNL     1      16.836 -10.061  -2.818  1.00  0.00     0.004 C 
BRANCH   4   5
ATOM      5  C   UNL     1      15.472  -9.701  -2.199  1.00  0.00     0.000 C 
BRANCH   5   6
ATOM      6  C   UNL     1      15.579  -9.178  -0.756  1.00  0.00     0.000 C 
BRANCH   6   7
ATOM      7  C   UNL     1      14.253  -8.572  -0.248  1.00  0.00     0.000 C 
BRANCH   7   8
ATOM      8  C   UNL     1      13.053  -8.884  -1.163  1.00  0.00     0.006 C 
BRANCH   8   9
ATOM      9  C   UNL     1      12.092  -7.702  -1.353  1.00  0.00     0.053 C 
BRANCH   9  10
ATOM     10  C   UNL     1      12.033  -7.260  -2.784  1.00  0.00     0.041 C 
ATOM     11  O   UNL     1      13.051  -7.344  -3.519  1.00  0.00    -0.550 OA
ATOM     12  O   UNL     1      10.853  -6.742  -3.302  1.00  0.00    -0.550 OA
ENDBRANCH   9  10
ENDBRANCH   8   9
ENDBRANCH   7   8
ENDBRANCH   6   7
ENDBRANCH   5   6
ENDBRANCH   4   5
ENDBRANCH   3   4
ENDBRANCH   1   3
BRANCH   2  13
ATOM     13  C   UNL     1      16.959 -14.976  -2.016  1.00  0.00     0.027 C 
BRANCH  13  14
ATOM     14  C   UNL     1      17.234 -14.476  -0.592  1.00  0.00     0.004 C 
BRANCH  14  15
ATOM     15  C   UNL     1      15.949 -14.412   0.254  1.00  0.00     0.000 C 
BRANCH  15  16
ATOM     16  C   UNL     1      15.662 -13.001   0.789  1.00  0.00     0.000 C 
BRANCH  16  17
ATOM     17  C   UNL     1      14.360 -12.411   0.230  1.00  0.00    -0.000 C 
BRANCH  17  18
ATOM     18  C   UNL     1      13.718 -13.362  -0.788  1.00  0.00    -0.000 C 
BRANCH  18  19
ATOM     19  C   UNL     1      13.331 -12.618  -2.071  1.00  0.00    -0.003 C 
ATOM     20  C   UNL     1      13.120 -13.589  -3.229  1.00  0.00     0.004 C 
ENDBRANCH  18  19
ENDBRANCH  17  18
ENDBRANCH  16  17
ENDBRANCH  15  16
ENDBRANCH  14  15
ENDBRANCH  13  14
ENDBRANCH   2  13
TORSDOF 15
ENDMDL
MODEL 4
REMARK VINA RESULT:    -3.458      5.135      7.245
REMARK INTER + INTRA:          -8.933
REMARK INTER:                  -5.995
REMARK INTRA:                  -2.937
REMARK UNBOUND:                -2.442
REMARK SMILES CCCCCCCCC=CCCCCCCCC(=O)[O-]
REMARK SMILES IDX 10 1 9 2 11 3 12 4 13 5 14 6 15 7 16 8 17 9 18 10 19 11
REMARK SMILES IDX 20 12 8 13 7 14 6 15 5 16 4 17 3 18 2 19 1 20
REMARK H PARENT
REMARK Flexibility Score: inf
ROOT
ATOM      1  C   UNL     1      17.442 -13.398   0.046  1.00  0.00    -0.031 C 
ATOM      2  C   UNL     1      17.877 -13.445  -1.221  1.00  0.00    -0.031 C 
ENDROOT
BRANCH   1   3
ATOM      3  C   UNL     1      18.196 -12.659   1.120  1.00  0.00     0.027 C 
BRANCH   3   4
ATOM      4  C   UNL     1      18.608 -11.235   0.703  1.00  0.00     0.004 C 
BRANCH   4   5
ATOM      5  C   UNL     1      17.434 -10.243   0.586  1.00  0.00     0.000 C 
BRANCH   5   6
ATOM      6  C   UNL     1      17.298  -9.627  -0.818  1.00  0.00     0.000 C 
BRANCH   6   7
ATOM      7  C   UNL     1      16.120 -10.228  -1.614  1.00  0.00     0.000 C 
BRANCH   7   8
ATOM      8  C   UNL     1      15.289  -9.169  -2.362  1.00  0.00     0.006 C 
BRANCH   8   9
ATOM      9  C   UNL     1      13.999  -8.764  -1.636  1.00  0.00     0.053 C 
BRANCH   9  10
ATOM     10  C   UNL     1      12.981  -8.202  -2.583  1.00  0.00     0.041 C 
ATOM     11  O   UNL     1      13.307  -7.317  -3.416  1.00  0.00    -0.550 OA
ATOM     12  O   UNL     1      11.668  -8.650  -2.536  1.00  0.00    -0.550 OA
ENDBRANCH   9  10
ENDBRANCH   8   9
ENDBRANCH   7   8
ENDBRANCH   6   7
ENDBRANCH   5   6
ENDBRANCH   4   5
ENDBRANCH   3   4
ENDBRANCH   1   3
BRANCH   2  13
ATOM     13  C   UNL     1      17.053 -14.111  -2.291  1.00  0.00     0.027 C 
BRANCH  13  14
ATOM     14  C   UNL     1      16.899 -13.225  -3.534  1.00  0.00     0.004 C 
BRANCH  14  15
ATOM     15  C   UNL     1      15.421 -12.940  -3.858  1.00  0.00     0.000 C 
BRANCH  15  16
ATOM     16  C   UNL     1      14.456 -13.764  -2.992  1.00  0.00     0.000 C 
BRANCH  16  17
ATOM     17  C   UNL     1      13.074 -13.110  -2.863  1.00  0.00    -0.000 C 
BRANCH  17  18
ATOM     18  C   UNL     1      12.985 -12.261  -1.588  1.00  0.00    -0.000 C 
BRANCH  18  19
ATOM     19  C   UNL     1      13.818 -12.876  -0.458  1.00  0.00    -0.003 C 
ATOM     20  C   UNL     1      13.978 -11.900   0.704  1.00  0.00     0.004 C 
ENDBRANCH  18  19
ENDBRANCH  17  18
ENDBRANCH  16  17
ENDBRANCH  15  16
ENDBRANCH  14  15
ENDBRANCH  13  14
ENDBRANCH   2  13
TORSDOF 15
ENDMDL
MODEL 5
REMARK VINA RESULT:    -3.446      5.176      8.092
REMARK INTER + INTRA:          -8.909
REMARK INTER:                  -6.185
REMARK INTRA:                  -2.723
REMARK UNBOUND:                -2.442
REMARK SMILES CCCCCCCCC=CCCCCCCCC(=O)[O-]
REMARK SMILES IDX 10 1 9 2 11 3 12 4 13 5 14 6 15 7 16 8 17 9 18 10 19 11
REMARK SMILES IDX 20 12 8 13 7 14 6 15 5 16 4 17 3 18 2 19 1 20
REMARK H PARENT
REMARK Flexibility Score: inf
ROOT
ATOM      1  C   UNL     1      15.619  -9.469  -2.497  1.00  0.00    -0.031 C 
ATOM      2  C   UNL     1      16.073 -10.727  -2.412  1.00  0.00    -0.031 C 
ENDROOT
BRANCH   1   3
ATOM      3  C   UNL     1      14.955  -8.781  -1.335  1.00  0.00     0.027 C 
BRANCH   3   4
ATOM      4  C   UNL     1      14.751  -9.702  -0.118  1.00  0.00     0.004 C 
BRANCH   4   5
ATOM      5  C   UNL     1      13.283 -10.086   0.149  1.00  0.00     0.000 C 
BRANCH   5   6
ATOM      6  C   UNL     1      12.854 -11.380  -0.565  1.00  0.00     0.000 C 
BRANCH   6   7
ATOM      7  C   UNL     1      12.023 -11.104  -1.837  1.00  0.00     0.000 C 
BRANCH   7   8
ATOM      8  C   UNL     1      11.148  -9.841  -1.728  1.00  0.00     0.006 C 
BRANCH   8   9
ATOM      9  C   UNL     1      11.194  -8.944  -2.974  1.00  0.00     0.053 C 
BRANCH   9  10
ATOM     10  C   UNL     1      11.943  -7.672  -2.715  1.00  0.00     0.041 C 
ATOM     11  O   UNL     1      11.759  -7.031  -1.647  1.00  0.00    -0.550 OA
ATOM     12  O   UNL     1      12.837  -7.188  -3.661  1.00  0.00    -0.550 OA
ENDBRANCH   9  10
ENDBRANCH   8   9
ENDBRANCH   7   8
ENDBRANCH   6   7
ENDBRANCH   5   6
ENDBRANCH   4   5
ENDBRANCH   3   4
ENDBRANCH   1   3
BRANCH   2  13
ATOM     13  C   UNL     1      16.817 -11.355  -3.561  1.00  0.00     0.027 C 
BRANCH  13  14
ATOM     14  C   UNL     1      16.081 -12.580  -4.121  1.00  0.00     0.004 C 
BRANCH  14  15
ATOM     15  C   UNL     1      14.939 -13.037  -3.195  1.00  0.00     0.000 C 
BRANCH  15  16
ATOM     16  C   UNL     1      15.230 -14.384  -2.516  1.00  0.00     0.000 C 
BRANCH  16  17
ATOM     17  C   UNL     1      16.732 -14.686  -2.423  1.00  0.00    -0.000 C 
BRANCH  17  18
ATOM     18  C   UNL     1      17.183 -14.780  -0.960  1.00  0.00    -0.000 C 
BRANCH  18  19
ATOM     19  C   UNL     1      17.774 -13.450  -0.478  1.00  0.00    -0.003 C 
ATOM     20  C   UNL     1      16.826 -12.742   0.486  1.00  0.00     0.004 C 
ENDBRANCH  18  19
ENDBRANCH  17  18
ENDBRANCH  16  17
ENDBRANCH  15  16
ENDBRANCH  14  15
ENDBRANCH  13  14
ENDBRANCH   2  13
TORSDOF 15
ENDMDL
MODEL 6
REMARK VINA RESULT:    -3.438      1.429      2.490
REMARK INTER + INTRA:          -8.895
REMARK INTER:                  -6.681
REMARK INTRA:                  -2.214
REMARK UNBOUND:                -2.442
REMARK SMILES CCCCCCCCC=CCCCCCCCC(=O)[O-]
REMARK SMILES IDX 10 1 9 2 11 3 12 4 13 5 14 6 15 7 16 8 17 9 18 10 19 11
REMARK SMILES IDX 20 12 8 13 7 14 6 15 5 16 4 17 3 18 2 19 1 20
REMARK H PARENT
REMARK Flexibility Score: inf
ROOT
ATOM      1  C   UNL     1      17.010 -12.382  -2.994  1.00  0.00    -0.031 C 
ATOM      2  C   UNL     1      16.169 -11.384  -3.300  1.00  0.00    -0.031 C 
ENDROOT
BRANCH   1   3
ATOM      3  C   UNL     1      16.732 -13.807  -3.388  1.00  0.00     0.027 C 
BRANCH   3   4
ATOM      4  C   UNL     1      16.957 -14.810  -2.240  1.00  0.00     0.004 C 
BRANCH   4   5
ATOM      5  C   UNL     1      15.662 -15.302  -1.565  1.00  0.00     0.000 C 
BRANCH   5   6
ATOM      6  C   UNL     1      15.915 -16.299  -0.420  1.00  0.00     0.000 C 
BRANCH   6   7
ATOM      7  C   UNL     1      17.393 -16.740  -0.338  1.00  0.00     0.000 C 
BRANCH   7   8
ATOM      8  C   UNL     1      17.565 -18.265  -0.211  1.00  0.00     0.006 C 
BRANCH   8   9
ATOM      9  C   UNL     1      18.948 -18.695   0.299  1.00  0.00     0.053 C 
BRANCH   9  10
ATOM     10  C   UNL     1      19.806 -19.231  -0.807  1.00  0.00     0.041 C 
ATOM     11  O   UNL     1      19.330 -20.038  -1.648  1.00  0.00    -0.550 OA
ATOM     12  O   UNL     1      21.137 -18.847  -0.902  1.00  0.00    -0.550 OA
ENDBRANCH   9  10
ENDBRANCH   8   9
ENDBRANCH   7   8
ENDBRANCH   6   7
ENDBRANCH   5   6
ENDBRANCH   4   5
ENDBRANCH   3   4
ENDBRANCH   1   3
BRANCH   2  13
ATOM     13  C   UNL     1      16.520  -9.956  -2.975  1.00  0.00     0.027 C 
BRANCH  13  14
ATOM     14  C   UNL     1      15.786  -9.454  -1.725  1.00  0.00     0.004 C 
BRANCH  14  15
ATOM     15  C   UNL     1      14.592 -10.354  -1.360  1.00  0.00     0.000 C 
BRANCH  15  16
ATOM     16  C   UNL     1      14.678 -10.899   0.074  1.00  0.00     0.000 C 
BRANCH  16  17
ATOM     17  C   UNL     1      14.848 -12.424   0.117  1.00  0.00    -0.000 C 
BRANCH  17  18
ATOM     18  C   UNL     1      15.938 -12.827   1.117  1.00  0.00    -0.000 C 
BRANCH  18  19
ATOM     19  C   UNL     1      17.084 -11.809   1.124  1.00  0.00    -0.003 C 
ATOM     20  C   UNL     1      18.229 -12.261   0.222  1.00  0.00     0.004 C 
ENDBRANCH  18  19
ENDBRANCH  17  18
ENDBRANCH  16  17
ENDBRANCH  15  16
ENDBRANCH  14  15
ENDBRANCH  13  14
ENDBRANCH   2  13
TORSDOF 15
ENDMDL
MODEL 7
REMARK VINA RESULT:    -3.420      4.827      7.466
REMARK INTER + INTRA:          -8.860
REMARK INTER:                  -6.073
REMARK INTRA:                  -2.787
REMARK UNBOUND:                -2.442
REMARK SMILES CCCCCCCCC=CCCCCCCCC(=O)[O-]
REMARK SMILES IDX 10 1 9 2 11 3 12 4 13 5 14 6 15 7 16 8 17 9 18 10 19 11
REMARK SMILES IDX 20 12 8 13 7 14 6 15 5 16 4 17 3 18 2 19 1 20
REMARK H PARENT
REMARK Flexibility Score: inf
ROOT
ATOM      1  C   UNL     1      17.294 -13.836   0.343  1.00  0.00    -0.031 C 
ATOM      2  C   UNL     1      17.520 -15.155   0.263  1.00  0.00    -0.031 C 
ENDROOT
BRANCH   1   3
ATOM      3  C   UNL     1      18.217 -12.913   1.094  1.00  0.00     0.027 C 
BRANCH   3   4
ATOM      4  C   UNL     1      18.509 -11.601   0.341  1.00  0.00     0.004 C 
BRANCH   4   5
ATOM      5  C   UNL     1      17.614 -10.418   0.758  1.00  0.00     0.000 C 
BRANCH   5   6
ATOM      6  C   UNL     1      16.671  -9.944  -0.362  1.00  0.00     0.000 C 
BRANCH   6   7
ATOM      7  C   UNL     1      15.316 -10.685  -0.345  1.00  0.00     0.000 C 
BRANCH   7   8
ATOM      8  C   UNL     1      14.294 -10.104  -1.340  1.00  0.00     0.006 C 
BRANCH   8   9
ATOM      9  C   UNL     1      14.854  -8.979  -2.221  1.00  0.00     0.053 C 
BRANCH   9  10
ATOM     10  C   UNL     1      13.941  -7.791  -2.252  1.00  0.00     0.041 C 
ATOM     11  O   UNL     1      13.421  -7.416  -3.335  1.00  0.00    -0.550 OA
ATOM     12  O   UNL     1      13.674  -7.090  -1.083  1.00  0.00    -0.550 OA
ENDBRANCH   9  10
ENDBRANCH   8   9
ENDBRANCH   7   8
ENDBRANCH   6   7
ENDBRANCH   5   6
ENDBRANCH   4   5
ENDBRANCH   3   4
ENDBRANCH   1   3
BRANCH   2  13
ATOM     13  C   UNL     1      16.632 -16.037  -0.573  1.00  0.00     0.027 C 
BRANCH  13  14
ATOM     14  C   UNL     1      15.148 -15.693  -0.395  1.00  0.00     0.004 C 
BRANCH  14  15
ATOM     15  C   UNL     1      14.473 -15.343  -1.734  1.00  0.00     0.000 C 
BRANCH  15  16
ATOM     16  C   UNL     1      14.191 -13.840  -1.880  1.00  0.00     0.000 C 
BRANCH  16  17
ATOM     17  C   UNL     1      14.718 -13.265  -3.202  1.00  0.00    -0.000 C 
BRANCH  17  18
ATOM     18  C   UNL     1      16.161 -13.715  -3.460  1.00  0.00    -0.000 C 
BRANCH  18  19
ATOM     19  C   UNL     1      17.163 -12.680  -2.937  1.00  0.00    -0.003 C 
ATOM     20  C   UNL     1      17.131 -11.407  -3.778  1.00  0.00     0.004 C 
ENDBRANCH  18  19
ENDBRANCH  17  18
ENDBRANCH  16  17
ENDBRANCH  15  16
ENDBRANCH  14  15
ENDBRANCH  13  14
ENDBRANCH   2  13
TORSDOF 15
ENDMDL
MODEL 8
REMARK VINA RESULT:    -3.405      1.332      2.172
REMARK INTER + INTRA:          -8.833
REMARK INTER:                  -7.094
REMARK INTRA:                  -1.739
REMARK UNBOUND:                -2.442
REMARK SMILES CCCCCCCCC=CCCCCCCCC(=O)[O-]
REMARK SMILES IDX 10 1 9 2 11 3 12 4 13 5 14 6 15 7 16 8 17 9 18 10 19 11
REMARK SMILES IDX 20 12 8 13 7 14 6 15 5 16 4 17 3 18 2 19 1 20
REMARK H PARENT
REMARK Flexibility Score: inf
ROOT
ATOM      1  C   UNL     1      18.055 -11.849  -0.299  1.00  0.00    -0.031 C 
ATOM      2  C   UNL     1      17.121 -10.907  -0.490  1.00  0.00    -0.031 C 
ENDROOT
BRANCH   1   3
ATOM      3  C   UNL     1      18.207 -12.565   1.016  1.00  0.00     0.027 C 
BRANCH   3   4
ATOM      4  C   UNL     1      17.465 -13.915   1.063  1.00  0.00     0.004 C 
BRANCH   4   5
ATOM      5  C   UNL     1      17.349 -14.622  -0.301  1.00  0.00     0.000 C 
BRANCH   5   6
ATOM      6  C   UNL     1      16.953 -16.105  -0.184  1.00  0.00     0.000 C 
BRANCH   6   7
ATOM      7  C   UNL     1      17.625 -16.802   1.020  1.00  0.00     0.000 C 
BRANCH   7   8
ATOM      8  C   UNL     1      18.692 -17.832   0.606  1.00  0.00     0.006 C 
BRANCH   8   9
ATOM      9  C   UNL     1      18.320 -18.647  -0.641  1.00  0.00     0.053 C 
BRANCH   9  10
ATOM     10  C   UNL     1      19.468 -19.480  -1.123  1.00  0.00     0.041 C 
ATOM     11  O   UNL     1      19.259 -20.534  -1.778  1.00  0.00    -0.550 OA
ATOM     12  O   UNL     1      20.772 -19.096  -0.838  1.00  0.00    -0.550 OA
ENDBRANCH   9  10
ENDBRANCH   8   9
ENDBRANCH   7   8
ENDBRANCH   6   7
ENDBRANCH   5   6
ENDBRANCH   4   5
ENDBRANCH   3   4
ENDBRANCH   1   3
BRANCH   2  13
ATOM     13  C   UNL     1      16.932 -10.276  -1.844  1.00  0.00     0.027 C 
BRANCH  13  14
ATOM     14  C   UNL     1      15.802 -10.945  -2.638  1.00  0.00     0.004 C 
BRANCH  14  15
ATOM     15  C   UNL     1      16.344 -11.915  -3.703  1.00  0.00     0.000 C 
BRANCH  15  16
ATOM     16  C   UNL     1      16.055 -13.386  -3.366  1.00  0.00     0.000 C 
BRANCH  16  17
ATOM     17  C   UNL     1      14.735 -13.568  -2.604  1.00  0.00    -0.000 C 
BRANCH  17  18
ATOM     18  C   UNL     1      14.321 -15.045  -2.570  1.00  0.00    -0.000 C 
BRANCH  18  19
ATOM     19  C   UNL     1      12.853 -15.215  -2.979  1.00  0.00    -0.003 C 
ATOM     20  C   UNL     1      12.225 -13.875  -3.352  1.00  0.00     0.004 C 
ENDBRANCH  18  19
ENDBRANCH  17  18
ENDBRANCH  16  17
ENDBRANCH  15  16
ENDBRANCH  14  15
ENDBRANCH  13  14
ENDBRANCH   2  13
TORSDOF 15
ENDMDL
MODEL 9
REMARK VINA RESULT:    -3.348      2.379      4.484
REMARK INTER + INTRA:          -8.725
REMARK INTER:                  -7.156
REMARK INTRA:                  -1.568
REMARK UNBOUND:                -2.442
REMARK SMILES CCCCCCCCC=CCCCCCCCC(=O)[O-]
REMARK SMILES IDX 10 1 9 2 11 3 12 4 13 5 14 6 15 7 16 8 17 9 18 10 19 11
REMARK SMILES IDX 20 12 8 13 7 14 6 15 5 16 4 17 3 18 2 19 1 20
REMARK H PARENT
REMARK Flexibility Score: inf
ROOT
ATOM      1  C   UNL     1      17.483 -16.736  -0.522  1.00  0.00    -0.031 C 
ATOM      2  C   UNL     1      17.552 -16.169   0.691  1.00  0.00    -0.031 C 
ENDROOT
BRANCH   1   3
ATOM      3  C   UNL     1      17.849 -18.178  -0.749  1.00  0.00     0.027 C 
BRANCH   3   4
ATOM      4  C   UNL     1      19.198 -18.570  -0.117  1.00  0.00     0.004 C 
BRANCH   4   5
ATOM      5  C   UNL     1      19.690 -19.980  -0.495  1.00  0.00     0.000 C 
BRANCH   5   6
ATOM      6  C   UNL     1      18.545 -20.986  -0.712  1.00  0.00     0.000 C 
BRANCH   6   7
ATOM      7  C   UNL     1      19.025 -22.290  -1.385  1.00  0.00     0.000 C 
BRANCH   7   8
ATOM      8  C   UNL     1      18.352 -22.554  -2.745  1.00  0.00     0.006 C 
BRANCH   8   9
ATOM      9  C   UNL     1      17.487 -21.389  -3.248  1.00  0.00     0.053 C 
BRANCH   9  10
ATOM     10  C   UNL     1      16.037 -21.762  -3.314  1.00  0.00     0.041 C 
ATOM     11  O   UNL     1      15.216 -21.021  -3.914  1.00  0.00    -0.550 OA
ATOM     12  O   UNL     1      15.591 -22.925  -2.699  1.00  0.00    -0.550 OA
ENDBRANCH   9  10
ENDBRANCH   8   9
ENDBRANCH   7   8
ENDBRANCH   6   7
ENDBRANCH   5   6
ENDBRANCH   4   5
ENDBRANCH   3   4
ENDBRANCH   1   3
BRANCH   2  13
ATOM     13  C   UNL     1      17.089 -14.752   0.904  1.00  0.00     0.027 C 
BRANCH  13  14
ATOM     14  C   UNL     1      18.267 -13.784   1.082  1.00  0.00     0.004 C 
BRANCH  14  15
ATOM     15  C   UNL     1      18.281 -12.690  -0.001  1.00  0.00     0.000 C 
BRANCH  15  16
ATOM     16  C   UNL     1      17.094 -12.801  -0.970  1.00  0.00     0.000 C 
BRANCH  16  17
ATOM     17  C   UNL     1      17.537 -13.051  -2.419  1.00  0.00    -0.000 C 
BRANCH  17  18
ATOM     18  C   UNL     1      16.351 -13.488  -3.287  1.00  0.00    -0.000 C 
BRANCH  18  19
ATOM     19  C   UNL     1      15.509 -14.554  -2.576  1.00  0.00    -0.003 C 
ATOM     20  C   UNL     1      14.021 -14.228  -2.658  1.00  0.00     0.004 C 
ENDBRANCH  18  19
ENDBRANCH  17  18
ENDBRANCH  16  17
ENDBRANCH  15  16
ENDBRANCH  14  15
ENDBRANCH  13  14
ENDBRANCH   2  13
TORSDOF 15
ENDMDL
