MODEL 1
REMARK VINA RESULT:    -3.183      0.000      0.000
REMARK INTER + INTRA:          -8.966
REMARK INTER:                  -6.160
REMARK INTRA:                  -2.806
REMARK UNBOUND:                -2.806
REMARK SMILES CCCCCCCCCCCCCCCCCC(=O)[O-]
REMARK SMILES IDX 10 1 11 2 12 3 13 4 14 5 15 6 16 7 17 8 18 9 19 10 20 11
REMARK SMILES IDX 9 12 8 13 7 14 6 15 5 16 4 17 3 18 2 19 1 20
REMARK H PARENT
REMARK Flexibility Score: inf
ROOT
ATOM      1  C   UNL     1      48.890  35.082  86.560  1.00  0.00     0.000 C 
ENDROOT
BRANCH   1   2
ATOM      2  C   UNL     1      49.775  35.928  87.494  1.00  0.00     0.000 C 
BRANCH   2   3
ATOM      3  C   UNL     1      51.278  35.593  87.450  1.00  0.00     0.000 C 
BRANCH   3   4
ATOM      4  C   UNL     1      51.776  34.998  86.118  1.00  0.00     0.000 C 
BRANCH   4   5
ATOM      5  C   UNL     1      52.899  33.951  86.251  1.00  0.00     0.000 C 
BRANCH   5   6
ATOM      6  C   UNL     1      53.721  34.039  87.550  1.00  0.00     0.000 C 
BRANCH   6   7
ATOM      7  C   UNL     1      54.559  32.779  87.813  1.00  0.00     0.006 C 
BRANCH   7   8
ATOM      8  C   UNL     1      53.952  31.947  88.946  1.00  0.00     0.053 C 
BRANCH   8   9
ATOM      9  C   UNL     1      53.943  32.726  90.223  1.00  0.00     0.041 C 
ATOM     10  O   UNL     1      52.865  32.893  90.855  1.00  0.00    -0.550 OA
ATOM     11  O   UNL     1      55.115  33.308  90.693  1.00  0.00    -0.550 OA
ENDBRANCH   8   9
ENDBRANCH   7   8
ENDBRANCH   6   7
ENDBRANCH   5   6
ENDBRANCH   4   5
ENDBRANCH   3   4
ENDBRANCH   2   3
ENDBRANCH   1   2
BRANCH   1  12
ATOM     12  C   UNL     1      48.416  33.773  87.214  1.00  0.00     0.000 C 
BRANCH  12  13
ATOM     13  C   UNL     1      48.887  32.528  86.445  1.00  0.00    -0.000 C 
BRANCH  13  14
ATOM     14  C   UNL     1      50.005  31.770  87.182  1.00  0.00    -0.000 C 
BRANCH  14  15
ATOM     15  C   UNL     1      50.186  32.241  88.637  1.00  0.00    -0.000 C 
BRANCH  15  16
ATOM     16  C   UNL     1      49.914  31.170  89.715  1.00  0.00    -0.000 C 
BRANCH  16  17
ATOM     17  C   UNL     1      48.504  30.550  89.683  1.00  0.00    -0.000 C 
BRANCH  17  18
ATOM     18  C   UNL     1      47.475  31.367  90.483  1.00  0.00    -0.000 C 
BRANCH  18  19
ATOM     19  C   UNL     1      46.183  31.622  89.690  1.00  0.00    -0.003 C 
ATOM     20  C   UNL     1      46.177  30.931  88.326  1.00  0.00     0.004 C 
ENDBRANCH  18  19
ENDBRANCH  17  18
ENDBRANCH  16  17
ENDBRANCH  15  16
ENDBRANCH  14  15
ENDBRANCH  13  14
ENDBRANCH  12  13
ENDBRANCH   1  12
TORSDOF 16
ENDMDL
MODEL 2
REMARK VINA RESULT:    -3.125      2.947      4.569
REMARK INTER + INTRA:          -8.854
REMARK INTER:                  -7.162
REMARK INTRA:                  -1.692
REMARK UNBOUND:                -2.806
REMARK SMILES CCCCCCCCCCCCCCCCCC(=O)[O-]
REMARK SMILES IDX 10 1 11 2 12 3 13 4 14 5 15 6 16 7 17 8 18 9 19 10 20 11
REMARK SMILES IDX 9 12 8 13 7 14 6 15 5 16 4 17 3 18 2 19 1 20
REMARK H PARENT
REMARK Flexibility Score: inf
ROOT
ATOM      1  C   UNL     1      47.790  32.480  88.242  1.00  0.00     0.000 C 
ENDROOT
BRANCH   1   2
ATOM      2  C   UNL     1      48.249  32.453  86.772  1.00  0.00     0.000 C 
BRANCH   2   3
ATOM      3  C   UNL     1      48.660  33.819  86.191  1.00  0.00     0.000 C 
BRANCH   3   4
ATOM      4  C   UNL     1      48.617  34.993  87.190  1.00  0.00     0.000 C 
BRANCH   4   5
ATOM      5  C   UNL     1      49.963  35.709  87.413  1.00  0.00     0.000 C 
BRANCH   5   6
ATOM      6  C   UNL     1      51.173  34.777  87.605  1.00  0.00     0.000 C 
BRANCH   6   7
ATOM      7  C   UNL     1      52.384  35.186  86.754  1.00  0.00     0.006 C 
BRANCH   7   8
ATOM      8  C   UNL     1      52.768  34.070  85.779  1.00  0.00     0.053 C 
BRANCH   8   9
ATOM      9  C   UNL     1      52.454  34.471  84.372  1.00  0.00     0.041 C 
ATOM     10  O   UNL     1      51.257  34.529  83.983  1.00  0.00    -0.550 OA
ATOM     11  O   UNL     1      53.484  34.737  83.478  1.00  0.00    -0.550 OA
ENDBRANCH   8   9
ENDBRANCH   7   8
ENDBRANCH   6   7
ENDBRANCH   5   6
ENDBRANCH   4   5
ENDBRANCH   3   4
ENDBRANCH   2   3
ENDBRANCH   1   2
BRANCH   1  12
ATOM     12  C   UNL     1      46.634  31.505  88.523  1.00  0.00     0.000 C 
BRANCH  12  13
ATOM     13  C   UNL     1      46.087  31.639  89.954  1.00  0.00    -0.000 C 
BRANCH  13  14
ATOM     14  C   UNL     1      45.970  30.281  90.668  1.00  0.00    -0.000 C 
BRANCH  14  15
ATOM     15  C   UNL     1      46.938  29.225  90.103  1.00  0.00    -0.000 C 
BRANCH  15  16
ATOM     16  C   UNL     1      48.240  29.026  90.908  1.00  0.00    -0.000 C 
BRANCH  16  17
ATOM     17  C   UNL     1      49.438  29.874  90.439  1.00  0.00    -0.000 C 
BRANCH  17  18
ATOM     18  C   UNL     1      49.562  31.204  91.202  1.00  0.00    -0.000 C 
BRANCH  18  19
ATOM     19  C   UNL     1      50.846  31.281  92.043  1.00  0.00    -0.003 C 
ATOM     20  C   UNL     1      50.820  32.419  93.065  1.00  0.00     0.004 C 
ENDBRANCH  18  19
ENDBRANCH  17  18
ENDBRANCH  16  17
ENDBRANCH  15  16
ENDBRANCH  14  15
ENDBRANCH  13  14
ENDBRANCH  12  13
ENDBRANCH   1  12
TORSDOF 16
ENDMDL
MODEL 3
REMARK VINA RESULT:    -3.117      3.234      6.331
REMARK INTER + INTRA:          -8.839
REMARK INTER:                  -6.292
REMARK INTRA:                  -2.547
REMARK UNBOUND:                -2.806
REMARK SMILES CCCCCCCCCCCCCCCCCC(=O)[O-]
REMARK SMILES IDX 10 1 11 2 12 3 13 4 14 5 15 6 16 7 17 8 18 9 19 10 20 11
REMARK SMILES IDX 9 12 8 13 7 14 6 15 5 16 4 17 3 18 2 19 1 20
REMARK H PARENT
REMARK Flexibility Score: inf
ROOT
ATOM      1  C   UNL     1      52.943  31.704  87.575  1.00  0.00     0.000 C 
ENDROOT
BRANCH   1   2
ATOM      2  C   UNL     1      51.457  31.604  87.968  1.00  0.00     0.000 C 
BRANCH   2   3
ATOM      3  C   UNL     1      51.104  32.198  89.345  1.00  0.00     0.000 C 
BRANCH   3   4
ATOM      4  C   UNL     1      50.235  31.294  90.242  1.00  0.00     0.000 C 
BRANCH   4   5
ATOM      5  C   UNL     1      49.480  30.173  89.502  1.00  0.00     0.000 C 
BRANCH   5   6
ATOM      6  C   UNL     1      47.977  30.079  89.821  1.00  0.00     0.000 C 
BRANCH   6   7
ATOM      7  C   UNL     1      47.448  31.312  90.568  1.00  0.00     0.006 C 
BRANCH   7   8
ATOM      8  C   UNL     1      46.002  31.616  90.164  1.00  0.00     0.053 C 
BRANCH   8   9
ATOM      9  C   UNL     1      45.054  31.169  91.232  1.00  0.00     0.041 C 
ATOM     10  O   UNL     1      44.696  29.963  91.296  1.00  0.00    -0.550 OA
ATOM     11  O   UNL     1      44.529  32.093  92.128  1.00  0.00    -0.550 OA
ENDBRANCH   8   9
ENDBRANCH   7   8
ENDBRANCH   6   7
ENDBRANCH   5   6
ENDBRANCH   4   5
ENDBRANCH   3   4
ENDBRANCH   2   3
ENDBRANCH   1   2
BRANCH   1  12
ATOM     12  C   UNL     1      53.761  32.559  88.557  1.00  0.00     0.000 C 
BRANCH  12  13
ATOM     13  C   UNL     1      54.328  33.828  87.900  1.00  0.00    -0.000 C 
BRANCH  13  14
ATOM     14  C   UNL     1      53.453  35.066  88.162  1.00  0.00    -0.000 C 
BRANCH  14  15
ATOM     15  C   UNL     1      52.499  35.381  86.994  1.00  0.00    -0.000 C 
BRANCH  15  16
ATOM     16  C   UNL     1      50.996  35.269  87.323  1.00  0.00    -0.000 C 
BRANCH  16  17
ATOM     17  C   UNL     1      50.097  34.833  86.150  1.00  0.00    -0.000 C 
BRANCH  17  18
ATOM     18  C   UNL     1      48.603  34.815  86.519  1.00  0.00    -0.000 C 
BRANCH  18  19
ATOM     19  C   UNL     1      48.259  33.699  87.518  1.00  0.00    -0.003 C 
ATOM     20  C   UNL     1      47.989  32.356  86.839  1.00  0.00     0.004 C 
ENDBRANCH  18  19
ENDBRANCH  17  18
ENDBRANCH  16  17
ENDBRANCH  15  16
ENDBRANCH  14  15
ENDBRANCH  13  14
ENDBRANCH  12  13
ENDBRANCH   1  12
TORSDOF 16
ENDMDL
MODEL 4
REMARK VINA RESULT:    -3.046      3.033      4.565
REMARK INTER + INTRA:          -8.701
REMARK INTER:                  -6.029
REMARK INTRA:                  -2.672
REMARK UNBOUND:                -2.806
REMARK SMILES CCCCCCCCCCCCCCCCCC(=O)[O-]
REMARK SMILES IDX 10 1 11 2 12 3 13 4 14 5 15 6 16 7 17 8 18 9 19 10 20 11
REMARK SMILES IDX 9 12 8 13 7 14 6 15 5 16 4 17 3 18 2 19 1 20
REMARK H PARENT
REMARK Flexibility Score: inf
ROOT
ATOM      1  C   UNL     1      52.977  31.567  87.644  1.00  0.00     0.000 C 
ENDROOT
BRANCH   1   2
ATOM      2  C   UNL     1      53.506  32.720  86.770  1.00  0.00     0.000 C 
BRANCH   2   3
ATOM      3  C   UNL     1      54.240  33.836  87.537  1.00  0.00     0.000 C 
BRANCH   3   4
ATOM      4  C   UNL     1      53.423  35.125  87.755  1.00  0.00     0.000 C 
BRANCH   4   5
ATOM      5  C   UNL     1      52.258  35.333  86.768  1.00  0.00     0.000 C 
BRANCH   5   6
ATOM      6  C   UNL     1      50.896  35.629  87.421  1.00  0.00     0.000 C 
BRANCH   6   7
ATOM      7  C   UNL     1      49.712  35.083  86.609  1.00  0.00     0.006 C 
BRANCH   7   8
ATOM      8  C   UNL     1      50.200  34.160  85.488  1.00  0.00     0.053 C 
BRANCH   8   9
ATOM      9  C   UNL     1      49.707  34.642  84.160  1.00  0.00     0.041 C 
ATOM     10  O   UNL     1      48.509  35.008  84.024  1.00  0.00    -0.550 OA
ATOM     11  O   UNL     1      50.558  34.647  83.061  1.00  0.00    -0.550 OA
ENDBRANCH   8   9
ENDBRANCH   7   8
ENDBRANCH   6   7
ENDBRANCH   5   6
ENDBRANCH   4   5
ENDBRANCH   3   4
ENDBRANCH   2   3
ENDBRANCH   1   2
BRANCH   1  12
ATOM     12  C   UNL     1      51.455  31.630  87.856  1.00  0.00     0.000 C 
BRANCH  12  13
ATOM     13  C   UNL     1      51.066  32.500  89.063  1.00  0.00    -0.000 C 
BRANCH  13  14
ATOM     14  C   UNL     1      51.980  32.262  90.277  1.00  0.00    -0.000 C 
BRANCH  14  15
ATOM     15  C   UNL     1      51.371  31.285  91.300  1.00  0.00    -0.000 C 
BRANCH  15  16
ATOM     16  C   UNL     1      49.830  31.196  91.290  1.00  0.00    -0.000 C 
BRANCH  16  17
ATOM     17  C   UNL     1      49.253  29.847  90.822  1.00  0.00    -0.000 C 
BRANCH  17  18
ATOM     18  C   UNL     1      48.051  30.010  89.875  1.00  0.00    -0.000 C 
BRANCH  18  19
ATOM     19  C   UNL     1      47.397  31.396  89.988  1.00  0.00    -0.003 C 
ATOM     20  C   UNL     1      47.330  32.133  88.650  1.00  0.00     0.004 C 
ENDBRANCH  18  19
ENDBRANCH  17  18
ENDBRANCH  16  17
ENDBRANCH  15  16
ENDBRANCH  14  15
ENDBRANCH  13  14
ENDBRANCH  12  13
ENDBRANCH   1  12
TORSDOF 16
ENDMDL
MODEL 5
REMARK VINA RESULT:    -3.031      3.105      6.316
REMARK INTER + INTRA:          -8.671
REMARK INTER:                  -6.194
REMARK INTRA:                  -2.478
REMARK UNBOUND:                -2.806
REMARK SMILES CCCCCCCCCCCCCCCCCC(=O)[O-]
REMARK SMILES IDX 10 1 11 2 12 3 13 4 14 5 15 6 16 7 17 8 18 9 19 10 20 11
REMARK SMILES IDX 9 12 8 13 7 14 6 15 5 16 4 17 3 18 2 19 1 20
REMARK H PARENT
REMARK Flexibility Score: inf
ROOT
ATOM      1  C   UNL     1      49.176  32.572  87.561  1.00  0.00     0.000 C 
ENDROOT
BRANCH   1   2
ATOM      2  C   UNL     1      50.520  32.911  88.232  1.00  0.00     0.000 C 
BRANCH   2   3
ATOM      3  C   UNL     1      51.146  31.767  89.054  1.00  0.00     0.000 C 
BRANCH   3   4
ATOM      4  C   UNL     1      51.125  31.974  90.581  1.00  0.00     0.000 C 
BRANCH   4   5
ATOM      5  C   UNL     1      50.109  31.101  91.344  1.00  0.00     0.000 C 
BRANCH   5   6
ATOM      6  C   UNL     1      49.592  29.876  90.568  1.00  0.00     0.000 C 
BRANCH   6   7
ATOM      7  C   UNL     1      48.066  29.886  90.387  1.00  0.00     0.006 C 
BRANCH   7   8
ATOM      8  C   UNL     1      47.513  31.310  90.491  1.00  0.00     0.053 C 
BRANCH   8   9
ATOM      9  C   UNL     1      46.076  31.347  90.075  1.00  0.00     0.041 C 
ATOM     10  O   UNL     1      45.165  31.352  90.946  1.00  0.00    -0.550 OA
ATOM     11  O   UNL     1      45.741  31.329  88.726  1.00  0.00    -0.550 OA
ENDBRANCH   8   9
ENDBRANCH   7   8
ENDBRANCH   6   7
ENDBRANCH   5   6
ENDBRANCH   4   5
ENDBRANCH   3   4
ENDBRANCH   2   3
ENDBRANCH   1   2
BRANCH   1  12
ATOM     12  C   UNL     1      48.253  33.795  87.426  1.00  0.00     0.000 C 
BRANCH  12  13
ATOM     13  C   UNL     1      48.816  34.852  86.461  1.00  0.00    -0.000 C 
BRANCH  13  14
ATOM     14  C   UNL     1      48.722  34.414  84.989  1.00  0.00    -0.000 C 
BRANCH  14  15
ATOM     15  C   UNL     1      50.075  34.488  84.256  1.00  0.00    -0.000 C 
BRANCH  15  16
ATOM     16  C   UNL     1      50.915  33.194  84.292  1.00  0.00    -0.000 C 
BRANCH  16  17
ATOM     17  C   UNL     1      52.285  33.318  84.985  1.00  0.00    -0.000 C 
BRANCH  17  18
ATOM     18  C   UNL     1      52.706  34.780  85.215  1.00  0.00    -0.000 C 
BRANCH  18  19
ATOM     19  C   UNL     1      52.843  35.125  86.706  1.00  0.00    -0.003 C 
ATOM     20  C   UNL     1      53.901  34.280  87.417  1.00  0.00     0.004 C 
ENDBRANCH  18  19
ENDBRANCH  17  18
ENDBRANCH  16  17
ENDBRANCH  15  16
ENDBRANCH  14  15
ENDBRANCH  13  14
ENDBRANCH  12  13
ENDBRANCH   1  12
TORSDOF 16
ENDMDL
MODEL 6
REMARK VINA RESULT:    -3.029      3.575      7.104
REMARK INTER + INTRA:          -8.668
REMARK INTER:                  -6.720
REMARK INTRA:                  -1.948
REMARK UNBOUND:                -2.806
REMARK SMILES CCCCCCCCCCCCCCCCCC(=O)[O-]
REMARK SMILES IDX 10 1 11 2 12 3 13 4 14 5 15 6 16 7 17 8 18 9 19 10 20 11
REMARK SMILES IDX 9 12 8 13 7 14 6 15 5 16 4 17 3 18 2 19 1 20
REMARK H PARENT
REMARK Flexibility Score: inf
ROOT
ATOM      1  C   UNL     1      51.163  31.793  89.073  1.00  0.00     0.000 C 
ENDROOT
BRANCH   1   2
ATOM      2  C   UNL     1      50.692  31.630  90.530  1.00  0.00     0.000 C 
BRANCH   2   3
ATOM      3  C   UNL     1      49.256  31.098  90.697  1.00  0.00     0.000 C 
BRANCH   3   4
ATOM      4  C   UNL     1      48.633  30.491  89.424  1.00  0.00     0.000 C 
BRANCH   4   5
ATOM      5  C   UNL     1      47.094  30.395  89.432  1.00  0.00     0.000 C 
BRANCH   5   6
ATOM      6  C   UNL     1      46.361  31.730  89.655  1.00  0.00     0.000 C 
BRANCH   6   7
ATOM      7  C   UNL     1      45.617  31.786  90.998  1.00  0.00     0.006 C 
BRANCH   7   8
ATOM      8  C   UNL     1      44.861  30.479  91.257  1.00  0.00     0.053 C 
BRANCH   8   9
ATOM      9  C   UNL     1      43.733  30.708  92.214  1.00  0.00     0.041 C 
ATOM     10  O   UNL     1      43.804  31.632  93.067  1.00  0.00    -0.550 OA
ATOM     11  O   UNL     1      42.622  29.872  92.193  1.00  0.00    -0.550 OA
ENDBRANCH   8   9
ENDBRANCH   7   8
ENDBRANCH   6   7
ENDBRANCH   5   6
ENDBRANCH   4   5
ENDBRANCH   3   4
ENDBRANCH   2   3
ENDBRANCH   1   2
BRANCH   1  12
ATOM     12  C   UNL     1      51.994  33.069  88.856  1.00  0.00     0.000 C 
BRANCH  12  13
ATOM     13  C   UNL     1      52.985  32.932  87.687  1.00  0.00    -0.000 C 
BRANCH  13  14
ATOM     14  C   UNL     1      53.423  34.296  87.125  1.00  0.00    -0.000 C 
BRANCH  14  15
ATOM     15  C   UNL     1      52.276  35.050  86.427  1.00  0.00    -0.000 C 
BRANCH  15  16
ATOM     16  C   UNL     1      51.556  34.265  85.310  1.00  0.00    -0.000 C 
BRANCH  16  17
ATOM     17  C   UNL     1      50.023  34.415  85.284  1.00  0.00    -0.000 C 
BRANCH  17  18
ATOM     18  C   UNL     1      49.309  33.397  86.191  1.00  0.00    -0.000 C 
BRANCH  18  19
ATOM     19  C   UNL     1      48.558  34.069  87.351  1.00  0.00    -0.003 C 
ATOM     20  C   UNL     1      48.699  35.592  87.347  1.00  0.00     0.004 C 
ENDBRANCH  18  19
ENDBRANCH  17  18
ENDBRANCH  16  17
ENDBRANCH  15  16
ENDBRANCH  14  15
ENDBRANCH  13  14
ENDBRANCH  12  13
ENDBRANCH   1  12
TORSDOF 16
ENDMDL
MODEL 7
REMARK VINA RESULT:    -2.988      1.334      3.617
REMARK INTER + INTRA:          -8.588
REMARK INTER:                  -5.688
REMARK INTRA:                  -2.900
REMARK UNBOUND:                -2.806
REMARK SMILES CCCCCCCCCCCCCCCCCC(=O)[O-]
REMARK SMILES IDX 10 1 11 2 12 3 13 4 14 5 15 6 16 7 17 8 18 9 19 10 20 11
REMARK SMILES IDX 9 12 8 13 7 14 6 15 5 16 4 17 3 18 2 19 1 20
REMARK H PARENT
REMARK Flexibility Score: inf
ROOT
ATOM      1  C   UNL     1      47.021  31.293  87.936  1.00  0.00     0.000 C 
ENDROOT
BRANCH   1   2
ATOM      2  C   UNL     1      47.857  32.252  87.068  1.00  0.00     0.000 C 
BRANCH   2   3
ATOM      3  C   UNL     1      48.484  33.439  87.825  1.00  0.00     0.000 C 
BRANCH   3   4
ATOM      4  C   UNL     1      48.394  34.796  87.099  1.00  0.00     0.000 C 
BRANCH   4   5
ATOM      5  C   UNL     1      49.669  35.660  87.173  1.00  0.00     0.000 C 
BRANCH   5   6
ATOM      6  C   UNL     1      50.953  34.969  86.680  1.00  0.00     0.000 C 
BRANCH   6   7
ATOM      7  C   UNL     1      51.938  34.660  87.817  1.00  0.00     0.006 C 
BRANCH   7   8
ATOM      8  C   UNL     1      53.130  33.848  87.301  1.00  0.00     0.053 C 
BRANCH   8   9
ATOM      9  C   UNL     1      54.122  33.618  88.397  1.00  0.00     0.041 C 
ATOM     10  O   UNL     1      55.157  32.931  88.180  1.00  0.00    -0.550 OA
ATOM     11  O   UNL     1      53.883  34.121  89.670  1.00  0.00    -0.550 OA
ENDBRANCH   8   9
ENDBRANCH   7   8
ENDBRANCH   6   7
ENDBRANCH   5   6
ENDBRANCH   4   5
ENDBRANCH   3   4
ENDBRANCH   2   3
ENDBRANCH   1   2
BRANCH   1  12
ATOM     12  C   UNL     1      46.611  31.913  89.282  1.00  0.00     0.000 C 
BRANCH  12  13
ATOM     13  C   UNL     1      47.091  31.080  90.483  1.00  0.00    -0.000 C 
BRANCH  13  14
ATOM     14  C   UNL     1      47.982  29.899  90.060  1.00  0.00    -0.000 C 
BRANCH  14  15
ATOM     15  C   UNL     1      49.359  29.913  90.748  1.00  0.00    -0.000 C 
BRANCH  15  16
ATOM     16  C   UNL     1      49.933  31.315  91.044  1.00  0.00    -0.000 C 
BRANCH  16  17
ATOM     17  C   UNL     1      50.974  31.827  90.030  1.00  0.00    -0.000 C 
BRANCH  17  18
ATOM     18  C   UNL     1      51.555  30.704  89.153  1.00  0.00    -0.000 C 
BRANCH  18  19
ATOM     19  C   UNL     1      51.118  30.819  87.685  1.00  0.00    -0.003 C 
ATOM     20  C   UNL     1      50.518  29.523  87.140  1.00  0.00     0.004 C 
ENDBRANCH  18  19
ENDBRANCH  17  18
ENDBRANCH  16  17
ENDBRANCH  15  16
ENDBRANCH  14  15
ENDBRANCH  13  14
ENDBRANCH  12  13
ENDBRANCH   1  12
TORSDOF 16
ENDMDL
MODEL 8
REMARK VINA RESULT:    -2.960      2.638      4.391
REMARK INTER + INTRA:          -8.534
REMARK INTER:                  -5.953
REMARK INTRA:                  -2.580
REMARK UNBOUND:                -2.806
REMARK SMILES CCCCCCCCCCCCCCCCCC(=O)[O-]
REMARK SMILES IDX 10 1 11 2 12 3 13 4 14 5 15 6 16 7 17 8 18 9 19 10 20 11
REMARK SMILES IDX 9 12 8 13 7 14 6 15 5 16 4 17 3 18 2 19 1 20
REMARK H PARENT
REMARK Flexibility Score: inf
ROOT
ATOM      1  C   UNL     1      52.069  31.324  88.067  1.00  0.00     0.000 C 
ENDROOT
BRANCH   1   2
ATOM      2  C   UNL     1      53.350  31.738  88.814  1.00  0.00     0.000 C 
BRANCH   2   3
ATOM      3  C   UNL     1      54.233  32.764  88.076  1.00  0.00     0.000 C 
BRANCH   3   4
ATOM      4  C   UNL     1      53.697  33.219  86.705  1.00  0.00     0.000 C 
BRANCH   4   5
ATOM      5  C   UNL     1      53.191  34.675  86.653  1.00  0.00     0.000 C 
BRANCH   5   6
ATOM      6  C   UNL     1      52.343  35.112  87.861  1.00  0.00     0.000 C 
BRANCH   6   7
ATOM      7  C   UNL     1      50.870  35.354  87.500  1.00  0.00     0.006 C 
BRANCH   7   8
ATOM      8  C   UNL     1      50.499  34.626  86.205  1.00  0.00     0.053 C 
BRANCH   8   9
ATOM      9  C   UNL     1      49.072  34.894  85.843  1.00  0.00     0.041 C 
ATOM     10  O   UNL     1      48.622  34.523  84.726  1.00  0.00    -0.550 OA
ATOM     11  O   UNL     1      48.250  35.593  86.720  1.00  0.00    -0.550 OA
ENDBRANCH   8   9
ENDBRANCH   7   8
ENDBRANCH   6   7
ENDBRANCH   5   6
ENDBRANCH   4   5
ENDBRANCH   3   4
ENDBRANCH   2   3
ENDBRANCH   1   2
BRANCH   1  12
ATOM     12  C   UNL     1      50.787  31.736  88.810  1.00  0.00     0.000 C 
BRANCH  12  13
ATOM     13  C   UNL     1      51.033  31.997  90.306  1.00  0.00    -0.000 C 
BRANCH  13  14
ATOM     14  C   UNL     1      50.027  31.257  91.204  1.00  0.00    -0.000 C 
BRANCH  14  15
ATOM     15  C   UNL     1      49.488  29.966  90.560  1.00  0.00    -0.000 C 
BRANCH  15  16
ATOM     16  C   UNL     1      47.956  29.908  90.384  1.00  0.00    -0.000 C 
BRANCH  16  17
ATOM     17  C   UNL     1      47.225  31.255  90.534  1.00  0.00    -0.000 C 
BRANCH  17  18
ATOM     18  C   UNL     1      46.496  31.686  89.249  1.00  0.00    -0.000 C 
BRANCH  18  19
ATOM     19  C   UNL     1      47.428  32.400  88.257  1.00  0.00    -0.003 C 
ATOM     20  C   UNL     1      47.654  31.601  86.973  1.00  0.00     0.004 C 
ENDBRANCH  18  19
ENDBRANCH  17  18
ENDBRANCH  16  17
ENDBRANCH  15  16
ENDBRANCH  14  15
ENDBRANCH  13  14
ENDBRANCH  12  13
ENDBRANCH   1  12
TORSDOF 16
ENDMDL
MODEL 9
REMARK VINA RESULT:    -2.900      2.867      5.921
REMARK INTER + INTRA:          -8.418
REMARK INTER:                  -5.844
REMARK INTRA:                  -2.575
REMARK UNBOUND:                -2.806
REMARK SMILES CCCCCCCCCCCCCCCCCC(=O)[O-]
REMARK SMILES IDX 10 1 11 2 12 3 13 4 14 5 15 6 16 7 17 8 18 9 19 10 20 11
REMARK SMILES IDX 9 12 8 13 7 14 6 15 5 16 4 17 3 18 2 19 1 20
REMARK H PARENT
REMARK Flexibility Score: inf
ROOT
ATOM      1  C   UNL     1      48.666  35.093  86.834  1.00  0.00     0.000 C 
ENDROOT
BRANCH   1   2
ATOM      2  C   UNL     1      48.224  33.725  87.388  1.00  0.00     0.000 C 
BRANCH   2   3
ATOM      3  C   UNL     1      48.727  32.505  86.592  1.00  0.00     0.000 C 
BRANCH   3   4
ATOM      4  C   UNL     1      49.583  31.508  87.398  1.00  0.00     0.000 C 
BRANCH   4   5
ATOM      5  C   UNL     1      50.149  32.057  88.722  1.00  0.00     0.000 C 
BRANCH   5   6
ATOM      6  C   UNL     1      50.184  31.047  89.883  1.00  0.00     0.000 C 
BRANCH   6   7
ATOM      7  C   UNL     1      48.978  31.178  90.825  1.00  0.00     0.006 C 
BRANCH   7   8
ATOM      8  C   UNL     1      47.876  30.186  90.442  1.00  0.00     0.053 C 
BRANCH   8   9
ATOM      9  C   UNL     1      46.536  30.850  90.476  1.00  0.00     0.041 C 
ATOM     10  O   UNL     1      45.609  30.370  91.183  1.00  0.00    -0.550 OA
ATOM     11  O   UNL     1      46.295  31.974  89.693  1.00  0.00    -0.550 OA
ENDBRANCH   8   9
ENDBRANCH   7   8
ENDBRANCH   6   7
ENDBRANCH   5   6
ENDBRANCH   4   5
ENDBRANCH   3   4
ENDBRANCH   2   3
ENDBRANCH   1   2
BRANCH   1  12
ATOM     12  C   UNL     1      49.941  35.624  87.510  1.00  0.00     0.000 C 
BRANCH  12  13
ATOM     13  C   UNL     1      51.205  35.350  86.677  1.00  0.00    -0.000 C 
BRANCH  13  14
ATOM     14  C   UNL     1      52.390  34.888  87.543  1.00  0.00    -0.000 C 
BRANCH  14  15
ATOM     15  C   UNL     1      53.410  34.044  86.757  1.00  0.00    -0.000 C 
BRANCH  15  16
ATOM     16  C   UNL     1      52.906  32.659  86.300  1.00  0.00    -0.000 C 
BRANCH  16  17
ATOM     17  C   UNL     1      52.767  32.479  84.776  1.00  0.00    -0.000 C 
BRANCH  17  18
ATOM     18  C   UNL     1      53.078  33.767  83.993  1.00  0.00    -0.000 C 
BRANCH  18  19
ATOM     19  C   UNL     1      51.877  34.256  83.167  1.00  0.00    -0.003 C 
ATOM     20  C   UNL     1      50.569  33.565  83.553  1.00  0.00     0.004 C 
ENDBRANCH  18  19
ENDBRANCH  17  18
ENDBRANCH  16  17
ENDBRANCH  15  16
ENDBRANCH  14  15
ENDBRANCH  13  14
ENDBRANCH  12  13
ENDBRANCH   1  12
TORSDOF 16
ENDMDL
