MODEL 1
REMARK VINA RESULT:    -2.520      0.000      0.000
REMARK INTER + INTRA:         -10.163
REMARK INTER:                  -5.762
REMARK INTRA:                  -4.401
REMARK UNBOUND:                -4.401
REMARK SMILES CCCCCCCCCCCCCCCCCCCCCCCC(=O)[O-]
REMARK SMILES IDX 13 1 14 2 15 3 16 4 17 5 18 6 19 7 20 8 21 9 22 10 23 11
REMARK SMILES IDX 24 12 25 13 26 14 12 15 11 16 10 17 9 18 8 19 7 20 6 21 5 22
REMARK SMILES IDX 4 23 3 24 2 25 1 26
REMARK H PARENT
REMARK Flexibility Score: inf
ROOT
ATOM      1  C   UNL     1     -20.509  15.029 -18.464  1.00  0.00     0.000 C 
ENDROOT
BRANCH   1   2
ATOM      2  C   UNL     1     -21.160  13.638 -18.563  1.00  0.00     0.000 C 
BRANCH   2   3
ATOM      3  C   UNL     1     -22.233  13.411 -17.486  1.00  0.00     0.000 C 
BRANCH   3   4
ATOM      4  C   UNL     1     -21.816  12.357 -16.451  1.00  0.00     0.000 C 
BRANCH   4   5
ATOM      5  C   UNL     1     -20.570  11.590 -16.919  1.00  0.00     0.000 C 
BRANCH   5   6
ATOM      6  C   UNL     1     -19.375  11.746 -15.962  1.00  0.00     0.000 C 
BRANCH   6   7
ATOM      7  C   UNL     1     -19.551  12.821 -14.871  1.00  0.00     0.000 C 
BRANCH   7   8
ATOM      8  C   UNL     1     -18.701  14.092 -15.066  1.00  0.00     0.000 C 
BRANCH   8   9
ATOM      9  C   UNL     1     -19.464  15.421 -14.889  1.00  0.00     0.000 C 
BRANCH   9  10
ATOM     10  C   UNL     1     -20.803  15.308 -14.138  1.00  0.00     0.006 C 
BRANCH  10  11
ATOM     11  C   UNL     1     -21.987  15.868 -14.938  1.00  0.00     0.053 C 
BRANCH  11  12
ATOM     12  C   UNL     1     -23.282  15.524 -14.272  1.00  0.00     0.041 C 
ATOM     13  O   UNL     1     -24.194  14.946 -14.920  1.00  0.00    -0.550 OA
ATOM     14  O   UNL     1     -23.479  15.834 -12.930  1.00  0.00    -0.550 OA
ENDBRANCH  11  12
ENDBRANCH  10  11
ENDBRANCH   9  10
ENDBRANCH   8   9
ENDBRANCH   7   8
ENDBRANCH   6   7
ENDBRANCH   5   6
ENDBRANCH   4   5
ENDBRANCH   3   4
ENDBRANCH   2   3
ENDBRANCH   1   2
BRANCH   1  15
ATOM     15  C   UNL     1     -18.984  14.968 -18.667  1.00  0.00     0.000 C 
BRANCH  15  16
ATOM     16  C   UNL     1     -18.490  13.582 -19.134  1.00  0.00     0.000 C 
BRANCH  16  17
ATOM     17  C   UNL     1     -17.876  13.582 -20.547  1.00  0.00     0.000 C 
BRANCH  17  18
ATOM     18  C   UNL     1     -17.966  14.927 -21.295  1.00  0.00    -0.000 C 
BRANCH  18  19
ATOM     19  C   UNL     1     -17.878  14.804 -22.831  1.00  0.00    -0.000 C 
BRANCH  19  20
ATOM     20  C   UNL     1     -17.371  13.437 -23.328  1.00  0.00    -0.000 C 
BRANCH  20  21
ATOM     21  C   UNL     1     -18.322  12.737 -24.320  1.00  0.00    -0.000 C 
BRANCH  21  22
ATOM     22  C   UNL     1     -19.508  13.627 -24.721  1.00  0.00    -0.000 C 
BRANCH  22  23
ATOM     23  C   UNL     1     -20.834  12.858 -24.617  1.00  0.00    -0.000 C 
BRANCH  23  24
ATOM     24  C   UNL     1     -21.876  13.580 -23.746  1.00  0.00    -0.000 C 
BRANCH  24  25
ATOM     25  C   UNL     1     -21.417  13.888 -22.308  1.00  0.00    -0.003 C 
ATOM     26  C   UNL     1     -21.598  15.356 -21.923  1.00  0.00     0.004 C 
ENDBRANCH  24  25
ENDBRANCH  23  24
ENDBRANCH  22  23
ENDBRANCH  21  22
ENDBRANCH  20  21
ENDBRANCH  19  20
ENDBRANCH  18  19
ENDBRANCH  17  18
ENDBRANCH  16  17
ENDBRANCH  15  16
ENDBRANCH   1  15
TORSDOF 22
ENDMDL
MODEL 2
REMARK VINA RESULT:    -2.369      1.619      3.935
REMARK INTER + INTRA:          -9.818
REMARK INTER:                  -5.890
REMARK INTRA:                  -3.928
REMARK UNBOUND:                -4.401
REMARK SMILES CCCCCCCCCCCCCCCCCCCCCCCC(=O)[O-]
REMARK SMILES IDX 13 1 14 2 15 3 16 4 17 5 18 6 19 7 20 8 21 9 22 10 23 11
REMARK SMILES IDX 24 12 25 13 26 14 12 15 11 16 10 17 9 18 8 19 7 20 6 21 5 22
REMARK SMILES IDX 4 23 3 24 2 25 1 26
REMARK H PARENT
REMARK Flexibility Score: inf
ROOT
ATOM      1  C   UNL     1     -17.500  15.386 -21.593  1.00  0.00     0.000 C 
ENDROOT
BRANCH   1   2
ATOM      2  C   UNL     1     -17.322  13.864 -21.453  1.00  0.00     0.000 C 
BRANCH   2   3
ATOM      3  C   UNL     1     -17.601  13.366 -20.026  1.00  0.00     0.000 C 
BRANCH   3   4
ATOM      4  C   UNL     1     -17.584  14.501 -18.991  1.00  0.00     0.000 C 
BRANCH   4   5
ATOM      5  C   UNL     1     -18.343  14.096 -17.719  1.00  0.00     0.000 C 
BRANCH   5   6
ATOM      6  C   UNL     1     -19.009  12.713 -17.832  1.00  0.00     0.000 C 
BRANCH   6   7
ATOM      7  C   UNL     1     -20.498  12.674 -17.440  1.00  0.00     0.000 C 
BRANCH   7   8
ATOM      8  C   UNL     1     -20.981  13.870 -16.595  1.00  0.00     0.000 C 
BRANCH   8   9
ATOM      9  C   UNL     1     -21.409  13.522 -15.155  1.00  0.00     0.000 C 
BRANCH   9  10
ATOM     10  C   UNL     1     -22.143  12.178 -15.001  1.00  0.00     0.006 C 
BRANCH  10  11
ATOM     11  C   UNL     1     -23.520  12.320 -14.338  1.00  0.00     0.053 C 
BRANCH  11  12
ATOM     12  C   UNL     1     -24.294  13.436 -14.965  1.00  0.00     0.041 C 
ATOM     13  O   UNL     1     -24.540  14.483 -14.310  1.00  0.00    -0.550 OA
ATOM     14  O   UNL     1     -24.736  13.324 -16.279  1.00  0.00    -0.550 OA
ENDBRANCH  11  12
ENDBRANCH  10  11
ENDBRANCH   9  10
ENDBRANCH   8   9
ENDBRANCH   7   8
ENDBRANCH   6   7
ENDBRANCH   5   6
ENDBRANCH   4   5
ENDBRANCH   3   4
ENDBRANCH   2   3
ENDBRANCH   1   2
BRANCH   1  15
ATOM     15  C   UNL     1     -17.682  15.814 -23.060  1.00  0.00     0.000 C 
BRANCH  15  16
ATOM     16  C   UNL     1     -17.450  14.660 -24.060  1.00  0.00     0.000 C 
BRANCH  16  17
ATOM     17  C   UNL     1     -18.698  14.289 -24.884  1.00  0.00     0.000 C 
BRANCH  17  18
ATOM     18  C   UNL     1     -19.370  12.961 -24.484  1.00  0.00    -0.000 C 
BRANCH  18  19
ATOM     19  C   UNL     1     -20.857  12.857 -24.887  1.00  0.00    -0.000 C 
BRANCH  19  20
ATOM     20  C   UNL     1     -21.843  13.073 -23.722  1.00  0.00    -0.000 C 
BRANCH  20  21
ATOM     21  C   UNL     1     -22.270  14.541 -23.526  1.00  0.00    -0.000 C 
BRANCH  21  22
ATOM     22  C   UNL     1     -21.351  15.294 -22.551  1.00  0.00    -0.000 C 
BRANCH  22  23
ATOM     23  C   UNL     1     -20.999  14.419 -21.339  1.00  0.00    -0.000 C 
BRANCH  23  24
ATOM     24  C   UNL     1     -21.139  15.167 -20.001  1.00  0.00    -0.000 C 
BRANCH  24  25
ATOM     25  C   UNL     1     -20.546  16.588 -19.990  1.00  0.00    -0.003 C 
ATOM     26  C   UNL     1     -20.388  17.159 -18.581  1.00  0.00     0.004 C 
ENDBRANCH  24  25
ENDBRANCH  23  24
ENDBRANCH  22  23
ENDBRANCH  21  22
ENDBRANCH  20  21
ENDBRANCH  19  20
ENDBRANCH  18  19
ENDBRANCH  17  18
ENDBRANCH  16  17
ENDBRANCH  15  16
ENDBRANCH   1  15
TORSDOF 22
ENDMDL
MODEL 3
REMARK VINA RESULT:    -2.288      1.906      4.131
REMARK INTER + INTRA:          -9.632
REMARK INTER:                  -5.470
REMARK INTRA:                  -4.162
REMARK UNBOUND:                -4.401
REMARK SMILES CCCCCCCCCCCCCCCCCCCCCCCC(=O)[O-]
REMARK SMILES IDX 13 1 14 2 15 3 16 4 17 5 18 6 19 7 20 8 21 9 22 10 23 11
REMARK SMILES IDX 24 12 25 13 26 14 12 15 11 16 10 17 9 18 8 19 7 20 6 21 5 22
REMARK SMILES IDX 4 23 3 24 2 25 1 26
REMARK H PARENT
REMARK Flexibility Score: inf
ROOT
ATOM      1  C   UNL     1     -18.940  16.102 -17.467  1.00  0.00     0.000 C 
ENDROOT
BRANCH   1   2
ATOM      2  C   UNL     1     -19.100  14.922 -16.493  1.00  0.00     0.000 C 
BRANCH   2   3
ATOM      3  C   UNL     1     -19.150  15.373 -15.024  1.00  0.00     0.000 C 
BRANCH   3   4
ATOM      4  C   UNL     1     -20.575  15.363 -14.452  1.00  0.00     0.000 C 
BRANCH   4   5
ATOM      5  C   UNL     1     -21.132  16.790 -14.339  1.00  0.00     0.000 C 
BRANCH   5   6
ATOM      6  C   UNL     1     -22.439  16.987 -15.126  1.00  0.00     0.000 C 
BRANCH   6   7
ATOM      7  C   UNL     1     -22.289  16.935 -16.659  1.00  0.00     0.000 C 
BRANCH   7   8
ATOM      8  C   UNL     1     -23.133  15.852 -17.360  1.00  0.00     0.000 C 
BRANCH   8   9
ATOM      9  C   UNL     1     -23.398  14.586 -16.521  1.00  0.00     0.000 C 
BRANCH   9  10
ATOM     10  C   UNL     1     -22.655  13.323 -16.994  1.00  0.00     0.006 C 
BRANCH  10  11
ATOM     11  C   UNL     1     -22.350  12.344 -15.853  1.00  0.00     0.053 C 
BRANCH  11  12
ATOM     12  C   UNL     1     -20.967  11.789 -15.990  1.00  0.00     0.041 C 
ATOM     13  O   UNL     1     -20.194  11.762 -14.996  1.00  0.00    -0.550 OA
ATOM     14  O   UNL     1     -20.534  11.293 -17.214  1.00  0.00    -0.550 OA
ENDBRANCH  11  12
ENDBRANCH  10  11
ENDBRANCH   9  10
ENDBRANCH   8   9
ENDBRANCH   7   8
ENDBRANCH   6   7
ENDBRANCH   5   6
ENDBRANCH   4   5
ENDBRANCH   3   4
ENDBRANCH   2   3
ENDBRANCH   1   2
BRANCH   1  15
ATOM     15  C   UNL     1     -19.278  15.705 -18.915  1.00  0.00     0.000 C 
BRANCH  15  16
ATOM     16  C   UNL     1     -19.791  14.253 -19.041  1.00  0.00     0.000 C 
BRANCH  16  17
ATOM     17  C   UNL     1     -20.887  14.069 -20.108  1.00  0.00     0.000 C 
BRANCH  17  18
ATOM     18  C   UNL     1     -21.243  15.342 -20.902  1.00  0.00    -0.000 C 
BRANCH  18  19
ATOM     19  C   UNL     1     -21.605  15.085 -22.380  1.00  0.00    -0.000 C 
BRANCH  19  20
ATOM     20  C   UNL     1     -21.551  13.603 -22.796  1.00  0.00    -0.000 C 
BRANCH  20  21
ATOM     21  C   UNL     1     -21.430  13.382 -24.317  1.00  0.00    -0.000 C 
BRANCH  21  22
ATOM     22  C   UNL     1     -20.056  13.802 -24.863  1.00  0.00    -0.000 C 
BRANCH  22  23
ATOM     23  C   UNL     1     -18.945  12.894 -24.317  1.00  0.00    -0.000 C 
BRANCH  23  24
ATOM     24  C   UNL     1     -17.742  13.683 -23.771  1.00  0.00    -0.000 C 
BRANCH  24  25
ATOM     25  C   UNL     1     -17.923  14.232 -22.344  1.00  0.00    -0.003 C 
ATOM     26  C   UNL     1     -16.949  13.618 -21.338  1.00  0.00     0.004 C 
ENDBRANCH  24  25
ENDBRANCH  23  24
ENDBRANCH  22  23
ENDBRANCH  21  22
ENDBRANCH  20  21
ENDBRANCH  19  20
ENDBRANCH  18  19
ENDBRANCH  17  18
ENDBRANCH  16  17
ENDBRANCH  15  16
ENDBRANCH   1  15
TORSDOF 22
ENDMDL
MODEL 4
REMARK VINA RESULT:    -2.237      3.001      8.016
REMARK INTER + INTRA:          -9.515
REMARK INTER:                  -6.174
REMARK INTRA:                  -3.341
REMARK UNBOUND:                -4.401
REMARK SMILES CCCCCCCCCCCCCCCCCCCCCCCC(=O)[O-]
REMARK SMILES IDX 13 1 14 2 15 3 16 4 17 5 18 6 19 7 20 8 21 9 22 10 23 11
REMARK SMILES IDX 24 12 25 13 26 14 12 15 11 16 10 17 9 18 8 19 7 20 6 21 5 22
REMARK SMILES IDX 4 23 3 24 2 25 1 26
REMARK H PARENT
REMARK Flexibility Score: inf
ROOT
ATOM      1  C   UNL     1     -20.661  15.032 -19.878  1.00  0.00     0.000 C 
ENDROOT
BRANCH   1   2
ATOM      2  C   UNL     1     -20.979  14.386 -21.238  1.00  0.00     0.000 C 
BRANCH   2   3
ATOM      3  C   UNL     1     -21.702  15.349 -22.193  1.00  0.00     0.000 C 
BRANCH   3   4
ATOM      4  C   UNL     1     -22.255  14.641 -23.438  1.00  0.00     0.000 C 
BRANCH   4   5
ATOM      5  C   UNL     1     -21.797  13.175 -23.486  1.00  0.00     0.000 C 
BRANCH   5   6
ATOM      6  C   UNL     1     -21.014  12.833 -24.766  1.00  0.00     0.000 C 
BRANCH   6   7
ATOM      7  C   UNL     1     -19.739  13.670 -24.991  1.00  0.00     0.000 C 
BRANCH   7   8
ATOM      8  C   UNL     1     -18.451  13.065 -24.399  1.00  0.00     0.000 C 
BRANCH   8   9
ATOM      9  C   UNL     1     -18.054  13.605 -23.010  1.00  0.00     0.000 C 
BRANCH   9  10
ATOM     10  C   UNL     1     -17.018  14.743 -23.026  1.00  0.00     0.006 C 
BRANCH  10  11
ATOM     11  C   UNL     1     -17.650  16.125 -23.238  1.00  0.00     0.053 C 
BRANCH  11  12
ATOM     12  C   UNL     1     -18.051  16.728 -21.928  1.00  0.00     0.041 C 
ATOM     13  O   UNL     1     -18.960  17.599 -21.882  1.00  0.00    -0.550 OA
ATOM     14  O   UNL     1     -17.425  16.321 -20.754  1.00  0.00    -0.550 OA
ENDBRANCH  11  12
ENDBRANCH  10  11
ENDBRANCH   9  10
ENDBRANCH   8   9
ENDBRANCH   7   8
ENDBRANCH   6   7
ENDBRANCH   5   6
ENDBRANCH   4   5
ENDBRANCH   3   4
ENDBRANCH   2   3
ENDBRANCH   1   2
BRANCH   1  15
ATOM     15  C   UNL     1     -19.985  14.041 -18.913  1.00  0.00     0.000 C 
BRANCH  15  16
ATOM     16  C   UNL     1     -20.961  12.989 -18.343  1.00  0.00     0.000 C 
BRANCH  16  17
ATOM     17  C   UNL     1     -20.622  12.534 -16.910  1.00  0.00     0.000 C 
BRANCH  17  18
ATOM     18  C   UNL     1     -21.811  11.970 -16.108  1.00  0.00    -0.000 C 
BRANCH  18  19
ATOM     19  C   UNL     1     -21.984  12.597 -14.708  1.00  0.00    -0.000 C 
BRANCH  19  20
ATOM     20  C   UNL     1     -23.413  13.092 -14.410  1.00  0.00    -0.000 C 
BRANCH  20  21
ATOM     21  C   UNL     1     -24.338  13.117 -15.644  1.00  0.00    -0.000 C 
BRANCH  21  22
ATOM     22  C   UNL     1     -25.125  14.431 -15.760  1.00  0.00    -0.000 C 
BRANCH  22  23
ATOM     23  C   UNL     1     -24.196  15.645 -15.610  1.00  0.00    -0.000 C 
BRANCH  23  24
ATOM     24  C   UNL     1     -23.605  16.115 -16.951  1.00  0.00    -0.000 C 
BRANCH  24  25
ATOM     25  C   UNL     1     -22.213  16.765 -16.852  1.00  0.00    -0.003 C 
ATOM     26  C   UNL     1     -21.243  15.972 -15.975  1.00  0.00     0.004 C 
ENDBRANCH  24  25
ENDBRANCH  23  24
ENDBRANCH  22  23
ENDBRANCH  21  22
ENDBRANCH  20  21
ENDBRANCH  19  20
ENDBRANCH  18  19
ENDBRANCH  17  18
ENDBRANCH  16  17
ENDBRANCH  15  16
ENDBRANCH   1  15
TORSDOF 22
ENDMDL
MODEL 5
REMARK VINA RESULT:    -2.226      2.837      7.516
REMARK INTER + INTRA:          -9.490
REMARK INTER:                  -4.877
REMARK INTRA:                  -4.613
REMARK UNBOUND:                -4.401
REMARK SMILES CCCCCCCCCCCCCCCCCCCCCCCC(=O)[O-]
REMARK SMILES IDX 13 1 14 2 15 3 16 4 17 5 18 6 19 7 20 8 21 9 22 10 23 11
REMARK SMILES IDX 24 12 25 13 26 14 12 15 11 16 10 17 9 18 8 19 7 20 6 21 5 22
REMARK SMILES IDX 4 23 3 24 2 25 1 26
REMARK H PARENT
REMARK Flexibility Score: inf
ROOT
ATOM      1  C   UNL     1     -20.101  16.220 -19.809  1.00  0.00     0.000 C 
ENDROOT
BRANCH   1   2
ATOM      2  C   UNL     1     -20.177  17.240 -20.959  1.00  0.00     0.000 C 
BRANCH   2   3
ATOM      3  C   UNL     1     -18.794  17.588 -21.531  1.00  0.00     0.000 C 
BRANCH   3   4
ATOM      4  C   UNL     1     -17.651  16.903 -20.767  1.00  0.00     0.000 C 
BRANCH   4   5
ATOM      5  C   UNL     1     -16.647  16.264 -21.738  1.00  0.00     0.000 C 
BRANCH   5   6
ATOM      6  C   UNL     1     -17.315  15.333 -22.765  1.00  0.00     0.000 C 
BRANCH   6   7
ATOM      7  C   UNL     1     -18.002  14.090 -22.166  1.00  0.00     0.000 C 
BRANCH   7   8
ATOM      8  C   UNL     1     -19.423  13.813 -22.695  1.00  0.00     0.000 C 
BRANCH   8   9
ATOM      9  C   UNL     1     -19.806  14.581 -23.976  1.00  0.00     0.000 C 
BRANCH   9  10
ATOM     10  C   UNL     1     -21.254  14.369 -24.454  1.00  0.00     0.006 C 
BRANCH  10  11
ATOM     11  C   UNL     1     -22.232  14.105 -23.302  1.00  0.00     0.053 C 
BRANCH  11  12
ATOM     12  C   UNL     1     -23.324  15.128 -23.293  1.00  0.00     0.041 C 
ATOM     13  O   UNL     1     -23.242  16.136 -22.542  1.00  0.00    -0.550 OA
ATOM     14  O   UNL     1     -24.430  14.974 -24.122  1.00  0.00    -0.550 OA
ENDBRANCH  11  12
ENDBRANCH  10  11
ENDBRANCH   9  10
ENDBRANCH   8   9
ENDBRANCH   7   8
ENDBRANCH   6   7
ENDBRANCH   5   6
ENDBRANCH   4   5
ENDBRANCH   3   4
ENDBRANCH   2   3
ENDBRANCH   1   2
BRANCH   1  15
ATOM     15  C   UNL     1     -21.259  15.207 -19.859  1.00  0.00     0.000 C 
BRANCH  15  16
ATOM     16  C   UNL     1     -20.889  13.834 -19.255  1.00  0.00     0.000 C 
BRANCH  16  17
ATOM     17  C   UNL     1     -19.472  13.780 -18.652  1.00  0.00     0.000 C 
BRANCH  17  18
ATOM     18  C   UNL     1     -19.302  12.794 -17.479  1.00  0.00    -0.000 C 
BRANCH  18  19
ATOM     19  C   UNL     1     -20.484  11.818 -17.296  1.00  0.00    -0.000 C 
BRANCH  19  20
ATOM     20  C   UNL     1     -21.257  12.003 -15.975  1.00  0.00    -0.000 C 
BRANCH  20  21
ATOM     21  C   UNL     1     -22.637  12.669 -16.145  1.00  0.00    -0.000 C 
BRANCH  21  22
ATOM     22  C   UNL     1     -22.764  13.970 -15.337  1.00  0.00    -0.000 C 
BRANCH  22  23
ATOM     23  C   UNL     1     -23.068  15.162 -16.257  1.00  0.00    -0.000 C 
BRANCH  23  24
ATOM     24  C   UNL     1     -21.851  16.080 -16.467  1.00  0.00    -0.000 C 
BRANCH  24  25
ATOM     25  C   UNL     1     -20.635  15.756 -15.579  1.00  0.00    -0.003 C 
ATOM     26  C   UNL     1     -19.344  16.409 -16.072  1.00  0.00     0.004 C 
ENDBRANCH  24  25
ENDBRANCH  23  24
ENDBRANCH  22  23
ENDBRANCH  21  22
ENDBRANCH  20  21
ENDBRANCH  19  20
ENDBRANCH  18  19
ENDBRANCH  17  18
ENDBRANCH  16  17
ENDBRANCH  15  16
ENDBRANCH   1  15
TORSDOF 22
ENDMDL
MODEL 6
REMARK VINA RESULT:    -2.209     13.328     15.639
REMARK INTER + INTRA:          -9.451
REMARK INTER:                  -5.516
REMARK INTRA:                  -3.935
REMARK UNBOUND:                -4.401
REMARK SMILES CCCCCCCCCCCCCCCCCCCCCCCC(=O)[O-]
REMARK SMILES IDX 13 1 14 2 15 3 16 4 17 5 18 6 19 7 20 8 21 9 22 10 23 11
REMARK SMILES IDX 24 12 25 13 26 14 12 15 11 16 10 17 9 18 8 19 7 20 6 21 5 22
REMARK SMILES IDX 4 23 3 24 2 25 1 26
REMARK H PARENT
REMARK Flexibility Score: inf
ROOT
ATOM      1  C   UNL     1     -22.734  29.183 -21.468  1.00  0.00     0.000 C 
ENDROOT
BRANCH   1   2
ATOM      2  C   UNL     1     -21.420  28.518 -21.021  1.00  0.00     0.000 C 
BRANCH   2   3
ATOM      3  C   UNL     1     -21.656  27.229 -20.217  1.00  0.00     0.000 C 
BRANCH   3   4
ATOM      4  C   UNL     1     -20.467  26.260 -20.294  1.00  0.00     0.000 C 
BRANCH   4   5
ATOM      5  C   UNL     1     -20.052  25.786 -18.893  1.00  0.00     0.000 C 
BRANCH   5   6
ATOM      6  C   UNL     1     -18.527  25.784 -18.687  1.00  0.00     0.000 C 
BRANCH   6   7
ATOM      7  C   UNL     1     -17.843  27.151 -18.882  1.00  0.00     0.000 C 
BRANCH   7   8
ATOM      8  C   UNL     1     -18.399  28.289 -18.005  1.00  0.00     0.000 C 
BRANCH   8   9
ATOM      9  C   UNL     1     -18.661  29.616 -18.746  1.00  0.00     0.000 C 
BRANCH   9  10
ATOM     10  C   UNL     1     -18.112  29.679 -20.183  1.00  0.00     0.006 C 
BRANCH  10  11
ATOM     11  C   UNL     1     -17.159  30.860 -20.409  1.00  0.00     0.053 C 
BRANCH  11  12
ATOM     12  C   UNL     1     -16.356  30.657 -21.656  1.00  0.00     0.041 C 
ATOM     13  O   UNL     1     -15.187  31.119 -21.739  1.00  0.00    -0.550 OA
ATOM     14  O   UNL     1     -16.897  29.950 -22.725  1.00  0.00    -0.550 OA
ENDBRANCH  11  12
ENDBRANCH  10  11
ENDBRANCH   9  10
ENDBRANCH   8   9
ENDBRANCH   7   8
ENDBRANCH   6   7
ENDBRANCH   5   6
ENDBRANCH   4   5
ENDBRANCH   3   4
ENDBRANCH   2   3
ENDBRANCH   1   2
BRANCH   1  15
ATOM     15  C   UNL     1     -23.947  28.255 -21.270  1.00  0.00     0.000 C 
BRANCH  15  16
ATOM     16  C   UNL     1     -25.117  28.938 -20.529  1.00  0.00     0.000 C 
BRANCH  16  17
ATOM     17  C   UNL     1     -25.008  28.870 -18.994  1.00  0.00     0.000 C 
BRANCH  17  18
ATOM     18  C   UNL     1     -24.366  30.106 -18.332  1.00  0.00    -0.000 C 
BRANCH  18  19
ATOM     19  C   UNL     1     -23.580  29.795 -17.040  1.00  0.00    -0.000 C 
BRANCH  19  20
ATOM     20  C   UNL     1     -22.155  29.260 -17.280  1.00  0.00    -0.000 C 
BRANCH  20  21
ATOM     21  C   UNL     1     -21.885  27.885 -16.637  1.00  0.00    -0.000 C 
BRANCH  21  22
ATOM     22  C   UNL     1     -23.168  27.219 -16.117  1.00  0.00    -0.000 C 
BRANCH  22  23
ATOM     23  C   UNL     1     -23.418  25.879 -16.824  1.00  0.00    -0.000 C 
BRANCH  23  24
ATOM     24  C   UNL     1     -23.005  24.666 -15.972  1.00  0.00    -0.000 C 
BRANCH  24  25
ATOM     25  C   UNL     1     -22.417  23.486 -16.768  1.00  0.00    -0.003 C 
ATOM     26  C   UNL     1     -22.697  23.578 -18.268  1.00  0.00     0.004 C 
ENDBRANCH  24  25
ENDBRANCH  23  24
ENDBRANCH  22  23
ENDBRANCH  21  22
ENDBRANCH  20  21
ENDBRANCH  19  20
ENDBRANCH  18  19
ENDBRANCH  17  18
ENDBRANCH  16  17
ENDBRANCH  15  16
ENDBRANCH   1  15
TORSDOF 22
ENDMDL
MODEL 7
REMARK VINA RESULT:    -2.178      2.421      4.194
REMARK INTER + INTRA:          -9.381
REMARK INTER:                  -5.544
REMARK INTRA:                  -3.838
REMARK UNBOUND:                -4.401
REMARK SMILES CCCCCCCCCCCCCCCCCCCCCCCC(=O)[O-]
REMARK SMILES IDX 13 1 14 2 15 3 16 4 17 5 18 6 19 7 20 8 21 9 22 10 23 11
REMARK SMILES IDX 24 12 25 13 26 14 12 15 11 16 10 17 9 18 8 19 7 20 6 21 5 22
REMARK SMILES IDX 4 23 3 24 2 25 1 26
REMARK H PARENT
REMARK Flexibility Score: inf
ROOT
ATOM      1  C   UNL     1     -19.377  14.997 -14.449  1.00  0.00     0.000 C 
ENDROOT
BRANCH   1   2
ATOM      2  C   UNL     1     -19.980  13.805 -13.685  1.00  0.00     0.000 C 
BRANCH   2   3
ATOM      3  C   UNL     1     -19.214  12.496 -13.934  1.00  0.00     0.000 C 
BRANCH   3   4
ATOM      4  C   UNL     1     -20.123  11.369 -14.447  1.00  0.00     0.000 C 
BRANCH   4   5
ATOM      5  C   UNL     1     -20.487  11.586 -15.924  1.00  0.00     0.000 C 
BRANCH   5   6
ATOM      6  C   UNL     1     -21.933  12.078 -16.118  1.00  0.00     0.000 C 
BRANCH   6   7
ATOM      7  C   UNL     1     -22.125  13.097 -17.258  1.00  0.00     0.000 C 
BRANCH   7   8
ATOM      8  C   UNL     1     -22.427  14.538 -16.800  1.00  0.00     0.000 C 
BRANCH   8   9
ATOM      9  C   UNL     1     -21.650  15.638 -17.550  1.00  0.00     0.000 C 
BRANCH   9  10
ATOM     10  C   UNL     1     -22.526  16.638 -18.328  1.00  0.00     0.006 C 
BRANCH  10  11
ATOM     11  C   UNL     1     -21.725  17.485 -19.326  1.00  0.00     0.053 C 
BRANCH  11  12
ATOM     12  C   UNL     1     -22.631  18.079 -20.358  1.00  0.00     0.041 C 
ATOM     13  O   UNL     1     -22.369  19.205 -20.859  1.00  0.00    -0.550 OA
ATOM     14  O   UNL     1     -23.761  17.385 -20.775  1.00  0.00    -0.550 OA
ENDBRANCH  11  12
ENDBRANCH  10  11
ENDBRANCH   9  10
ENDBRANCH   8   9
ENDBRANCH   7   8
ENDBRANCH   6   7
ENDBRANCH   5   6
ENDBRANCH   4   5
ENDBRANCH   3   4
ENDBRANCH   2   3
ENDBRANCH   1   2
BRANCH   1  15
ATOM     15  C   UNL     1     -18.068  14.620 -15.165  1.00  0.00     0.000 C 
BRANCH  15  16
ATOM     16  C   UNL     1     -18.163  14.736 -16.703  1.00  0.00     0.000 C 
BRANCH  16  17
ATOM     17  C   UNL     1     -17.878  13.418 -17.447  1.00  0.00     0.000 C 
BRANCH  17  18
ATOM     18  C   UNL     1     -18.698  13.207 -18.735  1.00  0.00    -0.000 C 
BRANCH  18  19
ATOM     19  C   UNL     1     -18.992  14.504 -19.518  1.00  0.00    -0.000 C 
BRANCH  19  20
ATOM     20  C   UNL     1     -19.441  14.276 -20.974  1.00  0.00    -0.000 C 
BRANCH  20  21
ATOM     21  C   UNL     1     -20.972  14.246 -21.160  1.00  0.00    -0.000 C 
BRANCH  21  22
ATOM     22  C   UNL     1     -21.446  15.197 -22.270  1.00  0.00    -0.000 C 
BRANCH  22  23
ATOM     23  C   UNL     1     -22.321  14.457 -23.293  1.00  0.00    -0.000 C 
BRANCH  23  24
ATOM     24  C   UNL     1     -21.709  13.120 -23.747  1.00  0.00    -0.000 C 
BRANCH  24  25
ATOM     25  C   UNL     1     -20.687  13.232 -24.893  1.00  0.00    -0.003 C 
ATOM     26  C   UNL     1     -19.245  13.017 -24.432  1.00  0.00     0.004 C 
ENDBRANCH  24  25
ENDBRANCH  23  24
ENDBRANCH  22  23
ENDBRANCH  21  22
ENDBRANCH  20  21
ENDBRANCH  19  20
ENDBRANCH  18  19
ENDBRANCH  17  18
ENDBRANCH  16  17
ENDBRANCH  15  16
ENDBRANCH   1  15
TORSDOF 22
ENDMDL
MODEL 8
REMARK VINA RESULT:    -2.178     13.848     16.399
REMARK INTER + INTRA:          -9.380
REMARK INTER:                  -5.791
REMARK INTRA:                  -3.589
REMARK UNBOUND:                -4.401
REMARK SMILES CCCCCCCCCCCCCCCCCCCCCCCC(=O)[O-]
REMARK SMILES IDX 13 1 14 2 15 3 16 4 17 5 18 6 19 7 20 8 21 9 22 10 23 11
REMARK SMILES IDX 24 12 25 13 26 14 12 15 11 16 10 17 9 18 8 19 7 20 6 21 5 22
REMARK SMILES IDX 4 23 3 24 2 25 1 26
REMARK H PARENT
REMARK Flexibility Score: inf
ROOT
ATOM      1  C   UNL     1     -24.896  29.134 -19.576  1.00  0.00     0.000 C 
ENDROOT
BRANCH   1   2
ATOM      2  C   UNL     1     -24.885  29.972 -20.867  1.00  0.00     0.000 C 
BRANCH   2   3
ATOM      3  C   UNL     1     -23.692  29.638 -21.776  1.00  0.00     0.000 C 
BRANCH   3   4
ATOM      4  C   UNL     1     -23.521  28.127 -21.995  1.00  0.00     0.000 C 
BRANCH   4   5
ATOM      5  C   UNL     1     -22.104  27.674 -21.614  1.00  0.00     0.000 C 
BRANCH   5   6
ATOM      6  C   UNL     1     -21.302  28.764 -20.882  1.00  0.00     0.000 C 
BRANCH   6   7
ATOM      7  C   UNL     1     -19.851  28.380 -20.532  1.00  0.00     0.000 C 
BRANCH   7   8
ATOM      8  C   UNL     1     -18.778  28.958 -21.476  1.00  0.00     0.000 C 
BRANCH   8   9
ATOM      9  C   UNL     1     -17.811  29.967 -20.824  1.00  0.00     0.000 C 
BRANCH   9  10
ATOM     10  C   UNL     1     -16.340  29.515 -20.765  1.00  0.00     0.006 C 
BRANCH  10  11
ATOM     11  C   UNL     1     -15.885  28.792 -22.040  1.00  0.00     0.053 C 
BRANCH  11  12
ATOM     12  C   UNL     1     -15.586  29.777 -23.126  1.00  0.00     0.041 C 
ATOM     13  O   UNL     1     -16.069  29.615 -24.278  1.00  0.00    -0.550 OA
ATOM     14  O   UNL     1     -14.780  30.879 -22.864  1.00  0.00    -0.550 OA
ENDBRANCH  11  12
ENDBRANCH  10  11
ENDBRANCH   9  10
ENDBRANCH   8   9
ENDBRANCH   7   8
ENDBRANCH   6   7
ENDBRANCH   5   6
ENDBRANCH   4   5
ENDBRANCH   3   4
ENDBRANCH   2   3
ENDBRANCH   1   2
BRANCH   1  15
ATOM     15  C   UNL     1     -24.340  29.919 -18.374  1.00  0.00     0.000 C 
BRANCH  15  16
ATOM     16  C   UNL     1     -23.079  29.272 -17.758  1.00  0.00     0.000 C 
BRANCH  16  17
ATOM     17  C   UNL     1     -23.198  28.989 -16.249  1.00  0.00     0.000 C 
BRANCH  17  18
ATOM     18  C   UNL     1     -24.186  27.867 -15.872  1.00  0.00    -0.000 C 
BRANCH  18  19
ATOM     19  C   UNL     1     -24.214  26.688 -16.869  1.00  0.00    -0.000 C 
BRANCH  19  20
ATOM     20  C   UNL     1     -22.925  25.844 -16.885  1.00  0.00    -0.000 C 
BRANCH  20  21
ATOM     21  C   UNL     1     -22.167  25.883 -18.228  1.00  0.00    -0.000 C 
BRANCH  21  22
ATOM     22  C   UNL     1     -20.648  25.736 -18.048  1.00  0.00    -0.000 C 
BRANCH  22  23
ATOM     23  C   UNL     1     -20.179  26.414 -16.752  1.00  0.00    -0.000 C 
BRANCH  23  24
ATOM     24  C   UNL     1     -19.175  27.553 -17.003  1.00  0.00    -0.000 C 
BRANCH  24  25
ATOM     25  C   UNL     1     -19.610  28.929 -16.466  1.00  0.00    -0.003 C 
ATOM     26  C   UNL     1     -19.147  30.090 -17.347  1.00  0.00     0.004 C 
ENDBRANCH  24  25
ENDBRANCH  23  24
ENDBRANCH  22  23
ENDBRANCH  21  22
ENDBRANCH  20  21
ENDBRANCH  19  20
ENDBRANCH  18  19
ENDBRANCH  17  18
ENDBRANCH  16  17
ENDBRANCH  15  16
ENDBRANCH   1  15
TORSDOF 22
ENDMDL
MODEL 9
REMARK VINA RESULT:    -2.119      1.775      2.996
REMARK INTER + INTRA:          -9.244
REMARK INTER:                  -5.662
REMARK INTRA:                  -3.583
REMARK UNBOUND:                -4.401
REMARK SMILES CCCCCCCCCCCCCCCCCCCCCCCC(=O)[O-]
REMARK SMILES IDX 13 1 14 2 15 3 16 4 17 5 18 6 19 7 20 8 21 9 22 10 23 11
REMARK SMILES IDX 24 12 25 13 26 14 12 15 11 16 10 17 9 18 8 19 7 20 6 21 5 22
REMARK SMILES IDX 4 23 3 24 2 25 1 26
REMARK H PARENT
REMARK Flexibility Score: inf
ROOT
ATOM      1  C   UNL     1     -18.593  15.676 -21.373  1.00  0.00     0.000 C 
ENDROOT
BRANCH   1   2
ATOM      2  C   UNL     1     -19.896  16.492 -21.312  1.00  0.00     0.000 C 
BRANCH   2   3
ATOM      3  C   UNL     1     -20.607  16.366 -19.955  1.00  0.00     0.000 C 
BRANCH   3   4
ATOM      4  C   UNL     1     -19.823  17.032 -18.815  1.00  0.00     0.000 C 
BRANCH   4   5
ATOM      5  C   UNL     1     -19.826  16.150 -17.557  1.00  0.00     0.000 C 
BRANCH   5   6
ATOM      6  C   UNL     1     -18.585  15.245 -17.457  1.00  0.00     0.000 C 
BRANCH   6   7
ATOM      7  C   UNL     1     -18.883  13.764 -17.152  1.00  0.00     0.000 C 
BRANCH   7   8
ATOM      8  C   UNL     1     -20.227  13.244 -17.699  1.00  0.00     0.000 C 
BRANCH   8   9
ATOM      9  C   UNL     1     -20.858  12.091 -16.894  1.00  0.00     0.000 C 
BRANCH   9  10
ATOM     10  C   UNL     1     -22.186  12.435 -16.194  1.00  0.00     0.006 C 
BRANCH  10  11
ATOM     11  C   UNL     1     -22.476  13.942 -16.170  1.00  0.00     0.053 C 
BRANCH  11  12
ATOM     12  C   UNL     1     -23.951  14.193 -16.143  1.00  0.00     0.041 C 
ATOM     13  O   UNL     1     -24.751  13.252 -15.896  1.00  0.00    -0.550 OA
ATOM     14  O   UNL     1     -24.444  15.472 -16.383  1.00  0.00    -0.550 OA
ENDBRANCH  11  12
ENDBRANCH  10  11
ENDBRANCH   9  10
ENDBRANCH   8   9
ENDBRANCH   7   8
ENDBRANCH   6   7
ENDBRANCH   5   6
ENDBRANCH   4   5
ENDBRANCH   3   4
ENDBRANCH   2   3
ENDBRANCH   1   2
BRANCH   1  15
ATOM     15  C   UNL     1     -18.830  14.185 -21.074  1.00  0.00     0.000 C 
BRANCH  15  16
ATOM     16  C   UNL     1     -17.592  13.484 -20.472  1.00  0.00     0.000 C 
BRANCH  16  17
ATOM     17  C   UNL     1     -16.252  13.982 -21.047  1.00  0.00     0.000 C 
BRANCH  17  18
ATOM     18  C   UNL     1     -15.676  13.125 -22.192  1.00  0.00    -0.000 C 
BRANCH  18  19
ATOM     19  C   UNL     1     -15.745  13.795 -23.581  1.00  0.00    -0.000 C 
BRANCH  19  20
ATOM     20  C   UNL     1     -16.348  12.903 -24.683  1.00  0.00    -0.000 C 
BRANCH  20  21
ATOM     21  C   UNL     1     -17.811  12.489 -24.425  1.00  0.00    -0.000 C 
BRANCH  21  22
ATOM     22  C   UNL     1     -18.787  13.668 -24.563  1.00  0.00    -0.000 C 
BRANCH  22  23
ATOM     23  C   UNL     1     -20.242  13.197 -24.426  1.00  0.00    -0.000 C 
BRANCH  23  24
ATOM     24  C   UNL     1     -21.254  14.355 -24.490  1.00  0.00    -0.000 C 
BRANCH  24  25
ATOM     25  C   UNL     1     -22.128  14.520 -23.232  1.00  0.00    -0.003 C 
ATOM     26  C   UNL     1     -23.485  15.160 -23.526  1.00  0.00     0.004 C 
ENDBRANCH  24  25
ENDBRANCH  23  24
ENDBRANCH  22  23
ENDBRANCH  21  22
ENDBRANCH  20  21
ENDBRANCH  19  20
ENDBRANCH  18  19
ENDBRANCH  17  18
ENDBRANCH  16  17
ENDBRANCH  15  16
ENDBRANCH   1  15
TORSDOF 22
ENDMDL
