MODEL 1
REMARK VINA RESULT:    -6.111      0.000      0.000
REMARK INTER + INTRA:          -7.846
REMARK INTER:                  -8.076
REMARK INTRA:                   0.230
REMARK UNBOUND:                 0.230
REMARK SMILES CC[C@@H](C=C[C@@H](C)[C@H]1CC[C@@H]2[C@H]3CC=C4C[C@@H](O)CC[C@]4(C)[C@H]3CC[C@@]21C)C(C)C
REMARK SMILES IDX 6 1 7 2 5 3 4 4 3 5 2 6 1 7 28 8 29 9 30 10 8 11 9 12 26 13
REMARK SMILES IDX 10 14 11 15 25 16 27 17 12 18 24 19 23 20 13 21 21 22 14 23
REMARK SMILES IDX 15 24 20 25 22 26 16 27 19 28 17 29 18 30
REMARK H PARENT 18 31
REMARK Flexibility Score: inf
ROOT
ATOM      1  C   UNL     1      32.667   9.262 106.109  1.00  0.00     0.012 C 
ATOM      2  C   UNL     1      32.010  10.262 105.133  1.00  0.00     0.012 C 
ENDROOT
BRANCH   1   3
ATOM      3  C   UNL     1      31.632   8.708 107.082  1.00  0.00    -0.028 C 
ATOM      4  C   UNL     1      31.379   7.403 107.321  1.00  0.00    -0.027 C 
BRANCH   4   5
ATOM      5  C   UNL     1      32.000   6.216 106.597  1.00  0.00     0.014 C 
BRANCH   5   6
ATOM      6  C   UNL     1      30.972   5.646 105.585  1.00  0.00     0.004 C 
ATOM      7  C   UNL     1      30.582   6.623 104.472  1.00  0.00     0.004 C 
ENDBRANCH   5   6
BRANCH   5   8
ATOM      8  C   UNL     1      32.438   5.126 107.627  1.00  0.00    -0.011 C 
ATOM      9  C   UNL     1      33.248   3.996 106.962  1.00  0.00     0.008 C 
ATOM     10  C   UNL     1      33.271   5.730 108.770  1.00  0.00     0.008 C 
ENDBRANCH   5   8
ENDBRANCH   4   5
ENDBRANCH   1   3
BRANCH   1  11
ATOM     11  C   UNL     1      33.902   9.934 106.822  1.00  0.00     0.002 C 
ATOM     12  C   UNL     1      34.905   8.898 107.365  1.00  0.00     0.005 C 
ATOM     13  C   UNL     1      34.769  10.966 106.011  1.00  0.00    -0.026 C 
ATOM     14  C   UNL     1      36.184   9.018 106.543  1.00  0.00     0.005 C 
ATOM     15  C   UNL     1      35.964  10.118 105.493  1.00  0.00    -0.001 C 
ATOM     16  C   UNL     1      35.261  12.075 106.990  1.00  0.00     0.007 C 
ATOM     17  C   UNL     1      33.969  11.630 104.864  1.00  0.00     0.012 C 
ATOM     18  C   UNL     1      37.291  10.874 105.167  1.00  0.00     0.000 C 
ATOM     19  C   UNL     1      36.471  12.875 106.485  1.00  0.00     0.005 C 
ATOM     20  C   UNL     1      37.678  11.941 106.220  1.00  0.00     0.003 C 
ATOM     21  C   UNL     1      37.272  11.498 103.763  1.00  0.00     0.031 C 
ATOM     22  C   UNL     1      39.067  12.651 105.868  1.00  0.00    -0.008 C 
ATOM     23  C   UNL     1      38.606  12.080 103.433  1.00  0.00    -0.027 C 
ATOM     24  C   UNL     1      39.408  12.637 104.364  1.00  0.00    -0.065 C 
ATOM     25  C   UNL     1      40.201  11.860 106.601  1.00  0.00     0.014 C 
ATOM     26  C   UNL     1      39.088  14.122 106.367  1.00  0.00     0.016 C 
ATOM     27  C   UNL     1      40.800  13.070 103.945  1.00  0.00     0.063 C 
ATOM     28  C   UNL     1      41.632  12.282 106.209  1.00  0.00     0.033 C 
ATOM     29  C   UNL     1      41.842  12.220 104.687  1.00  0.00     0.118 C 
BRANCH  29  30
ATOM     30  O   UNL     1      43.146  12.623 104.349  1.00  0.00    -0.393 OA
ATOM     31  H   UNL     1      43.727  12.467 105.139  1.00  0.00     0.210 HD
ENDBRANCH  29  30
ENDBRANCH   1  11
TORSDOF 6
ENDMDL
MODEL 2
REMARK VINA RESULT:    -4.430      3.022      8.880
REMARK INTER + INTRA:          -5.624
REMARK INTER:                  -4.544
REMARK INTRA:                  -1.080
REMARK UNBOUND:                 0.230
REMARK SMILES CC[C@@H](C=C[C@@H](C)[C@H]1CC[C@@H]2[C@H]3CC=C4C[C@@H](O)CC[C@]4(C)[C@H]3CC[C@@]21C)C(C)C
REMARK SMILES IDX 6 1 7 2 5 3 4 4 3 5 2 6 1 7 28 8 29 9 30 10 8 11 9 12 26 13
REMARK SMILES IDX 10 14 11 15 25 16 27 17 12 18 24 19 23 20 13 21 21 22 14 23
REMARK SMILES IDX 15 24 20 25 22 26 16 27 19 28 17 29 18 30
REMARK H PARENT 18 31
REMARK Flexibility Score: inf
ROOT
ATOM      1  C   UNL     1      39.222  12.629 105.042  1.00  0.00     0.012 C 
ATOM      2  C   UNL     1      39.459  14.105 105.427  1.00  0.00     0.012 C 
ENDROOT
BRANCH   1   3
ATOM      3  C   UNL     1      40.270  12.166 104.037  1.00  0.00    -0.028 C 
ATOM      4  C   UNL     1      41.574  11.927 104.297  1.00  0.00    -0.027 C 
BRANCH   4   5
ATOM      5  C   UNL     1      42.290  12.167 105.619  1.00  0.00     0.014 C 
BRANCH   5   6
ATOM      6  C   UNL     1      43.764  12.559 105.333  1.00  0.00     0.004 C 
ATOM      7  C   UNL     1      44.002  13.111 103.924  1.00  0.00     0.004 C 
ENDBRANCH   5   6
BRANCH   5   8
ATOM      8  C   UNL     1      42.213  10.890 106.514  1.00  0.00    -0.011 C 
ATOM      9  C   UNL     1      43.604  10.439 107.000  1.00  0.00     0.008 C 
ATOM     10  C   UNL     1      41.306  11.110 107.738  1.00  0.00     0.008 C 
ENDBRANCH   5   8
ENDBRANCH   4   5
ENDBRANCH   1   3
BRANCH   1  11
ATOM     11  C   UNL     1      37.741  12.431 104.539  1.00  0.00     0.002 C 
ATOM     12  C   UNL     1      37.638  11.399 103.401  1.00  0.00     0.005 C 
ATOM     13  C   UNL     1      36.642  12.011 105.582  1.00  0.00    -0.026 C 
ATOM     14  C   UNL     1      36.889  10.185 103.943  1.00  0.00     0.005 C 
ATOM     15  C   UNL     1      36.542  10.469 105.413  1.00  0.00    -0.001 C 
ATOM     16  C   UNL     1      35.299  12.699 105.189  1.00  0.00     0.007 C 
ATOM     17  C   UNL     1      37.013  12.428 107.026  1.00  0.00     0.012 C 
ATOM     18  C   UNL     1      35.200   9.788 105.828  1.00  0.00     0.000 C 
ATOM     19  C   UNL     1      34.050  12.044 105.799  1.00  0.00     0.005 C 
ATOM     20  C   UNL     1      33.939  10.560 105.370  1.00  0.00     0.003 C 
ATOM     21  C   UNL     1      35.133   9.512 107.338  1.00  0.00     0.031 C 
ATOM     22  C   UNL     1      32.592   9.798 105.773  1.00  0.00    -0.008 C 
ATOM     23  C   UNL     1      33.906   8.730 107.671  1.00  0.00    -0.027 C 
ATOM     24  C   UNL     1      32.745   8.876 107.001  1.00  0.00    -0.065 C 
ATOM     25  C   UNL     1      32.183   8.889 104.567  1.00  0.00     0.014 C 
ATOM     26  C   UNL     1      31.439  10.802 106.048  1.00  0.00     0.016 C 
ATOM     27  C   UNL     1      31.604   7.932 107.329  1.00  0.00     0.063 C 
ATOM     28  C   UNL     1      31.017   7.923 104.860  1.00  0.00     0.033 C 
ATOM     29  C   UNL     1      31.296   7.061 106.102  1.00  0.00     0.118 C 
BRANCH  29  30
ATOM     30  O   UNL     1      30.215   6.200 106.361  1.00  0.00    -0.393 OA
ATOM     31  H   UNL     1      29.484   6.740 106.761  1.00  0.00     0.210 HD
ENDBRANCH  29  30
ENDBRANCH   1  11
TORSDOF 6
ENDMDL
MODEL 3
REMARK VINA RESULT:    -4.173      1.700      3.061
REMARK INTER + INTRA:          -5.285
REMARK INTER:                  -4.340
REMARK INTRA:                  -0.945
REMARK UNBOUND:                 0.230
REMARK SMILES CC[C@@H](C=C[C@@H](C)[C@H]1CC[C@@H]2[C@H]3CC=C4C[C@@H](O)CC[C@]4(C)[C@H]3CC[C@@]21C)C(C)C
REMARK SMILES IDX 6 1 7 2 5 3 4 4 3 5 2 6 1 7 28 8 29 9 30 10 8 11 9 12 26 13
REMARK SMILES IDX 10 14 11 15 25 16 27 17 12 18 24 19 23 20 13 21 21 22 14 23
REMARK SMILES IDX 15 24 20 25 22 26 16 27 19 28 17 29 18 30
REMARK H PARENT 18 31
REMARK Flexibility Score: inf
ROOT
ATOM      1  C   UNL     1      33.556   9.812 106.926  1.00  0.00     0.012 C 
ATOM      2  C   UNL     1      33.067   8.545 107.660  1.00  0.00     0.012 C 
ENDROOT
BRANCH   1   3
ATOM      3  C   UNL     1      33.364   9.663 105.421  1.00  0.00    -0.028 C 
ATOM      4  C   UNL     1      32.190   9.726 104.756  1.00  0.00    -0.027 C 
BRANCH   4   5
ATOM      5  C   UNL     1      30.806   9.853 105.378  1.00  0.00     0.014 C 
BRANCH   5   6
ATOM      6  C   UNL     1      29.918   8.682 104.883  1.00  0.00     0.004 C 
ATOM      7  C   UNL     1      30.597   7.310 104.951  1.00  0.00     0.004 C 
ENDBRANCH   5   6
BRANCH   5   8
ATOM      8  C   UNL     1      30.173  11.233 105.007  1.00  0.00    -0.011 C 
ATOM      9  C   UNL     1      28.947  11.560 105.881  1.00  0.00     0.008 C 
ATOM     10  C   UNL     1      31.195  12.376 105.134  1.00  0.00     0.008 C 
ENDBRANCH   5   8
ENDBRANCH   4   5
ENDBRANCH   1   3
BRANCH   1  11
ATOM     11  C   UNL     1      35.042  10.137 107.339  1.00  0.00     0.002 C 
ATOM     12  C   UNL     1      36.001   8.964 107.064  1.00  0.00     0.005 C 
ATOM     13  C   UNL     1      35.739  11.399 106.710  1.00  0.00    -0.026 C 
ATOM     14  C   UNL     1      36.944   9.389 105.942  1.00  0.00     0.005 C 
ATOM     15  C   UNL     1      36.558  10.817 105.524  1.00  0.00    -0.001 C 
ATOM     16  C   UNL     1      36.684  12.027 107.780  1.00  0.00     0.007 C 
ATOM     17  C   UNL     1      34.715  12.470 106.257  1.00  0.00     0.012 C 
ATOM     18  C   UNL     1      37.801  11.630 105.044  1.00  0.00     0.000 C 
ATOM     19  C   UNL     1      37.766  12.952 107.204  1.00  0.00     0.005 C 
ATOM     20  C   UNL     1      38.666  12.191 106.199  1.00  0.00     0.003 C 
ATOM     21  C   UNL     1      37.416  12.759 104.075  1.00  0.00     0.031 C 
ATOM     22  C   UNL     1      39.952  12.971 105.658  1.00  0.00    -0.008 C 
ATOM     23  C   UNL     1      38.639  13.414 103.525  1.00  0.00    -0.027 C 
ATOM     24  C   UNL     1      39.775  13.552 104.239  1.00  0.00    -0.065 C 
ATOM     25  C   UNL     1      41.133  11.947 105.587  1.00  0.00     0.014 C 
ATOM     26  C   UNL     1      40.355  14.125 106.618  1.00  0.00     0.016 C 
ATOM     27  C   UNL     1      41.000  14.105 103.537  1.00  0.00     0.063 C 
ATOM     28  C   UNL     1      42.402  12.479 104.891  1.00  0.00     0.033 C 
ATOM     29  C   UNL     1      42.090  13.023 103.487  1.00  0.00     0.118 C 
BRANCH  29  30
ATOM     30  O   UNL     1      43.255  13.517 102.876  1.00  0.00    -0.393 OA
ATOM     31  H   UNL     1      43.810  13.945 103.579  1.00  0.00     0.210 HD
ENDBRANCH  29  30
ENDBRANCH   1  11
TORSDOF 6
ENDMDL
MODEL 4
REMARK VINA RESULT:    -3.914      3.042      8.803
REMARK INTER + INTRA:          -4.942
REMARK INTER:                  -4.934
REMARK INTRA:                  -0.008
REMARK UNBOUND:                 0.230
REMARK SMILES CC[C@@H](C=C[C@@H](C)[C@H]1CC[C@@H]2[C@H]3CC=C4C[C@@H](O)CC[C@]4(C)[C@H]3CC[C@@]21C)C(C)C
REMARK SMILES IDX 6 1 7 2 5 3 4 4 3 5 2 6 1 7 28 8 29 9 30 10 8 11 9 12 26 13
REMARK SMILES IDX 10 14 11 15 25 16 27 17 12 18 24 19 23 20 13 21 21 22 14 23
REMARK SMILES IDX 15 24 20 25 22 26 16 27 19 28 17 29 18 30
REMARK H PARENT 18 31
REMARK Flexibility Score: inf
ROOT
ATOM      1  C   UNL     1      37.982  12.976 105.976  1.00  0.00     0.012 C 
ATOM      2  C   UNL     1      37.604  13.871 107.176  1.00  0.00     0.012 C 
ENDROOT
BRANCH   1   3
ATOM      3  C   UNL     1      38.938  13.710 105.043  1.00  0.00    -0.028 C 
ATOM      4  C   UNL     1      40.103  13.231 104.556  1.00  0.00    -0.027 C 
BRANCH   4   5
ATOM      5  C   UNL     1      40.754  11.902 104.916  1.00  0.00     0.014 C 
BRANCH   5   6
ATOM      6  C   UNL     1      41.483  12.048 106.277  1.00  0.00     0.004 C 
ATOM      7  C   UNL     1      41.543  10.754 107.095  1.00  0.00     0.004 C 
ENDBRANCH   5   6
BRANCH   5   8
ATOM      8  C   UNL     1      41.747  11.467 103.791  1.00  0.00    -0.011 C 
ATOM      9  C   UNL     1      41.143  10.384 102.875  1.00  0.00     0.008 C 
ATOM     10  C   UNL     1      42.183  12.663 102.927  1.00  0.00     0.008 C 
ENDBRANCH   5   8
ENDBRANCH   4   5
ENDBRANCH   1   3
BRANCH   1  11
ATOM     11  C   UNL     1      36.679  12.456 105.257  1.00  0.00     0.002 C 
ATOM     12  C   UNL     1      36.977  11.361 104.216  1.00  0.00     0.005 C 
ATOM     13  C   UNL     1      35.510  11.883 106.140  1.00  0.00    -0.026 C 
ATOM     14  C   UNL     1      36.386  10.054 104.736  1.00  0.00     0.005 C 
ATOM     15  C   UNL     1      35.734  10.345 106.097  1.00  0.00    -0.001 C 
ATOM     16  C   UNL     1      34.154  12.263 105.471  1.00  0.00     0.007 C 
ATOM     17  C   UNL     1      35.532  12.447 107.581  1.00  0.00     0.012 C 
ATOM     18  C   UNL     1      34.492   9.433 106.346  1.00  0.00     0.000 C 
ATOM     19  C   UNL     1      32.962  11.406 105.924  1.00  0.00     0.005 C 
ATOM     20  C   UNL     1      33.211   9.908 105.619  1.00  0.00     0.003 C 
ATOM     21  C   UNL     1      34.209   9.235 107.843  1.00  0.00     0.031 C 
ATOM     22  C   UNL     1      31.982   8.915 105.863  1.00  0.00    -0.008 C 
ATOM     23  C   UNL     1      33.112   8.243 108.040  1.00  0.00    -0.027 C 
ATOM     24  C   UNL     1      32.083   8.113 107.178  1.00  0.00    -0.065 C 
ATOM     25  C   UNL     1      31.974   7.875 104.694  1.00  0.00     0.014 C 
ATOM     26  C   UNL     1      30.630   9.680 105.853  1.00  0.00     0.016 C 
ATOM     27  C   UNL     1      31.101   6.979 107.398  1.00  0.00     0.063 C 
ATOM     28  C   UNL     1      30.977   6.713 104.877  1.00  0.00     0.033 C 
ATOM     29  C   UNL     1      31.187   5.996 106.222  1.00  0.00     0.118 C 
BRANCH  29  30
ATOM     30  O   UNL     1      30.259   4.951 106.377  1.00  0.00    -0.393 OA
ATOM     31  H   UNL     1      29.434   5.200 105.883  1.00  0.00     0.210 HD
ENDBRANCH  29  30
ENDBRANCH   1  11
TORSDOF 6
ENDMDL
MODEL 5
REMARK VINA RESULT:    -3.340      1.514      2.467
REMARK INTER + INTRA:          -4.183
REMARK INTER:                  -4.159
REMARK INTRA:                  -0.024
REMARK UNBOUND:                 0.230
REMARK SMILES CC[C@@H](C=C[C@@H](C)[C@H]1CC[C@@H]2[C@H]3CC=C4C[C@@H](O)CC[C@]4(C)[C@H]3CC[C@@]21C)C(C)C
REMARK SMILES IDX 6 1 7 2 5 3 4 4 3 5 2 6 1 7 28 8 29 9 30 10 8 11 9 12 26 13
REMARK SMILES IDX 10 14 11 15 25 16 27 17 12 18 24 19 23 20 13 21 21 22 14 23
REMARK SMILES IDX 15 24 20 25 22 26 16 27 19 28 17 29 18 30
REMARK H PARENT 18 31
REMARK Flexibility Score: inf
ROOT
ATOM      1  C   UNL     1      33.025  11.380 105.121  1.00  0.00     0.012 C 
ATOM      2  C   UNL     1      31.664  11.475 105.845  1.00  0.00     0.012 C 
ENDROOT
BRANCH   1   3
ATOM      3  C   UNL     1      33.227   9.983 104.546  1.00  0.00    -0.028 C 
ATOM      4  C   UNL     1      32.652   8.845 104.993  1.00  0.00    -0.027 C 
BRANCH   4   5
ATOM      5  C   UNL     1      31.768   8.704 106.224  1.00  0.00     0.014 C 
BRANCH   5   6
ATOM      6  C   UNL     1      32.641   8.268 107.429  1.00  0.00     0.004 C 
ATOM      7  C   UNL     1      31.909   8.297 108.774  1.00  0.00     0.004 C 
ENDBRANCH   5   6
BRANCH   5   8
ATOM      8  C   UNL     1      30.629   7.669 105.953  1.00  0.00    -0.011 C 
ATOM      9  C   UNL     1      30.267   7.586 104.457  1.00  0.00     0.008 C 
ATOM     10  C   UNL     1      31.011   6.264 106.450  1.00  0.00     0.008 C 
ENDBRANCH   5   8
ENDBRANCH   4   5
ENDBRANCH   1   3
BRANCH   1  11
ATOM     11  C   UNL     1      34.185  11.834 106.087  1.00  0.00     0.002 C 
ATOM     12  C   UNL     1      34.540  10.757 107.129  1.00  0.00     0.005 C 
ATOM     13  C   UNL     1      35.558  12.273 105.458  1.00  0.00    -0.026 C 
ATOM     14  C   UNL     1      35.939  10.242 106.804  1.00  0.00     0.005 C 
ATOM     15  C   UNL     1      36.437  10.995 105.561  1.00  0.00    -0.001 C 
ATOM     16  C   UNL     1      36.153  13.424 106.326  1.00  0.00     0.007 C 
ATOM     17  C   UNL     1      35.404  12.774 104.001  1.00  0.00     0.012 C 
ATOM     18  C   UNL     1      37.986  11.191 105.589  1.00  0.00     0.000 C 
ATOM     19  C   UNL     1      37.663  13.641 106.142  1.00  0.00     0.005 C 
ATOM     20  C   UNL     1      38.452  12.356 106.495  1.00  0.00     0.003 C 
ATOM     21  C   UNL     1      38.577  11.347 104.180  1.00  0.00     0.031 C 
ATOM     22  C   UNL     1      40.046  12.483 106.532  1.00  0.00    -0.008 C 
ATOM     23  C   UNL     1      40.068  11.381 104.240  1.00  0.00    -0.027 C 
ATOM     24  C   UNL     1      40.743  11.924 105.274  1.00  0.00    -0.065 C 
ATOM     25  C   UNL     1      40.560  11.645 107.749  1.00  0.00     0.014 C 
ATOM     26  C   UNL     1      40.487  13.960 106.727  1.00  0.00     0.016 C 
ATOM     27  C   UNL     1      42.252  11.780 105.301  1.00  0.00     0.063 C 
ATOM     28  C   UNL     1      42.093  11.488 107.817  1.00  0.00     0.033 C 
ATOM     29  C   UNL     1      42.660  10.918 106.505  1.00  0.00     0.118 C 
BRANCH  29  30
ATOM     30  O   UNL     1      44.058  10.797 106.581  1.00  0.00    -0.393 OA
ATOM     31  H   UNL     1      44.271  10.203 107.347  1.00  0.00     0.210 HD
ENDBRANCH  29  30
ENDBRANCH   1  11
TORSDOF 6
ENDMDL
