MODEL 1
REMARK VINA RESULT:    -1.340      0.000      0.000
REMARK INTER + INTRA:          -3.603
REMARK INTER:                  -2.124
REMARK INTRA:                  -1.479
REMARK UNBOUND:                -1.479
REMARK SMILES CCCCCCCCCCCC(=O)[O-]
REMARK SMILES IDX 7 1 8 2 9 3 10 4 11 5 12 6 13 7 14 8 6 9 5 10 4 11 3 12 2 13
REMARK SMILES IDX 1 14
REMARK H PARENT
REMARK Flexibility Score: inf
ROOT
ATOM      1  C   UNL     1      30.565  -8.619  16.941  1.00  0.00     0.000 C 
ENDROOT
BRANCH   1   2
ATOM      2  C   UNL     1      31.125 -10.044  17.079  1.00  0.00     0.000 C 
BRANCH   2   3
ATOM      3  C   UNL     1      29.990 -11.070  17.175  1.00  0.00     0.000 C 
BRANCH   3   4
ATOM      4  C   UNL     1      28.665 -10.393  17.544  1.00  0.00     0.006 C 
BRANCH   4   5
ATOM      5  C   UNL     1      28.141 -10.906  18.889  1.00  0.00     0.053 C 
BRANCH   5   6
ATOM      6  C   UNL     1      28.749 -10.133  20.017  1.00  0.00     0.041 C 
ATOM      7  O   UNL     1      29.207 -10.736  21.023  1.00  0.00    -0.550 OA
ATOM      8  O   UNL     1      28.854  -8.751  19.936  1.00  0.00    -0.550 OA
ENDBRANCH   5   6
ENDBRANCH   4   5
ENDBRANCH   3   4
ENDBRANCH   2   3
ENDBRANCH   1   2
BRANCH   1   9
ATOM      9  C   UNL     1      31.054  -7.911  15.667  1.00  0.00     0.000 C 
BRANCH   9  10
ATOM     10  C   UNL     1      29.901  -7.366  14.811  1.00  0.00    -0.000 C 
BRANCH  10  11
ATOM     11  C   UNL     1      29.553  -8.340  13.677  1.00  0.00    -0.000 C 
BRANCH  11  12
ATOM     12  C   UNL     1      30.718  -9.277  13.320  1.00  0.00    -0.000 C 
BRANCH  12  13
ATOM     13  C   UNL     1      30.336 -10.761  13.423  1.00  0.00    -0.003 C 
ATOM     14  C   UNL     1      28.826 -10.931  13.557  1.00  0.00     0.004 C 
ENDBRANCH  12  13
ENDBRANCH  11  12
ENDBRANCH  10  11
ENDBRANCH   9  10
ENDBRANCH   1   9
TORSDOF 10
ENDMDL
MODEL 2
REMARK VINA RESULT:    -1.231      3.127      5.002
REMARK INTER + INTRA:          -3.429
REMARK INTER:                  -2.110
REMARK INTRA:                  -1.319
REMARK UNBOUND:                -1.479
REMARK SMILES CCCCCCCCCCCC(=O)[O-]
REMARK SMILES IDX 7 1 8 2 9 3 10 4 11 5 12 6 13 7 14 8 6 9 5 10 4 11 3 12 2 13
REMARK SMILES IDX 1 14
REMARK H PARENT
REMARK Flexibility Score: inf
ROOT
ATOM      1  C   UNL     1      26.612  -9.646  20.465  1.00  0.00     0.000 C 
ENDROOT
BRANCH   1   2
ATOM      2  C   UNL     1      27.596  -9.639  21.646  1.00  0.00     0.000 C 
BRANCH   2   3
ATOM      3  C   UNL     1      28.813 -10.524  21.349  1.00  0.00     0.000 C 
BRANCH   3   4
ATOM      4  C   UNL     1      30.116  -9.724  21.459  1.00  0.00     0.006 C 
BRANCH   4   5
ATOM      5  C   UNL     1      31.078 -10.374  22.458  1.00  0.00     0.053 C 
BRANCH   5   6
ATOM      6  C   UNL     1      30.679 -10.043  23.862  1.00  0.00     0.041 C 
ATOM      7  O   UNL     1      30.466  -8.847  24.195  1.00  0.00    -0.550 OA
ATOM      8  O   UNL     1      30.493 -11.060  24.790  1.00  0.00    -0.550 OA
ENDBRANCH   5   6
ENDBRANCH   4   5
ENDBRANCH   3   4
ENDBRANCH   2   3
ENDBRANCH   1   2
BRANCH   1   9
ATOM      9  C   UNL     1      26.761 -10.893  19.579  1.00  0.00     0.000 C 
BRANCH   9  10
ATOM     10  C   UNL     1      26.768 -10.558  18.079  1.00  0.00    -0.000 C 
BRANCH  10  11
ATOM     11  C   UNL     1      28.089  -9.887  17.675  1.00  0.00    -0.000 C 
BRANCH  11  12
ATOM     12  C   UNL     1      29.260 -10.879  17.601  1.00  0.00    -0.000 C 
BRANCH  12  13
ATOM     13  C   UNL     1      30.619 -10.212  17.862  1.00  0.00    -0.003 C 
ATOM     14  C   UNL     1      30.482  -8.693  17.918  1.00  0.00     0.004 C 
ENDBRANCH  12  13
ENDBRANCH  11  12
ENDBRANCH  10  11
ENDBRANCH   9  10
ENDBRANCH   1   9
TORSDOF 10
ENDMDL
MODEL 3
REMARK VINA RESULT:    -1.189      1.856      3.190
REMARK INTER + INTRA:          -3.363
REMARK INTER:                  -1.687
REMARK INTRA:                  -1.676
REMARK UNBOUND:                -1.479
REMARK SMILES CCCCCCCCCCCC(=O)[O-]
REMARK SMILES IDX 7 1 8 2 9 3 10 4 11 5 12 6 13 7 14 8 6 9 5 10 4 11 3 12 2 13
REMARK SMILES IDX 1 14
REMARK H PARENT
REMARK Flexibility Score: inf
ROOT
ATOM      1  C   UNL     1      30.073  -9.246  14.374  1.00  0.00     0.000 C 
ENDROOT
BRANCH   1   2
ATOM      2  C   UNL     1      30.956  -9.275  15.631  1.00  0.00     0.000 C 
BRANCH   2   3
ATOM      3  C   UNL     1      30.755 -10.580  16.412  1.00  0.00     0.000 C 
BRANCH   3   4
ATOM      4  C   UNL     1      30.381 -10.296  17.871  1.00  0.00     0.006 C 
BRANCH   4   5
ATOM      5  C   UNL     1      29.163 -11.122  18.297  1.00  0.00     0.053 C 
BRANCH   5   6
ATOM      6  C   UNL     1      28.574 -10.575  19.559  1.00  0.00     0.041 C 
ATOM      7  O   UNL     1      29.323 -10.245  20.516  1.00  0.00    -0.550 OA
ATOM      8  O   UNL     1      27.202 -10.383  19.659  1.00  0.00    -0.550 OA
ENDBRANCH   5   6
ENDBRANCH   4   5
ENDBRANCH   3   4
ENDBRANCH   2   3
ENDBRANCH   1   2
BRANCH   1   9
ATOM      9  C   UNL     1      28.974 -10.321  14.398  1.00  0.00     0.000 C 
BRANCH   9  10
ATOM     10  C   UNL     1      27.559  -9.724  14.380  1.00  0.00    -0.000 C 
BRANCH  10  11
ATOM     11  C   UNL     1      26.866  -9.918  15.736  1.00  0.00    -0.000 C 
BRANCH  11  12
ATOM     12  C   UNL     1      26.477  -8.588  16.400  1.00  0.00    -0.000 C 
BRANCH  12  13
ATOM     13  C   UNL     1      27.683  -7.857  17.011  1.00  0.00    -0.003 C 
ATOM     14  C   UNL     1      27.987  -6.570  16.250  1.00  0.00     0.004 C 
ENDBRANCH  12  13
ENDBRANCH  11  12
ENDBRANCH  10  11
ENDBRANCH   9  10
ENDBRANCH   1   9
TORSDOF 10
ENDMDL
MODEL 4
REMARK VINA RESULT:    -1.106      1.802      3.038
REMARK INTER + INTRA:          -3.231
REMARK INTER:                  -1.867
REMARK INTRA:                  -1.365
REMARK UNBOUND:                -1.479
REMARK SMILES CCCCCCCCCCCC(=O)[O-]
REMARK SMILES IDX 7 1 8 2 9 3 10 4 11 5 12 6 13 7 14 8 6 9 5 10 4 11 3 12 2 13
REMARK SMILES IDX 1 14
REMARK H PARENT
REMARK Flexibility Score: inf
ROOT
ATOM      1  C   UNL     1      31.125 -10.791  14.549  1.00  0.00     0.000 C 
ENDROOT
BRANCH   1   2
ATOM      2  C   UNL     1      30.141 -10.995  15.712  1.00  0.00     0.000 C 
BRANCH   2   3
ATOM      3  C   UNL     1      30.783 -10.599  17.047  1.00  0.00     0.000 C 
BRANCH   3   4
ATOM      4  C   UNL     1      29.758  -9.938  17.976  1.00  0.00     0.006 C 
BRANCH   4   5
ATOM      5  C   UNL     1      28.793 -10.976  18.557  1.00  0.00     0.053 C 
BRANCH   5   6
ATOM      6  C   UNL     1      27.375 -10.547  18.350  1.00  0.00     0.041 C 
ATOM      7  O   UNL     1      26.934 -10.357  17.186  1.00  0.00    -0.550 OA
ATOM      8  O   UNL     1      26.526 -10.405  19.440  1.00  0.00    -0.550 OA
ENDBRANCH   5   6
ENDBRANCH   4   5
ENDBRANCH   3   4
ENDBRANCH   2   3
ENDBRANCH   1   2
BRANCH   1   9
ATOM      9  C   UNL     1      30.520  -9.968  13.400  1.00  0.00     0.000 C 
BRANCH   9  10
ATOM     10  C   UNL     1      29.662  -8.794  13.898  1.00  0.00    -0.000 C 
BRANCH  10  11
ATOM     11  C   UNL     1      30.544  -7.682  14.484  1.00  0.00    -0.000 C 
BRANCH  11  12
ATOM     12  C   UNL     1      29.876  -6.953  15.661  1.00  0.00    -0.000 C 
BRANCH  12  13
ATOM     13  C   UNL     1      28.391  -7.312  15.813  1.00  0.00    -0.003 C 
ATOM     14  C   UNL     1      27.840  -6.816  17.147  1.00  0.00     0.004 C 
ENDBRANCH  12  13
ENDBRANCH  11  12
ENDBRANCH  10  11
ENDBRANCH   9  10
ENDBRANCH   1   9
TORSDOF 10
ENDMDL
MODEL 5
REMARK VINA RESULT:    -1.104      3.442      5.627
REMARK INTER + INTRA:          -3.228
REMARK INTER:                  -1.656
REMARK INTRA:                  -1.572
REMARK UNBOUND:                -1.479
REMARK SMILES CCCCCCCCCCCC(=O)[O-]
REMARK SMILES IDX 7 1 8 2 9 3 10 4 11 5 12 6 13 7 14 8 6 9 5 10 4 11 3 12 2 13
REMARK SMILES IDX 1 14
REMARK H PARENT
REMARK Flexibility Score: inf
ROOT
ATOM      1  C   UNL     1      26.723  -8.908  17.584  1.00  0.00     0.000 C 
ENDROOT
BRANCH   1   2
ATOM      2  C   UNL     1      27.251  -8.067  16.411  1.00  0.00     0.000 C 
BRANCH   2   3
ATOM      3  C   UNL     1      27.362  -8.914  15.137  1.00  0.00     0.000 C 
BRANCH   3   4
ATOM      4  C   UNL     1      28.752  -8.778  14.504  1.00  0.00     0.006 C 
BRANCH   4   5
ATOM      5  C   UNL     1      29.356 -10.152  14.201  1.00  0.00     0.053 C 
BRANCH   5   6
ATOM      6  C   UNL     1      29.695 -10.266  12.749  1.00  0.00     0.041 C 
ATOM      7  O   UNL     1      29.119 -11.125  12.029  1.00  0.00    -0.550 OA
ATOM      8  O   UNL     1      30.611  -9.392  12.177  1.00  0.00    -0.550 OA
ENDBRANCH   5   6
ENDBRANCH   4   5
ENDBRANCH   3   4
ENDBRANCH   2   3
ENDBRANCH   1   2
BRANCH   1   9
ATOM      9  C   UNL     1      27.177 -10.375  17.513  1.00  0.00     0.000 C 
BRANCH   9  10
ATOM     10  C   UNL     1      28.303 -10.697  18.507  1.00  0.00    -0.000 C 
BRANCH  10  11
ATOM     11  C   UNL     1      29.630 -10.935  17.773  1.00  0.00    -0.000 C 
BRANCH  11  12
ATOM     12  C   UNL     1      30.750 -10.000  18.253  1.00  0.00    -0.000 C 
BRANCH  12  13
ATOM     13  C   UNL     1      30.794  -8.678  17.472  1.00  0.00    -0.003 C 
ATOM     14  C   UNL     1      30.424  -7.499  18.367  1.00  0.00     0.004 C 
ENDBRANCH  12  13
ENDBRANCH  11  12
ENDBRANCH  10  11
ENDBRANCH   9  10
ENDBRANCH   1   9
TORSDOF 10
ENDMDL
MODEL 6
REMARK VINA RESULT:    -1.083      1.714      2.874
REMARK INTER + INTRA:          -3.195
REMARK INTER:                  -2.039
REMARK INTRA:                  -1.156
REMARK UNBOUND:                -1.479
REMARK SMILES CCCCCCCCCCCC(=O)[O-]
REMARK SMILES IDX 7 1 8 2 9 3 10 4 11 5 12 6 13 7 14 8 6 9 5 10 4 11 3 12 2 13
REMARK SMILES IDX 1 14
REMARK H PARENT
REMARK Flexibility Score: inf
ROOT
ATOM      1  C   UNL     1      29.697  -9.405  14.369  1.00  0.00     0.000 C 
ENDROOT
BRANCH   1   2
ATOM      2  C   UNL     1      31.007 -10.054  14.844  1.00  0.00     0.000 C 
BRANCH   2   3
ATOM      3  C   UNL     1      30.739 -11.089  15.943  1.00  0.00     0.000 C 
BRANCH   3   4
ATOM      4  C   UNL     1      30.813 -10.447  17.334  1.00  0.00     0.006 C 
BRANCH   4   5
ATOM      5  C   UNL     1      29.595 -10.827  18.180  1.00  0.00     0.053 C 
BRANCH   5   6
ATOM      6  C   UNL     1      28.803  -9.609  18.535  1.00  0.00     0.041 C 
ATOM      7  O   UNL     1      28.620  -8.701  17.681  1.00  0.00    -0.550 OA
ATOM      8  O   UNL     1      28.224  -9.497  19.792  1.00  0.00    -0.550 OA
ENDBRANCH   5   6
ENDBRANCH   4   5
ENDBRANCH   3   4
ENDBRANCH   2   3
ENDBRANCH   1   2
BRANCH   1   9
ATOM      9  C   UNL     1      28.540 -10.412  14.272  1.00  0.00     0.000 C 
BRANCH   9  10
ATOM     10  C   UNL     1      28.347 -10.959  12.849  1.00  0.00    -0.000 C 
BRANCH  10  11
ATOM     11  C   UNL     1      28.694  -9.892  11.801  1.00  0.00    -0.000 C 
BRANCH  11  12
ATOM     12  C   UNL     1      29.679 -10.403  10.738  1.00  0.00    -0.000 C 
BRANCH  12  13
ATOM     13  C   UNL     1      31.110  -9.892  10.963  1.00  0.00    -0.003 C 
ATOM     14  C   UNL     1      31.125  -8.383  11.189  1.00  0.00     0.004 C 
ENDBRANCH  12  13
ENDBRANCH  11  12
ENDBRANCH  10  11
ENDBRANCH   9  10
ENDBRANCH   1   9
TORSDOF 10
ENDMDL
MODEL 7
REMARK VINA RESULT:    -1.059      2.663      5.982
REMARK INTER + INTRA:          -3.157
REMARK INTER:                  -2.006
REMARK INTRA:                  -1.151
REMARK UNBOUND:                -1.479
REMARK SMILES CCCCCCCCCCCC(=O)[O-]
REMARK SMILES IDX 7 1 8 2 9 3 10 4 11 5 12 6 13 7 14 8 6 9 5 10 4 11 3 12 2 13
REMARK SMILES IDX 1 14
REMARK H PARENT
REMARK Flexibility Score: inf
ROOT
ATOM      1  C   UNL     1      28.776 -10.011  17.589  1.00  0.00     0.000 C 
ENDROOT
BRANCH   1   2
ATOM      2  C   UNL     1      30.184 -10.544  17.900  1.00  0.00     0.000 C 
BRANCH   2   3
ATOM      3  C   UNL     1      30.840 -11.125  16.641  1.00  0.00     0.000 C 
BRANCH   3   4
ATOM      4  C   UNL     1      29.972 -10.873  15.402  1.00  0.00     0.006 C 
BRANCH   4   5
ATOM      5  C   UNL     1      30.769 -10.157  14.309  1.00  0.00     0.053 C 
BRANCH   5   6
ATOM      6  C   UNL     1      30.377  -8.715  14.233  1.00  0.00     0.041 C 
ATOM      7  O   UNL     1      29.808  -8.266  13.204  1.00  0.00    -0.550 OA
ATOM      8  O   UNL     1      30.596  -7.877  15.320  1.00  0.00    -0.550 OA
ENDBRANCH   5   6
ENDBRANCH   4   5
ENDBRANCH   3   4
ENDBRANCH   2   3
ENDBRANCH   1   2
BRANCH   1   9
ATOM      9  C   UNL     1      27.774 -10.290  18.721  1.00  0.00     0.000 C 
BRANCH   9  10
ATOM     10  C   UNL     1      28.386 -11.111  19.867  1.00  0.00    -0.000 C 
BRANCH  10  11
ATOM     11  C   UNL     1      28.425 -10.293  21.166  1.00  0.00    -0.000 C 
BRANCH  11  12
ATOM     12  C   UNL     1      29.856 -10.039  21.665  1.00  0.00    -0.000 C 
BRANCH  12  13
ATOM     13  C   UNL     1      30.455  -8.740  21.107  1.00  0.00    -0.003 C 
ATOM     14  C   UNL     1      29.368  -7.699  20.852  1.00  0.00     0.004 C 
ENDBRANCH  12  13
ENDBRANCH  11  12
ENDBRANCH  10  11
ENDBRANCH   9  10
ENDBRANCH   1   9
TORSDOF 10
ENDMDL
