MODEL 1
REMARK VINA RESULT:    -6.176      0.000      0.000
REMARK INTER + INTRA:          -8.693
REMARK INTER:                  -9.064
REMARK INTRA:                   0.371
REMARK UNBOUND:                 0.371
REMARK SMILES O=c1c(O[C@H]2O[C@H](CO)[C@@H](O)[C@H](O)[C@H]2O)c(-c2ccc(O)c(O)c2)oc2cc(O)cc(O)c12
REMARK SMILES IDX 4 1 3 2 16 3 25 4 2 5 26 6 1 7 33 8 27 9 31 10 28 11 30 12
REMARK SMILES IDX 17 13 18 14 19 15 20 16 24 17 22 18 21 19 23 21 32 23 29 25
REMARK SMILES IDX 5 27 14 28 6 29 12 30 7 31 10 32 15 33 13 35 8 37 9 38 11 40
REMARK H PARENT 21 20 23 22 32 24 29 26 15 34 13 36 9 39 11 41
REMARK Flexibility Score: inf
ROOT
ATOM      1  O   UNL     1     -10.512   9.640   4.772  1.00  0.00    -0.454 OA
ENDROOT
BRANCH   1   2
ATOM      2  C   UNL     1     -10.471   8.513   5.618  1.00  0.00     0.214 A 
ATOM      3  C   UNL     1      -9.321   8.321   6.411  1.00  0.00     0.180 A 
ATOM      4  O   UNL     1      -9.212   7.249   7.187  1.00  0.00    -0.452 OA
ATOM      5  C   UNL     1     -11.504   7.549   5.698  1.00  0.00     0.239 A 
ATOM      6  C   UNL     1     -10.156   6.324   7.290  1.00  0.00     0.146 A 
ATOM      7  O   UNL     1     -12.547   7.674   5.004  1.00  0.00    -0.285 OA
ATOM      8  C   UNL     1     -11.355   6.435   6.552  1.00  0.00     0.111 A 
ATOM      9  C   UNL     1      -9.949   5.235   8.142  1.00  0.00     0.094 A 
ATOM     10  C   UNL     1     -12.344   5.429   6.692  1.00  0.00     0.134 A 
ATOM     11  C   UNL     1     -10.928   4.245   8.275  1.00  0.00     0.123 A 
ATOM     12  C   UNL     1     -12.118   4.346   7.553  1.00  0.00     0.093 A 
BRANCH   3  13
ATOM     13  C   UNL     1      -8.194   9.280   6.393  1.00  0.00     0.025 A 
ATOM     14  C   UNL     1      -7.371   9.416   5.264  1.00  0.00     0.016 A 
ATOM     15  C   UNL     1      -6.317  10.332   5.264  1.00  0.00     0.051 A 
ATOM     16  C   UNL     1      -6.082  11.139   6.385  1.00  0.00     0.157 A 
ATOM     17  C   UNL     1      -7.972  10.107   7.506  1.00  0.00     0.062 A 
ATOM     18  C   UNL     1      -6.918  11.028   7.509  1.00  0.00     0.158 A 
BRANCH  16  19
ATOM     19  O   UNL     1      -5.028  12.052   6.383  1.00  0.00    -0.504 OA
ATOM     20  H   UNL     1      -5.095  12.938   5.897  1.00  0.00     0.293 HD
ENDBRANCH  16  19
BRANCH  18  21
ATOM     21  O   UNL     1      -6.717  11.822   8.638  1.00  0.00    -0.504 OA
ATOM     22  H   UNL     1      -7.358  11.814   9.422  1.00  0.00     0.293 HD
ENDBRANCH  18  21
ENDBRANCH   3  13
BRANCH  10  23
ATOM     23  O   UNL     1     -13.545   5.498   5.985  1.00  0.00    -0.507 OA
ATOM     24  H   UNL     1     -14.209   4.731   5.984  1.00  0.00     0.293 HD
ENDBRANCH  10  23
BRANCH  11  25
ATOM     25  O   UNL     1     -10.727   3.158   9.123  1.00  0.00    -0.508 OA
ATOM     26  H   UNL     1     -11.398   2.403   9.185  1.00  0.00     0.293 HD
ENDBRANCH  11  25
ENDBRANCH   1   2
BRANCH   1  27
ATOM     27  C   UNL     1     -10.802  10.994   5.135  1.00  0.00     0.339 C 
ATOM     28  C   UNL     1     -11.942  11.038   6.171  1.00  0.00     0.214 C 
ATOM     29  O   UNL     1     -11.122  11.784   4.000  1.00  0.00    -0.332 OA
ATOM     30  C   UNL     1     -13.265  10.589   5.530  1.00  0.00     0.180 C 
ATOM     31  C   UNL     1     -12.268  11.292   3.321  1.00  0.00     0.179 C 
ATOM     32  C   UNL     1     -13.515  11.371   4.230  1.00  0.00     0.177 C 
BRANCH  28  33
ATOM     33  O   UNL     1     -11.640  10.202   7.258  1.00  0.00    -0.384 OA
ATOM     34  H   UNL     1     -12.224  10.486   8.008  1.00  0.00     0.211 HD
ENDBRANCH  28  33
BRANCH  30  35
ATOM     35  O   UNL     1     -14.328  10.816   6.419  1.00  0.00    -0.387 OA
ATOM     36  H   UNL     1     -14.942  11.459   5.977  1.00  0.00     0.211 HD
ENDBRANCH  30  35
BRANCH  31  37
ATOM     37  C   UNL     1     -12.467  12.125   2.047  1.00  0.00     0.191 C 
BRANCH  37  38
ATOM     38  O   UNL     1     -11.578  11.708   1.046  1.00  0.00    -0.394 OA
ATOM     39  H   UNL     1     -11.358  12.510   0.505  1.00  0.00     0.210 HD
ENDBRANCH  37  38
ENDBRANCH  31  37
BRANCH  32  40
ATOM     40  O   UNL     1     -14.622  10.827   3.558  1.00  0.00    -0.387 OA
ATOM     41  H   UNL     1     -15.207  11.587   3.303  1.00  0.00     0.211 HD
ENDBRANCH  32  40
ENDBRANCH   1  27
TORSDOF 12
ENDMDL
MODEL 2
REMARK VINA RESULT:    -5.897      1.805      5.963
REMARK INTER + INTRA:          -8.283
REMARK INTER:                  -7.630
REMARK INTRA:                  -0.654
REMARK UNBOUND:                 0.371
REMARK SMILES O=c1c(O[C@H]2O[C@H](CO)[C@@H](O)[C@H](O)[C@H]2O)c(-c2ccc(O)c(O)c2)oc2cc(O)cc(O)c12
REMARK SMILES IDX 4 1 3 2 16 3 25 4 2 5 26 6 1 7 33 8 27 9 31 10 28 11 30 12
REMARK SMILES IDX 17 13 18 14 19 15 20 16 24 17 22 18 21 19 23 21 32 23 29 25
REMARK SMILES IDX 5 27 14 28 6 29 12 30 7 31 10 32 15 33 13 35 8 37 9 38 11 40
REMARK H PARENT 21 20 23 22 32 24 29 26 15 34 13 36 9 39 11 41
REMARK Flexibility Score: inf
ROOT
ATOM      1  O   UNL     1     -11.207   8.409   5.459  1.00  0.00    -0.454 OA
ENDROOT
BRANCH   1   2
ATOM      2  C   UNL     1      -9.856   8.697   5.739  1.00  0.00     0.214 A 
ATOM      3  C   UNL     1      -9.149   7.808   6.576  1.00  0.00     0.180 A 
ATOM      4  O   UNL     1      -7.890   8.060   6.911  1.00  0.00    -0.452 OA
ATOM      5  C   UNL     1      -9.175   9.839   5.254  1.00  0.00     0.239 A 
ATOM      6  C   UNL     1      -7.217   9.118   6.479  1.00  0.00     0.146 A 
ATOM      7  O   UNL     1      -9.766  10.665   4.510  1.00  0.00    -0.285 OA
ATOM      8  C   UNL     1      -7.829  10.057   5.620  1.00  0.00     0.111 A 
ATOM      9  C   UNL     1      -5.890   9.291   6.884  1.00  0.00     0.094 A 
ATOM     10  C   UNL     1      -7.077  11.173   5.173  1.00  0.00     0.134 A 
ATOM     11  C   UNL     1      -5.153  10.394   6.440  1.00  0.00     0.123 A 
ATOM     12  C   UNL     1      -5.747  11.327   5.589  1.00  0.00     0.093 A 
BRANCH   3  13
ATOM     13  C   UNL     1      -9.781   6.588   7.125  1.00  0.00     0.025 A 
ATOM     14  C   UNL     1     -10.102   6.485   8.488  1.00  0.00     0.016 A 
ATOM     15  C   UNL     1     -10.706   5.328   8.986  1.00  0.00     0.051 A 
ATOM     16  C   UNL     1     -11.012   4.265   8.126  1.00  0.00     0.157 A 
ATOM     17  C   UNL     1     -10.111   5.532   6.262  1.00  0.00     0.062 A 
ATOM     18  C   UNL     1     -10.717   4.371   6.756  1.00  0.00     0.158 A 
BRANCH  16  19
ATOM     19  O   UNL     1     -11.613   3.110   8.626  1.00  0.00    -0.504 OA
ATOM     20  H   UNL     1     -11.086   2.256   8.766  1.00  0.00     0.293 HD
ENDBRANCH  16  19
BRANCH  18  21
ATOM     21  O   UNL     1     -11.018   3.335   5.872  1.00  0.00    -0.504 OA
ATOM     22  H   UNL     1     -11.946   3.212   5.485  1.00  0.00     0.293 HD
ENDBRANCH  18  21
ENDBRANCH   3  13
BRANCH  10  23
ATOM     23  O   UNL     1      -7.639  12.125   4.322  1.00  0.00    -0.507 OA
ATOM     24  H   UNL     1      -8.068  11.866   3.441  1.00  0.00     0.293 HD
ENDBRANCH  10  23
BRANCH  11  25
ATOM     25  O   UNL     1      -3.830  10.570   6.840  1.00  0.00    -0.508 OA
ATOM     26  H   UNL     1      -3.514  10.293   7.761  1.00  0.00     0.293 HD
ENDBRANCH  11  25
ENDBRANCH   1   2
BRANCH   1  27
ATOM     27  C   UNL     1     -12.313   8.443   6.366  1.00  0.00     0.339 C 
ATOM     28  C   UNL     1     -13.644   8.424   5.589  1.00  0.00     0.214 C 
ATOM     29  O   UNL     1     -12.250   9.568   7.229  1.00  0.00    -0.332 OA
ATOM     30  C   UNL     1     -13.829   9.736   4.812  1.00  0.00     0.180 C 
ATOM     31  C   UNL     1     -12.282  10.789   6.505  1.00  0.00     0.179 C 
ATOM     32  C   UNL     1     -13.621  10.938   5.749  1.00  0.00     0.177 C 
BRANCH  28  33
ATOM     33  O   UNL     1     -13.666   7.341   4.695  1.00  0.00    -0.384 OA
ATOM     34  H   UNL     1     -14.278   7.594   3.955  1.00  0.00     0.211 HD
ENDBRANCH  28  33
BRANCH  30  35
ATOM     35  O   UNL     1     -15.122   9.792   4.268  1.00  0.00    -0.387 OA
ATOM     36  H   UNL     1     -15.019   9.830   3.281  1.00  0.00     0.211 HD
ENDBRANCH  30  35
BRANCH  31  37
ATOM     37  C   UNL     1     -12.085  11.943   7.499  1.00  0.00     0.191 C 
BRANCH  37  38
ATOM     38  O   UNL     1     -10.748  12.004   7.919  1.00  0.00    -0.394 OA
ATOM     39  H   UNL     1     -10.597  11.219   8.507  1.00  0.00     0.210 HD
ENDBRANCH  37  38
ENDBRANCH  31  37
BRANCH  32  40
ATOM     40  O   UNL     1     -13.606  12.125   4.995  1.00  0.00    -0.387 OA
ATOM     41  H   UNL     1     -13.271  11.888   4.091  1.00  0.00     0.211 HD
ENDBRANCH  32  40
ENDBRANCH   1  27
TORSDOF 12
ENDMDL
MODEL 3
REMARK VINA RESULT:    -4.336      1.471      5.777
REMARK INTER + INTRA:          -5.993
REMARK INTER:                  -7.232
REMARK INTRA:                   1.239
REMARK UNBOUND:                 0.371
REMARK SMILES O=c1c(O[C@H]2O[C@H](CO)[C@@H](O)[C@H](O)[C@H]2O)c(-c2ccc(O)c(O)c2)oc2cc(O)cc(O)c12
REMARK SMILES IDX 4 1 3 2 16 3 25 4 2 5 26 6 1 7 33 8 27 9 31 10 28 11 30 12
REMARK SMILES IDX 17 13 18 14 19 15 20 16 24 17 22 18 21 19 23 21 32 23 29 25
REMARK SMILES IDX 5 27 14 28 6 29 12 30 7 31 10 32 15 33 13 35 8 37 9 38 11 40
REMARK H PARENT 21 20 23 22 32 24 29 26 15 34 13 36 9 39 11 41
REMARK Flexibility Score: inf
ROOT
ATOM      1  O   UNL     1      -9.916   7.730   7.238  1.00  0.00    -0.454 OA
ENDROOT
BRANCH   1   2
ATOM      2  C   UNL     1     -10.594   8.567   6.328  1.00  0.00     0.214 A 
ATOM      3  C   UNL     1      -9.909   9.692   5.826  1.00  0.00     0.180 A 
ATOM      4  O   UNL     1     -10.520  10.539   5.006  1.00  0.00    -0.452 OA
ATOM      5  C   UNL     1     -11.931   8.360   5.912  1.00  0.00     0.239 A 
ATOM      6  C   UNL     1     -11.770  10.381   4.592  1.00  0.00     0.146 A 
ATOM      7  O   UNL     1     -12.586   7.373   6.339  1.00  0.00    -0.285 OA
ATOM      8  C   UNL     1     -12.535   9.274   5.023  1.00  0.00     0.111 A 
ATOM      9  C   UNL     1     -12.321  11.325   3.721  1.00  0.00     0.094 A 
ATOM     10  C   UNL     1     -13.866   9.136   4.555  1.00  0.00     0.134 A 
ATOM     11  C   UNL     1     -13.635  11.183   3.264  1.00  0.00     0.123 A 
ATOM     12  C   UNL     1     -14.400  10.092   3.680  1.00  0.00     0.093 A 
BRANCH   3  13
ATOM     13  C   UNL     1      -8.509   9.984   6.205  1.00  0.00     0.025 A 
ATOM     14  C   UNL     1      -7.436   9.593   5.387  1.00  0.00     0.016 A 
ATOM     15  C   UNL     1      -6.122   9.886   5.759  1.00  0.00     0.051 A 
ATOM     16  C   UNL     1      -5.862  10.588   6.943  1.00  0.00     0.157 A 
ATOM     17  C   UNL     1      -8.247  10.709   7.378  1.00  0.00     0.062 A 
ATOM     18  C   UNL     1      -6.932  11.005   7.754  1.00  0.00     0.158 A 
BRANCH  16  19
ATOM     19  O   UNL     1      -4.549  10.877   7.313  1.00  0.00    -0.504 OA
ATOM     20  H   UNL     1      -3.760  10.545   6.771  1.00  0.00     0.293 HD
ENDBRANCH  16  19
BRANCH  18  21
ATOM     21  O   UNL     1      -6.708  11.714   8.934  1.00  0.00    -0.504 OA
ATOM     22  H   UNL     1      -5.864  12.253   9.085  1.00  0.00     0.293 HD
ENDBRANCH  18  21
ENDBRANCH   3  13
BRANCH  10  23
ATOM     23  O   UNL     1     -14.659   8.058   4.951  1.00  0.00    -0.507 OA
ATOM     24  H   UNL     1     -14.272   7.130   5.081  1.00  0.00     0.293 HD
ENDBRANCH  10  23
BRANCH  11  25
ATOM     25  O   UNL     1     -14.189  12.121   2.395  1.00  0.00    -0.508 OA
ATOM     26  H   UNL     1     -14.865  12.804   2.713  1.00  0.00     0.293 HD
ENDBRANCH  11  25
ENDBRANCH   1   2
BRANCH   1  27
ATOM     27  C   UNL     1      -9.042   6.638   6.934  1.00  0.00     0.339 C 
ATOM     28  C   UNL     1      -9.317   6.111   5.512  1.00  0.00     0.214 C 
ATOM     29  O   UNL     1      -9.155   5.594   7.889  1.00  0.00    -0.332 OA
ATOM     30  C   UNL     1     -10.698   5.441   5.449  1.00  0.00     0.180 C 
ATOM     31  C   UNL     1     -10.469   5.060   7.933  1.00  0.00     0.179 C 
ATOM     32  C   UNL     1     -10.837   4.409   6.581  1.00  0.00     0.177 C 
BRANCH  28  33
ATOM     33  O   UNL     1      -9.264   7.166   4.587  1.00  0.00    -0.384 OA
ATOM     34  H   UNL     1      -8.309   7.287   4.346  1.00  0.00     0.211 HD
ENDBRANCH  28  33
BRANCH  30  35
ATOM     35  O   UNL     1     -10.860   4.795   4.213  1.00  0.00    -0.387 OA
ATOM     36  H   UNL     1     -10.437   3.901   4.296  1.00  0.00     0.211 HD
ENDBRANCH  30  35
BRANCH  31  37
ATOM     37  C   UNL     1     -10.533   4.031   9.070  1.00  0.00     0.191 C 
BRANCH  37  38
ATOM     38  O   UNL     1     -11.805   3.441   9.124  1.00  0.00    -0.394 OA
ATOM     39  H   UNL     1     -12.017   3.305  10.084  1.00  0.00     0.210 HD
ENDBRANCH  37  38
ENDBRANCH  31  37
BRANCH  32  40
ATOM     40  O   UNL     1     -12.161   3.940   6.630  1.00  0.00    -0.387 OA
ATOM     41  H   UNL     1     -12.145   2.999   6.310  1.00  0.00     0.211 HD
ENDBRANCH  32  40
ENDBRANCH   1  27
TORSDOF 12
ENDMDL
MODEL 4
REMARK VINA RESULT:    -3.469     17.854     20.722
REMARK INTER + INTRA:          -4.721
REMARK INTER:                  -3.988
REMARK INTRA:                  -0.733
REMARK UNBOUND:                 0.371
REMARK SMILES O=c1c(O[C@H]2O[C@H](CO)[C@@H](O)[C@H](O)[C@H]2O)c(-c2ccc(O)c(O)c2)oc2cc(O)cc(O)c12
REMARK SMILES IDX 4 1 3 2 16 3 25 4 2 5 26 6 1 7 33 8 27 9 31 10 28 11 30 12
REMARK SMILES IDX 17 13 18 14 19 15 20 16 24 17 22 18 21 19 23 21 32 23 29 25
REMARK SMILES IDX 5 27 14 28 6 29 12 30 7 31 10 32 15 33 13 35 8 37 9 38 11 40
REMARK H PARENT 21 20 23 22 32 24 29 26 15 34 13 36 9 39 11 41
REMARK Flexibility Score: inf
ROOT
ATOM      1  O   UNL     1     -10.893  -3.005  -9.239  1.00  0.00    -0.454 OA
ENDROOT
BRANCH   1   2
ATOM      2  C   UNL     1     -11.746  -1.891  -9.383  1.00  0.00     0.214 A 
ATOM      3  C   UNL     1     -13.081  -2.125  -9.769  1.00  0.00     0.180 A 
ATOM      4  O   UNL     1     -13.911  -1.108  -9.968  1.00  0.00    -0.452 OA
ATOM      5  C   UNL     1     -11.333  -0.551  -9.191  1.00  0.00     0.239 A 
ATOM      6  C   UNL     1     -13.564   0.161  -9.799  1.00  0.00     0.146 A 
ATOM      7  O   UNL     1     -10.148  -0.292  -8.853  1.00  0.00    -0.285 OA
ATOM      8  C   UNL     1     -12.253   0.499  -9.394  1.00  0.00     0.111 A 
ATOM      9  C   UNL     1     -14.514   1.161 -10.026  1.00  0.00     0.094 A 
ATOM     10  C   UNL     1     -11.920   1.866  -9.218  1.00  0.00     0.134 A 
ATOM     11  C   UNL     1     -14.178   2.507  -9.851  1.00  0.00     0.123 A 
ATOM     12  C   UNL     1     -12.888   2.854  -9.448  1.00  0.00     0.093 A 
BRANCH   3  13
ATOM     13  C   UNL     1     -13.600  -3.494  -9.989  1.00  0.00     0.025 A 
ATOM     14  C   UNL     1     -14.615  -3.746 -10.925  1.00  0.00     0.016 A 
ATOM     15  C   UNL     1     -15.085  -5.047 -11.123  1.00  0.00     0.051 A 
ATOM     16  C   UNL     1     -14.535  -6.114 -10.402  1.00  0.00     0.157 A 
ATOM     17  C   UNL     1     -13.034  -4.569  -9.285  1.00  0.00     0.062 A 
ATOM     18  C   UNL     1     -13.501  -5.873  -9.482  1.00  0.00     0.158 A 
BRANCH  16  19
ATOM     19  O   UNL     1     -15.008  -7.411 -10.601  1.00  0.00    -0.504 OA
ATOM     20  H   UNL     1     -14.376  -8.190 -10.744  1.00  0.00     0.293 HD
ENDBRANCH  16  19
BRANCH  18  21
ATOM     21  O   UNL     1     -12.926  -6.915  -8.755  1.00  0.00    -0.504 OA
ATOM     22  H   UNL     1     -13.292  -7.211  -7.858  1.00  0.00     0.293 HD
ENDBRANCH  18  21
ENDBRANCH   3  13
BRANCH  10  23
ATOM     23  O   UNL     1     -10.640   2.248  -8.816  1.00  0.00    -0.507 OA
ATOM     24  H   UNL     1     -10.482   3.076  -8.252  1.00  0.00     0.293 HD
ENDBRANCH  10  23
BRANCH  11  25
ATOM     25  O   UNL     1     -15.122   3.508 -10.075  1.00  0.00    -0.508 OA
ATOM     26  H   UNL     1     -15.911   3.363 -10.692  1.00  0.00     0.293 HD
ENDBRANCH  11  25
ENDBRANCH   1   2
BRANCH   1  27
ATOM     27  C   UNL     1      -9.707  -3.098  -8.444  1.00  0.00     0.339 C 
ATOM     28  C   UNL     1      -8.654  -3.973  -9.153  1.00  0.00     0.214 C 
ATOM     29  O   UNL     1      -9.984  -3.598  -7.144  1.00  0.00    -0.332 OA
ATOM     30  C   UNL     1      -9.121  -5.436  -9.203  1.00  0.00     0.180 C 
ATOM     31  C   UNL     1     -10.545  -4.901  -7.189  1.00  0.00     0.179 C 
ATOM     32  C   UNL     1      -9.541  -5.905  -7.799  1.00  0.00     0.177 C 
BRANCH  28  33
ATOM     33  O   UNL     1      -8.437  -3.504 -10.458  1.00  0.00    -0.384 OA
ATOM     34  H   UNL     1      -8.392  -2.514 -10.403  1.00  0.00     0.211 HD
ENDBRANCH  28  33
BRANCH  30  35
ATOM     35  O   UNL     1      -8.080  -6.253  -9.671  1.00  0.00    -0.387 OA
ATOM     36  H   UNL     1      -7.231  -5.862  -9.336  1.00  0.00     0.211 HD
ENDBRANCH  30  35
BRANCH  31  37
ATOM     37  C   UNL     1     -10.926  -5.311  -5.760  1.00  0.00     0.191 C 
BRANCH  37  38
ATOM     38  O   UNL     1     -12.056  -6.142  -5.775  1.00  0.00    -0.394 OA
ATOM     39  H   UNL     1     -12.799  -5.609  -6.160  1.00  0.00     0.210 HD
ENDBRANCH  37  38
ENDBRANCH  31  37
BRANCH  32  40
ATOM     40  O   UNL     1     -10.139  -7.174  -7.887  1.00  0.00    -0.387 OA
ATOM     41  H   UNL     1      -9.612  -7.695  -8.548  1.00  0.00     0.211 HD
ENDBRANCH  32  40
ENDBRANCH   1  27
TORSDOF 12
ENDMDL
