MODEL 1
REMARK VINA RESULT:    -1.458      0.000      0.000
REMARK INTER + INTRA:          -3.211
REMARK INTER:                  -2.480
REMARK INTRA:                  -0.731
REMARK UNBOUND:                -0.731
REMARK SMILES CCCCCCCCCCCCCC(=O)[O-]
REMARK SMILES IDX 8 1 9 2 10 3 11 4 12 5 13 6 14 7 15 8 16 9 7 10 6 11 5 12
REMARK SMILES IDX 4 13 3 14 2 15 1 16
REMARK H PARENT
REMARK Flexibility Score: inf
ROOT
ATOM      1  C   UNL     1      51.003 147.980   1.234  1.00  0.00     0.000 C 
ENDROOT
BRANCH   1   2
ATOM      2  C   UNL     1      52.195 147.128   1.684  1.00  0.00     0.000 C 
BRANCH   2   3
ATOM      3  C   UNL     1      53.133 146.828   0.504  1.00  0.00     0.000 C 
BRANCH   3   4
ATOM      4  C   UNL     1      53.530 148.093  -0.274  1.00  0.00     0.000 C 
BRANCH   4   5
ATOM      5  C   UNL     1      53.011 148.085  -1.720  1.00  0.00     0.006 C 
BRANCH   5   6
ATOM      6  C   UNL     1      54.172 148.125  -2.718  1.00  0.00     0.053 C 
BRANCH   6   7
ATOM      7  C   UNL     1      53.722 147.655  -4.065  1.00  0.00     0.041 C 
ATOM      8  O   UNL     1      52.512 147.372  -4.266  1.00  0.00    -0.550 OA
ATOM      9  O   UNL     1      54.649 147.483  -5.086  1.00  0.00    -0.550 OA
ENDBRANCH   6   7
ENDBRANCH   5   6
ENDBRANCH   4   5
ENDBRANCH   3   4
ENDBRANCH   2   3
ENDBRANCH   1   2
BRANCH   1  10
ATOM     10  C   UNL     1      49.702 147.165   1.263  1.00  0.00     0.000 C 
BRANCH  10  11
ATOM     11  C   UNL     1      48.459 148.029   1.541  1.00  0.00    -0.000 C 
BRANCH  11  12
ATOM     12  C   UNL     1      47.454 148.124   0.375  1.00  0.00    -0.000 C 
BRANCH  12  13
ATOM     13  C   UNL     1      47.088 146.784  -0.289  1.00  0.00    -0.000 C 
BRANCH  13  14
ATOM     14  C   UNL     1      47.064 146.866  -1.824  1.00  0.00    -0.000 C 
BRANCH  14  15
ATOM     15  C   UNL     1      47.847 148.074  -2.361  1.00  0.00    -0.003 C 
ATOM     16  C   UNL     1      48.164 147.961  -3.852  1.00  0.00     0.004 C 
ENDBRANCH  14  15
ENDBRANCH  13  14
ENDBRANCH  12  13
ENDBRANCH  11  12
ENDBRANCH  10  11
ENDBRANCH   1  10
TORSDOF 12
ENDMDL
MODEL 2
REMARK VINA RESULT:    -0.627      3.398      6.297
REMARK INTER + INTRA:          -1.798
REMARK INTER:                  -1.326
REMARK INTRA:                  -0.472
REMARK UNBOUND:                -0.731
REMARK SMILES CCCCCCCCCCCCCC(=O)[O-]
REMARK SMILES IDX 8 1 9 2 10 3 11 4 12 5 13 6 14 7 15 8 16 9 7 10 6 11 5 12
REMARK SMILES IDX 4 13 3 14 2 15 1 16
REMARK H PARENT
REMARK Flexibility Score: inf
ROOT
ATOM      1  C   UNL     1      54.881 147.627  -2.773  1.00  0.00     0.000 C 
ENDROOT
BRANCH   1   2
ATOM      2  C   UNL     1      53.647 147.718  -1.868  1.00  0.00     0.000 C 
BRANCH   2   3
ATOM      3  C   UNL     1      54.051 148.015  -0.416  1.00  0.00     0.000 C 
BRANCH   3   4
ATOM      4  C   UNL     1      53.181 147.267   0.606  1.00  0.00     0.000 C 
BRANCH   4   5
ATOM      5  C   UNL     1      52.016 148.121   1.130  1.00  0.00     0.006 C 
BRANCH   5   6
ATOM      6  C   UNL     1      50.750 147.887   0.299  1.00  0.00     0.053 C 
BRANCH   6   7
ATOM      7  C   UNL     1      49.569 147.672   1.193  1.00  0.00     0.041 C 
ATOM      8  O   UNL     1      49.733 147.261   2.372  1.00  0.00    -0.550 OA
ATOM      9  O   UNL     1      48.284 147.879   0.708  1.00  0.00    -0.550 OA
ENDBRANCH   6   7
ENDBRANCH   5   6
ENDBRANCH   4   5
ENDBRANCH   3   4
ENDBRANCH   2   3
ENDBRANCH   1   2
BRANCH   1  10
ATOM     10  C   UNL     1      54.529 146.975  -4.119  1.00  0.00     0.000 C 
BRANCH  10  11
ATOM     11  C   UNL     1      54.011 147.987  -5.157  1.00  0.00    -0.000 C 
BRANCH  11  12
ATOM     12  C   UNL     1      52.813 147.504  -6.000  1.00  0.00    -0.000 C 
BRANCH  12  13
ATOM     13  C   UNL     1      52.749 148.062  -7.433  1.00  0.00    -0.000 C 
BRANCH  13  14
ATOM     14  C   UNL     1      51.316 148.123  -7.986  1.00  0.00    -0.000 C 
BRANCH  14  15
ATOM     15  C   UNL     1      50.283 147.542  -7.008  1.00  0.00    -0.003 C 
ATOM     16  C   UNL     1      48.873 147.487  -7.597  1.00  0.00     0.004 C 
ENDBRANCH  14  15
ENDBRANCH  13  14
ENDBRANCH  12  13
ENDBRANCH  11  12
ENDBRANCH  10  11
ENDBRANCH   1  10
TORSDOF 12
ENDMDL
MODEL 3
REMARK VINA RESULT:    -0.601      1.567      3.681
REMARK INTER + INTRA:          -1.753
REMARK INTER:                  -1.793
REMARK INTRA:                   0.040
REMARK UNBOUND:                -0.731
REMARK SMILES CCCCCCCCCCCCCC(=O)[O-]
REMARK SMILES IDX 8 1 9 2 10 3 11 4 12 5 13 6 14 7 15 8 16 9 7 10 6 11 5 12
REMARK SMILES IDX 4 13 3 14 2 15 1 16
REMARK H PARENT
REMARK Flexibility Score: inf
ROOT
ATOM      1  C   UNL     1      54.353 147.206  -0.714  1.00  0.00     0.000 C 
ENDROOT
BRANCH   1   2
ATOM      2  C   UNL     1      54.502 148.101  -1.949  1.00  0.00     0.000 C 
BRANCH   2   3
ATOM      3  C   UNL     1      54.814 147.266  -3.200  1.00  0.00     0.000 C 
BRANCH   3   4
ATOM      4  C   UNL     1      54.960 148.125  -4.466  1.00  0.00     0.000 C 
BRANCH   4   5
ATOM      5  C   UNL     1      54.567 147.369  -5.744  1.00  0.00     0.006 C 
BRANCH   5   6
ATOM      6  C   UNL     1      53.476 148.122  -6.511  1.00  0.00     0.053 C 
BRANCH   6   7
ATOM      7  C   UNL     1      52.127 147.816  -5.939  1.00  0.00     0.041 C 
ATOM      8  O   UNL     1      51.973 147.726  -4.693  1.00  0.00    -0.550 OA
ATOM      9  O   UNL     1      51.051 147.582  -6.786  1.00  0.00    -0.550 OA
ENDBRANCH   6   7
ENDBRANCH   5   6
ENDBRANCH   4   5
ENDBRANCH   3   4
ENDBRANCH   2   3
ENDBRANCH   1   2
BRANCH   1  10
ATOM     10  C   UNL     1      52.877 147.062  -0.313  1.00  0.00     0.000 C 
BRANCH  10  11
ATOM     11  C   UNL     1      52.644 147.266   1.194  1.00  0.00    -0.000 C 
BRANCH  11  12
ATOM     12  C   UNL     1      51.409 148.118   1.556  1.00  0.00    -0.000 C 
BRANCH  12  13
ATOM     13  C   UNL     1      50.078 147.633   0.954  1.00  0.00    -0.000 C 
BRANCH  13  14
ATOM     14  C   UNL     1      49.862 148.125  -0.487  1.00  0.00    -0.000 C 
BRANCH  14  15
ATOM     15  C   UNL     1      48.449 147.818  -1.008  1.00  0.00    -0.003 C 
ATOM     16  C   UNL     1      47.420 147.677   0.114  1.00  0.00     0.004 C 
ENDBRANCH  14  15
ENDBRANCH  13  14
ENDBRANCH  12  13
ENDBRANCH  11  12
ENDBRANCH  10  11
ENDBRANCH   1  10
TORSDOF 12
ENDMDL
