MODEL 1
REMARK VINA RESULT:    -4.748      0.000      0.000
REMARK INTER + INTRA:         -10.190
REMARK INTER:                  -9.190
REMARK INTRA:                  -1.000
REMARK UNBOUND:                -1.000
REMARK SMILES CCCCCCCCCCCCCCCCCC(=O)[O-]
REMARK SMILES IDX 10 1 11 2 12 3 13 4 14 5 15 6 16 7 17 8 18 9 19 10 20 11
REMARK SMILES IDX 9 12 8 13 7 14 6 15 5 16 4 17 3 18 2 19 1 20
REMARK H PARENT
REMARK Flexibility Score: inf
ROOT
ATOM      1  C   UNL     1       0.413  -1.676   5.541  1.00  0.00     0.000 C 
ENDROOT
BRANCH   1   2
ATOM      2  C   UNL     1       1.650  -1.136   6.276  1.00  0.00     0.000 C 
BRANCH   2   3
ATOM      3  C   UNL     1       1.684   0.402   6.330  1.00  0.00     0.000 C 
BRANCH   3   4
ATOM      4  C   UNL     1       1.402   0.940   7.749  1.00  0.00     0.000 C 
BRANCH   4   5
ATOM      5  C   UNL     1       1.359   2.477   7.826  1.00  0.00     0.000 C 
BRANCH   5   6
ATOM      6  C   UNL     1       1.308   3.142   6.444  1.00  0.00     0.000 C 
BRANCH   6   7
ATOM      7  C   UNL     1       1.242   4.672   6.571  1.00  0.00     0.006 C 
BRANCH   7   8
ATOM      8  C   UNL     1      -0.173   5.212   6.322  1.00  0.00     0.053 C 
BRANCH   8   9
ATOM      9  C   UNL     1      -0.337   5.721   4.923  1.00  0.00     0.041 C 
ATOM     10  O   UNL     1       0.189   5.105   3.959  1.00  0.00    -0.550 OA
ATOM     11  O   UNL     1      -1.042   6.895   4.687  1.00  0.00    -0.550 OA
ENDBRANCH   8   9
ENDBRANCH   7   8
ENDBRANCH   6   7
ENDBRANCH   5   6
ENDBRANCH   4   5
ENDBRANCH   3   4
ENDBRANCH   2   3
ENDBRANCH   1   2
BRANCH   1  12
ATOM     12  C   UNL     1      -0.532  -2.458   6.466  1.00  0.00     0.000 C 
BRANCH  12  13
ATOM     13  C   UNL     1      -1.866  -2.752   5.764  1.00  0.00    -0.000 C 
BRANCH  13  14
ATOM     14  C   UNL     1      -1.727  -2.838   4.235  1.00  0.00    -0.000 C 
BRANCH  14  15
ATOM     15  C   UNL     1      -2.998  -2.376   3.500  1.00  0.00    -0.000 C 
BRANCH  15  16
ATOM     16  C   UNL     1      -3.666  -1.169   4.178  1.00  0.00    -0.000 C 
BRANCH  16  17
ATOM     17  C   UNL     1      -5.096  -1.471   4.653  1.00  0.00    -0.000 C 
BRANCH  17  18
ATOM     18  C   UNL     1      -5.246  -1.184   6.155  1.00  0.00    -0.000 C 
BRANCH  18  19
ATOM     19  C   UNL     1      -5.636   0.275   6.441  1.00  0.00    -0.003 C 
ATOM     20  C   UNL     1      -6.739   0.395   7.493  1.00  0.00     0.004 C 
ENDBRANCH  18  19
ENDBRANCH  17  18
ENDBRANCH  16  17
ENDBRANCH  15  16
ENDBRANCH  14  15
ENDBRANCH  13  14
ENDBRANCH  12  13
ENDBRANCH   1  12
TORSDOF 16
ENDMDL
MODEL 2
REMARK VINA RESULT:    -4.711      0.936      1.759
REMARK INTER + INTRA:         -10.118
REMARK INTER:                  -9.175
REMARK INTRA:                  -0.943
REMARK UNBOUND:                -1.000
REMARK SMILES CCCCCCCCCCCCCCCCCC(=O)[O-]
REMARK SMILES IDX 10 1 11 2 12 3 13 4 14 5 15 6 16 7 17 8 18 9 19 10 20 11
REMARK SMILES IDX 9 12 8 13 7 14 6 15 5 16 4 17 3 18 2 19 1 20
REMARK H PARENT
REMARK Flexibility Score: inf
ROOT
ATOM      1  C   UNL     1       2.712  -0.932   5.978  1.00  0.00     0.000 C 
ENDROOT
BRANCH   1   2
ATOM      2  C   UNL     1       2.035  -0.412   7.255  1.00  0.00     0.000 C 
BRANCH   2   3
ATOM      3  C   UNL     1       2.424   1.041   7.585  1.00  0.00     0.000 C 
BRANCH   3   4
ATOM      4  C   UNL     1       1.276   2.030   7.293  1.00  0.00     0.000 C 
BRANCH   4   5
ATOM      5  C   UNL     1       0.950   2.959   8.475  1.00  0.00     0.000 C 
BRANCH   5   6
ATOM      6  C   UNL     1       0.085   4.161   8.069  1.00  0.00     0.000 C 
BRANCH   6   7
ATOM      7  C   UNL     1       0.663   4.861   6.831  1.00  0.00     0.006 C 
BRANCH   7   8
ATOM      8  C   UNL     1      -0.147   6.104   6.437  1.00  0.00     0.053 C 
BRANCH   8   9
ATOM      9  C   UNL     1      -0.596   6.048   5.010  1.00  0.00     0.041 C 
ATOM     10  O   UNL     1      -1.491   6.830   4.595  1.00  0.00    -0.550 OA
ATOM     11  O   UNL     1      -0.049   5.107   4.145  1.00  0.00    -0.550 OA
ENDBRANCH   8   9
ENDBRANCH   7   8
ENDBRANCH   6   7
ENDBRANCH   5   6
ENDBRANCH   4   5
ENDBRANCH   3   4
ENDBRANCH   2   3
ENDBRANCH   1   2
BRANCH   1  12
ATOM     12  C   UNL     1       1.833  -1.925   5.203  1.00  0.00     0.000 C 
BRANCH  12  13
ATOM     13  C   UNL     1       0.351  -1.535   5.298  1.00  0.00    -0.000 C 
BRANCH  13  14
ATOM     14  C   UNL     1      -0.553  -2.721   5.675  1.00  0.00    -0.000 C 
BRANCH  14  15
ATOM     15  C   UNL     1      -2.049  -2.391   5.534  1.00  0.00    -0.000 C 
BRANCH  15  16
ATOM     16  C   UNL     1      -2.379  -1.705   4.198  1.00  0.00    -0.000 C 
BRANCH  16  17
ATOM     17  C   UNL     1      -3.886  -1.477   4.004  1.00  0.00    -0.000 C 
BRANCH  17  18
ATOM     18  C   UNL     1      -4.434  -0.506   5.061  1.00  0.00    -0.000 C 
BRANCH  18  19
ATOM     19  C   UNL     1      -5.392  -1.188   6.051  1.00  0.00    -0.003 C 
ATOM     20  C   UNL     1      -6.336  -0.199   6.736  1.00  0.00     0.004 C 
ENDBRANCH  18  19
ENDBRANCH  17  18
ENDBRANCH  16  17
ENDBRANCH  15  16
ENDBRANCH  14  15
ENDBRANCH  13  14
ENDBRANCH  12  13
ENDBRANCH   1  12
TORSDOF 16
ENDMDL
MODEL 3
REMARK VINA RESULT:    -4.632      1.209      2.910
REMARK INTER + INTRA:          -9.965
REMARK INTER:                  -8.603
REMARK INTRA:                  -1.362
REMARK UNBOUND:                -1.000
REMARK SMILES CCCCCCCCCCCCCCCCCC(=O)[O-]
REMARK SMILES IDX 10 1 11 2 12 3 13 4 14 5 15 6 16 7 17 8 18 9 19 10 20 11
REMARK SMILES IDX 9 12 8 13 7 14 6 15 5 16 4 17 3 18 2 19 1 20
REMARK H PARENT
REMARK Flexibility Score: inf
ROOT
ATOM      1  C   UNL     1       3.867  -1.083   7.110  1.00  0.00     0.000 C 
ENDROOT
BRANCH   1   2
ATOM      2  C   UNL     1       3.121  -0.543   8.340  1.00  0.00     0.000 C 
BRANCH   2   3
ATOM      3  C   UNL     1       2.856   0.971   8.257  1.00  0.00     0.000 C 
BRANCH   3   4
ATOM      4  C   UNL     1       1.473   1.286   7.648  1.00  0.00     0.000 C 
BRANCH   4   5
ATOM      5  C   UNL     1       1.480   2.498   6.700  1.00  0.00     0.000 C 
BRANCH   5   6
ATOM      6  C   UNL     1       0.643   3.672   7.227  1.00  0.00     0.000 C 
BRANCH   6   7
ATOM      7  C   UNL     1       1.191   5.013   6.715  1.00  0.00     0.006 C 
BRANCH   7   8
ATOM      8  C   UNL     1       0.075   6.036   6.466  1.00  0.00     0.053 C 
BRANCH   8   9
ATOM      9  C   UNL     1      -0.212   6.202   5.005  1.00  0.00     0.041 C 
ATOM     10  O   UNL     1      -0.682   7.286   4.570  1.00  0.00    -0.550 OA
ATOM     11  O   UNL     1       0.006   5.146   4.129  1.00  0.00    -0.550 OA
ENDBRANCH   8   9
ENDBRANCH   7   8
ENDBRANCH   6   7
ENDBRANCH   5   6
ENDBRANCH   4   5
ENDBRANCH   3   4
ENDBRANCH   2   3
ENDBRANCH   1   2
BRANCH   1  12
ATOM     12  C   UNL     1       3.231  -2.361   6.545  1.00  0.00     0.000 C 
BRANCH  12  13
ATOM     13  C   UNL     1       2.555  -2.085   5.193  1.00  0.00    -0.000 C 
BRANCH  13  14
ATOM     14  C   UNL     1       1.111  -1.575   5.343  1.00  0.00    -0.000 C 
BRANCH  14  15
ATOM     15  C   UNL     1       0.324  -2.340   6.422  1.00  0.00    -0.000 C 
BRANCH  15  16
ATOM     16  C   UNL     1      -1.152  -2.540   6.045  1.00  0.00    -0.000 C 
BRANCH  16  17
ATOM     17  C   UNL     1      -1.393  -2.475   4.529  1.00  0.00    -0.000 C 
BRANCH  17  18
ATOM     18  C   UNL     1      -2.881  -2.669   4.202  1.00  0.00    -0.000 C 
BRANCH  18  19
ATOM     19  C   UNL     1      -3.613  -1.339   3.963  1.00  0.00    -0.003 C 
ATOM     20  C   UNL     1      -4.604  -1.001   5.077  1.00  0.00     0.004 C 
ENDBRANCH  18  19
ENDBRANCH  17  18
ENDBRANCH  16  17
ENDBRANCH  15  16
ENDBRANCH  14  15
ENDBRANCH  13  14
ENDBRANCH  12  13
ENDBRANCH   1  12
TORSDOF 16
ENDMDL
MODEL 4
REMARK VINA RESULT:    -4.621      4.369      5.613
REMARK INTER + INTRA:          -9.943
REMARK INTER:                  -7.674
REMARK INTRA:                  -2.269
REMARK UNBOUND:                -1.000
REMARK SMILES CCCCCCCCCCCCCCCCCC(=O)[O-]
REMARK SMILES IDX 10 1 11 2 12 3 13 4 14 5 15 6 16 7 17 8 18 9 19 10 20 11
REMARK SMILES IDX 9 12 8 13 7 14 6 15 5 16 4 17 3 18 2 19 1 20
REMARK H PARENT
REMARK Flexibility Score: inf
ROOT
ATOM      1  C   UNL     1      -3.200  -5.527   4.487  1.00  0.00     0.000 C 
ENDROOT
BRANCH   1   2
ATOM      2  C   UNL     1      -2.114  -6.223   5.322  1.00  0.00     0.000 C 
BRANCH   2   3
ATOM      3  C   UNL     1      -1.510  -5.303   6.398  1.00  0.00     0.000 C 
BRANCH   3   4
ATOM      4  C   UNL     1      -2.425  -4.101   6.715  1.00  0.00     0.000 C 
BRANCH   4   5
ATOM      5  C   UNL     1      -1.665  -2.771   6.862  1.00  0.00     0.000 C 
BRANCH   5   6
ATOM      6  C   UNL     1      -0.498  -2.639   5.874  1.00  0.00     0.000 C 
BRANCH   6   7
ATOM      7  C   UNL     1       0.638  -1.796   6.473  1.00  0.00     0.006 C 
BRANCH   7   8
ATOM      8  C   UNL     1       1.665  -1.373   5.414  1.00  0.00     0.053 C 
BRANCH   8   9
ATOM      9  C   UNL     1       2.790  -2.356   5.305  1.00  0.00     0.041 C 
ATOM     10  O   UNL     1       3.480  -2.416   4.254  1.00  0.00    -0.550 OA
ATOM     11  O   UNL     1       3.054  -3.231   6.352  1.00  0.00    -0.550 OA
ENDBRANCH   8   9
ENDBRANCH   7   8
ENDBRANCH   6   7
ENDBRANCH   5   6
ENDBRANCH   4   5
ENDBRANCH   3   4
ENDBRANCH   2   3
ENDBRANCH   1   2
BRANCH   1  12
ATOM     12  C   UNL     1      -2.822  -5.407   3.004  1.00  0.00     0.000 C 
BRANCH  12  13
ATOM     13  C   UNL     1      -2.809  -3.936   2.559  1.00  0.00    -0.000 C 
BRANCH  13  14
ATOM     14  C   UNL     1      -3.816  -3.072   3.335  1.00  0.00    -0.000 C 
BRANCH  14  15
ATOM     15  C   UNL     1      -3.261  -1.676   3.670  1.00  0.00    -0.000 C 
BRANCH  15  16
ATOM     16  C   UNL     1      -4.179  -0.887   4.617  1.00  0.00    -0.000 C 
BRANCH  16  17
ATOM     17  C   UNL     1      -5.064  -1.797   5.482  1.00  0.00    -0.000 C 
BRANCH  17  18
ATOM     18  C   UNL     1      -5.309  -1.171   6.863  1.00  0.00    -0.000 C 
BRANCH  18  19
ATOM     19  C   UNL     1      -6.243   0.049   6.802  1.00  0.00    -0.003 C 
ATOM     20  C   UNL     1      -6.666   0.538   8.187  1.00  0.00     0.004 C 
ENDBRANCH  18  19
ENDBRANCH  17  18
ENDBRANCH  16  17
ENDBRANCH  15  16
ENDBRANCH  14  15
ENDBRANCH  13  14
ENDBRANCH  12  13
ENDBRANCH   1  12
TORSDOF 16
ENDMDL
MODEL 5
REMARK VINA RESULT:    -4.611      4.197      5.850
REMARK INTER + INTRA:          -9.924
REMARK INTER:                  -6.905
REMARK INTRA:                  -3.019
REMARK UNBOUND:                -1.000
REMARK SMILES CCCCCCCCCCCCCCCCCC(=O)[O-]
REMARK SMILES IDX 10 1 11 2 12 3 13 4 14 5 15 6 16 7 17 8 18 9 19 10 20 11
REMARK SMILES IDX 9 12 8 13 7 14 6 15 5 16 4 17 3 18 2 19 1 20
REMARK H PARENT
REMARK Flexibility Score: inf
ROOT
ATOM      1  C   UNL     1      -5.147  -2.321   6.039  1.00  0.00     0.000 C 
ENDROOT
BRANCH   1   2
ATOM      2  C   UNL     1      -4.312  -2.867   7.208  1.00  0.00     0.000 C 
BRANCH   2   3
ATOM      3  C   UNL     1      -3.524  -4.136   6.833  1.00  0.00     0.000 C 
BRANCH   3   4
ATOM      4  C   UNL     1      -1.998  -3.918   6.919  1.00  0.00     0.000 C 
BRANCH   4   5
ATOM      5  C   UNL     1      -1.603  -2.595   7.598  1.00  0.00     0.000 C 
BRANCH   5   6
ATOM      6  C   UNL     1      -0.115  -2.257   7.424  1.00  0.00     0.000 C 
BRANCH   6   7
ATOM      7  C   UNL     1       0.323  -2.439   5.963  1.00  0.00     0.006 C 
BRANCH   7   8
ATOM      8  C   UNL     1       1.159  -1.256   5.458  1.00  0.00     0.053 C 
BRANCH   8   9
ATOM      9  C   UNL     1       2.624  -1.569   5.457  1.00  0.00     0.041 C 
ATOM     10  O   UNL     1       3.366  -1.137   6.377  1.00  0.00    -0.550 OA
ATOM     11  O   UNL     1       3.176  -2.310   4.419  1.00  0.00    -0.550 OA
ENDBRANCH   8   9
ENDBRANCH   7   8
ENDBRANCH   6   7
ENDBRANCH   5   6
ENDBRANCH   4   5
ENDBRANCH   3   4
ENDBRANCH   2   3
ENDBRANCH   1   2
BRANCH   1  12
ATOM     12  C   UNL     1      -4.544  -1.050   5.423  1.00  0.00     0.000 C 
BRANCH  12  13
ATOM     13  C   UNL     1      -4.045  -1.317   3.995  1.00  0.00    -0.000 C 
BRANCH  13  14
ATOM     14  C   UNL     1      -2.550  -1.675   3.945  1.00  0.00    -0.000 C 
BRANCH  14  15
ATOM     15  C   UNL     1      -2.303  -3.103   3.426  1.00  0.00    -0.000 C 
BRANCH  15  16
ATOM     16  C   UNL     1      -3.518  -3.680   2.683  1.00  0.00    -0.000 C 
BRANCH  16  17
ATOM     17  C   UNL     1      -4.038  -4.981   3.315  1.00  0.00    -0.000 C 
BRANCH  17  18
ATOM     18  C   UNL     1      -5.569  -4.957   3.437  1.00  0.00    -0.000 C 
BRANCH  18  19
ATOM     19  C   UNL     1      -6.237  -4.114   2.339  1.00  0.00    -0.003 C 
ATOM     20  C   UNL     1      -7.132  -3.011   2.903  1.00  0.00     0.004 C 
ENDBRANCH  18  19
ENDBRANCH  17  18
ENDBRANCH  16  17
ENDBRANCH  15  16
ENDBRANCH  14  15
ENDBRANCH  13  14
ENDBRANCH  12  13
ENDBRANCH   1  12
TORSDOF 16
ENDMDL
MODEL 6
REMARK VINA RESULT:    -4.517      1.574      3.410
REMARK INTER + INTRA:          -9.742
REMARK INTER:                  -8.632
REMARK INTRA:                  -1.110
REMARK UNBOUND:                -1.000
REMARK SMILES CCCCCCCCCCCCCCCCCC(=O)[O-]
REMARK SMILES IDX 10 1 11 2 12 3 13 4 14 5 15 6 16 7 17 8 18 9 19 10 20 11
REMARK SMILES IDX 9 12 8 13 7 14 6 15 5 16 4 17 3 18 2 19 1 20
REMARK H PARENT
REMARK Flexibility Score: inf
ROOT
ATOM      1  C   UNL     1       1.444   1.147   8.255  1.00  0.00     0.000 C 
ENDROOT
BRANCH   1   2
ATOM      2  C   UNL     1       1.935   2.012   7.084  1.00  0.00     0.000 C 
BRANCH   2   3
ATOM      3  C   UNL     1       1.107   3.298   6.908  1.00  0.00     0.000 C 
BRANCH   3   4
ATOM      4  C   UNL     1       0.298   3.647   8.175  1.00  0.00     0.000 C 
BRANCH   4   5
ATOM      5  C   UNL     1       0.313   5.146   8.521  1.00  0.00     0.000 C 
BRANCH   5   6
ATOM      6  C   UNL     1      -1.096   5.739   8.667  1.00  0.00     0.000 C 
BRANCH   6   7
ATOM      7  C   UNL     1      -1.575   6.352   7.343  1.00  0.00     0.006 C 
BRANCH   7   8
ATOM      8  C   UNL     1      -0.406   6.763   6.438  1.00  0.00     0.053 C 
BRANCH   8   9
ATOM      9  C   UNL     1      -0.700   6.500   4.993  1.00  0.00     0.041 C 
ATOM     10  O   UNL     1      -0.293   5.442   4.446  1.00  0.00    -0.550 OA
ATOM     11  O   UNL     1      -1.393   7.441   4.242  1.00  0.00    -0.550 OA
ENDBRANCH   8   9
ENDBRANCH   7   8
ENDBRANCH   6   7
ENDBRANCH   5   6
ENDBRANCH   4   5
ENDBRANCH   3   4
ENDBRANCH   2   3
ENDBRANCH   1   2
BRANCH   1  12
ATOM     12  C   UNL     1       1.463  -0.355   7.931  1.00  0.00     0.000 C 
BRANCH  12  13
ATOM     13  C   UNL     1       2.404  -0.649   6.752  1.00  0.00    -0.000 C 
BRANCH  13  14
ATOM     14  C   UNL     1       1.685  -1.326   5.573  1.00  0.00    -0.000 C 
BRANCH  14  15
ATOM     15  C   UNL     1       0.320  -1.913   5.972  1.00  0.00    -0.000 C 
BRANCH  15  16
ATOM     16  C   UNL     1      -0.739  -1.749   4.870  1.00  0.00    -0.000 C 
BRANCH  16  17
ATOM     17  C   UNL     1      -1.613  -3.000   4.695  1.00  0.00    -0.000 C 
BRANCH  17  18
ATOM     18  C   UNL     1      -2.520  -2.867   3.463  1.00  0.00    -0.000 C 
BRANCH  18  19
ATOM     19  C   UNL     1      -3.972  -2.525   3.832  1.00  0.00    -0.003 C 
ATOM     20  C   UNL     1      -4.165  -1.044   4.161  1.00  0.00     0.004 C 
ENDBRANCH  18  19
ENDBRANCH  17  18
ENDBRANCH  16  17
ENDBRANCH  15  16
ENDBRANCH  14  15
ENDBRANCH  13  14
ENDBRANCH  12  13
ENDBRANCH   1  12
TORSDOF 16
ENDMDL
MODEL 7
REMARK VINA RESULT:    -4.511      4.590      6.359
REMARK INTER + INTRA:          -9.731
REMARK INTER:                  -7.286
REMARK INTRA:                  -2.445
REMARK UNBOUND:                -1.000
REMARK SMILES CCCCCCCCCCCCCCCCCC(=O)[O-]
REMARK SMILES IDX 10 1 11 2 12 3 13 4 14 5 15 6 16 7 17 8 18 9 19 10 20 11
REMARK SMILES IDX 9 12 8 13 7 14 6 15 5 16 4 17 3 18 2 19 1 20
REMARK H PARENT
REMARK Flexibility Score: inf
ROOT
ATOM      1  C   UNL     1      -4.947  -3.126   6.338  1.00  0.00     0.000 C 
ENDROOT
BRANCH   1   2
ATOM      2  C   UNL     1      -3.940  -4.266   6.555  1.00  0.00     0.000 C 
BRANCH   2   3
ATOM      3  C   UNL     1      -2.648  -3.794   7.247  1.00  0.00     0.000 C 
BRANCH   3   4
ATOM      4  C   UNL     1      -1.383  -4.319   6.535  1.00  0.00     0.000 C 
BRANCH   4   5
ATOM      5  C   UNL     1      -0.158  -3.403   6.703  1.00  0.00     0.000 C 
BRANCH   5   6
ATOM      6  C   UNL     1      -0.240  -2.134   5.844  1.00  0.00     0.000 C 
BRANCH   6   7
ATOM      7  C   UNL     1       1.138  -1.762   5.277  1.00  0.00     0.006 C 
BRANCH   7   8
ATOM      8  C   UNL     1       2.284  -2.307   6.139  1.00  0.00     0.053 C 
BRANCH   8   9
ATOM      9  C   UNL     1       3.618  -2.093   5.492  1.00  0.00     0.041 C 
ATOM     10  O   UNL     1       4.585  -1.649   6.165  1.00  0.00    -0.550 OA
ATOM     11  O   UNL     1       3.784  -2.350   4.137  1.00  0.00    -0.550 OA
ENDBRANCH   8   9
ENDBRANCH   7   8
ENDBRANCH   6   7
ENDBRANCH   5   6
ENDBRANCH   4   5
ENDBRANCH   3   4
ENDBRANCH   2   3
ENDBRANCH   1   2
BRANCH   1  12
ATOM     12  C   UNL     1      -4.303  -1.736   6.451  1.00  0.00     0.000 C 
BRANCH  12  13
ATOM     13  C   UNL     1      -4.834  -0.795   5.360  1.00  0.00    -0.000 C 
BRANCH  13  14
ATOM     14  C   UNL     1      -4.398  -1.216   3.947  1.00  0.00    -0.000 C 
BRANCH  14  15
ATOM     15  C   UNL     1      -2.919  -1.634   3.886  1.00  0.00    -0.000 C 
BRANCH  15  16
ATOM     16  C   UNL     1      -2.721  -3.016   3.242  1.00  0.00    -0.000 C 
BRANCH  16  17
ATOM     17  C   UNL     1      -4.042  -3.651   2.781  1.00  0.00    -0.000 C 
BRANCH  17  18
ATOM     18  C   UNL     1      -3.937  -5.183   2.767  1.00  0.00    -0.000 C 
BRANCH  18  19
ATOM     19  C   UNL     1      -2.640  -5.693   3.414  1.00  0.00    -0.003 C 
ATOM     20  C   UNL     1      -2.320  -7.140   3.036  1.00  0.00     0.004 C 
ENDBRANCH  18  19
ENDBRANCH  17  18
ENDBRANCH  16  17
ENDBRANCH  15  16
ENDBRANCH  14  15
ENDBRANCH  13  14
ENDBRANCH  12  13
ENDBRANCH   1  12
TORSDOF 16
ENDMDL
MODEL 8
REMARK VINA RESULT:    -4.507      4.202      7.460
REMARK INTER + INTRA:          -9.723
REMARK INTER:                  -8.258
REMARK INTRA:                  -1.465
REMARK UNBOUND:                -1.000
REMARK SMILES CCCCCCCCCCCCCCCCCC(=O)[O-]
REMARK SMILES IDX 10 1 11 2 12 3 13 4 14 5 15 6 16 7 17 8 18 9 19 10 20 11
REMARK SMILES IDX 9 12 8 13 7 14 6 15 5 16 4 17 3 18 2 19 1 20
REMARK H PARENT
REMARK Flexibility Score: inf
ROOT
ATOM      1  C   UNL     1      -4.101  -2.520   3.415  1.00  0.00     0.000 C 
ENDROOT
BRANCH   1   2
ATOM      2  C   UNL     1      -4.080  -1.165   4.139  1.00  0.00     0.000 C 
BRANCH   2   3
ATOM      3  C   UNL     1      -4.457  -1.281   5.628  1.00  0.00     0.000 C 
BRANCH   3   4
ATOM      4  C   UNL     1      -4.256  -2.713   6.168  1.00  0.00     0.000 C 
BRANCH   4   5
ATOM      5  C   UNL     1      -3.071  -2.843   7.141  1.00  0.00     0.000 C 
BRANCH   5   6
ATOM      6  C   UNL     1      -1.820  -3.439   6.481  1.00  0.00     0.000 C 
BRANCH   6   7
ATOM      7  C   UNL     1      -0.622  -2.487   6.611  1.00  0.00     0.006 C 
BRANCH   7   8
ATOM      8  C   UNL     1      -0.149  -1.962   5.249  1.00  0.00     0.053 C 
BRANCH   8   9
ATOM      9  C   UNL     1       1.251  -1.434   5.311  1.00  0.00     0.041 C 
ATOM     10  O   UNL     1       2.201  -2.095   4.815  1.00  0.00    -0.550 OA
ATOM     11  O   UNL     1       1.513  -0.227   5.949  1.00  0.00    -0.550 OA
ENDBRANCH   8   9
ENDBRANCH   7   8
ENDBRANCH   6   7
ENDBRANCH   5   6
ENDBRANCH   4   5
ENDBRANCH   3   4
ENDBRANCH   2   3
ENDBRANCH   1   2
BRANCH   1  12
ATOM     12  C   UNL     1      -2.699  -2.994   3.003  1.00  0.00     0.000 C 
BRANCH  12  13
ATOM     13  C   UNL     1      -2.733  -4.453   2.522  1.00  0.00    -0.000 C 
BRANCH  13  14
ATOM     14  C   UNL     1      -3.865  -4.721   1.516  1.00  0.00    -0.000 C 
BRANCH  14  15
ATOM     15  C   UNL     1      -3.352  -5.331   0.199  1.00  0.00    -0.000 C 
BRANCH  15  16
ATOM     16  C   UNL     1      -2.004  -4.738  -0.241  1.00  0.00    -0.000 C 
BRANCH  16  17
ATOM     17  C   UNL     1      -1.655  -5.074  -1.699  1.00  0.00    -0.000 C 
BRANCH  17  18
ATOM     18  C   UNL     1      -0.328  -4.419  -2.110  1.00  0.00    -0.000 C 
BRANCH  18  19
ATOM     19  C   UNL     1      -0.338  -3.927  -3.566  1.00  0.00    -0.003 C 
ATOM     20  C   UNL     1      -1.008  -2.562  -3.725  1.00  0.00     0.004 C 
ENDBRANCH  18  19
ENDBRANCH  17  18
ENDBRANCH  16  17
ENDBRANCH  15  16
ENDBRANCH  14  15
ENDBRANCH  13  14
ENDBRANCH  12  13
ENDBRANCH   1  12
TORSDOF 16
ENDMDL
MODEL 9
REMARK VINA RESULT:    -4.370      4.898      8.318
REMARK INTER + INTRA:          -9.457
REMARK INTER:                  -7.534
REMARK INTRA:                  -1.923
REMARK UNBOUND:                -1.000
REMARK SMILES CCCCCCCCCCCCCCCCCC(=O)[O-]
REMARK SMILES IDX 10 1 11 2 12 3 13 4 14 5 15 6 16 7 17 8 18 9 19 10 20 11
REMARK SMILES IDX 9 12 8 13 7 14 6 15 5 16 4 17 3 18 2 19 1 20
REMARK H PARENT
REMARK Flexibility Score: inf
ROOT
ATOM      1  C   UNL     1      -5.082  -1.485   7.751  1.00  0.00     0.000 C 
ENDROOT
BRANCH   1   2
ATOM      2  C   UNL     1      -5.909  -1.029   6.539  1.00  0.00     0.000 C 
BRANCH   2   3
ATOM      3  C   UNL     1      -5.391  -1.614   5.212  1.00  0.00     0.000 C 
BRANCH   3   4
ATOM      4  C   UNL     1      -4.275  -0.747   4.591  1.00  0.00     0.000 C 
BRANCH   4   5
ATOM      5  C   UNL     1      -3.297  -1.543   3.710  1.00  0.00     0.000 C 
BRANCH   5   6
ATOM      6  C   UNL     1      -3.785  -2.969   3.414  1.00  0.00     0.000 C 
BRANCH   6   7
ATOM      7  C   UNL     1      -2.609  -3.889   3.053  1.00  0.00     0.006 C 
BRANCH   7   8
ATOM      8  C   UNL     1      -3.068  -5.321   2.749  1.00  0.00     0.053 C 
BRANCH   8   9
ATOM      9  C   UNL     1      -3.379  -5.510   1.295  1.00  0.00     0.041 C 
ATOM     10  O   UNL     1      -4.352  -4.908   0.772  1.00  0.00    -0.550 OA
ATOM     11  O   UNL     1      -2.613  -6.378   0.527  1.00  0.00    -0.550 OA
ENDBRANCH   8   9
ENDBRANCH   7   8
ENDBRANCH   6   7
ENDBRANCH   5   6
ENDBRANCH   4   5
ENDBRANCH   3   4
ENDBRANCH   2   3
ENDBRANCH   1   2
BRANCH   1  12
ATOM     12  C   UNL     1      -4.461  -2.876   7.556  1.00  0.00     0.000 C 
BRANCH  12  13
ATOM     13  C   UNL     1      -2.968  -2.866   7.915  1.00  0.00    -0.000 C 
BRANCH  13  14
ATOM     14  C   UNL     1      -2.066  -3.223   6.721  1.00  0.00    -0.000 C 
BRANCH  14  15
ATOM     15  C   UNL     1      -0.713  -2.493   6.765  1.00  0.00    -0.000 C 
BRANCH  15  16
ATOM     16  C   UNL     1      -0.147  -2.213   5.364  1.00  0.00    -0.000 C 
BRANCH  16  17
ATOM     17  C   UNL     1       0.834  -1.031   5.345  1.00  0.00    -0.000 C 
BRANCH  17  18
ATOM     18  C   UNL     1       2.073  -1.333   6.201  1.00  0.00    -0.000 C 
BRANCH  18  19
ATOM     19  C   UNL     1       2.804  -2.609   5.753  1.00  0.00    -0.003 C 
ATOM     20  C   UNL     1       3.764  -2.362   4.589  1.00  0.00     0.004 C 
ENDBRANCH  18  19
ENDBRANCH  17  18
ENDBRANCH  16  17
ENDBRANCH  15  16
ENDBRANCH  14  15
ENDBRANCH  13  14
ENDBRANCH  12  13
ENDBRANCH   1  12
TORSDOF 16
ENDMDL
