MODEL 1
REMARK VINA RESULT:    -5.353      0.000      0.000
REMARK INTER + INTRA:          -6.232
REMARK INTER:                  -6.448
REMARK INTRA:                   0.216
REMARK UNBOUND:                 0.216
REMARK SMILES O=c1c(O)c(-c2ccc(O)c(O)c2)oc2cc(O)cc(O)c12
REMARK SMILES IDX 5 1 3 2 2 3 1 4 22 5 20 6 19 7 17 8 16 9 15 10 14 11 6 12
REMARK SMILES IDX 7 13 8 14 9 15 13 16 11 17 10 18 12 20 4 22 21 24 18 26
REMARK H PARENT 10 19 12 21 4 23 21 25 18 27
REMARK Flexibility Score: inf
ROOT
ATOM      1  C   UNL     1      30.373  47.305   5.745  1.00  0.00     0.180 A 
ATOM      2  C   UNL     1      30.229  47.671   7.094  1.00  0.00     0.208 A 
ATOM      3  C   UNL     1      30.186  46.664   8.071  1.00  0.00     0.238 A 
ATOM      4  O   UNL     1      30.003  46.995   9.272  1.00  0.00    -0.285 OA
ATOM      5  C   UNL     1      30.305  45.306   7.689  1.00  0.00     0.111 A 
ATOM      6  C   UNL     1      30.315  44.207   8.600  1.00  0.00     0.134 A 
ATOM      7  C   UNL     1      30.305  42.898   8.101  1.00  0.00     0.093 A 
ATOM      8  C   UNL     1      30.352  42.650   6.727  1.00  0.00     0.123 A 
ATOM      9  C   UNL     1      30.402  43.717   5.833  1.00  0.00     0.094 A 
ATOM     10  C   UNL     1      30.376  45.034   6.298  1.00  0.00     0.146 A 
ATOM     11  O   UNL     1      30.415  46.021   5.412  1.00  0.00    -0.452 OA
ENDROOT
BRANCH   1  12
ATOM     12  C   UNL     1      30.451  48.311   4.660  1.00  0.00     0.025 A 
ATOM     13  C   UNL     1      31.039  49.571   4.871  1.00  0.00     0.016 A 
ATOM     14  C   UNL     1      31.123  50.495   3.824  1.00  0.00     0.051 A 
ATOM     15  C   UNL     1      30.635  50.168   2.553  1.00  0.00     0.157 A 
ATOM     16  C   UNL     1      29.983  47.981   3.376  1.00  0.00     0.062 A 
ATOM     17  C   UNL     1      30.068  48.908   2.328  1.00  0.00     0.158 A 
BRANCH  15  18
ATOM     18  O   UNL     1      30.717  51.087   1.508  1.00  0.00    -0.504 OA
ATOM     19  H   UNL     1      29.990  51.156   0.805  1.00  0.00     0.293 HD
ENDBRANCH  15  18
BRANCH  17  20
ATOM     20  O   UNL     1      29.590  48.583   1.059  1.00  0.00    -0.504 OA
ATOM     21  H   UNL     1      29.676  49.224   0.279  1.00  0.00     0.293 HD
ENDBRANCH  17  20
ENDBRANCH   1  12
BRANCH   2  22
ATOM     22  O   UNL     1      30.093  49.017   7.447  1.00  0.00    -0.502 OA
ATOM     23  H   UNL     1      30.379  49.772   6.836  1.00  0.00     0.293 HD
ENDBRANCH   2  22
BRANCH   6  24
ATOM     24  O   UNL     1      30.362  44.344   9.990  1.00  0.00    -0.507 OA
ATOM     25  H   UNL     1      30.162  43.606  10.646  1.00  0.00     0.293 HD
ENDBRANCH   6  24
BRANCH   8  26
ATOM     26  O   UNL     1      30.357  41.345   6.240  1.00  0.00    -0.508 OA
ATOM     27  H   UNL     1      31.201  40.783   6.238  1.00  0.00     0.293 HD
ENDBRANCH   8  26
TORSDOF 6
ENDMDL
MODEL 2
REMARK VINA RESULT:    -4.970      1.182      6.519
REMARK INTER + INTRA:          -5.771
REMARK INTER:                  -5.909
REMARK INTRA:                   0.138
REMARK UNBOUND:                 0.216
REMARK SMILES O=c1c(O)c(-c2ccc(O)c(O)c2)oc2cc(O)cc(O)c12
REMARK SMILES IDX 5 1 3 2 2 3 1 4 22 5 20 6 19 7 17 8 16 9 15 10 14 11 6 12
REMARK SMILES IDX 7 13 8 14 9 15 13 16 11 17 10 18 12 20 4 22 21 24 18 26
REMARK H PARENT 10 19 12 21 4 23 21 25 18 27
REMARK Flexibility Score: inf
ROOT
ATOM      1  C   UNL     1      30.470  45.921   6.170  1.00  0.00     0.180 A 
ATOM      2  C   UNL     1      30.353  46.920   7.151  1.00  0.00     0.208 A 
ATOM      3  C   UNL     1      30.358  48.267   6.755  1.00  0.00     0.238 A 
ATOM      4  O   UNL     1      30.308  49.159   7.642  1.00  0.00    -0.285 OA
ATOM      5  C   UNL     1      30.463  48.597   5.382  1.00  0.00     0.111 A 
ATOM      6  C   UNL     1      30.439  49.927   4.865  1.00  0.00     0.134 A 
ATOM      7  C   UNL     1      30.681  50.142   3.502  1.00  0.00     0.093 A 
ATOM      8  C   UNL     1      30.884  49.070   2.628  1.00  0.00     0.123 A 
ATOM      9  C   UNL     1      30.851  47.767   3.115  1.00  0.00     0.094 A 
ATOM     10  C   UNL     1      30.647  47.521   4.475  1.00  0.00     0.146 A 
ATOM     11  O   UNL     1      30.633  46.263   4.898  1.00  0.00    -0.452 OA
ENDROOT
BRANCH   1  12
ATOM     12  C   UNL     1      30.447  44.479   6.508  1.00  0.00     0.025 A 
ATOM     13  C   UNL     1      31.124  43.980   7.635  1.00  0.00     0.016 A 
ATOM     14  C   UNL     1      31.068  42.619   7.948  1.00  0.00     0.051 A 
ATOM     15  C   UNL     1      30.326  41.741   7.148  1.00  0.00     0.157 A 
ATOM     16  C   UNL     1      29.687  43.597   5.722  1.00  0.00     0.062 A 
ATOM     17  C   UNL     1      29.631  42.231   6.035  1.00  0.00     0.158 A 
BRANCH  15  18
ATOM     18  O   UNL     1      30.269  40.382   7.455  1.00  0.00    -0.504 OA
ATOM     19  H   UNL     1      31.023  39.751   7.210  1.00  0.00     0.293 HD
ENDBRANCH  15  18
BRANCH  17  20
ATOM     20  O   UNL     1      28.888  41.356   5.245  1.00  0.00    -0.504 OA
ATOM     21  H   UNL     1      29.240  40.441   4.990  1.00  0.00     0.293 HD
ENDBRANCH  17  20
ENDBRANCH   1  12
BRANCH   2  22
ATOM     22  O   UNL     1      30.271  46.573   8.503  1.00  0.00    -0.502 OA
ATOM     23  H   UNL     1      30.539  47.208   9.245  1.00  0.00     0.293 HD
ENDBRANCH   2  22
BRANCH   6  24
ATOM     24  O   UNL     1      30.154  51.059   5.634  1.00  0.00    -0.507 OA
ATOM     25  H   UNL     1      29.226  51.387   5.851  1.00  0.00     0.293 HD
ENDBRANCH   6  24
BRANCH   8  26
ATOM     26  O   UNL     1      31.111  49.293   1.272  1.00  0.00    -0.508 OA
ATOM     27  H   UNL     1      32.012  49.107   0.847  1.00  0.00     0.293 HD
ENDBRANCH   8  26
TORSDOF 6
ENDMDL
MODEL 3
REMARK VINA RESULT:    -4.869      2.194      6.705
REMARK INTER + INTRA:          -5.649
REMARK INTER:                  -5.608
REMARK INTRA:                  -0.041
REMARK UNBOUND:                 0.216
REMARK SMILES O=c1c(O)c(-c2ccc(O)c(O)c2)oc2cc(O)cc(O)c12
REMARK SMILES IDX 5 1 3 2 2 3 1 4 22 5 20 6 19 7 17 8 16 9 15 10 14 11 6 12
REMARK SMILES IDX 7 13 8 14 9 15 13 16 11 17 10 18 12 20 4 22 21 24 18 26
REMARK H PARENT 10 19 12 21 4 23 21 25 18 27
REMARK Flexibility Score: inf
ROOT
ATOM      1  C   UNL     1      30.403  45.767   6.697  1.00  0.00     0.180 A 
ATOM      2  C   UNL     1      30.778  46.435   5.519  1.00  0.00     0.208 A 
ATOM      3  C   UNL     1      30.768  47.839   5.500  1.00  0.00     0.238 A 
ATOM      4  O   UNL     1      31.052  48.431   4.426  1.00  0.00    -0.285 OA
ATOM      5  C   UNL     1      30.401  48.556   6.664  1.00  0.00     0.111 A 
ATOM      6  C   UNL     1      30.395  49.979   6.769  1.00  0.00     0.134 A 
ATOM      7  C   UNL     1      29.888  50.584   7.927  1.00  0.00     0.093 A 
ATOM      8  C   UNL     1      29.448  49.814   9.007  1.00  0.00     0.123 A 
ATOM      9  C   UNL     1      29.505  48.425   8.936  1.00  0.00     0.094 A 
ATOM     10  C   UNL     1      29.972  47.793   7.781  1.00  0.00     0.146 A 
ATOM     11  O   UNL     1      30.000  46.466   7.751  1.00  0.00    -0.452 OA
ENDROOT
BRANCH   1  12
ATOM     12  C   UNL     1      30.412  44.289   6.802  1.00  0.00     0.025 A 
ATOM     13  C   UNL     1      31.125  43.632   7.820  1.00  0.00     0.016 A 
ATOM     14  C   UNL     1      31.099  42.237   7.913  1.00  0.00     0.051 A 
ATOM     15  C   UNL     1      30.352  41.482   7.001  1.00  0.00     0.157 A 
ATOM     16  C   UNL     1      29.647  43.527   5.902  1.00  0.00     0.062 A 
ATOM     17  C   UNL     1      29.621  42.129   5.996  1.00  0.00     0.158 A 
BRANCH  15  18
ATOM     18  O   UNL     1      30.325  40.091   7.090  1.00  0.00    -0.504 OA
ATOM     19  H   UNL     1      30.574  39.505   6.302  1.00  0.00     0.293 HD
ENDBRANCH  15  18
BRANCH  17  20
ATOM     20  O   UNL     1      28.873  41.375   5.094  1.00  0.00    -0.504 OA
ATOM     21  H   UNL     1      29.314  40.830   4.363  1.00  0.00     0.293 HD
ENDBRANCH  17  20
ENDBRANCH   1  12
BRANCH   2  22
ATOM     22  O   UNL     1      31.117  45.707   4.375  1.00  0.00    -0.502 OA
ATOM     23  H   UNL     1      31.793  44.953   4.390  1.00  0.00     0.293 HD
ENDBRANCH   2  22
BRANCH   6  24
ATOM     24  O   UNL     1      30.897  50.838   5.786  1.00  0.00    -0.507 OA
ATOM     25  H   UNL     1      30.603  51.793   5.655  1.00  0.00     0.293 HD
ENDBRANCH   6  24
BRANCH   8  26
ATOM     26  O   UNL     1      28.959  50.424  10.161  1.00  0.00    -0.508 OA
ATOM     27  H   UNL     1      29.051  49.988  11.071  1.00  0.00     0.293 HD
ENDBRANCH   8  26
TORSDOF 6
ENDMDL
MODEL 4
REMARK VINA RESULT:    -4.356      1.276      6.447
REMARK INTER + INTRA:          -5.031
REMARK INTER:                  -5.131
REMARK INTRA:                   0.100
REMARK UNBOUND:                 0.216
REMARK SMILES O=c1c(O)c(-c2ccc(O)c(O)c2)oc2cc(O)cc(O)c12
REMARK SMILES IDX 5 1 3 2 2 3 1 4 22 5 20 6 19 7 17 8 16 9 15 10 14 11 6 12
REMARK SMILES IDX 7 13 8 14 9 15 13 16 11 17 10 18 12 20 4 22 21 24 18 26
REMARK H PARENT 10 19 12 21 4 23 21 25 18 27
REMARK Flexibility Score: inf
ROOT
ATOM      1  C   UNL     1      30.363  45.842   6.889  1.00  0.00     0.180 A 
ATOM      2  C   UNL     1      30.184  46.617   8.047  1.00  0.00     0.208 A 
ATOM      3  C   UNL     1      30.136  48.016   7.929  1.00  0.00     0.238 A 
ATOM      4  O   UNL     1      30.030  48.707   8.975  1.00  0.00    -0.285 OA
ATOM      5  C   UNL     1      30.249  48.619   6.653  1.00  0.00     0.111 A 
ATOM      6  C   UNL     1      30.172  50.024   6.413  1.00  0.00     0.134 A 
ATOM      7  C   UNL     1      30.428  50.519   5.128  1.00  0.00     0.093 A 
ATOM      8  C   UNL     1      30.693  49.655   4.062  1.00  0.00     0.123 A 
ATOM      9  C   UNL     1      30.711  48.279   4.276  1.00  0.00     0.094 A 
ATOM     10  C   UNL     1      30.496  47.757   5.553  1.00  0.00     0.146 A 
ATOM     11  O   UNL     1      30.532  46.439   5.716  1.00  0.00    -0.452 OA
ENDROOT
BRANCH   1  12
ATOM     12  C   UNL     1      30.399  44.362   6.929  1.00  0.00     0.025 A 
ATOM     13  C   UNL     1      31.125  43.674   7.919  1.00  0.00     0.016 A 
ATOM     14  C   UNL     1      31.125  42.276   7.952  1.00  0.00     0.051 A 
ATOM     15  C   UNL     1      30.391  41.548   7.007  1.00  0.00     0.157 A 
ATOM     16  C   UNL     1      29.648  43.625   5.997  1.00  0.00     0.062 A 
ATOM     17  C   UNL     1      29.649  42.223   6.030  1.00  0.00     0.158 A 
BRANCH  15  18
ATOM     18  O   UNL     1      30.390  40.154   7.036  1.00  0.00    -0.504 OA
ATOM     19  H   UNL     1      29.527  39.624   7.028  1.00  0.00     0.293 HD
ENDBRANCH  15  18
BRANCH  17  20
ATOM     20  O   UNL     1      28.914  41.496   5.096  1.00  0.00    -0.504 OA
ATOM     21  H   UNL     1      28.481  40.611   5.334  1.00  0.00     0.293 HD
ENDBRANCH  17  20
ENDBRANCH   1  12
BRANCH   2  22
ATOM     22  O   UNL     1      30.096  46.002   9.298  1.00  0.00    -0.502 OA
ATOM     23  H   UNL     1      29.222  45.653   9.674  1.00  0.00     0.293 HD
ENDBRANCH   2  22
BRANCH   6  24
ATOM     24  O   UNL     1      29.825  50.965   7.386  1.00  0.00    -0.507 OA
ATOM     25  H   UNL     1      29.527  51.909   7.191  1.00  0.00     0.293 HD
ENDBRANCH   6  24
BRANCH   8  26
ATOM     26  O   UNL     1      30.932  50.155   2.784  1.00  0.00    -0.508 OA
ATOM     27  H   UNL     1      31.859  50.443   2.492  1.00  0.00     0.293 HD
ENDBRANCH   8  26
TORSDOF 6
ENDMDL
MODEL 5
REMARK VINA RESULT:    -3.258      2.314      4.173
REMARK INTER + INTRA:          -3.709
REMARK INTER:                  -3.752
REMARK INTRA:                   0.043
REMARK UNBOUND:                 0.216
REMARK SMILES O=c1c(O)c(-c2ccc(O)c(O)c2)oc2cc(O)cc(O)c12
REMARK SMILES IDX 5 1 3 2 2 3 1 4 22 5 20 6 19 7 17 8 16 9 15 10 14 11 6 12
REMARK SMILES IDX 7 13 8 14 9 15 13 16 11 17 10 18 12 20 4 22 21 24 18 26
REMARK H PARENT 10 19 12 21 4 23 21 25 18 27
REMARK Flexibility Score: inf
ROOT
ATOM      1  C   UNL     1      30.153  48.966   5.453  1.00  0.00     0.180 A 
ATOM      2  C   UNL     1      30.495  47.651   5.810  1.00  0.00     0.208 A 
ATOM      3  C   UNL     1      30.305  47.234   7.137  1.00  0.00     0.238 A 
ATOM      4  O   UNL     1      30.663  46.072   7.463  1.00  0.00    -0.285 OA
ATOM      5  C   UNL     1      29.759  48.132   8.086  1.00  0.00     0.111 A 
ATOM      6  C   UNL     1      29.486  47.803   9.448  1.00  0.00     0.134 A 
ATOM      7  C   UNL     1      29.069  48.808  10.330  1.00  0.00     0.093 A 
ATOM      8  C   UNL     1      28.853  50.115   9.884  1.00  0.00     0.123 A 
ATOM      9  C   UNL     1      29.061  50.430   8.544  1.00  0.00     0.094 A 
ATOM     10  C   UNL     1      29.511  49.459   7.647  1.00  0.00     0.146 A 
ATOM     11  O   UNL     1      29.706  49.805   6.380  1.00  0.00    -0.452 OA
ENDROOT
BRANCH   1  12
ATOM     12  C   UNL     1      30.302  49.471   4.069  1.00  0.00     0.025 A 
ATOM     13  C   UNL     1      30.976  50.676   3.797  1.00  0.00     0.016 A 
ATOM     14  C   UNL     1      31.125  51.120   2.480  1.00  0.00     0.051 A 
ATOM     15  C   UNL     1      30.616  50.363   1.418  1.00  0.00     0.157 A 
ATOM     16  C   UNL     1      29.812  48.705   2.997  1.00  0.00     0.062 A 
ATOM     17  C   UNL     1      29.962  49.152   1.676  1.00  0.00     0.158 A 
BRANCH  15  18
ATOM     18  O   UNL     1      30.761  50.804   0.103  1.00  0.00    -0.504 OA
ATOM     19  H   UNL     1      31.047  50.175  -0.638  1.00  0.00     0.293 HD
ENDBRANCH  15  18
BRANCH  17  20
ATOM     20  O   UNL     1      29.463  48.397   0.617  1.00  0.00    -0.504 OA
ATOM     21  H   UNL     1      29.298  47.401   0.706  1.00  0.00     0.293 HD
ENDBRANCH  17  20
ENDBRANCH   1  12
BRANCH   2  22
ATOM     22  O   UNL     1      31.051  46.787   4.862  1.00  0.00    -0.502 OA
ATOM     23  H   UNL     1      31.772  47.082   4.214  1.00  0.00     0.293 HD
ENDBRANCH   2  22
BRANCH   6  24
ATOM     24  O   UNL     1      29.580  46.512   9.974  1.00  0.00    -0.507 OA
ATOM     25  H   UNL     1      29.339  45.670   9.474  1.00  0.00     0.293 HD
ENDBRANCH   6  24
BRANCH   8  26
ATOM     26  O   UNL     1      28.424  51.104  10.765  1.00  0.00    -0.508 OA
ATOM     27  H   UNL     1      27.439  51.284  10.922  1.00  0.00     0.293 HD
ENDBRANCH   8  26
TORSDOF 6
ENDMDL
MODEL 6
REMARK VINA RESULT:    -3.153      2.592      5.240
REMARK INTER + INTRA:          -3.582
REMARK INTER:                  -3.277
REMARK INTRA:                  -0.305
REMARK UNBOUND:                 0.216
REMARK SMILES O=c1c(O)c(-c2ccc(O)c(O)c2)oc2cc(O)cc(O)c12
REMARK SMILES IDX 5 1 3 2 2 3 1 4 22 5 20 6 19 7 17 8 16 9 15 10 14 11 6 12
REMARK SMILES IDX 7 13 8 14 9 15 13 16 11 17 10 18 12 20 4 22 21 24 18 26
REMARK H PARENT 10 19 12 21 4 23 21 25 18 27
REMARK Flexibility Score: inf
ROOT
ATOM      1  C   UNL     1      30.263  47.155   8.161  1.00  0.00     0.180 A 
ATOM      2  C   UNL     1      30.587  47.504   6.839  1.00  0.00     0.208 A 
ATOM      3  C   UNL     1      30.779  46.484   5.893  1.00  0.00     0.238 A 
ATOM      4  O   UNL     1      31.123  46.800   4.724  1.00  0.00    -0.285 OA
ATOM      5  C   UNL     1      30.628  45.129   6.278  1.00  0.00     0.111 A 
ATOM      6  C   UNL     1      30.759  44.018   5.393  1.00  0.00     0.134 A 
ATOM      7  C   UNL     1      30.717  42.716   5.909  1.00  0.00     0.093 A 
ATOM      8  C   UNL     1      30.484  42.487   7.268  1.00  0.00     0.123 A 
ATOM      9  C   UNL     1      30.296  43.565   8.128  1.00  0.00     0.094 A 
ATOM     10  C   UNL     1      30.368  44.876   7.650  1.00  0.00     0.146 A 
ATOM     11  O   UNL     1      30.193  45.875   8.506  1.00  0.00    -0.452 OA
ENDROOT
BRANCH   1  12
ATOM     12  C   UNL     1      30.021  48.174   9.208  1.00  0.00     0.025 A 
ATOM     13  C   UNL     1      31.085  48.780   9.900  1.00  0.00     0.016 A 
ATOM     14  C   UNL     1      30.833  49.758  10.867  1.00  0.00     0.051 A 
ATOM     15  C   UNL     1      29.519  50.152  11.147  1.00  0.00     0.157 A 
ATOM     16  C   UNL     1      28.706  48.589   9.478  1.00  0.00     0.062 A 
ATOM     17  C   UNL     1      28.454  49.569  10.449  1.00  0.00     0.158 A 
BRANCH  15  18
ATOM     18  O   UNL     1      29.264  51.125  12.112  1.00  0.00    -0.504 OA
ATOM     19  H   UNL     1      28.452  51.728  12.055  1.00  0.00     0.293 HD
ENDBRANCH  15  18
BRANCH  17  20
ATOM     20  O   UNL     1      27.147  49.969  10.724  1.00  0.00    -0.504 OA
ATOM     21  H   UNL     1      26.545  49.430  11.336  1.00  0.00     0.293 HD
ENDBRANCH  17  20
ENDBRANCH   1  12
BRANCH   2  22
ATOM     22  O   UNL     1      30.753  48.846   6.486  1.00  0.00    -0.502 OA
ATOM     23  H   UNL     1      29.980  49.500   6.455  1.00  0.00     0.293 HD
ENDBRANCH   2  22
BRANCH   6  24
ATOM     24  O   UNL     1      30.903  44.134   4.007  1.00  0.00    -0.507 OA
ATOM     25  H   UNL     1      30.660  43.416   3.343  1.00  0.00     0.293 HD
ENDBRANCH   6  24
BRANCH   8  26
ATOM     26  O   UNL     1      30.429  41.189   7.770  1.00  0.00    -0.508 OA
ATOM     27  H   UNL     1      30.632  40.987   8.743  1.00  0.00     0.293 HD
ENDBRANCH   8  26
TORSDOF 6
ENDMDL
MODEL 7
REMARK VINA RESULT:    -3.031      2.575      6.680
REMARK INTER + INTRA:          -3.435
REMARK INTER:                  -3.254
REMARK INTRA:                  -0.181
REMARK UNBOUND:                 0.216
REMARK SMILES O=c1c(O)c(-c2ccc(O)c(O)c2)oc2cc(O)cc(O)c12
REMARK SMILES IDX 5 1 3 2 2 3 1 4 22 5 20 6 19 7 17 8 16 9 15 10 14 11 6 12
REMARK SMILES IDX 7 13 8 14 9 15 13 16 11 17 10 18 12 20 4 22 21 24 18 26
REMARK H PARENT 10 19 12 21 4 23 21 25 18 27
REMARK Flexibility Score: inf
ROOT
ATOM      1  C   UNL     1      30.259  48.902   7.102  1.00  0.00     0.180 A 
ATOM      2  C   UNL     1      30.255  47.525   6.820  1.00  0.00     0.208 A 
ATOM      3  C   UNL     1      30.449  47.101   5.495  1.00  0.00     0.238 A 
ATOM      4  O   UNL     1      30.390  45.870   5.240  1.00  0.00    -0.285 OA
ATOM      5  C   UNL     1      30.663  48.057   4.474  1.00  0.00     0.111 A 
ATOM      6  C   UNL     1      30.911  47.738   3.105  1.00  0.00     0.134 A 
ATOM      7  C   UNL     1      30.978  48.767   2.157  1.00  0.00     0.093 A 
ATOM      8  C   UNL     1      30.871  50.107   2.540  1.00  0.00     0.123 A 
ATOM      9  C   UNL     1      30.688  50.430   3.882  1.00  0.00     0.094 A 
ATOM     10  C   UNL     1      30.581  49.425   4.845  1.00  0.00     0.146 A 
ATOM     11  O   UNL     1      30.396  49.776   6.112  1.00  0.00    -0.452 OA
ENDROOT
BRANCH   1  12
ATOM     12  C   UNL     1      30.085  49.425   8.476  1.00  0.00     0.025 A 
ATOM     13  C   UNL     1      31.124  50.104   9.138  1.00  0.00     0.016 A 
ATOM     14  C   UNL     1      30.929  50.611  10.426  1.00  0.00     0.051 A 
ATOM     15  C   UNL     1      29.692  50.457  11.065  1.00  0.00     0.157 A 
ATOM     16  C   UNL     1      28.840  49.293   9.115  1.00  0.00     0.062 A 
ATOM     17  C   UNL     1      28.645  49.800  10.407  1.00  0.00     0.158 A 
BRANCH  15  18
ATOM     18  O   UNL     1      29.495  50.959  12.351  1.00  0.00    -0.504 OA
ATOM     19  H   UNL     1      30.271  51.127  12.979  1.00  0.00     0.293 HD
ENDBRANCH  15  18
BRANCH  17  20
ATOM     20  O   UNL     1      27.413  49.656  11.043  1.00  0.00    -0.504 OA
ATOM     21  H   UNL     1      26.947  50.441  11.481  1.00  0.00     0.293 HD
ENDBRANCH  17  20
ENDBRANCH   1  12
BRANCH   2  22
ATOM     22  O   UNL     1      30.021  46.599   7.840  1.00  0.00    -0.502 OA
ATOM     23  H   UNL     1      30.748  46.293   8.474  1.00  0.00     0.293 HD
ENDBRANCH   2  22
BRANCH   6  24
ATOM     24  O   UNL     1      31.125  46.440   2.632  1.00  0.00    -0.507 OA
ATOM     25  H   UNL     1      30.899  45.599   3.141  1.00  0.00     0.293 HD
ENDBRANCH   6  24
BRANCH   8  26
ATOM     26  O   UNL     1      30.954  51.125   1.593  1.00  0.00    -0.508 OA
ATOM     27  H   UNL     1      30.165  51.366   1.003  1.00  0.00     0.293 HD
ENDBRANCH   8  26
TORSDOF 6
ENDMDL
