MODEL 1
REMARK VINA RESULT:    -5.503      0.000      0.000
REMARK INTER + INTRA:          -6.947
REMARK INTER:                  -6.629
REMARK INTRA:                  -0.318
REMARK UNBOUND:                -0.318
REMARK SMILES Oc1cc(O)c2cc(O)c(-c3ccc(O)c(O)c3)[o+]c2c1
REMARK SMILES IDX 10 1 19 2 20 3 21 4 2 5 3 6 4 7 6 8 7 9 8 10 11 11 12 12
REMARK SMILES IDX 13 13 14 14 18 15 16 16 15 17 17 19 9 21 1 23 5 25
REMARK H PARENT 15 18 17 20 9 22 1 24 5 26
REMARK Flexibility Score: inf
ROOT
ATOM      1  C   UNL     1       3.981 -15.555  11.517  1.00  0.00     0.402 A 
ATOM      2  O   UNL     1       3.017 -16.178  10.844  1.00  0.00    -0.202 OA
ATOM      3  C   UNL     1       2.617 -17.415  11.120  1.00  0.00     0.368 A 
ATOM      4  C   UNL     1       1.593 -17.985  10.359  1.00  0.00     0.162 A 
ATOM      5  C   UNL     1       1.152 -19.284  10.630  1.00  0.00     0.128 A 
ATOM      6  C   UNL     1       1.735 -20.014  11.667  1.00  0.00     0.093 A 
ATOM      7  C   UNL     1       2.762 -19.466  12.445  1.00  0.00     0.136 A 
ATOM      8  C   UNL     1       3.217 -18.149  12.172  1.00  0.00     0.125 A 
ATOM      9  C   UNL     1       4.249 -17.524  12.891  1.00  0.00     0.078 A 
ATOM     10  C   UNL     1       4.645 -16.225  12.560  1.00  0.00     0.223 A 
ENDROOT
BRANCH   1  11
ATOM     11  C   UNL     1       4.329 -14.171  11.120  1.00  0.00     0.087 A 
ATOM     12  C   UNL     1       5.431 -13.951  10.278  1.00  0.00     0.022 A 
ATOM     13  C   UNL     1       5.767 -12.657   9.875  1.00  0.00     0.051 A 
ATOM     14  C   UNL     1       5.000 -11.565  10.293  1.00  0.00     0.157 A 
ATOM     15  C   UNL     1       3.546 -13.074  11.522  1.00  0.00     0.068 A 
ATOM     16  C   UNL     1       3.881 -11.773  11.116  1.00  0.00     0.158 A 
BRANCH  14  17
ATOM     17  O   UNL     1       5.360 -10.283   9.876  1.00  0.00    -0.504 OA
ATOM     18  H   UNL     1       6.023  -9.716  10.391  1.00  0.00     0.293 HD
ENDBRANCH  14  17
BRANCH  16  19
ATOM     19  O   UNL     1       3.102 -10.691  11.524  1.00  0.00    -0.504 OA
ATOM     20  H   UNL     1       3.419  -9.736  11.413  1.00  0.00     0.293 HD
ENDBRANCH  16  19
ENDBRANCH   1  11
BRANCH  10  21
ATOM     21  O   UNL     1       5.703 -15.622  13.240  1.00  0.00    -0.500 OA
ATOM     22  H   UNL     1       5.611 -14.705  13.664  1.00  0.00     0.294 HD
ENDBRANCH  10  21
BRANCH   5  23
ATOM     23  O   UNL     1       0.131 -19.858   9.875  1.00  0.00    -0.507 OA
ATOM     24  H   UNL     1       0.318 -20.303   8.983  1.00  0.00     0.293 HD
ENDBRANCH   5  23
BRANCH   7  25
ATOM     25  O   UNL     1       3.292 -20.261  13.465  1.00  0.00    -0.507 OA
ATOM     26  H   UNL     1       3.305 -21.270  13.454  1.00  0.00     0.293 HD
ENDBRANCH   7  25
TORSDOF 6
ENDMDL
MODEL 2
REMARK VINA RESULT:    -5.193      2.187      7.191
REMARK INTER + INTRA:          -6.573
REMARK INTER:                  -6.349
REMARK INTRA:                  -0.224
REMARK UNBOUND:                -0.318
REMARK SMILES Oc1cc(O)c2cc(O)c(-c3ccc(O)c(O)c3)[o+]c2c1
REMARK SMILES IDX 10 1 19 2 20 3 21 4 2 5 3 6 4 7 6 8 7 9 8 10 11 11 12 12
REMARK SMILES IDX 13 13 14 14 18 15 16 16 15 17 17 19 9 21 1 23 5 25
REMARK H PARENT 15 18 17 20 9 22 1 24 5 26
REMARK Flexibility Score: inf
ROOT
ATOM      1  C   UNL     1       3.676 -13.440  11.294  1.00  0.00     0.402 A 
ATOM      2  O   UNL     1       2.537 -12.752  11.306  1.00  0.00    -0.202 OA
ATOM      3  C   UNL     1       2.487 -11.424  11.316  1.00  0.00     0.368 A 
ATOM      4  C   UNL     1       1.241 -10.792  11.324  1.00  0.00     0.162 A 
ATOM      5  C   UNL     1       1.159  -9.396  11.332  1.00  0.00     0.128 A 
ATOM      6  C   UNL     1       2.328  -8.630  11.330  1.00  0.00     0.093 A 
ATOM      7  C   UNL     1       3.588  -9.240  11.321  1.00  0.00     0.136 A 
ATOM      8  C   UNL     1       3.677 -10.657  11.316  1.00  0.00     0.125 A 
ATOM      9  C   UNL     1       4.896 -11.354  11.320  1.00  0.00     0.078 A 
ATOM     10  C   UNL     1       4.904 -12.752  11.321  1.00  0.00     0.223 A 
ENDROOT
BRANCH   1  11
ATOM     11  C   UNL     1       3.601 -14.918  11.273  1.00  0.00     0.087 A 
ATOM     12  C   UNL     1       3.165 -15.571  10.108  1.00  0.00     0.022 A 
ATOM     13  C   UNL     1       3.104 -16.965  10.058  1.00  0.00     0.051 A 
ATOM     14  C   UNL     1       3.492 -17.730  11.163  1.00  0.00     0.157 A 
ATOM     15  C   UNL     1       4.011 -15.690  12.375  1.00  0.00     0.068 A 
ATOM     16  C   UNL     1       3.952 -17.091  12.326  1.00  0.00     0.158 A 
BRANCH  14  17
ATOM     17  O   UNL     1       3.419 -19.120  11.084  1.00  0.00    -0.504 OA
ATOM     18  H   UNL     1       2.586 -19.631  11.352  1.00  0.00     0.293 HD
ENDBRANCH  14  17
BRANCH  16  19
ATOM     19  O   UNL     1       4.354 -17.847  13.426  1.00  0.00    -0.504 OA
ATOM     20  H   UNL     1       4.409 -17.446  14.355  1.00  0.00     0.293 HD
ENDBRANCH  16  19
ENDBRANCH   1  11
BRANCH  10  21
ATOM     21  O   UNL     1       6.113 -13.445  11.375  1.00  0.00    -0.500 OA
ATOM     22  H   UNL     1       6.707 -13.547  10.560  1.00  0.00     0.294 HD
ENDBRANCH  10  21
BRANCH   5  23
ATOM     23  O   UNL     1      -0.079  -8.757  11.340  1.00  0.00    -0.507 OA
ATOM     24  H   UNL     1      -0.156  -7.751  11.433  1.00  0.00     0.293 HD
ENDBRANCH   5  23
BRANCH   7  25
ATOM     25  O   UNL     1       4.708  -8.405  11.317  1.00  0.00    -0.507 OA
ATOM     26  H   UNL     1       5.055  -7.911  12.127  1.00  0.00     0.293 HD
ENDBRANCH   7  25
TORSDOF 6
ENDMDL
MODEL 3
REMARK VINA RESULT:    -4.871      1.275      6.914
REMARK INTER + INTRA:          -6.185
REMARK INTER:                  -6.101
REMARK INTRA:                  -0.084
REMARK UNBOUND:                -0.318
REMARK SMILES Oc1cc(O)c2cc(O)c(-c3ccc(O)c(O)c3)[o+]c2c1
REMARK SMILES IDX 10 1 19 2 20 3 21 4 2 5 3 6 4 7 6 8 7 9 8 10 11 11 12 12
REMARK SMILES IDX 13 13 14 14 18 15 16 16 15 17 17 19 9 21 1 23 5 25
REMARK H PARENT 15 18 17 20 9 22 1 24 5 26
REMARK Flexibility Score: inf
ROOT
ATOM      1  C   UNL     1       3.645 -15.423  11.457  1.00  0.00     0.402 A 
ATOM      2  O   UNL     1       2.762 -14.428  11.429  1.00  0.00    -0.202 OA
ATOM      3  C   UNL     1       3.107 -13.149  11.322  1.00  0.00     0.368 A 
ATOM      4  C   UNL     1       2.106 -12.174  11.297  1.00  0.00     0.162 A 
ATOM      5  C   UNL     1       2.442 -10.822  11.183  1.00  0.00     0.128 A 
ATOM      6  C   UNL     1       3.783 -10.443  11.090  1.00  0.00     0.093 A 
ATOM      7  C   UNL     1       4.804 -11.400  11.111  1.00  0.00     0.136 A 
ATOM      8  C   UNL     1       4.470 -12.774  11.231  1.00  0.00     0.125 A 
ATOM      9  C   UNL     1       5.427 -13.801  11.273  1.00  0.00     0.078 A 
ATOM     10  C   UNL     1       5.021 -15.133  11.398  1.00  0.00     0.223 A 
ENDROOT
BRANCH   1  11
ATOM     11  C   UNL     1       3.135 -16.808  11.568  1.00  0.00     0.087 A 
ATOM     12  C   UNL     1       2.254 -17.300  10.592  1.00  0.00     0.022 A 
ATOM     13  C   UNL     1       1.775 -18.610  10.665  1.00  0.00     0.051 A 
ATOM     14  C   UNL     1       2.179 -19.453  11.706  1.00  0.00     0.157 A 
ATOM     15  C   UNL     1       3.556 -17.664  12.602  1.00  0.00     0.068 A 
ATOM     16  C   UNL     1       3.077 -18.981  12.677  1.00  0.00     0.158 A 
BRANCH  14  17
ATOM     17  O   UNL     1       1.683 -20.755  11.755  1.00  0.00    -0.504 OA
ATOM     18  H   UNL     1       1.505 -21.231  12.632  1.00  0.00     0.293 HD
ENDBRANCH  14  17
BRANCH  16  19
ATOM     19  O   UNL     1       3.496 -19.820  13.708  1.00  0.00    -0.504 OA
ATOM     20  H   UNL     1       4.358 -20.349  13.646  1.00  0.00     0.293 HD
ENDBRANCH  16  19
ENDBRANCH   1  11
BRANCH  10  21
ATOM     21  O   UNL     1       5.972 -16.149  11.490  1.00  0.00    -0.500 OA
ATOM     22  H   UNL     1       5.761 -17.103  11.220  1.00  0.00     0.294 HD
ENDBRANCH  10  21
BRANCH   5  23
ATOM     23  O   UNL     1       1.449  -9.844  11.158  1.00  0.00    -0.507 OA
ATOM     24  H   UNL     1       1.024  -9.542  10.288  1.00  0.00     0.293 HD
ENDBRANCH   5  23
BRANCH   7  25
ATOM     25  O   UNL     1       6.120 -10.940  11.011  1.00  0.00    -0.507 OA
ATOM     26  H   UNL     1       6.909 -11.363  11.476  1.00  0.00     0.293 HD
ENDBRANCH   7  25
TORSDOF 6
ENDMDL
MODEL 4
REMARK VINA RESULT:    -4.444      1.294      6.874
REMARK INTER + INTRA:          -5.671
REMARK INTER:                  -5.738
REMARK INTRA:                   0.067
REMARK UNBOUND:                -0.318
REMARK SMILES Oc1cc(O)c2cc(O)c(-c3ccc(O)c(O)c3)[o+]c2c1
REMARK SMILES IDX 10 1 19 2 20 3 21 4 2 5 3 6 4 7 6 8 7 9 8 10 11 11 12 12
REMARK SMILES IDX 13 13 14 14 18 15 16 16 15 17 17 19 9 21 1 23 5 25
REMARK H PARENT 15 18 17 20 9 22 1 24 5 26
REMARK Flexibility Score: inf
ROOT
ATOM      1  C   UNL     1       3.745 -15.272  11.534  1.00  0.00     0.402 A 
ATOM      2  O   UNL     1       2.832 -14.309  11.428  1.00  0.00    -0.202 OA
ATOM      3  C   UNL     1       3.140 -13.022  11.304  1.00  0.00     0.368 A 
ATOM      4  C   UNL     1       2.109 -12.085  11.195  1.00  0.00     0.162 A 
ATOM      5  C   UNL     1       2.405 -10.725  11.062  1.00  0.00     0.128 A 
ATOM      6  C   UNL     1       3.736 -10.301  11.036  1.00  0.00     0.093 A 
ATOM      7  C   UNL     1       4.786 -11.221  11.143  1.00  0.00     0.136 A 
ATOM      8  C   UNL     1       4.492 -12.603  11.282  1.00  0.00     0.125 A 
ATOM      9  C   UNL     1       5.479 -13.594  11.408  1.00  0.00     0.078 A 
ATOM     10  C   UNL     1       5.112 -14.935  11.547  1.00  0.00     0.223 A 
ENDROOT
BRANCH   1  11
ATOM     11  C   UNL     1       3.277 -16.671  11.655  1.00  0.00     0.087 A 
ATOM     12  C   UNL     1       3.831 -17.502  12.643  1.00  0.00     0.022 A 
ATOM     13  C   UNL     1       3.391 -18.819  12.789  1.00  0.00     0.051 A 
ATOM     14  C   UNL     1       2.381 -19.323  11.962  1.00  0.00     0.157 A 
ATOM     15  C   UNL     1       2.247 -17.173  10.839  1.00  0.00     0.068 A 
ATOM     16  C   UNL     1       1.802 -18.496  10.985  1.00  0.00     0.158 A 
BRANCH  14  17
ATOM     17  O   UNL     1       1.963 -20.643  12.130  1.00  0.00    -0.504 OA
ATOM     18  H   UNL     1       2.112 -21.349  11.418  1.00  0.00     0.293 HD
ENDBRANCH  14  17
BRANCH  16  19
ATOM     19  O   UNL     1       0.785 -18.986  10.168  1.00  0.00    -0.504 OA
ATOM     20  H   UNL     1       0.563 -18.553   9.279  1.00  0.00     0.293 HD
ENDBRANCH  16  19
ENDBRANCH   1  11
BRANCH  10  21
ATOM     21  O   UNL     1       6.089 -15.914  11.723  1.00  0.00    -0.500 OA
ATOM     22  H   UNL     1       7.067 -15.675  11.844  1.00  0.00     0.294 HD
ENDBRANCH  10  21
BRANCH   5  23
ATOM     23  O   UNL     1       1.384  -9.784  10.952  1.00  0.00    -0.507 OA
ATOM     24  H   UNL     1       1.321  -8.993  11.584  1.00  0.00     0.293 HD
ENDBRANCH   5  23
BRANCH   7  25
ATOM     25  O   UNL     1       6.089 -10.717  11.105  1.00  0.00    -0.507 OA
ATOM     26  H   UNL     1       6.671 -10.578  11.919  1.00  0.00     0.293 HD
ENDBRANCH   7  25
TORSDOF 6
ENDMDL
MODEL 5
REMARK VINA RESULT:    -4.434      1.055      1.750
REMARK INTER + INTRA:          -5.659
REMARK INTER:                  -5.725
REMARK INTRA:                   0.065
REMARK UNBOUND:                -0.318
REMARK SMILES Oc1cc(O)c2cc(O)c(-c3ccc(O)c(O)c3)[o+]c2c1
REMARK SMILES IDX 10 1 19 2 20 3 21 4 2 5 3 6 4 7 6 8 7 9 8 10 11 11 12 12
REMARK SMILES IDX 13 13 14 14 18 15 16 16 15 17 17 19 9 21 1 23 5 25
REMARK H PARENT 15 18 17 20 9 22 1 24 5 26
REMARK Flexibility Score: inf
ROOT
ATOM      1  C   UNL     1       3.940 -14.676  11.458  1.00  0.00     0.402 A 
ATOM      2  O   UNL     1       2.923 -15.436  11.060  1.00  0.00    -0.202 OA
ATOM      3  C   UNL     1       2.847 -16.740  11.307  1.00  0.00     0.368 A 
ATOM      4  C   UNL     1       1.736 -17.454  10.851  1.00  0.00     0.162 A 
ATOM      5  C   UNL     1       1.630 -18.826  11.099  1.00  0.00     0.128 A 
ATOM      6  C   UNL     1       2.637 -19.486  11.807  1.00  0.00     0.093 A 
ATOM      7  C   UNL     1       3.760 -18.792  12.275  1.00  0.00     0.136 A 
ATOM      8  C   UNL     1       3.875 -17.400  12.024  1.00  0.00     0.125 A 
ATOM      9  C   UNL     1       4.970 -16.627  12.443  1.00  0.00     0.078 A 
ATOM     10  C   UNL     1       5.015 -15.260  12.153  1.00  0.00     0.223 A 
ENDROOT
BRANCH   1  11
ATOM     11  C   UNL     1       3.904 -13.232  11.131  1.00  0.00     0.087 A 
ATOM     12  C   UNL     1       2.728 -12.501  11.362  1.00  0.00     0.022 A 
ATOM     13  C   UNL     1       2.676 -11.134  11.079  1.00  0.00     0.051 A 
ATOM     14  C   UNL     1       3.802 -10.474  10.576  1.00  0.00     0.157 A 
ATOM     15  C   UNL     1       5.041 -12.562  10.645  1.00  0.00     0.068 A 
ATOM     16  C   UNL     1       4.992 -11.188  10.362  1.00  0.00     0.158 A 
BRANCH  14  17
ATOM     17  O   UNL     1       3.720  -9.109  10.302  1.00  0.00    -0.504 OA
ATOM     18  H   UNL     1       4.293  -8.668   9.591  1.00  0.00     0.293 HD
ENDBRANCH  14  17
BRANCH  16  19
ATOM     19  O   UNL     1       6.122 -10.534   9.875  1.00  0.00    -0.504 OA
ATOM     20  H   UNL     1       6.498  -9.711  10.332  1.00  0.00     0.293 HD
ENDBRANCH  16  19
ENDBRANCH   1  11
BRANCH  10  21
ATOM     21  O   UNL     1       6.125 -14.502  12.525  1.00  0.00    -0.500 OA
ATOM     22  H   UNL     1       6.167 -13.502  12.361  1.00  0.00     0.294 HD
ENDBRANCH  10  21
BRANCH   5  23
ATOM     23  O   UNL     1       0.525 -19.545  10.648  1.00  0.00    -0.507 OA
ATOM     24  H   UNL     1      -0.333 -19.081  10.370  1.00  0.00     0.293 HD
ENDBRANCH   5  23
BRANCH   7  25
ATOM     25  O   UNL     1       4.722 -19.523  12.978  1.00  0.00    -0.507 OA
ATOM     26  H   UNL     1       5.530 -19.956  12.556  1.00  0.00     0.293 HD
ENDBRANCH   7  25
TORSDOF 6
ENDMDL
MODEL 6
REMARK VINA RESULT:    -4.307      1.472      1.957
REMARK INTER + INTRA:          -5.506
REMARK INTER:                  -5.383
REMARK INTRA:                  -0.123
REMARK UNBOUND:                -0.318
REMARK SMILES Oc1cc(O)c2cc(O)c(-c3ccc(O)c(O)c3)[o+]c2c1
REMARK SMILES IDX 10 1 19 2 20 3 21 4 2 5 3 6 4 7 6 8 7 9 8 10 11 11 12 12
REMARK SMILES IDX 13 13 14 14 18 15 16 16 15 17 17 19 9 21 1 23 5 25
REMARK H PARENT 15 18 17 20 9 22 1 24 5 26
REMARK Flexibility Score: inf
ROOT
ATOM      1  C   UNL     1       4.078 -13.923  11.388  1.00  0.00     0.402 A 
ATOM      2  O   UNL     1       3.199 -14.806  10.922  1.00  0.00    -0.202 OA
ATOM      3  C   UNL     1       3.259 -16.106  11.191  1.00  0.00     0.368 A 
ATOM      4  C   UNL     1       2.286 -16.956  10.657  1.00  0.00     0.162 A 
ATOM      5  C   UNL     1       2.325 -18.328  10.926  1.00  0.00     0.128 A 
ATOM      6  C   UNL     1       3.339 -18.851  11.732  1.00  0.00     0.093 A 
ATOM      7  C   UNL     1       4.324 -18.021  12.278  1.00  0.00     0.136 A 
ATOM      8  C   UNL     1       4.293 -16.627  12.007  1.00  0.00     0.125 A 
ATOM      9  C   UNL     1       5.246 -15.722  12.500  1.00  0.00     0.078 A 
ATOM     10  C   UNL     1       5.151 -14.363  12.185  1.00  0.00     0.223 A 
ENDROOT
BRANCH   1  11
ATOM     11  C   UNL     1       3.897 -12.499  11.026  1.00  0.00     0.087 A 
ATOM     12  C   UNL     1       4.902 -11.837  10.302  1.00  0.00     0.022 A 
ATOM     13  C   UNL     1       4.745 -10.499   9.933  1.00  0.00     0.051 A 
ATOM     14  C   UNL     1       3.578  -9.805  10.268  1.00  0.00     0.157 A 
ATOM     15  C   UNL     1       2.715 -11.805  11.344  1.00  0.00     0.068 A 
ATOM     16  C   UNL     1       2.555 -10.461  10.973  1.00  0.00     0.158 A 
BRANCH  14  17
ATOM     17  O   UNL     1       3.450  -8.470   9.888  1.00  0.00    -0.504 OA
ATOM     18  H   UNL     1       2.725  -8.159   9.252  1.00  0.00     0.293 HD
ENDBRANCH  14  17
BRANCH  16  19
ATOM     19  O   UNL     1       1.382  -9.782  11.298  1.00  0.00    -0.504 OA
ATOM     20  H   UNL     1       1.142  -9.564  12.258  1.00  0.00     0.293 HD
ENDBRANCH  16  19
ENDBRANCH   1  11
BRANCH  10  21
ATOM     21  O   UNL     1       6.125 -13.471  12.633  1.00  0.00    -0.500 OA
ATOM     22  H   UNL     1       6.078 -13.050  13.554  1.00  0.00     0.294 HD
ENDBRANCH  10  21
BRANCH   5  23
ATOM     23  O   UNL     1       1.359 -19.182  10.399  1.00  0.00    -0.507 OA
ATOM     24  H   UNL     1       1.045 -19.098   9.438  1.00  0.00     0.293 HD
ENDBRANCH   5  23
BRANCH   7  25
ATOM     25  O   UNL     1       5.303 -18.620  13.076  1.00  0.00    -0.507 OA
ATOM     26  H   UNL     1       6.269 -18.733  12.807  1.00  0.00     0.293 HD
ENDBRANCH   7  25
TORSDOF 6
ENDMDL
MODEL 7
REMARK VINA RESULT:    -2.707      1.956      2.674
REMARK INTER + INTRA:          -3.578
REMARK INTER:                  -3.887
REMARK INTRA:                   0.309
REMARK UNBOUND:                -0.318
REMARK SMILES Oc1cc(O)c2cc(O)c(-c3ccc(O)c(O)c3)[o+]c2c1
REMARK SMILES IDX 10 1 19 2 20 3 21 4 2 5 3 6 4 7 6 8 7 9 8 10 11 11 12 12
REMARK SMILES IDX 13 13 14 14 18 15 16 16 15 17 17 19 9 21 1 23 5 25
REMARK H PARENT 15 18 17 20 9 22 1 24 5 26
REMARK Flexibility Score: inf
ROOT
ATOM      1  C   UNL     1       4.105 -14.391  10.964  1.00  0.00     0.402 A 
ATOM      2  O   UNL     1       4.935 -15.374  10.625  1.00  0.00    -0.202 OA
ATOM      3  C   UNL     1       4.588 -16.657  10.632  1.00  0.00     0.368 A 
ATOM      4  C   UNL     1       5.530 -17.618  10.256  1.00  0.00     0.162 A 
ATOM      5  C   UNL     1       5.191 -18.974  10.252  1.00  0.00     0.128 A 
ATOM      6  C   UNL     1       3.904 -19.370  10.623  1.00  0.00     0.093 A 
ATOM      7  C   UNL     1       2.942 -18.427  11.003  1.00  0.00     0.136 A 
ATOM      8  C   UNL     1       3.281 -17.049  11.012  1.00  0.00     0.125 A 
ATOM      9  C   UNL     1       2.386 -16.035  11.391  1.00  0.00     0.078 A 
ATOM     10  C   UNL     1       2.796 -14.698  11.379  1.00  0.00     0.223 A 
ENDROOT
BRANCH   1  11
ATOM     11  C   UNL     1       4.607 -12.999  10.905  1.00  0.00     0.087 A 
ATOM     12  C   UNL     1       5.648 -12.677  10.019  1.00  0.00     0.022 A 
ATOM     13  C   UNL     1       6.125 -11.368   9.932  1.00  0.00     0.051 A 
ATOM     14  C   UNL     1       5.561 -10.357  10.717  1.00  0.00     0.157 A 
ATOM     15  C   UNL     1       4.027 -11.977  11.678  1.00  0.00     0.068 A 
ATOM     16  C   UNL     1       4.504 -10.660  11.591  1.00  0.00     0.158 A 
BRANCH  14  17
ATOM     17  O   UNL     1       6.059  -9.058  10.611  1.00  0.00    -0.504 OA
ATOM     18  H   UNL     1       5.738  -8.416   9.895  1.00  0.00     0.293 HD
ENDBRANCH  14  17
BRANCH  16  19
ATOM     19  O   UNL     1       3.927  -9.655  12.366  1.00  0.00    -0.504 OA
ATOM     20  H   UNL     1       2.969  -9.357  12.223  1.00  0.00     0.293 HD
ENDBRANCH  16  19
ENDBRANCH   1  11
BRANCH  10  21
ATOM     21  O   UNL     1       1.924 -13.695  11.803  1.00  0.00    -0.500 OA
ATOM     22  H   UNL     1       2.263 -12.830  12.207  1.00  0.00     0.294 HD
ENDBRANCH  10  21
BRANCH   5  23
ATOM     23  O   UNL     1       6.125 -19.938   9.879  1.00  0.00    -0.507 OA
ATOM     24  H   UNL     1       6.925 -19.705   9.300  1.00  0.00     0.293 HD
ENDBRANCH   5  23
BRANCH   7  25
ATOM     25  O   UNL     1       1.677 -18.904  11.357  1.00  0.00    -0.507 OA
ATOM     26  H   UNL     1       0.881 -18.927  10.737  1.00  0.00     0.293 HD
ENDBRANCH   7  25
TORSDOF 6
ENDMDL
