MODEL 1
REMARK VINA RESULT:    -6.012      0.000      0.000
REMARK INTER + INTRA:          -7.041
REMARK INTER:                  -6.891
REMARK INTRA:                  -0.150
REMARK UNBOUND:                -0.150
REMARK SMILES O=C([O-])C=Cc1ccc(O)cc1
REMARK SMILES IDX 6 1 7 2 12 3 8 4 11 5 9 6 5 7 4 8 2 9 1 10 3 11 10 12
REMARK H PARENT 10 13
REMARK Flexibility Score: inf
ROOT
ATOM      1  C   UNL     1      27.797  24.094  48.837  1.00  0.00    -0.025 A 
ATOM      2  C   UNL     1      28.559  24.649  49.886  1.00  0.00     0.012 A 
ATOM      3  C   UNL     1      26.902  23.050  49.130  1.00  0.00     0.012 A 
ATOM      4  C   UNL     1      28.405  24.183  51.196  1.00  0.00     0.047 A 
ATOM      5  C   UNL     1      26.751  22.588  50.440  1.00  0.00     0.047 A 
ATOM      6  C   UNL     1      27.499  23.153  51.477  1.00  0.00     0.115 A 
ENDROOT
BRANCH   1   7
ATOM      7  C   UNL     1      27.930  24.543  47.430  1.00  0.00     0.010 C 
ATOM      8  C   UNL     1      26.945  24.462  46.525  1.00  0.00     0.025 C 
BRANCH   8   9
ATOM      9  C   UNL     1      27.126  24.910  45.136  1.00  0.00     0.064 C 
ATOM     10  O   UNL     1      28.286  24.988  44.654  1.00  0.00    -0.545 OA
ATOM     11  O   UNL     1      26.034  25.247  44.342  1.00  0.00    -0.545 OA
ENDBRANCH   8   9
ENDBRANCH   1   7
BRANCH   6  12
ATOM     12  O   UNL     1      27.338  22.683  52.778  1.00  0.00    -0.508 OA
ATOM     13  H   UNL     1      26.930  23.261  53.502  1.00  0.00     0.293 HD
ENDBRANCH   6  12
TORSDOF 3
ENDMDL
MODEL 2
REMARK VINA RESULT:    -5.856      0.209      1.410
REMARK INTER + INTRA:          -6.862
REMARK INTER:                  -6.721
REMARK INTRA:                  -0.141
REMARK UNBOUND:                -0.150
REMARK SMILES O=C([O-])C=Cc1ccc(O)cc1
REMARK SMILES IDX 6 1 7 2 12 3 8 4 11 5 9 6 5 7 4 8 2 9 1 10 3 11 10 12
REMARK H PARENT 10 13
REMARK Flexibility Score: inf
ROOT
ATOM      1  C   UNL     1      27.727  23.808  48.733  1.00  0.00    -0.025 A 
ATOM      2  C   UNL     1      26.877  22.737  49.077  1.00  0.00     0.012 A 
ATOM      3  C   UNL     1      28.392  24.501  49.760  1.00  0.00     0.012 A 
ATOM      4  C   UNL     1      26.719  22.359  50.414  1.00  0.00     0.047 A 
ATOM      5  C   UNL     1      28.232  24.120  51.095  1.00  0.00     0.047 A 
ATOM      6  C   UNL     1      27.399  23.048  51.427  1.00  0.00     0.115 A 
ENDROOT
BRANCH   1   7
ATOM      7  C   UNL     1      27.920  24.257  47.332  1.00  0.00     0.010 C 
ATOM      8  C   UNL     1      26.917  24.440  46.463  1.00  0.00     0.025 C 
BRANCH   8   9
ATOM      9  C   UNL     1      27.157  24.875  45.078  1.00  0.00     0.064 C 
ATOM     10  O   UNL     1      28.331  24.884  44.625  1.00  0.00    -0.545 OA
ATOM     11  O   UNL     1      26.106  25.276  44.260  1.00  0.00    -0.545 OA
ENDBRANCH   8   9
ENDBRANCH   1   7
BRANCH   6  12
ATOM     12  O   UNL     1      27.250  22.679  52.762  1.00  0.00    -0.508 OA
ATOM     13  H   UNL     1      26.533  23.088  53.347  1.00  0.00     0.293 HD
ENDBRANCH   6  12
TORSDOF 3
ENDMDL
MODEL 3
REMARK VINA RESULT:    -5.522      1.187      5.761
REMARK INTER + INTRA:          -6.479
REMARK INTER:                  -6.343
REMARK INTRA:                  -0.136
REMARK UNBOUND:                -0.150
REMARK SMILES O=C([O-])C=Cc1ccc(O)cc1
REMARK SMILES IDX 6 1 7 2 12 3 8 4 11 5 9 6 5 7 4 8 2 9 1 10 3 11 10 12
REMARK H PARENT 10 13
REMARK Flexibility Score: inf
ROOT
ATOM      1  C   UNL     1      28.327  24.588  48.438  1.00  0.00    -0.025 A 
ATOM      2  C   UNL     1      29.479  24.778  47.648  1.00  0.00     0.012 A 
ATOM      3  C   UNL     1      27.074  24.520  47.803  1.00  0.00     0.012 A 
ATOM      4  C   UNL     1      29.376  24.872  46.256  1.00  0.00     0.047 A 
ATOM      5  C   UNL     1      26.976  24.614  46.411  1.00  0.00     0.047 A 
ATOM      6  C   UNL     1      28.124  24.788  45.634  1.00  0.00     0.115 A 
ENDROOT
BRANCH   1   7
ATOM      7  C   UNL     1      28.379  24.493  49.917  1.00  0.00     0.010 C 
ATOM      8  C   UNL     1      28.355  23.336  50.592  1.00  0.00     0.025 C 
BRANCH   8   9
ATOM      9  C   UNL     1      28.398  23.291  52.062  1.00  0.00     0.064 C 
ATOM     10  O   UNL     1      29.145  24.088  52.686  1.00  0.00    -0.545 OA
ATOM     11  O   UNL     1      27.624  22.381  52.775  1.00  0.00    -0.545 OA
ENDBRANCH   8   9
ENDBRANCH   1   7
BRANCH   6  12
ATOM     12  O   UNL     1      28.011  24.879  44.249  1.00  0.00    -0.508 OA
ATOM     13  H   UNL     1      27.446  24.225  43.720  1.00  0.00     0.293 HD
ENDBRANCH   6  12
TORSDOF 3
ENDMDL
MODEL 4
REMARK VINA RESULT:    -5.175     11.312     12.693
REMARK INTER + INTRA:          -6.081
REMARK INTER:                  -5.943
REMARK INTRA:                  -0.138
REMARK UNBOUND:                -0.150
REMARK SMILES O=C([O-])C=Cc1ccc(O)cc1
REMARK SMILES IDX 6 1 7 2 12 3 8 4 11 5 9 6 5 7 4 8 2 9 1 10 3 11 10 12
REMARK H PARENT 10 13
REMARK Flexibility Score: inf
ROOT
ATOM      1  C   UNL     1      19.862  23.838  39.106  1.00  0.00    -0.025 A 
ATOM      2  C   UNL     1      20.511  22.757  39.738  1.00  0.00     0.012 A 
ATOM      3  C   UNL     1      19.484  23.706  37.759  1.00  0.00     0.012 A 
ATOM      4  C   UNL     1      20.750  21.568  39.040  1.00  0.00     0.047 A 
ATOM      5  C   UNL     1      19.724  22.516  37.065  1.00  0.00     0.047 A 
ATOM      6  C   UNL     1      20.354  21.445  37.703  1.00  0.00     0.115 A 
ENDROOT
BRANCH   1   7
ATOM      7  C   UNL     1      19.596  25.124  39.797  1.00  0.00     0.010 C 
ATOM      8  C   UNL     1      20.535  26.047  40.042  1.00  0.00     0.025 C 
BRANCH   8   9
ATOM      9  C   UNL     1      20.227  27.304  40.741  1.00  0.00     0.064 C 
ATOM     10  O   UNL     1      19.035  27.567  41.050  1.00  0.00    -0.545 OA
ATOM     11  O   UNL     1      21.232  28.208  41.069  1.00  0.00    -0.545 OA
ENDBRANCH   8   9
ENDBRANCH   1   7
BRANCH   6  12
ATOM     12  O   UNL     1      20.586  20.265  36.999  1.00  0.00    -0.508 OA
ATOM     13  H   UNL     1      21.389  20.160  36.391  1.00  0.00     0.293 HD
ENDBRANCH   6  12
TORSDOF 3
ENDMDL
MODEL 5
REMARK VINA RESULT:    -5.170     11.277     12.750
REMARK INTER + INTRA:          -6.076
REMARK INTER:                  -5.938
REMARK INTRA:                  -0.138
REMARK UNBOUND:                -0.150
REMARK SMILES O=C([O-])C=Cc1ccc(O)cc1
REMARK SMILES IDX 6 1 7 2 12 3 8 4 11 5 9 6 5 7 4 8 2 9 1 10 3 11 10 12
REMARK H PARENT 10 13
REMARK Flexibility Score: inf
ROOT
ATOM      1  C   UNL     1      19.829  23.895  39.036  1.00  0.00    -0.025 A 
ATOM      2  C   UNL     1      19.447  23.755  37.686  1.00  0.00     0.012 A 
ATOM      3  C   UNL     1      20.447  22.809  39.681  1.00  0.00     0.012 A 
ATOM      4  C   UNL     1      19.702  22.564  36.998  1.00  0.00     0.047 A 
ATOM      5  C   UNL     1      20.700  21.621  38.990  1.00  0.00     0.047 A 
ATOM      6  C   UNL     1      20.331  21.495  37.648  1.00  0.00     0.115 A 
ENDROOT
BRANCH   1   7
ATOM      7  C   UNL     1      19.572  25.131  39.815  1.00  0.00     0.010 C 
ATOM      8  C   UNL     1      20.497  26.073  40.045  1.00  0.00     0.025 C 
BRANCH   8   9
ATOM      9  C   UNL     1      20.199  27.279  40.834  1.00  0.00     0.064 C 
ATOM     10  O   UNL     1      19.008  27.537  41.148  1.00  0.00    -0.545 OA
ATOM     11  O   UNL     1      21.214  28.139  41.240  1.00  0.00    -0.545 OA
ENDBRANCH   8   9
ENDBRANCH   1   7
BRANCH   6  12
ATOM     12  O   UNL     1      20.591  20.305  36.971  1.00  0.00    -0.508 OA
ATOM     13  H   UNL     1      19.952  19.942  36.275  1.00  0.00     0.293 HD
ENDBRANCH   6  12
TORSDOF 3
ENDMDL
MODEL 6
REMARK VINA RESULT:    -4.841     10.423     11.886
REMARK INTER + INTRA:          -5.699
REMARK INTER:                  -5.565
REMARK INTRA:                  -0.134
REMARK UNBOUND:                -0.150
REMARK SMILES O=C([O-])C=Cc1ccc(O)cc1
REMARK SMILES IDX 6 1 7 2 12 3 8 4 11 5 9 6 5 7 4 8 2 9 1 10 3 11 10 12
REMARK H PARENT 10 13
REMARK Flexibility Score: inf
ROOT
ATOM      1  C   UNL     1      19.765  25.786  40.076  1.00  0.00    -0.025 A 
ATOM      2  C   UNL     1      18.777  25.878  41.078  1.00  0.00     0.012 A 
ATOM      3  C   UNL     1      20.939  26.546  40.212  1.00  0.00     0.012 A 
ATOM      4  C   UNL     1      18.977  26.692  42.198  1.00  0.00     0.047 A 
ATOM      5  C   UNL     1      21.136  27.359  41.333  1.00  0.00     0.047 A 
ATOM      6  C   UNL     1      20.158  27.433  42.329  1.00  0.00     0.115 A 
ENDROOT
BRANCH   1   7
ATOM      7  C   UNL     1      19.598  24.947  38.864  1.00  0.00     0.010 C 
ATOM      8  C   UNL     1      19.816  23.625  38.837  1.00  0.00     0.025 C 
BRANCH   8   9
ATOM      9  C   UNL     1      19.649  22.834  37.608  1.00  0.00     0.064 C 
ATOM     10  O   UNL     1      20.230  21.722  37.501  1.00  0.00    -0.545 OA
ATOM     11  O   UNL     1      18.858  23.294  36.561  1.00  0.00    -0.545 OA
ENDBRANCH   8   9
ENDBRANCH   1   7
BRANCH   6  12
ATOM     12  O   UNL     1      20.367  28.246  43.440  1.00  0.00    -0.508 OA
ATOM     13  H   UNL     1      19.837  28.122  44.294  1.00  0.00     0.293 HD
ENDBRANCH   6  12
TORSDOF 3
ENDMDL
MODEL 7
REMARK VINA RESULT:    -4.780      1.456      6.018
REMARK INTER + INTRA:          -5.629
REMARK INTER:                  -5.494
REMARK INTRA:                  -0.135
REMARK UNBOUND:                -0.150
REMARK SMILES O=C([O-])C=Cc1ccc(O)cc1
REMARK SMILES IDX 6 1 7 2 12 3 8 4 11 5 9 6 5 7 4 8 2 9 1 10 3 11 10 12
REMARK H PARENT 10 13
REMARK Flexibility Score: inf
ROOT
ATOM      1  C   UNL     1      27.768  23.669  50.037  1.00  0.00    -0.025 A 
ATOM      2  C   UNL     1      28.456  24.811  49.579  1.00  0.00     0.012 A 
ATOM      3  C   UNL     1      27.157  22.823  49.095  1.00  0.00     0.012 A 
ATOM      4  C   UNL     1      28.549  25.080  48.209  1.00  0.00     0.047 A 
ATOM      5  C   UNL     1      27.253  23.095  47.727  1.00  0.00     0.047 A 
ATOM      6  C   UNL     1      27.949  24.221  47.280  1.00  0.00     0.115 A 
ENDROOT
BRANCH   1   7
ATOM      7  C   UNL     1      27.630  23.345  51.478  1.00  0.00     0.010 C 
ATOM      8  C   UNL     1      28.331  22.384  52.096  1.00  0.00     0.025 C 
BRANCH   8   9
ATOM      9  C   UNL     1      28.153  22.089  53.526  1.00  0.00     0.064 C 
ATOM     10  O   UNL     1      28.856  22.694  54.377  1.00  0.00    -0.545 OA
ATOM     11  O   UNL     1      27.218  21.152  53.955  1.00  0.00    -0.545 OA
ENDBRANCH   8   9
ENDBRANCH   1   7
BRANCH   6  12
ATOM     12  O   UNL     1      28.036  24.479  45.913  1.00  0.00    -0.508 OA
ATOM     13  H   UNL     1      27.290  24.947  45.415  1.00  0.00     0.293 HD
ENDBRANCH   6  12
TORSDOF 3
ENDMDL
MODEL 8
REMARK VINA RESULT:    -4.754      2.134      6.171
REMARK INTER + INTRA:          -5.599
REMARK INTER:                  -5.465
REMARK INTRA:                  -0.134
REMARK UNBOUND:                -0.150
REMARK SMILES O=C([O-])C=Cc1ccc(O)cc1
REMARK SMILES IDX 6 1 7 2 12 3 8 4 11 5 9 6 5 7 4 8 2 9 1 10 3 11 10 12
REMARK H PARENT 10 13
REMARK Flexibility Score: inf
ROOT
ATOM      1  C   UNL     1      28.811  23.691  50.136  1.00  0.00    -0.025 A 
ATOM      2  C   UNL     1      28.524  22.464  49.505  1.00  0.00     0.012 A 
ATOM      3  C   UNL     1      28.424  24.885  49.503  1.00  0.00     0.012 A 
ATOM      4  C   UNL     1      27.844  22.438  48.282  1.00  0.00     0.047 A 
ATOM      5  C   UNL     1      27.745  24.855  48.281  1.00  0.00     0.047 A 
ATOM      6  C   UNL     1      27.451  23.633  47.669  1.00  0.00     0.115 A 
ENDROOT
BRANCH   1   7
ATOM      7  C   UNL     1      29.538  23.775  51.427  1.00  0.00     0.010 C 
ATOM      8  C   UNL     1      28.934  23.799  52.623  1.00  0.00     0.025 C 
BRANCH   8   9
ATOM      9  C   UNL     1      29.697  23.894  53.877  1.00  0.00     0.064 C 
ATOM     10  O   UNL     1      30.517  22.988  54.176  1.00  0.00    -0.545 OA
ATOM     11  O   UNL     1      29.527  24.972  54.740  1.00  0.00    -0.545 OA
ENDBRANCH   8   9
ENDBRANCH   1   7
BRANCH   6  12
ATOM     12  O   UNL     1      26.773  23.619  46.452  1.00  0.00    -0.508 OA
ATOM     13  H   UNL     1      26.997  24.275  45.714  1.00  0.00     0.293 HD
ENDBRANCH   6  12
TORSDOF 3
ENDMDL
MODEL 9
REMARK VINA RESULT:    -4.609     11.745     13.112
REMARK INTER + INTRA:          -5.433
REMARK INTER:                  -5.295
REMARK INTRA:                  -0.138
REMARK UNBOUND:                -0.150
REMARK SMILES O=C([O-])C=Cc1ccc(O)cc1
REMARK SMILES IDX 6 1 7 2 12 3 8 4 11 5 9 6 5 7 4 8 2 9 1 10 3 11 10 12
REMARK H PARENT 10 13
REMARK Flexibility Score: inf
ROOT
ATOM      1  C   UNL     1      18.964  24.165  39.386  1.00  0.00    -0.025 A 
ATOM      2  C   UNL     1      19.943  23.327  39.959  1.00  0.00     0.012 A 
ATOM      3  C   UNL     1      18.615  23.974  38.038  1.00  0.00     0.012 A 
ATOM      4  C   UNL     1      20.535  22.309  39.203  1.00  0.00     0.047 A 
ATOM      5  C   UNL     1      19.209  22.956  37.286  1.00  0.00     0.047 A 
ATOM      6  C   UNL     1      20.167  22.120  37.865  1.00  0.00     0.115 A 
ENDROOT
BRANCH   1   7
ATOM      7  C   UNL     1      18.315  25.265  40.140  1.00  0.00     0.010 C 
ATOM      8  C   UNL     1      18.317  25.356  41.477  1.00  0.00     0.025 C 
BRANCH   8   9
ATOM      9  C   UNL     1      17.649  26.460  42.183  1.00  0.00     0.064 C 
ATOM     10  O   UNL     1      18.263  27.079  43.090  1.00  0.00    -0.545 OA
ATOM     11  O   UNL     1      16.347  26.833  41.864  1.00  0.00    -0.545 OA
ENDBRANCH   8   9
ENDBRANCH   1   7
BRANCH   6  12
ATOM     12  O   UNL     1      20.749  21.109  37.104  1.00  0.00    -0.508 OA
ATOM     13  H   UNL     1      20.974  20.208  37.506  1.00  0.00     0.293 HD
ENDBRANCH   6  12
TORSDOF 3
ENDMDL
