MODEL 1
REMARK VINA RESULT:     6.132      0.000      0.000
REMARK INTER + INTRA:           6.788
REMARK INTER:                   6.670
REMARK INTRA:                   0.118
REMARK UNBOUND:                 0.118
REMARK SMILES C[C@@H]1[C@H]2C3=CC[C@@H]4[C@]5(C)CC[C@@H](O)C(C)(C)[C@@H]5CC[C@@]4(C)[C@]3(C)CC[C@@]2(C(=O)[O-])CC[C@@H]1C
REMARK SMILES IDX 26 1 30 2 25 3 3 4 31 5 24 6 4 7 2 8 32 9 22 10 5 11 1 12
REMARK SMILES IDX 33 13 23 14 20 15 6 16 7 17 19 18 21 19 8 20 18 21 17 22
REMARK SMILES IDX 10 23 9 24 14 25 11 26 12 27 15 28 16 29 27 30 28 31 29 32
REMARK SMILES IDX 13 33
REMARK H PARENT 13 34
REMARK Flexibility Score: inf
ROOT
ATOM      1  C   UNL     1      -7.975  15.690  -6.887  1.00  0.00     0.017 C 
ATOM      2  C   UNL     1      -7.021  14.689  -7.623  1.00  0.00     0.014 C 
ATOM      3  C   UNL     1      -9.306  15.808  -7.667  1.00  0.00     0.014 C 
ATOM      4  C   UNL     1      -7.343  17.126  -6.722  1.00  0.00     0.030 C 
ATOM      5  C   UNL     1      -5.597  14.686  -7.069  1.00  0.00     0.004 C 
ATOM      6  C   UNL     1      -9.143  16.394  -9.073  1.00  0.00     0.013 C 
ATOM      7  C   UNL     1      -7.735  18.161  -7.800  1.00  0.00    -0.063 C 
ATOM      8  C   UNL     1      -5.796  17.134  -6.397  1.00  0.00    -0.003 C 
ATOM      9  C   UNL     1      -4.993  16.083  -7.210  1.00  0.00    -0.011 C 
ATOM     10  C   UNL     1      -8.419  17.798  -9.137  1.00  0.00    -0.006 C 
ATOM     11  C   UNL     1      -7.525  19.459  -7.470  1.00  0.00    -0.027 C 
ATOM     12  C   UNL     1      -5.554  17.058  -4.876  1.00  0.00     0.008 C 
ATOM     13  C   UNL     1      -3.493  16.064  -6.862  1.00  0.00     0.008 C 
ATOM     14  C   UNL     1      -7.253  17.658 -10.164  1.00  0.00     0.017 C 
ATOM     15  C   UNL     1      -9.468  18.952  -9.557  1.00  0.00    -0.020 C 
ATOM     16  C   UNL     1      -8.176  20.638  -8.132  1.00  0.00     0.032 C 
ATOM     17  C   UNL     1      -8.787  20.354  -9.524  1.00  0.00     0.006 C 
ATOM     18  C   UNL     1      -9.948  18.761 -11.024  1.00  0.00     0.008 C 
ATOM     19  C   UNL     1     -10.671  18.932  -8.567  1.00  0.00     0.012 C 
ATOM     20  C   UNL     1      -9.601  21.594 -10.174  1.00  0.00    -0.025 C 
ATOM     21  C   UNL     1     -11.111  19.684 -11.371  1.00  0.00     0.005 C 
ATOM     22  C   UNL     1     -10.829  21.196 -11.144  1.00  0.00     0.003 C 
ATOM     23  C   UNL     1     -10.090  22.604  -9.083  1.00  0.00     0.010 C 
ATOM     24  C   UNL     1      -8.545  22.375 -11.029  1.00  0.00     0.012 C 
ATOM     25  C   UNL     1     -12.178  22.040 -10.977  1.00  0.00    -0.006 C 
ATOM     26  C   UNL     1     -10.835  23.837  -9.633  1.00  0.00     0.033 C 
ATOM     27  C   UNL     1     -11.835  23.551 -10.782  1.00  0.00     0.120 C 
ATOM     28  C   UNL     1     -13.114  21.600  -9.804  1.00  0.00     0.014 C 
ATOM     29  C   UNL     1     -13.028  21.896 -12.276  1.00  0.00     0.014 C 
ENDROOT
BRANCH   1  30
ATOM     30  C   UNL     1      -8.346  15.143  -5.501  1.00  0.00     0.048 C 
ATOM     31  O   UNL     1      -9.357  15.549  -4.875  1.00  0.00    -0.550 OA
ATOM     32  O   UNL     1      -7.556  14.160  -4.907  1.00  0.00    -0.550 OA
ENDBRANCH   1  30
BRANCH  27  33
ATOM     33  O   UNL     1     -11.345  24.123 -11.981  1.00  0.00    -0.393 OA
ATOM     34  H   UNL     1     -11.891  24.935 -12.163  1.00  0.00     0.210 HD
ENDBRANCH  27  33
TORSDOF 2
ENDMDL
