MODEL 1
REMARK VINA RESULT:    -2.573      0.000      0.000
REMARK INTER + INTRA:          -9.864
REMARK INTER:                  -5.581
REMARK INTRA:                  -4.283
REMARK UNBOUND:                -4.283
REMARK SMILES CCCCCCCCCCCCCCCCCCCCCC(=O)[O-]
REMARK SMILES IDX 12 1 11 2 10 3 9 4 8 5 7 6 6 7 5 8 4 9 3 10 2 11 1 12 13 13
REMARK SMILES IDX 14 14 15 15 16 16 17 17 18 18 19 19 20 20 21 21 22 22 23 23
REMARK SMILES IDX 24 24
REMARK H PARENT
REMARK Flexibility Score: inf
ROOT
ATOM      1  C   UNL     1      97.228  64.398 226.667  1.00  0.00     0.000 C 
ENDROOT
BRANCH   1   2
ATOM      2  C   UNL     1      95.850  65.007 226.968  1.00  0.00     0.000 C 
BRANCH   2   3
ATOM      3  C   UNL     1      95.256  65.760 225.767  1.00  0.00     0.000 C 
BRANCH   3   4
ATOM      4  C   UNL     1      96.043  65.507 224.468  1.00  0.00    -0.000 C 
BRANCH   4   5
ATOM      5  C   UNL     1      96.611  66.798 223.860  1.00  0.00    -0.000 C 
BRANCH   5   6
ATOM      6  C   UNL     1      96.740  67.935 224.890  1.00  0.00    -0.000 C 
BRANCH   6   7
ATOM      7  C   UNL     1      98.201  68.233 225.260  1.00  0.00    -0.000 C 
BRANCH   7   8
ATOM      8  C   UNL     1      98.375  68.589 226.746  1.00  0.00    -0.000 C 
BRANCH   8   9
ATOM      9  C   UNL     1      97.057  68.508 227.539  1.00  0.00    -0.000 C 
BRANCH   9  10
ATOM     10  C   UNL     1      97.219  68.174 229.033  1.00  0.00    -0.000 C 
BRANCH  10  11
ATOM     11  C   UNL     1      95.919  67.674 229.678  1.00  0.00    -0.003 C 
ATOM     12  C   UNL     1      96.150  66.372 230.439  1.00  0.00     0.004 C 
ENDBRANCH  10  11
ENDBRANCH   9  10
ENDBRANCH   8   9
ENDBRANCH   7   8
ENDBRANCH   6   7
ENDBRANCH   5   6
ENDBRANCH   4   5
ENDBRANCH   3   4
ENDBRANCH   2   3
ENDBRANCH   1   2
BRANCH   1  13
ATOM     13  C   UNL     1      98.288  64.955 227.625  1.00  0.00     0.000 C 
BRANCH  13  14
ATOM     14  C   UNL     1      99.631  65.156 226.910  1.00  0.00     0.000 C 
BRANCH  14  15
ATOM     15  C   UNL     1      99.586  64.738 225.431  1.00  0.00     0.000 C 
BRANCH  15  16
ATOM     16  C   UNL     1     100.984  64.539 224.805  1.00  0.00     0.000 C 
BRANCH  16  17
ATOM     17  C   UNL     1     101.984  63.925 225.801  1.00  0.00     0.000 C 
BRANCH  17  18
ATOM     18  C   UNL     1     102.398  62.488 225.421  1.00  0.00     0.000 C 
BRANCH  18  19
ATOM     19  C   UNL     1     101.609  61.394 226.166  1.00  0.00     0.000 C 
BRANCH  19  20
ATOM     20  C   UNL     1     101.017  61.824 227.517  1.00  0.00     0.006 C 
BRANCH  20  21
ATOM     21  C   UNL     1      99.525  61.484 227.650  1.00  0.00     0.053 C 
BRANCH  21  22
ATOM     22  C   UNL     1      99.067  61.666 229.062  1.00  0.00     0.041 C 
ATOM     23  O   UNL     1      97.937  61.242 229.423  1.00  0.00    -0.550 OA
ATOM     24  O   UNL     1      99.887  62.309 229.982  1.00  0.00    -0.550 OA
ENDBRANCH  21  22
ENDBRANCH  20  21
ENDBRANCH  19  20
ENDBRANCH  18  19
ENDBRANCH  17  18
ENDBRANCH  16  17
ENDBRANCH  15  16
ENDBRANCH  14  15
ENDBRANCH  13  14
ENDBRANCH   1  13
TORSDOF 20
ENDMDL
MODEL 2
REMARK VINA RESULT:    -2.488      2.097      5.658
REMARK INTER + INTRA:          -9.680
REMARK INTER:                  -5.585
REMARK INTRA:                  -4.096
REMARK UNBOUND:                -4.283
REMARK SMILES CCCCCCCCCCCCCCCCCCCCCC(=O)[O-]
REMARK SMILES IDX 12 1 11 2 10 3 9 4 8 5 7 6 6 7 5 8 4 9 3 10 2 11 1 12 13 13
REMARK SMILES IDX 14 14 15 15 16 16 17 17 18 18 19 19 20 20 21 21 22 22 23 23
REMARK SMILES IDX 24 24
REMARK H PARENT
REMARK Flexibility Score: inf
ROOT
ATOM      1  C   UNL     1     100.831  66.513 226.436  1.00  0.00     0.000 C 
ENDROOT
BRANCH   1   2
ATOM      2  C   UNL     1     100.950  66.074 224.969  1.00  0.00     0.000 C 
BRANCH   2   3
ATOM      3  C   UNL     1     100.791  64.556 224.787  1.00  0.00     0.000 C 
BRANCH   3   4
ATOM      4  C   UNL     1     102.047  63.778 225.217  1.00  0.00    -0.000 C 
BRANCH   4   5
ATOM      5  C   UNL     1     101.783  62.835 226.401  1.00  0.00    -0.000 C 
BRANCH   5   6
ATOM      6  C   UNL     1     100.314  62.858 226.863  1.00  0.00    -0.000 C 
BRANCH   6   7
ATOM      7  C   UNL     1      99.923  61.596 227.647  1.00  0.00    -0.000 C 
BRANCH   7   8
ATOM      8  C   UNL     1      98.436  61.580 228.040  1.00  0.00    -0.000 C 
BRANCH   8   9
ATOM      9  C   UNL     1      98.217  61.732 229.557  1.00  0.00    -0.000 C 
BRANCH   9  10
ATOM     10  C   UNL     1      99.309  62.527 230.294  1.00  0.00    -0.000 C 
BRANCH  10  11
ATOM     11  C   UNL     1      98.998  64.027 230.387  1.00  0.00    -0.003 C 
ATOM     12  C   UNL     1     100.198  64.864 229.957  1.00  0.00     0.004 C 
ENDBRANCH  10  11
ENDBRANCH   9  10
ENDBRANCH   8   9
ENDBRANCH   7   8
ENDBRANCH   6   7
ENDBRANCH   5   6
ENDBRANCH   4   5
ENDBRANCH   3   4
ENDBRANCH   2   3
ENDBRANCH   1   2
BRANCH   1  13
ATOM     13  C   UNL     1      99.820  67.656 226.580  1.00  0.00     0.000 C 
BRANCH  13  14
ATOM     14  C   UNL     1      99.087  67.918 225.258  1.00  0.00     0.000 C 
BRANCH  14  15
ATOM     15  C   UNL     1      97.632  68.373 225.465  1.00  0.00     0.000 C 
BRANCH  15  16
ATOM     16  C   UNL     1      96.595  67.439 224.805  1.00  0.00     0.000 C 
BRANCH  16  17
ATOM     17  C   UNL     1      97.200  66.075 224.425  1.00  0.00     0.000 C 
BRANCH  17  18
ATOM     18  C   UNL     1      96.684  64.925 225.314  1.00  0.00     0.000 C 
BRANCH  18  19
ATOM     19  C   UNL     1      97.411  64.805 226.667  1.00  0.00     0.000 C 
BRANCH  19  20
ATOM     20  C   UNL     1      96.538  65.084 227.901  1.00  0.00     0.006 C 
BRANCH  20  21
ATOM     21  C   UNL     1      96.813  66.458 228.529  1.00  0.00     0.053 C 
BRANCH  21  22
ATOM     22  C   UNL     1      96.355  66.489 229.952  1.00  0.00     0.041 C 
ATOM     23  O   UNL     1      95.421  65.735 230.335  1.00  0.00    -0.550 OA
ATOM     24  O   UNL     1      96.958  67.353 230.859  1.00  0.00    -0.550 OA
ENDBRANCH  21  22
ENDBRANCH  20  21
ENDBRANCH  19  20
ENDBRANCH  18  19
ENDBRANCH  17  18
ENDBRANCH  16  17
ENDBRANCH  15  16
ENDBRANCH  14  15
ENDBRANCH  13  14
ENDBRANCH   1  13
TORSDOF 20
ENDMDL
MODEL 3
REMARK VINA RESULT:    -2.481      1.639      5.882
REMARK INTER + INTRA:          -9.665
REMARK INTER:                  -6.010
REMARK INTRA:                  -3.656
REMARK UNBOUND:                -4.283
REMARK SMILES CCCCCCCCCCCCCCCCCCCCCC(=O)[O-]
REMARK SMILES IDX 12 1 11 2 10 3 9 4 8 5 7 6 6 7 5 8 4 9 3 10 2 11 1 12 13 13
REMARK SMILES IDX 14 14 15 15 16 16 17 17 18 18 19 19 20 20 21 21 22 22 23 23
REMARK SMILES IDX 24 24
REMARK H PARENT
REMARK Flexibility Score: inf
ROOT
ATOM      1  C   UNL     1      97.624  64.835 225.219  1.00  0.00     0.000 C 
ENDROOT
BRANCH   1   2
ATOM      2  C   UNL     1      97.466  64.296 226.649  1.00  0.00     0.000 C 
BRANCH   2   3
ATOM      3  C   UNL     1      98.762  63.682 227.201  1.00  0.00     0.000 C 
BRANCH   3   4
ATOM      4  C   UNL     1      99.297  64.444 228.427  1.00  0.00    -0.000 C 
BRANCH   4   5
ATOM      5  C   UNL     1     100.657  65.108 228.164  1.00  0.00    -0.000 C 
BRANCH   5   6
ATOM      6  C   UNL     1     100.577  66.234 227.116  1.00  0.00    -0.000 C 
BRANCH   6   7
ATOM      7  C   UNL     1     101.662  66.110 226.036  1.00  0.00    -0.000 C 
BRANCH   7   8
ATOM      8  C   UNL     1     101.159  65.395 224.770  1.00  0.00    -0.000 C 
BRANCH   8   9
ATOM      9  C   UNL     1     101.517  63.897 224.748  1.00  0.00    -0.000 C 
BRANCH   9  10
ATOM     10  C   UNL     1     102.789  63.522 225.527  1.00  0.00    -0.000 C 
BRANCH  10  11
ATOM     11  C   UNL     1     102.850  62.033 225.892  1.00  0.00    -0.003 C 
ATOM     12  C   UNL     1     101.669  61.634 226.772  1.00  0.00     0.004 C 
ENDBRANCH  10  11
ENDBRANCH   9  10
ENDBRANCH   8   9
ENDBRANCH   7   8
ENDBRANCH   6   7
ENDBRANCH   5   6
ENDBRANCH   4   5
ENDBRANCH   3   4
ENDBRANCH   2   3
ENDBRANCH   1   2
BRANCH   1  13
ATOM     13  C   UNL     1      96.282  65.340 224.678  1.00  0.00     0.000 C 
BRANCH  13  14
ATOM     14  C   UNL     1      96.122  66.848 224.909  1.00  0.00     0.000 C 
BRANCH  14  15
ATOM     15  C   UNL     1      95.209  67.174 226.102  1.00  0.00     0.000 C 
BRANCH  15  16
ATOM     16  C   UNL     1      95.801  68.229 227.062  1.00  0.00     0.000 C 
BRANCH  16  17
ATOM     17  C   UNL     1      97.278  67.947 227.394  1.00  0.00     0.000 C 
BRANCH  17  18
ATOM     18  C   UNL     1      97.491  67.540 228.867  1.00  0.00     0.000 C 
BRANCH  18  19
ATOM     19  C   UNL     1      96.196  67.133 229.596  1.00  0.00     0.000 C 
BRANCH  19  20
ATOM     20  C   UNL     1      96.182  65.697 230.144  1.00  0.00     0.006 C 
BRANCH  20  21
ATOM     21  C   UNL     1      97.154  65.496 231.316  1.00  0.00     0.053 C 
BRANCH  21  22
ATOM     22  C   UNL     1      97.132  64.075 231.782  1.00  0.00     0.041 C 
ATOM     23  O   UNL     1      97.462  63.145 230.998  1.00  0.00    -0.550 OA
ATOM     24  O   UNL     1      96.743  63.775 233.081  1.00  0.00    -0.550 OA
ENDBRANCH  21  22
ENDBRANCH  20  21
ENDBRANCH  19  20
ENDBRANCH  18  19
ENDBRANCH  17  18
ENDBRANCH  16  17
ENDBRANCH  15  16
ENDBRANCH  14  15
ENDBRANCH  13  14
ENDBRANCH   1  13
TORSDOF 20
ENDMDL
MODEL 4
REMARK VINA RESULT:    -2.479      2.203      5.947
REMARK INTER + INTRA:          -9.659
REMARK INTER:                  -5.828
REMARK INTRA:                  -3.831
REMARK UNBOUND:                -4.283
REMARK SMILES CCCCCCCCCCCCCCCCCCCCCC(=O)[O-]
REMARK SMILES IDX 12 1 11 2 10 3 9 4 8 5 7 6 6 7 5 8 4 9 3 10 2 11 1 12 13 13
REMARK SMILES IDX 14 14 15 15 16 16 17 17 18 18 19 19 20 20 21 21 22 22 23 23
REMARK SMILES IDX 24 24
REMARK H PARENT
REMARK Flexibility Score: inf
ROOT
ATOM      1  C   UNL     1     100.076  67.188 226.715  1.00  0.00     0.000 C 
ENDROOT
BRANCH   1   2
ATOM      2  C   UNL     1     100.667  65.779 226.555  1.00  0.00     0.000 C 
BRANCH   2   3
ATOM      3  C   UNL     1     100.296  65.126 225.214  1.00  0.00     0.000 C 
BRANCH   3   4
ATOM      4  C   UNL     1     101.473  64.354 224.591  1.00  0.00    -0.000 C 
BRANCH   4   5
ATOM      5  C   UNL     1     102.314  63.611 225.640  1.00  0.00    -0.000 C 
BRANCH   5   6
ATOM      6  C   UNL     1     102.182  62.080 225.531  1.00  0.00    -0.000 C 
BRANCH   6   7
ATOM      7  C   UNL     1     101.305  61.484 226.643  1.00  0.00    -0.000 C 
BRANCH   7   8
ATOM      8  C   UNL     1     101.356  62.306 227.942  1.00  0.00    -0.000 C 
BRANCH   8   9
ATOM      9  C   UNL     1      99.974  62.833 228.371  1.00  0.00    -0.000 C 
BRANCH   9  10
ATOM     10  C   UNL     1      98.777  62.137 227.700  1.00  0.00    -0.000 C 
BRANCH  10  11
ATOM     11  C   UNL     1      98.013  61.208 228.653  1.00  0.00    -0.003 C 
ATOM     12  C   UNL     1      97.797  61.869 230.010  1.00  0.00     0.004 C 
ENDBRANCH  10  11
ENDBRANCH   9  10
ENDBRANCH   8   9
ENDBRANCH   7   8
ENDBRANCH   6   7
ENDBRANCH   5   6
ENDBRANCH   4   5
ENDBRANCH   3   4
ENDBRANCH   2   3
ENDBRANCH   1   2
BRANCH   1  13
ATOM     13  C   UNL     1      99.451  67.667 225.399  1.00  0.00     0.000 C 
BRANCH  13  14
ATOM     14  C   UNL     1      98.271  68.613 225.657  1.00  0.00     0.000 C 
BRANCH  14  15
ATOM     15  C   UNL     1      96.909  67.956 225.378  1.00  0.00     0.000 C 
BRANCH  15  16
ATOM     16  C   UNL     1      96.974  66.821 224.333  1.00  0.00     0.000 C 
BRANCH  16  17
ATOM     17  C   UNL     1      96.131  65.601 224.747  1.00  0.00     0.000 C 
BRANCH  17  18
ATOM     18  C   UNL     1      96.848  64.704 225.778  1.00  0.00     0.000 C 
BRANCH  18  19
ATOM     19  C   UNL     1      96.252  64.780 227.196  1.00  0.00     0.000 C 
BRANCH  19  20
ATOM     20  C   UNL     1      97.139  65.480 228.238  1.00  0.00     0.006 C 
BRANCH  20  21
ATOM     21  C   UNL     1      96.416  65.721 229.571  1.00  0.00     0.053 C 
BRANCH  21  22
ATOM     22  C   UNL     1      96.095  67.172 229.741  1.00  0.00     0.041 C 
ATOM     23  O   UNL     1      96.484  67.792 230.767  1.00  0.00    -0.550 OA
ATOM     24  O   UNL     1      95.363  67.842 228.768  1.00  0.00    -0.550 OA
ENDBRANCH  21  22
ENDBRANCH  20  21
ENDBRANCH  19  20
ENDBRANCH  18  19
ENDBRANCH  17  18
ENDBRANCH  16  17
ENDBRANCH  15  16
ENDBRANCH  14  15
ENDBRANCH  13  14
ENDBRANCH   1  13
TORSDOF 20
ENDMDL
MODEL 5
REMARK VINA RESULT:    -2.451      2.557      6.428
REMARK INTER + INTRA:          -9.600
REMARK INTER:                  -5.741
REMARK INTRA:                  -3.859
REMARK UNBOUND:                -4.283
REMARK SMILES CCCCCCCCCCCCCCCCCCCCCC(=O)[O-]
REMARK SMILES IDX 12 1 11 2 10 3 9 4 8 5 7 6 6 7 5 8 4 9 3 10 2 11 1 12 13 13
REMARK SMILES IDX 14 14 15 15 16 16 17 17 18 18 19 19 20 20 21 21 22 22 23 23
REMARK SMILES IDX 24 24
REMARK H PARENT
REMARK Flexibility Score: inf
ROOT
ATOM      1  C   UNL     1      97.166  64.594 226.029  1.00  0.00     0.000 C 
ENDROOT
BRANCH   1   2
ATOM      2  C   UNL     1      95.970  65.033 226.888  1.00  0.00     0.000 C 
BRANCH   2   3
ATOM      3  C   UNL     1      96.362  66.032 227.988  1.00  0.00     0.000 C 
BRANCH   3   4
ATOM      4  C   UNL     1      97.781  65.783 228.529  1.00  0.00    -0.000 C 
BRANCH   4   5
ATOM      5  C   UNL     1      97.840  64.610 229.519  1.00  0.00    -0.000 C 
BRANCH   5   6
ATOM      6  C   UNL     1      99.168  63.835 229.445  1.00  0.00    -0.000 C 
BRANCH   6   7
ATOM      7  C   UNL     1     100.248  64.591 228.656  1.00  0.00    -0.000 C 
BRANCH   7   8
ATOM      8  C   UNL     1     101.195  63.648 227.895  1.00  0.00    -0.000 C 
BRANCH   8   9
ATOM      9  C   UNL     1     100.615  63.175 226.549  1.00  0.00    -0.000 C 
BRANCH   9  10
ATOM     10  C   UNL     1     101.658  62.912 225.449  1.00  0.00    -0.000 C 
BRANCH  10  11
ATOM     11  C   UNL     1     102.945  62.271 225.986  1.00  0.00    -0.003 C 
ATOM     12  C   UNL     1     104.134  63.212 225.829  1.00  0.00     0.004 C 
ENDBRANCH  10  11
ENDBRANCH   9  10
ENDBRANCH   8   9
ENDBRANCH   7   8
ENDBRANCH   6   7
ENDBRANCH   5   6
ENDBRANCH   4   5
ENDBRANCH   3   4
ENDBRANCH   2   3
ENDBRANCH   1   2
BRANCH   1  13
ATOM     13  C   UNL     1      96.940  64.960 224.558  1.00  0.00     0.000 C 
BRANCH  13  14
ATOM     14  C   UNL     1      95.632  65.741 224.374  1.00  0.00     0.000 C 
BRANCH  14  15
ATOM     15  C   UNL     1      95.674  66.696 223.170  1.00  0.00     0.000 C 
BRANCH  15  16
ATOM     16  C   UNL     1      95.953  68.165 223.557  1.00  0.00     0.000 C 
BRANCH  16  17
ATOM     17  C   UNL     1      95.849  68.394 225.076  1.00  0.00     0.000 C 
BRANCH  17  18
ATOM     18  C   UNL     1      97.156  68.941 225.687  1.00  0.00     0.000 C 
BRANCH  18  19
ATOM     19  C   UNL     1      98.433  68.398 225.018  1.00  0.00     0.000 C 
BRANCH  19  20
ATOM     20  C   UNL     1      99.446  67.752 225.978  1.00  0.00     0.006 C 
BRANCH  20  21
ATOM     21  C   UNL     1     100.182  66.558 225.354  1.00  0.00     0.053 C 
BRANCH  21  22
ATOM     22  C   UNL     1     101.643  66.852 225.219  1.00  0.00     0.041 C 
ATOM     23  O   UNL     1     102.463  66.398 226.061  1.00  0.00    -0.550 OA
ATOM     24  O   UNL     1     102.100  67.632 224.163  1.00  0.00    -0.550 OA
ENDBRANCH  21  22
ENDBRANCH  20  21
ENDBRANCH  19  20
ENDBRANCH  18  19
ENDBRANCH  17  18
ENDBRANCH  16  17
ENDBRANCH  15  16
ENDBRANCH  14  15
ENDBRANCH  13  14
ENDBRANCH   1  13
TORSDOF 20
ENDMDL
MODEL 6
REMARK VINA RESULT:    -2.436      2.211      3.246
REMARK INTER + INTRA:          -9.567
REMARK INTER:                  -5.661
REMARK INTRA:                  -3.906
REMARK UNBOUND:                -4.283
REMARK SMILES CCCCCCCCCCCCCCCCCCCCCC(=O)[O-]
REMARK SMILES IDX 12 1 11 2 10 3 9 4 8 5 7 6 6 7 5 8 4 9 3 10 2 11 1 12 13 13
REMARK SMILES IDX 14 14 15 15 16 16 17 17 18 18 19 19 20 20 21 21 22 22 23 23
REMARK SMILES IDX 24 24
REMARK H PARENT
REMARK Flexibility Score: inf
ROOT
ATOM      1  C   UNL     1      97.693  64.572 226.405  1.00  0.00     0.000 C 
ENDROOT
BRANCH   1   2
ATOM      2  C   UNL     1      96.358  64.964 225.753  1.00  0.00     0.000 C 
BRANCH   2   3
ATOM      3  C   UNL     1      96.519  65.413 224.292  1.00  0.00     0.000 C 
BRANCH   3   4
ATOM      4  C   UNL     1      95.924  66.810 224.038  1.00  0.00    -0.000 C 
BRANCH   4   5
ATOM      5  C   UNL     1      95.636  67.576 225.338  1.00  0.00    -0.000 C 
BRANCH   5   6
ATOM      6  C   UNL     1      96.754  68.569 225.703  1.00  0.00    -0.000 C 
BRANCH   6   7
ATOM      7  C   UNL     1      97.022  68.626 227.215  1.00  0.00    -0.000 C 
BRANCH   7   8
ATOM      8  C   UNL     1      95.984  67.836 228.030  1.00  0.00    -0.000 C 
BRANCH   8   9
ATOM      9  C   UNL     1      96.528  67.359 229.390  1.00  0.00    -0.000 C 
BRANCH   9  10
ATOM     10  C   UNL     1      96.059  65.959 229.822  1.00  0.00    -0.000 C 
BRANCH  10  11
ATOM     11  C   UNL     1      96.816  65.425 231.045  1.00  0.00    -0.003 C 
ATOM     12  C   UNL     1      97.565  64.139 230.709  1.00  0.00     0.004 C 
ENDBRANCH  10  11
ENDBRANCH   9  10
ENDBRANCH   8   9
ENDBRANCH   7   8
ENDBRANCH   6   7
ENDBRANCH   5   6
ENDBRANCH   4   5
ENDBRANCH   3   4
ENDBRANCH   2   3
ENDBRANCH   1   2
BRANCH   1  13
ATOM     13  C   UNL     1      98.874  65.104 225.586  1.00  0.00     0.000 C 
BRANCH  13  14
ATOM     14  C   UNL     1      99.818  65.945 226.454  1.00  0.00     0.000 C 
BRANCH  14  15
ATOM     15  C   UNL     1      99.404  65.966 227.935  1.00  0.00     0.000 C 
BRANCH  15  16
ATOM     16  C   UNL     1     100.588  65.776 228.909  1.00  0.00     0.000 C 
BRANCH  16  17
ATOM     17  C   UNL     1     101.389  64.496 228.605  1.00  0.00     0.000 C 
BRANCH  17  18
ATOM     18  C   UNL     1     100.549  63.213 228.774  1.00  0.00     0.000 C 
BRANCH  18  19
ATOM     19  C   UNL     1     101.024  62.036 227.902  1.00  0.00     0.000 C 
BRANCH  19  20
ATOM     20  C   UNL     1     101.207  62.363 226.411  1.00  0.00     0.006 C 
BRANCH  20  21
ATOM     21  C   UNL     1     102.629  62.073 225.907  1.00  0.00     0.053 C 
BRANCH  21  22
ATOM     22  C   UNL     1     103.348  63.346 225.595  1.00  0.00     0.041 C 
ATOM     23  O   UNL     1     102.699  64.387 225.305  1.00  0.00    -0.550 OA
ATOM     24  O   UNL     1     104.737  63.385 225.620  1.00  0.00    -0.550 OA
ENDBRANCH  21  22
ENDBRANCH  20  21
ENDBRANCH  19  20
ENDBRANCH  18  19
ENDBRANCH  17  18
ENDBRANCH  16  17
ENDBRANCH  15  16
ENDBRANCH  14  15
ENDBRANCH  13  14
ENDBRANCH   1  13
TORSDOF 20
ENDMDL
MODEL 7
REMARK VINA RESULT:    -2.419      2.426      4.475
REMARK INTER + INTRA:          -9.531
REMARK INTER:                  -5.233
REMARK INTRA:                  -4.299
REMARK UNBOUND:                -4.283
REMARK SMILES CCCCCCCCCCCCCCCCCCCCCC(=O)[O-]
REMARK SMILES IDX 12 1 11 2 10 3 9 4 8 5 7 6 6 7 5 8 4 9 3 10 2 11 1 12 13 13
REMARK SMILES IDX 14 14 15 15 16 16 17 17 18 18 19 19 20 20 21 21 22 22 23 23
REMARK SMILES IDX 24 24
REMARK H PARENT
REMARK Flexibility Score: inf
ROOT
ATOM      1  C   UNL     1      99.040  65.503 229.147  1.00  0.00     0.000 C 
ENDROOT
BRANCH   1   2
ATOM      2  C   UNL     1      98.182  66.749 229.414  1.00  0.00     0.000 C 
BRANCH   2   3
ATOM      3  C   UNL     1      96.718  66.568 228.981  1.00  0.00     0.000 C 
BRANCH   3   4
ATOM      4  C   UNL     1      96.378  67.369 227.712  1.00  0.00    -0.000 C 
BRANCH   4   5
ATOM      5  C   UNL     1      95.978  66.469 226.533  1.00  0.00    -0.000 C 
BRANCH   5   6
ATOM      6  C   UNL     1      96.117  64.969 226.856  1.00  0.00    -0.000 C 
BRANCH   6   7
ATOM      7  C   UNL     1      97.298  64.316 226.122  1.00  0.00    -0.000 C 
BRANCH   7   8
ATOM      8  C   UNL     1      97.918  65.238 225.058  1.00  0.00    -0.000 C 
BRANCH   8   9
ATOM      9  C   UNL     1      99.357  65.666 225.403  1.00  0.00    -0.000 C 
BRANCH   9  10
ATOM     10  C   UNL     1      99.611  67.183 225.358  1.00  0.00    -0.000 C 
BRANCH  10  11
ATOM     11  C   UNL     1     100.378  67.698 226.583  1.00  0.00    -0.003 C 
ATOM     12  C   UNL     1     101.679  66.927 226.780  1.00  0.00     0.004 C 
ENDBRANCH  10  11
ENDBRANCH   9  10
ENDBRANCH   8   9
ENDBRANCH   7   8
ENDBRANCH   6   7
ENDBRANCH   5   6
ENDBRANCH   4   5
ENDBRANCH   3   4
ENDBRANCH   2   3
ENDBRANCH   1   2
BRANCH   1  13
ATOM     13  C   UNL     1      99.516  64.880 230.464  1.00  0.00     0.000 C 
BRANCH  13  14
ATOM     14  C   UNL     1      99.104  63.406 230.562  1.00  0.00     0.000 C 
BRANCH  14  15
ATOM     15  C   UNL     1      97.808  63.098 229.794  1.00  0.00     0.000 C 
BRANCH  15  16
ATOM     16  C   UNL     1      97.952  61.944 228.778  1.00  0.00     0.000 C 
BRANCH  16  17
ATOM     17  C   UNL     1      99.215  61.101 229.033  1.00  0.00     0.000 C 
BRANCH  17  18
ATOM     18  C   UNL     1     100.157  61.056 227.812  1.00  0.00     0.000 C 
BRANCH  18  19
ATOM     19  C   UNL     1     100.271  62.396 227.061  1.00  0.00     0.000 C 
BRANCH  19  20
ATOM     20  C   UNL     1     101.459  63.277 227.478  1.00  0.00     0.006 C 
BRANCH  20  21
ATOM     21  C   UNL     1     102.811  62.713 227.017  1.00  0.00     0.053 C 
BRANCH  21  22
ATOM     22  C   UNL     1     103.414  63.584 225.961  1.00  0.00     0.041 C 
ATOM     23  O   UNL     1     102.711  63.994 224.999  1.00  0.00    -0.550 OA
ATOM     24  O   UNL     1     104.754  63.943 226.037  1.00  0.00    -0.550 OA
ENDBRANCH  21  22
ENDBRANCH  20  21
ENDBRANCH  19  20
ENDBRANCH  18  19
ENDBRANCH  17  18
ENDBRANCH  16  17
ENDBRANCH  15  16
ENDBRANCH  14  15
ENDBRANCH  13  14
ENDBRANCH   1  13
TORSDOF 20
ENDMDL
MODEL 8
REMARK VINA RESULT:    -2.415      2.389      4.011
REMARK INTER + INTRA:          -9.521
REMARK INTER:                  -5.542
REMARK INTRA:                  -3.980
REMARK UNBOUND:                -4.283
REMARK SMILES CCCCCCCCCCCCCCCCCCCCCC(=O)[O-]
REMARK SMILES IDX 12 1 11 2 10 3 9 4 8 5 7 6 6 7 5 8 4 9 3 10 2 11 1 12 13 13
REMARK SMILES IDX 14 14 15 15 16 16 17 17 18 18 19 19 20 20 21 21 22 22 23 23
REMARK SMILES IDX 24 24
REMARK H PARENT
REMARK Flexibility Score: inf
ROOT
ATOM      1  C   UNL     1      96.340  65.745 228.587  1.00  0.00     0.000 C 
ENDROOT
BRANCH   1   2
ATOM      2  C   UNL     1      96.239  67.205 228.118  1.00  0.00     0.000 C 
BRANCH   2   3
ATOM      3  C   UNL     1      95.961  67.328 226.612  1.00  0.00     0.000 C 
BRANCH   3   4
ATOM      4  C   UNL     1      95.636  65.972 225.961  1.00  0.00    -0.000 C 
BRANCH   4   5
ATOM      5  C   UNL     1      96.666  65.562 224.898  1.00  0.00    -0.000 C 
BRANCH   5   6
ATOM      6  C   UNL     1      97.550  64.385 225.349  1.00  0.00    -0.000 C 
BRANCH   6   7
ATOM      7  C   UNL     1      99.043  64.746 225.377  1.00  0.00    -0.000 C 
BRANCH   7   8
ATOM      8  C   UNL     1      99.369  65.844 226.404  1.00  0.00    -0.000 C 
BRANCH   8   9
ATOM      9  C   UNL     1     100.724  65.627 227.103  1.00  0.00    -0.000 C 
BRANCH   9  10
ATOM     10  C   UNL     1     100.849  66.279 228.491  1.00  0.00    -0.000 C 
BRANCH  10  11
ATOM     11  C   UNL     1      99.891  67.462 228.685  1.00  0.00    -0.003 C 
ATOM     12  C   UNL     1      99.571  67.672 230.162  1.00  0.00     0.004 C 
ENDBRANCH  10  11
ENDBRANCH   9  10
ENDBRANCH   8   9
ENDBRANCH   7   8
ENDBRANCH   6   7
ENDBRANCH   5   6
ENDBRANCH   4   5
ENDBRANCH   3   4
ENDBRANCH   2   3
ENDBRANCH   1   2
BRANCH   1  13
ATOM     13  C   UNL     1      96.293  65.663 230.117  1.00  0.00     0.000 C 
BRANCH  13  14
ATOM     14  C   UNL     1      97.315  64.652 230.651  1.00  0.00     0.000 C 
BRANCH  14  15
ATOM     15  C   UNL     1      98.212  64.072 229.545  1.00  0.00     0.000 C 
BRANCH  15  16
ATOM     16  C   UNL     1      98.049  62.548 229.353  1.00  0.00     0.000 C 
BRANCH  16  17
ATOM     17  C   UNL     1      98.496  62.088 227.954  1.00  0.00     0.000 C 
BRANCH  17  18
ATOM     18  C   UNL     1      99.790  61.247 227.989  1.00  0.00     0.000 C 
BRANCH  18  19
ATOM     19  C   UNL     1     101.044  62.010 227.524  1.00  0.00     0.000 C 
BRANCH  19  20
ATOM     20  C   UNL     1     101.606  61.570 226.162  1.00  0.00     0.006 C 
BRANCH  20  21
ATOM     21  C   UNL     1     102.174  62.739 225.344  1.00  0.00     0.053 C 
BRANCH  21  22
ATOM     22  C   UNL     1     103.523  63.134 225.856  1.00  0.00     0.041 C 
ATOM     23  O   UNL     1     103.785  64.344 226.088  1.00  0.00    -0.550 OA
ATOM     24  O   UNL     1     104.495  62.165 226.074  1.00  0.00    -0.550 OA
ENDBRANCH  21  22
ENDBRANCH  20  21
ENDBRANCH  19  20
ENDBRANCH  18  19
ENDBRANCH  17  18
ENDBRANCH  16  17
ENDBRANCH  15  16
ENDBRANCH  14  15
ENDBRANCH  13  14
ENDBRANCH   1  13
TORSDOF 20
ENDMDL
MODEL 9
REMARK VINA RESULT:    -2.369      1.854      6.243
REMARK INTER + INTRA:          -9.422
REMARK INTER:                  -5.452
REMARK INTRA:                  -3.971
REMARK UNBOUND:                -4.283
REMARK SMILES CCCCCCCCCCCCCCCCCCCCCC(=O)[O-]
REMARK SMILES IDX 12 1 11 2 10 3 9 4 8 5 7 6 6 7 5 8 4 9 3 10 2 11 1 12 13 13
REMARK SMILES IDX 14 14 15 15 16 16 17 17 18 18 19 19 20 20 21 21 22 22 23 23
REMARK SMILES IDX 24 24
REMARK H PARENT
REMARK Flexibility Score: inf
ROOT
ATOM      1  C   UNL     1      98.939  64.244 226.135  1.00  0.00     0.000 C 
ENDROOT
BRANCH   1   2
ATOM      2  C   UNL     1      99.457  65.137 224.997  1.00  0.00     0.000 C 
BRANCH   2   3
ATOM      3  C   UNL     1     100.978  65.350 225.052  1.00  0.00     0.000 C 
BRANCH   3   4
ATOM      4  C   UNL     1     101.366  66.610 225.847  1.00  0.00    -0.000 C 
BRANCH   4   5
ATOM      5  C   UNL     1     102.360  66.312 226.980  1.00  0.00    -0.000 C 
BRANCH   5   6
ATOM      6  C   UNL     1     102.039  65.002 227.724  1.00  0.00    -0.000 C 
BRANCH   6   7
ATOM      7  C   UNL     1     103.270  64.097 227.880  1.00  0.00    -0.000 C 
BRANCH   7   8
ATOM      8  C   UNL     1     103.939  63.769 226.534  1.00  0.00    -0.000 C 
BRANCH   8   9
ATOM      9  C   UNL     1     103.698  62.317 226.083  1.00  0.00    -0.000 C 
BRANCH   9  10
ATOM     10  C   UNL     1     102.251  62.000 225.663  1.00  0.00    -0.000 C 
BRANCH  10  11
ATOM     11  C   UNL     1     101.644  60.827 226.446  1.00  0.00    -0.003 C 
ATOM     12  C   UNL     1     100.613  61.317 227.456  1.00  0.00     0.004 C 
ENDBRANCH  10  11
ENDBRANCH   9  10
ENDBRANCH   8   9
ENDBRANCH   7   8
ENDBRANCH   6   7
ENDBRANCH   5   6
ENDBRANCH   4   5
ENDBRANCH   3   4
ENDBRANCH   2   3
ENDBRANCH   1   2
BRANCH   1  13
ATOM     13  C   UNL     1      97.407  64.203 226.137  1.00  0.00     0.000 C 
BRANCH  13  14
ATOM     14  C   UNL     1      96.827  65.030 224.982  1.00  0.00     0.000 C 
BRANCH  14  15
ATOM     15  C   UNL     1      95.544  65.781 225.373  1.00  0.00     0.000 C 
BRANCH  15  16
ATOM     16  C   UNL     1      95.779  67.270 225.710  1.00  0.00     0.000 C 
BRANCH  16  17
ATOM     17  C   UNL     1      96.980  67.855 224.946  1.00  0.00     0.000 C 
BRANCH  17  18
ATOM     18  C   UNL     1      98.080  68.392 225.886  1.00  0.00     0.000 C 
BRANCH  18  19
ATOM     19  C   UNL     1      97.729  68.288 227.382  1.00  0.00     0.000 C 
BRANCH  19  20
ATOM     20  C   UNL     1      98.514  67.220 228.161  1.00  0.00     0.006 C 
BRANCH  20  21
ATOM     21  C   UNL     1      97.878  66.883 229.518  1.00  0.00     0.053 C 
BRANCH  21  22
ATOM     22  C   UNL     1      96.983  65.691 229.399  1.00  0.00     0.041 C 
ATOM     23  O   UNL     1      95.790  65.828 229.018  1.00  0.00    -0.550 OA
ATOM     24  O   UNL     1      97.464  64.426 229.713  1.00  0.00    -0.550 OA
ENDBRANCH  21  22
ENDBRANCH  20  21
ENDBRANCH  19  20
ENDBRANCH  18  19
ENDBRANCH  17  18
ENDBRANCH  16  17
ENDBRANCH  15  16
ENDBRANCH  14  15
ENDBRANCH  13  14
ENDBRANCH   1  13
TORSDOF 20
ENDMDL
