MODEL 1
REMARK VINA RESULT:    -4.439      0.000      0.000
REMARK INTER + INTRA:          -8.689
REMARK INTER:                  -8.073
REMARK INTRA:                  -0.616
REMARK UNBOUND:                -0.616
REMARK SMILES CCCCCCCCCCCCCCCC(=O)[O-]
REMARK SMILES IDX 9 1 10 2 11 3 12 4 13 5 14 6 15 7 16 8 17 9 18 10 8 11 7 12
REMARK SMILES IDX 6 13 5 14 4 15 3 16 2 17 1 18
REMARK H PARENT
REMARK Flexibility Score: inf
ROOT
ATOM      1  C   UNL     1      53.511  70.731  59.860  1.00  0.00     0.000 C 
ENDROOT
BRANCH   1   2
ATOM      2  C   UNL     1      53.762  69.383  59.149  1.00  0.00     0.000 C 
BRANCH   2   3
ATOM      3  C   UNL     1      54.474  69.562  57.796  1.00  0.00     0.000 C 
BRANCH   3   4
ATOM      4  C   UNL     1      55.213  68.295  57.339  1.00  0.00     0.000 C 
BRANCH   4   5
ATOM      5  C   UNL     1      55.520  67.337  58.503  1.00  0.00     0.000 C 
BRANCH   5   6
ATOM      6  C   UNL     1      55.487  65.856  58.079  1.00  0.00     0.006 C 
BRANCH   6   7
ATOM      7  C   UNL     1      56.253  65.549  56.781  1.00  0.00     0.053 C 
BRANCH   7   8
ATOM      8  C   UNL     1      56.312  64.079  56.497  1.00  0.00     0.041 C 
ATOM      9  O   UNL     1      57.122  63.631  55.644  1.00  0.00    -0.550 OA
ATOM     10  O   UNL     1      55.495  63.202  57.197  1.00  0.00    -0.550 OA
ENDBRANCH   7   8
ENDBRANCH   6   7
ENDBRANCH   5   6
ENDBRANCH   4   5
ENDBRANCH   3   4
ENDBRANCH   2   3
ENDBRANCH   1   2
BRANCH   1  11
ATOM     11  C   UNL     1      52.119  70.834  60.513  1.00  0.00     0.000 C 
BRANCH  11  12
ATOM     12  C   UNL     1      50.991  70.126  59.744  1.00  0.00    -0.000 C 
BRANCH  12  13
ATOM     13  C   UNL     1      49.679  69.947  60.534  1.00  0.00    -0.000 C 
BRANCH  13  14
ATOM     14  C   UNL     1      49.706  68.758  61.518  1.00  0.00    -0.000 C 
BRANCH  14  15
ATOM     15  C   UNL     1      49.026  67.506  60.936  1.00  0.00    -0.000 C 
BRANCH  15  16
ATOM     16  C   UNL     1      47.575  67.345  61.417  1.00  0.00    -0.000 C 
BRANCH  16  17
ATOM     17  C   UNL     1      47.426  66.240  62.474  1.00  0.00    -0.003 C 
ATOM     18  C   UNL     1      48.079  66.647  63.791  1.00  0.00     0.004 C 
ENDBRANCH  16  17
ENDBRANCH  15  16
ENDBRANCH  14  15
ENDBRANCH  13  14
ENDBRANCH  12  13
ENDBRANCH  11  12
ENDBRANCH   1  11
TORSDOF 14
ENDMDL
MODEL 2
REMARK VINA RESULT:    -4.237      1.030      1.524
REMARK INTER + INTRA:          -8.321
REMARK INTER:                  -7.560
REMARK INTRA:                  -0.761
REMARK UNBOUND:                -0.616
REMARK SMILES CCCCCCCCCCCCCCCC(=O)[O-]
REMARK SMILES IDX 9 1 10 2 11 3 12 4 13 5 14 6 15 7 16 8 17 9 18 10 8 11 7 12
REMARK SMILES IDX 6 13 5 14 4 15 3 16 2 17 1 18
REMARK H PARENT
REMARK Flexibility Score: inf
ROOT
ATOM      1  C   UNL     1      54.298  70.496  60.613  1.00  0.00     0.000 C 
ENDROOT
BRANCH   1   2
ATOM      2  C   UNL     1      53.580  70.368  59.251  1.00  0.00     0.000 C 
BRANCH   2   3
ATOM      3  C   UNL     1      54.472  69.710  58.182  1.00  0.00     0.000 C 
BRANCH   3   4
ATOM      4  C   UNL     1      54.269  68.190  58.091  1.00  0.00     0.000 C 
BRANCH   4   5
ATOM      5  C   UNL     1      55.522  67.399  58.506  1.00  0.00     0.000 C 
BRANCH   5   6
ATOM      6  C   UNL     1      55.458  65.919  58.085  1.00  0.00     0.006 C 
BRANCH   6   7
ATOM      7  C   UNL     1      56.274  65.580  56.826  1.00  0.00     0.053 C 
BRANCH   7   8
ATOM      8  C   UNL     1      56.302  64.107  56.553  1.00  0.00     0.041 C 
ATOM      9  O   UNL     1      55.558  63.328  57.206  1.00  0.00    -0.550 OA
ATOM     10  O   UNL     1      57.126  63.599  55.558  1.00  0.00    -0.550 OA
ENDBRANCH   7   8
ENDBRANCH   6   7
ENDBRANCH   5   6
ENDBRANCH   4   5
ENDBRANCH   3   4
ENDBRANCH   2   3
ENDBRANCH   1   2
BRANCH   1  11
ATOM     11  C   UNL     1      53.350  70.834  61.780  1.00  0.00     0.000 C 
BRANCH  11  12
ATOM     12  C   UNL     1      51.854  70.809  61.425  1.00  0.00    -0.000 C 
BRANCH  12  13
ATOM     13  C   UNL     1      50.971  69.998  62.394  1.00  0.00    -0.000 C 
BRANCH  13  14
ATOM     14  C   UNL     1      49.485  70.419  62.378  1.00  0.00    -0.000 C 
BRANCH  14  15
ATOM     15  C   UNL     1      48.623  69.476  61.519  1.00  0.00    -0.000 C 
BRANCH  15  16
ATOM     16  C   UNL     1      49.347  68.166  61.172  1.00  0.00    -0.000 C 
BRANCH  16  17
ATOM     17  C   UNL     1      48.582  66.926  61.659  1.00  0.00    -0.003 C 
ATOM     18  C   UNL     1      47.968  67.165  63.036  1.00  0.00     0.004 C 
ENDBRANCH  16  17
ENDBRANCH  15  16
ENDBRANCH  14  15
ENDBRANCH  13  14
ENDBRANCH  12  13
ENDBRANCH  11  12
ENDBRANCH   1  11
TORSDOF 14
ENDMDL
MODEL 3
REMARK VINA RESULT:    -4.107      1.406      2.222
REMARK INTER + INTRA:          -8.085
REMARK INTER:                  -6.994
REMARK INTRA:                  -1.091
REMARK UNBOUND:                -0.616
REMARK SMILES CCCCCCCCCCCCCCCC(=O)[O-]
REMARK SMILES IDX 9 1 10 2 11 3 12 4 13 5 14 6 15 7 16 8 17 9 18 10 8 11 7 12
REMARK SMILES IDX 6 13 5 14 4 15 3 16 2 17 1 18
REMARK H PARENT
REMARK Flexibility Score: inf
ROOT
ATOM      1  C   UNL     1      53.196  71.004  62.576  1.00  0.00     0.000 C 
ENDROOT
BRANCH   1   2
ATOM      2  C   UNL     1      54.282  70.458  61.623  1.00  0.00     0.000 C 
BRANCH   2   3
ATOM      3  C   UNL     1      54.050  70.894  60.165  1.00  0.00     0.000 C 
BRANCH   3   4
ATOM      4  C   UNL     1      53.371  69.806  59.319  1.00  0.00     0.000 C 
BRANCH   4   5
ATOM      5  C   UNL     1      54.301  69.228  58.239  1.00  0.00     0.000 C 
BRANCH   5   6
ATOM      6  C   UNL     1      55.143  68.043  58.749  1.00  0.00     0.006 C 
BRANCH   6   7
ATOM      7  C   UNL     1      55.739  67.161  57.639  1.00  0.00     0.053 C 
BRANCH   7   8
ATOM      8  C   UNL     1      55.434  65.710  57.849  1.00  0.00     0.041 C 
ATOM      9  O   UNL     1      54.311  65.357  58.297  1.00  0.00    -0.550 OA
ATOM     10  O   UNL     1      56.378  64.746  57.521  1.00  0.00    -0.550 OA
ENDBRANCH   7   8
ENDBRANCH   6   7
ENDBRANCH   5   6
ENDBRANCH   4   5
ENDBRANCH   3   4
ENDBRANCH   2   3
ENDBRANCH   1   2
BRANCH   1  11
ATOM     11  C   UNL     1      51.907  70.159  62.592  1.00  0.00     0.000 C 
BRANCH  11  12
ATOM     12  C   UNL     1      50.658  70.876  62.053  1.00  0.00    -0.000 C 
BRANCH  12  13
ATOM     13  C   UNL     1      50.079  70.282  60.754  1.00  0.00    -0.000 C 
BRANCH  13  14
ATOM     14  C   UNL     1      48.859  69.365  60.982  1.00  0.00    -0.000 C 
BRANCH  14  15
ATOM     15  C   UNL     1      49.163  67.895  60.641  1.00  0.00    -0.000 C 
BRANCH  15  16
ATOM     16  C   UNL     1      48.398  66.910  61.538  1.00  0.00    -0.000 C 
BRANCH  16  17
ATOM     17  C   UNL     1      48.182  67.454  62.958  1.00  0.00    -0.003 C 
ATOM     18  C   UNL     1      48.020  66.317  63.963  1.00  0.00     0.004 C 
ENDBRANCH  16  17
ENDBRANCH  15  16
ENDBRANCH  14  15
ENDBRANCH  13  14
ENDBRANCH  12  13
ENDBRANCH  11  12
ENDBRANCH   1  11
TORSDOF 14
ENDMDL
MODEL 4
REMARK VINA RESULT:    -4.093      3.133      7.832
REMARK INTER + INTRA:          -8.059
REMARK INTER:                  -7.280
REMARK INTRA:                  -0.779
REMARK UNBOUND:                -0.616
REMARK SMILES CCCCCCCCCCCCCCCC(=O)[O-]
REMARK SMILES IDX 9 1 10 2 11 3 12 4 13 5 14 6 15 7 16 8 17 9 18 10 8 11 7 12
REMARK SMILES IDX 6 13 5 14 4 15 3 16 2 17 1 18
REMARK H PARENT
REMARK Flexibility Score: inf
ROOT
ATOM      1  C   UNL     1      53.720  70.763  59.935  1.00  0.00     0.000 C 
ENDROOT
BRANCH   1   2
ATOM      2  C   UNL     1      52.409  71.088  60.684  1.00  0.00     0.000 C 
BRANCH   2   3
ATOM      3  C   UNL     1      51.185  71.070  59.751  1.00  0.00     0.000 C 
BRANCH   3   4
ATOM      4  C   UNL     1      50.114  70.061  60.193  1.00  0.00     0.000 C 
BRANCH   4   5
ATOM      5  C   UNL     1      49.665  70.272  61.649  1.00  0.00     0.000 C 
BRANCH   5   6
ATOM      6  C   UNL     1      49.334  68.951  62.368  1.00  0.00     0.006 C 
BRANCH   6   7
ATOM      7  C   UNL     1      47.976  68.340  61.981  1.00  0.00     0.053 C 
BRANCH   7   8
ATOM      8  C   UNL     1      48.118  66.949  61.443  1.00  0.00     0.041 C 
ATOM      9  O   UNL     1      49.153  66.619  60.805  1.00  0.00    -0.550 OA
ATOM     10  O   UNL     1      47.123  66.009  61.674  1.00  0.00    -0.550 OA
ENDBRANCH   7   8
ENDBRANCH   6   7
ENDBRANCH   5   6
ENDBRANCH   4   5
ENDBRANCH   3   4
ENDBRANCH   2   3
ENDBRANCH   1   2
BRANCH   1  11
ATOM     11  C   UNL     1      53.536  69.762  58.776  1.00  0.00     0.000 C 
BRANCH  11  12
ATOM     12  C   UNL     1      54.694  69.728  57.764  1.00  0.00    -0.000 C 
BRANCH  12  13
ATOM     13  C   UNL     1      55.160  68.315  57.360  1.00  0.00    -0.000 C 
BRANCH  13  14
ATOM     14  C   UNL     1      55.392  67.372  58.560  1.00  0.00    -0.000 C 
BRANCH  14  15
ATOM     15  C   UNL     1      55.221  65.891  58.178  1.00  0.00    -0.000 C 
BRANCH  15  16
ATOM     16  C   UNL     1      56.202  65.447  57.082  1.00  0.00    -0.000 C 
BRANCH  16  17
ATOM     17  C   UNL     1      56.221  63.923  56.892  1.00  0.00    -0.003 C 
ATOM     18  C   UNL     1      56.902  63.541  55.580  1.00  0.00     0.004 C 
ENDBRANCH  16  17
ENDBRANCH  15  16
ENDBRANCH  14  15
ENDBRANCH  13  14
ENDBRANCH  12  13
ENDBRANCH  11  12
ENDBRANCH   1  11
TORSDOF 14
ENDMDL
MODEL 5
REMARK VINA RESULT:    -4.071     15.238     17.419
REMARK INTER + INTRA:          -8.019
REMARK INTER:                  -6.283
REMARK INTRA:                  -1.736
REMARK UNBOUND:                -0.616
REMARK SMILES CCCCCCCCCCCCCCCC(=O)[O-]
REMARK SMILES IDX 9 1 10 2 11 3 12 4 13 5 14 6 15 7 16 8 17 9 18 10 8 11 7 12
REMARK SMILES IDX 6 13 5 14 4 15 3 16 2 17 1 18
REMARK H PARENT
REMARK Flexibility Score: inf
ROOT
ATOM      1  C   UNL     1      49.965  51.638  49.536  1.00  0.00     0.000 C 
ENDROOT
BRANCH   1   2
ATOM      2  C   UNL     1      51.178  52.593  49.579  1.00  0.00     0.000 C 
BRANCH   2   3
ATOM      3  C   UNL     1      52.490  51.886  49.191  1.00  0.00     0.000 C 
BRANCH   3   4
ATOM      4  C   UNL     1      53.633  52.167  50.178  1.00  0.00     0.000 C 
BRANCH   4   5
ATOM      5  C   UNL     1      54.266  50.880  50.733  1.00  0.00     0.000 C 
BRANCH   5   6
ATOM      6  C   UNL     1      54.354  50.875  52.271  1.00  0.00     0.006 C 
BRANCH   6   7
ATOM      7  C   UNL     1      53.959  52.205  52.935  1.00  0.00     0.053 C 
BRANCH   7   8
ATOM      8  C   UNL     1      53.460  52.009  54.333  1.00  0.00     0.041 C 
ATOM      9  O   UNL     1      52.777  50.992  54.625  1.00  0.00    -0.550 OA
ATOM     10  O   UNL     1      53.775  52.933  55.320  1.00  0.00    -0.550 OA
ENDBRANCH   7   8
ENDBRANCH   6   7
ENDBRANCH   5   6
ENDBRANCH   4   5
ENDBRANCH   3   4
ENDBRANCH   2   3
ENDBRANCH   1   2
BRANCH   1  11
ATOM     11  C   UNL     1      49.687  50.932  50.878  1.00  0.00     0.000 C 
BRANCH  11  12
ATOM     12  C   UNL     1      50.554  51.416  52.053  1.00  0.00    -0.000 C 
BRANCH  12  13
ATOM     13  C   UNL     1      49.783  52.152  53.168  1.00  0.00    -0.000 C 
BRANCH  13  14
ATOM     14  C   UNL     1      48.821  53.238  52.642  1.00  0.00    -0.000 C 
BRANCH  14  15
ATOM     15  C   UNL     1      49.455  54.640  52.669  1.00  0.00    -0.000 C 
BRANCH  15  16
ATOM     16  C   UNL     1      48.745  55.627  51.730  1.00  0.00    -0.000 C 
BRANCH  16  17
ATOM     17  C   UNL     1      49.078  55.376  50.251  1.00  0.00    -0.003 C 
ATOM     18  C   UNL     1      48.081  56.082  49.336  1.00  0.00     0.004 C 
ENDBRANCH  16  17
ENDBRANCH  15  16
ENDBRANCH  14  15
ENDBRANCH  13  14
ENDBRANCH  12  13
ENDBRANCH  11  12
ENDBRANCH   1  11
TORSDOF 14
ENDMDL
MODEL 6
REMARK VINA RESULT:    -3.745     12.370     17.488
REMARK INTER + INTRA:          -7.427
REMARK INTER:                  -6.490
REMARK INTRA:                  -0.938
REMARK UNBOUND:                -0.616
REMARK SMILES CCCCCCCCCCCCCCCC(=O)[O-]
REMARK SMILES IDX 9 1 10 2 11 3 12 4 13 5 14 6 15 7 16 8 17 9 18 10 8 11 7 12
REMARK SMILES IDX 6 13 5 14 4 15 3 16 2 17 1 18
REMARK H PARENT
REMARK Flexibility Score: inf
ROOT
ATOM      1  C   UNL     1      59.103  51.728  59.683  1.00  0.00     0.000 C 
ENDROOT
BRANCH   1   2
ATOM      2  C   UNL     1      59.555  50.990  58.404  1.00  0.00     0.000 C 
BRANCH   2   3
ATOM      3  C   UNL     1      59.005  51.648  57.126  1.00  0.00     0.000 C 
BRANCH   3   4
ATOM      4  C   UNL     1      59.015  53.183  57.195  1.00  0.00     0.000 C 
BRANCH   4   5
ATOM      5  C   UNL     1      57.682  53.762  57.697  1.00  0.00     0.000 C 
BRANCH   5   6
ATOM      6  C   UNL     1      57.574  55.283  57.479  1.00  0.00     0.006 C 
BRANCH   6   7
ATOM      7  C   UNL     1      56.825  55.691  56.199  1.00  0.00     0.053 C 
BRANCH   7   8
ATOM      8  C   UNL     1      56.658  57.176  56.094  1.00  0.00     0.041 C 
ATOM      9  O   UNL     1      57.480  57.947  56.656  1.00  0.00    -0.550 OA
ATOM     10  O   UNL     1      55.614  57.707  55.350  1.00  0.00    -0.550 OA
ENDBRANCH   7   8
ENDBRANCH   6   7
ENDBRANCH   5   6
ENDBRANCH   4   5
ENDBRANCH   3   4
ENDBRANCH   2   3
ENDBRANCH   1   2
BRANCH   1  11
ATOM     11  C   UNL     1      59.413  50.960  60.983  1.00  0.00     0.000 C 
BRANCH  11  12
ATOM     12  C   UNL     1      60.320  51.708  61.974  1.00  0.00    -0.000 C 
BRANCH  12  13
ATOM     13  C   UNL     1      61.786  51.232  61.998  1.00  0.00    -0.000 C 
BRANCH  13  14
ATOM     14  C   UNL     1      62.510  51.386  60.644  1.00  0.00    -0.000 C 
BRANCH  14  15
ATOM     15  C   UNL     1      63.557  52.515  60.668  1.00  0.00    -0.000 C 
BRANCH  15  16
ATOM     16  C   UNL     1      64.051  52.892  59.263  1.00  0.00    -0.000 C 
BRANCH  16  17
ATOM     17  C   UNL     1      63.024  52.560  58.170  1.00  0.00    -0.003 C 
ATOM     18  C   UNL     1      62.718  53.786  57.313  1.00  0.00     0.004 C 
ENDBRANCH  16  17
ENDBRANCH  15  16
ENDBRANCH  14  15
ENDBRANCH  13  14
ENDBRANCH  12  13
ENDBRANCH  11  12
ENDBRANCH   1  11
TORSDOF 14
ENDMDL
MODEL 7
REMARK VINA RESULT:    -3.710      9.141     14.614
REMARK INTER + INTRA:          -7.362
REMARK INTER:                  -6.812
REMARK INTRA:                  -0.550
REMARK UNBOUND:                -0.616
REMARK SMILES CCCCCCCCCCCCCCCC(=O)[O-]
REMARK SMILES IDX 9 1 10 2 11 3 12 4 13 5 14 6 15 7 16 8 17 9 18 10 8 11 7 12
REMARK SMILES IDX 6 13 5 14 4 15 3 16 2 17 1 18
REMARK H PARENT
REMARK Flexibility Score: inf
ROOT
ATOM      1  C   UNL     1      63.583  69.683  53.310  1.00  0.00     0.000 C 
ENDROOT
BRANCH   1   2
ATOM      2  C   UNL     1      62.528  70.766  52.997  1.00  0.00     0.000 C 
BRANCH   2   3
ATOM      3  C   UNL     1      61.589  71.028  54.189  1.00  0.00     0.000 C 
BRANCH   3   4
ATOM      4  C   UNL     1      60.108  70.824  53.837  1.00  0.00     0.000 C 
BRANCH   4   5
ATOM      5  C   UNL     1      59.252  70.465  55.064  1.00  0.00     0.000 C 
BRANCH   5   6
ATOM      6  C   UNL     1      59.182  68.947  55.317  1.00  0.00     0.006 C 
BRANCH   6   7
ATOM      7  C   UNL     1      57.982  68.247  54.657  1.00  0.00     0.053 C 
BRANCH   7   8
ATOM      8  C   UNL     1      57.087  67.594  55.666  1.00  0.00     0.041 C 
ATOM      9  O   UNL     1      56.415  68.299  56.466  1.00  0.00    -0.550 OA
ATOM     10  O   UNL     1      56.970  66.212  55.702  1.00  0.00    -0.550 OA
ENDBRANCH   7   8
ENDBRANCH   6   7
ENDBRANCH   5   6
ENDBRANCH   4   5
ENDBRANCH   3   4
ENDBRANCH   2   3
ENDBRANCH   1   2
BRANCH   1  11
ATOM     11  C   UNL     1      64.487  69.336  52.111  1.00  0.00     0.000 C 
BRANCH  11  12
ATOM     12  C   UNL     1      64.391  67.878  51.631  1.00  0.00    -0.000 C 
BRANCH  12  13
ATOM     13  C   UNL     1      65.051  67.599  50.266  1.00  0.00    -0.000 C 
BRANCH  13  14
ATOM     14  C   UNL     1      66.269  66.654  50.349  1.00  0.00    -0.000 C 
BRANCH  14  15
ATOM     15  C   UNL     1      66.440  65.814  49.070  1.00  0.00    -0.000 C 
BRANCH  15  16
ATOM     16  C   UNL     1      65.485  66.246  47.947  1.00  0.00    -0.000 C 
BRANCH  16  17
ATOM     17  C   UNL     1      65.206  65.115  46.946  1.00  0.00    -0.003 C 
ATOM     18  C   UNL     1      66.095  63.906  47.220  1.00  0.00     0.004 C 
ENDBRANCH  16  17
ENDBRANCH  15  16
ENDBRANCH  14  15
ENDBRANCH  13  14
ENDBRANCH  12  13
ENDBRANCH  11  12
ENDBRANCH   1  11
TORSDOF 14
ENDMDL
MODEL 8
REMARK VINA RESULT:    -3.683      7.835     13.109
REMARK INTER + INTRA:          -7.313
REMARK INTER:                  -6.708
REMARK INTRA:                  -0.605
REMARK UNBOUND:                -0.616
REMARK SMILES CCCCCCCCCCCCCCCC(=O)[O-]
REMARK SMILES IDX 9 1 10 2 11 3 12 4 13 5 14 6 15 7 16 8 17 9 18 10 8 11 7 12
REMARK SMILES IDX 6 13 5 14 4 15 3 16 2 17 1 18
REMARK H PARENT
REMARK Flexibility Score: inf
ROOT
ATOM      1  C   UNL     1      61.617  70.920  53.919  1.00  0.00     0.000 C 
ENDROOT
BRANCH   1   2
ATOM      2  C   UNL     1      60.249  70.852  54.632  1.00  0.00     0.000 C 
BRANCH   2   3
ATOM      3  C   UNL     1      59.327  69.780  54.023  1.00  0.00     0.000 C 
BRANCH   3   4
ATOM      4  C   UNL     1      58.634  68.915  55.087  1.00  0.00     0.000 C 
BRANCH   4   5
ATOM      5  C   UNL     1      57.973  67.660  54.491  1.00  0.00     0.000 C 
BRANCH   5   6
ATOM      6  C   UNL     1      57.003  66.976  55.472  1.00  0.00     0.006 C 
BRANCH   6   7
ATOM      7  C   UNL     1      56.390  67.918  56.522  1.00  0.00     0.053 C 
BRANCH   7   8
ATOM      8  C   UNL     1      55.793  67.167  57.672  1.00  0.00     0.041 C 
ATOM      9  O   UNL     1      55.262  67.791  58.629  1.00  0.00    -0.550 OA
ATOM     10  O   UNL     1      55.795  65.779  57.673  1.00  0.00    -0.550 OA
ENDBRANCH   7   8
ENDBRANCH   6   7
ENDBRANCH   5   6
ENDBRANCH   4   5
ENDBRANCH   3   4
ENDBRANCH   2   3
ENDBRANCH   1   2
BRANCH   1  11
ATOM     11  C   UNL     1      61.509  71.113  52.394  1.00  0.00     0.000 C 
BRANCH  11  12
ATOM     12  C   UNL     1      62.625  70.440  51.577  1.00  0.00    -0.000 C 
BRANCH  12  13
ATOM     13  C   UNL     1      63.809  69.911  52.411  1.00  0.00    -0.000 C 
BRANCH  13  14
ATOM     14  C   UNL     1      64.163  68.437  52.118  1.00  0.00    -0.000 C 
BRANCH  14  15
ATOM     15  C   UNL     1      64.273  68.153  50.610  1.00  0.00    -0.000 C 
BRANCH  15  16
ATOM     16  C   UNL     1      65.316  67.072  50.287  1.00  0.00    -0.000 C 
BRANCH  16  17
ATOM     17  C   UNL     1      65.663  67.018  48.791  1.00  0.00    -0.003 C 
ATOM     18  C   UNL     1      66.269  65.668  48.416  1.00  0.00     0.004 C 
ENDBRANCH  16  17
ENDBRANCH  15  16
ENDBRANCH  14  15
ENDBRANCH  13  14
ENDBRANCH  12  13
ENDBRANCH  11  12
ENDBRANCH   1  11
TORSDOF 14
ENDMDL
MODEL 9
REMARK VINA RESULT:    -3.508     15.352     18.222
REMARK INTER + INTRA:          -6.996
REMARK INTER:                  -6.268
REMARK INTRA:                  -0.728
REMARK UNBOUND:                -0.616
REMARK SMILES CCCCCCCCCCCCCCCC(=O)[O-]
REMARK SMILES IDX 9 1 10 2 11 3 12 4 13 5 14 6 15 7 16 8 17 9 18 10 8 11 7 12
REMARK SMILES IDX 6 13 5 14 4 15 3 16 2 17 1 18
REMARK H PARENT
REMARK Flexibility Score: inf
ROOT
ATOM      1  C   UNL     1      63.862  53.002  59.502  1.00  0.00     0.000 C 
ENDROOT
BRANCH   1   2
ATOM      2  C   UNL     1      63.246  51.601  59.292  1.00  0.00     0.000 C 
BRANCH   2   3
ATOM      3  C   UNL     1      62.336  51.184  60.461  1.00  0.00     0.000 C 
BRANCH   3   4
ATOM      4  C   UNL     1      60.898  50.875  60.016  1.00  0.00     0.000 C 
BRANCH   4   5
ATOM      5  C   UNL     1      60.619  51.316  58.569  1.00  0.00     0.000 C 
BRANCH   5   6
ATOM      6  C   UNL     1      59.229  51.960  58.400  1.00  0.00     0.006 C 
BRANCH   6   7
ATOM      7  C   UNL     1      59.090  52.857  57.159  1.00  0.00     0.053 C 
BRANCH   7   8
ATOM      8  C   UNL     1      58.101  53.962  57.372  1.00  0.00     0.041 C 
ATOM      9  O   UNL     1      58.486  55.081  57.804  1.00  0.00    -0.550 OA
ATOM     10  O   UNL     1      56.762  53.767  57.064  1.00  0.00    -0.550 OA
ENDBRANCH   7   8
ENDBRANCH   6   7
ENDBRANCH   5   6
ENDBRANCH   4   5
ENDBRANCH   3   4
ENDBRANCH   2   3
ENDBRANCH   1   2
BRANCH   1  11
ATOM     11  C   UNL     1      63.773  53.503  60.956  1.00  0.00     0.000 C 
BRANCH  11  12
ATOM     12  C   UNL     1      64.388  54.892  61.199  1.00  0.00    -0.000 C 
BRANCH  12  13
ATOM     13  C   UNL     1      65.883  55.011  60.840  1.00  0.00    -0.000 C 
BRANCH  13  14
ATOM     14  C   UNL     1      66.620  56.122  61.617  1.00  0.00    -0.000 C 
BRANCH  14  15
ATOM     15  C   UNL     1      66.368  56.037  63.133  1.00  0.00    -0.000 C 
BRANCH  15  16
ATOM     16  C   UNL     1      66.637  57.368  63.852  1.00  0.00    -0.000 C 
BRANCH  16  17
ATOM     17  C   UNL     1      65.631  57.641  64.981  1.00  0.00    -0.003 C 
ATOM     18  C   UNL     1      65.569  59.128  65.314  1.00  0.00     0.004 C 
ENDBRANCH  16  17
ENDBRANCH  15  16
ENDBRANCH  14  15
ENDBRANCH  13  14
ENDBRANCH  12  13
ENDBRANCH  11  12
ENDBRANCH   1  11
TORSDOF 14
ENDMDL
