MODEL 1
REMARK VINA RESULT:    -6.159      0.000      0.000
REMARK INTER + INTRA:          -7.646
REMARK INTER:                  -7.420
REMARK INTRA:                  -0.226
REMARK UNBOUND:                -0.226
REMARK SMILES O=c1c(O)c(-c2ccc(O)c(O)c2)oc2cc(O)cc(O)c12
REMARK SMILES IDX 5 1 3 2 2 3 1 4 22 5 20 6 19 7 17 8 16 9 15 10 14 11 6 12
REMARK SMILES IDX 7 13 8 14 9 15 13 16 11 17 10 18 12 20 4 22 21 24 18 26
REMARK H PARENT 10 19 12 21 4 23 21 25 18 27
REMARK Flexibility Score: inf
ROOT
ATOM      1  C   UNL     1       5.635  -4.166  -4.093  1.00  0.00     0.180 A 
ATOM      2  C   UNL     1       6.378  -4.646  -3.001  1.00  0.00     0.208 A 
ATOM      3  C   UNL     1       7.780  -4.638  -3.074  1.00  0.00     0.238 A 
ATOM      4  O   UNL     1       8.439  -5.019  -2.072  1.00  0.00    -0.285 OA
ATOM      5  C   UNL     1       8.422  -4.167  -4.244  1.00  0.00     0.111 A 
ATOM      6  C   UNL     1       9.835  -4.151  -4.443  1.00  0.00     0.134 A 
ATOM      7  C   UNL     1      10.365  -3.541  -5.587  1.00  0.00     0.093 A 
ATOM      8  C   UNL     1       9.529  -3.005  -6.570  1.00  0.00     0.123 A 
ATOM      9  C   UNL     1       8.147  -3.068  -6.412  1.00  0.00     0.094 A 
ATOM     10  C   UNL     1       7.589  -3.638  -5.265  1.00  0.00     0.146 A 
ATOM     11  O   UNL     1       6.267  -3.669  -5.151  1.00  0.00    -0.452 OA
ENDROOT
BRANCH   1  12
ATOM     12  C   UNL     1       4.155  -4.166  -4.101  1.00  0.00     0.025 A 
ATOM     13  C   UNL     1       3.426  -5.037  -4.930  1.00  0.00     0.016 A 
ATOM     14  C   UNL     1       2.030  -5.002  -4.939  1.00  0.00     0.051 A 
ATOM     15  C   UNL     1       1.341  -4.090  -4.129  1.00  0.00     0.157 A 
ATOM     16  C   UNL     1       3.459  -3.238  -3.306  1.00  0.00     0.062 A 
ATOM     17  C   UNL     1       2.057  -3.204  -3.314  1.00  0.00     0.158 A 
BRANCH  15  18
ATOM     18  O   UNL     1      -0.052  -4.054  -4.133  1.00  0.00    -0.504 OA
ATOM     19  H   UNL     1      -0.604  -4.869  -3.895  1.00  0.00     0.293 HD
ENDBRANCH  15  18
BRANCH  17  20
ATOM     20  O   UNL     1       1.369  -2.292  -2.515  1.00  0.00    -0.504 OA
ATOM     21  H   UNL     1       1.817  -1.454  -2.162  1.00  0.00     0.293 HD
ENDBRANCH  17  20
ENDBRANCH   1  12
BRANCH   2  22
ATOM     22  O   UNL     1       5.725  -5.087  -1.847  1.00  0.00    -0.502 OA
ATOM     23  H   UNL     1       4.884  -5.651  -1.879  1.00  0.00     0.293 HD
ENDBRANCH   2  22
BRANCH   6  24
ATOM     24  O   UNL     1      10.753  -4.740  -3.569  1.00  0.00    -0.507 OA
ATOM     25  H   UNL     1      11.586  -5.232  -3.856  1.00  0.00     0.293 HD
ENDBRANCH   6  24
BRANCH   8  26
ATOM     26  O   UNL     1      10.064  -2.413  -7.712  1.00  0.00    -0.508 OA
ATOM     27  H   UNL     1      10.912  -1.859  -7.675  1.00  0.00     0.293 HD
ENDBRANCH   8  26
TORSDOF 6
ENDMDL
MODEL 2
REMARK VINA RESULT:    -6.131      2.758      8.235
REMARK INTER + INTRA:          -7.612
REMARK INTER:                  -7.351
REMARK INTRA:                  -0.261
REMARK UNBOUND:                -0.226
REMARK SMILES O=c1c(O)c(-c2ccc(O)c(O)c2)oc2cc(O)cc(O)c12
REMARK SMILES IDX 5 1 3 2 2 3 1 4 22 5 20 6 19 7 17 8 16 9 15 10 14 11 6 12
REMARK SMILES IDX 7 13 8 14 9 15 13 16 11 17 10 18 12 20 4 22 21 24 18 26
REMARK H PARENT 10 19 12 21 4 23 21 25 18 27
REMARK Flexibility Score: inf
ROOT
ATOM      1  C   UNL     1       2.011  -3.342  -4.503  1.00  0.00     0.180 A 
ATOM      2  C   UNL     1       1.486  -4.504  -5.094  1.00  0.00     0.208 A 
ATOM      3  C   UNL     1       0.111  -4.565  -5.374  1.00  0.00     0.238 A 
ATOM      4  O   UNL     1      -0.343  -5.587  -5.951  1.00  0.00    -0.285 OA
ATOM      5  C   UNL     1      -0.724  -3.471  -5.043  1.00  0.00     0.111 A 
ATOM      6  C   UNL     1      -2.137  -3.441  -5.244  1.00  0.00     0.134 A 
ATOM      7  C   UNL     1      -2.843  -2.257  -5.001  1.00  0.00     0.093 A 
ATOM      8  C   UNL     1      -2.198  -1.122  -4.503  1.00  0.00     0.123 A 
ATOM      9  C   UNL     1      -0.830  -1.161  -4.248  1.00  0.00     0.094 A 
ATOM     10  C   UNL     1      -0.091  -2.317  -4.514  1.00  0.00     0.146 A 
ATOM     11  O   UNL     1       1.213  -2.307  -4.265  1.00  0.00    -0.452 OA
ENDROOT
BRANCH   1  12
ATOM     12  C   UNL     1       3.444  -3.212  -4.156  1.00  0.00     0.025 A 
ATOM     13  C   UNL     1       4.002  -3.915  -3.073  1.00  0.00     0.016 A 
ATOM     14  C   UNL     1       5.352  -3.758  -2.749  1.00  0.00     0.051 A 
ATOM     15  C   UNL     1       6.160  -2.889  -3.493  1.00  0.00     0.157 A 
ATOM     16  C   UNL     1       4.255  -2.326  -4.885  1.00  0.00     0.062 A 
ATOM     17  C   UNL     1       5.611  -2.169  -4.561  1.00  0.00     0.158 A 
BRANCH  15  18
ATOM     18  O   UNL     1       7.508  -2.732  -3.174  1.00  0.00    -0.504 OA
ATOM     19  H   UNL     1       8.081  -2.027  -3.623  1.00  0.00     0.293 HD
ENDBRANCH  15  18
BRANCH  17  20
ATOM     20  O   UNL     1       6.416  -1.300  -5.294  1.00  0.00    -0.504 OA
ATOM     21  H   UNL     1       6.780  -0.445  -4.888  1.00  0.00     0.293 HD
ENDBRANCH  17  20
ENDBRANCH   1  12
BRANCH   2  22
ATOM     22  O   UNL     1       2.332  -5.564  -5.432  1.00  0.00    -0.502 OA
ATOM     23  H   UNL     1       2.365  -5.958  -6.364  1.00  0.00     0.293 HD
ENDBRANCH   2  22
BRANCH   6  24
ATOM     24  O   UNL     1      -2.891  -4.545  -5.651  1.00  0.00    -0.507 OA
ATOM     25  H   UNL     1      -3.067  -4.799  -6.612  1.00  0.00     0.293 HD
ENDBRANCH   6  24
BRANCH   8  26
ATOM     26  O   UNL     1      -2.912   0.048  -4.250  1.00  0.00    -0.508 OA
ATOM     27  H   UNL     1      -2.930   0.469  -3.329  1.00  0.00     0.293 HD
ENDBRANCH   8  26
TORSDOF 6
ENDMDL
MODEL 3
REMARK VINA RESULT:    -5.815      2.926      8.105
REMARK INTER + INTRA:          -7.231
REMARK INTER:                  -6.918
REMARK INTRA:                  -0.313
REMARK UNBOUND:                -0.226
REMARK SMILES O=c1c(O)c(-c2ccc(O)c(O)c2)oc2cc(O)cc(O)c12
REMARK SMILES IDX 5 1 3 2 2 3 1 4 22 5 20 6 19 7 17 8 16 9 15 10 14 11 6 12
REMARK SMILES IDX 7 13 8 14 9 15 13 16 11 17 10 18 12 20 4 22 21 24 18 26
REMARK H PARENT 10 19 12 21 4 23 21 25 18 27
REMARK Flexibility Score: inf
ROOT
ATOM      1  C   UNL     1       1.740  -3.513  -4.627  1.00  0.00     0.180 A 
ATOM      2  C   UNL     1       0.683  -2.804  -4.032  1.00  0.00     0.208 A 
ATOM      3  C   UNL     1      -0.626  -3.022  -4.489  1.00  0.00     0.238 A 
ATOM      4  O   UNL     1      -1.574  -2.424  -3.916  1.00  0.00    -0.285 OA
ATOM      5  C   UNL     1      -0.861  -3.933  -5.547  1.00  0.00     0.111 A 
ATOM      6  C   UNL     1      -2.141  -4.201  -6.117  1.00  0.00     0.134 A 
ATOM      7  C   UNL     1      -2.273  -5.218  -7.071  1.00  0.00     0.093 A 
ATOM      8  C   UNL     1      -1.160  -5.932  -7.522  1.00  0.00     0.123 A 
ATOM      9  C   UNL     1       0.103  -5.636  -7.015  1.00  0.00     0.094 A 
ATOM     10  C   UNL     1       0.261  -4.652  -6.036  1.00  0.00     0.146 A 
ATOM     11  O   UNL     1       1.482  -4.409  -5.573  1.00  0.00    -0.452 OA
ENDROOT
BRANCH   1  12
ATOM     12  C   UNL     1       3.150  -3.319  -4.217  1.00  0.00     0.025 A 
ATOM     13  C   UNL     1       3.694  -4.005  -3.117  1.00  0.00     0.016 A 
ATOM     14  C   UNL     1       5.020  -3.788  -2.734  1.00  0.00     0.051 A 
ATOM     15  C   UNL     1       5.817  -2.875  -3.436  1.00  0.00     0.157 A 
ATOM     16  C   UNL     1       3.949  -2.388  -4.904  1.00  0.00     0.062 A 
ATOM     17  C   UNL     1       5.280  -2.171  -4.520  1.00  0.00     0.158 A 
BRANCH  15  18
ATOM     18  O   UNL     1       7.141  -2.657  -3.057  1.00  0.00    -0.504 OA
ATOM     19  H   UNL     1       7.910  -3.119  -3.529  1.00  0.00     0.293 HD
ENDBRANCH  15  18
BRANCH  17  20
ATOM     20  O   UNL     1       6.073  -1.257  -5.211  1.00  0.00    -0.504 OA
ATOM     21  H   UNL     1       7.022  -1.483  -5.489  1.00  0.00     0.293 HD
ENDBRANCH  17  20
ENDBRANCH   1  12
BRANCH   2  22
ATOM     22  O   UNL     1       0.934  -1.925  -2.975  1.00  0.00    -0.502 OA
ATOM     23  H   UNL     1       1.126  -0.941  -3.119  1.00  0.00     0.293 HD
ENDBRANCH   2  22
BRANCH   6  24
ATOM     24  O   UNL     1      -3.300  -3.486  -5.804  1.00  0.00    -0.507 OA
ATOM     25  H   UNL     1      -3.314  -2.584  -5.351  1.00  0.00     0.293 HD
ENDBRANCH   6  24
BRANCH   8  26
ATOM     26  O   UNL     1      -1.299  -6.932  -8.483  1.00  0.00    -0.508 OA
ATOM     27  H   UNL     1      -2.174  -7.080  -8.971  1.00  0.00     0.293 HD
ENDBRANCH   8  26
TORSDOF 6
ENDMDL
MODEL 4
REMARK VINA RESULT:    -5.757      2.865      7.320
REMARK INTER + INTRA:          -7.161
REMARK INTER:                  -6.972
REMARK INTRA:                  -0.189
REMARK UNBOUND:                -0.226
REMARK SMILES O=c1c(O)c(-c2ccc(O)c(O)c2)oc2cc(O)cc(O)c12
REMARK SMILES IDX 5 1 3 2 2 3 1 4 22 5 20 6 19 7 17 8 16 9 15 10 14 11 6 12
REMARK SMILES IDX 7 13 8 14 9 15 13 16 11 17 10 18 12 20 4 22 21 24 18 26
REMARK H PARENT 10 19 12 21 4 23 21 25 18 27
REMARK Flexibility Score: inf
ROOT
ATOM      1  C   UNL     1       2.694  -3.562  -4.185  1.00  0.00     0.180 A 
ATOM      2  C   UNL     1       1.726  -3.095  -3.279  1.00  0.00     0.208 A 
ATOM      3  C   UNL     1       0.491  -2.648  -3.773  1.00  0.00     0.238 A 
ATOM      4  O   UNL     1      -0.391  -2.281  -2.952  1.00  0.00    -0.285 OA
ATOM      5  C   UNL     1       0.244  -2.656  -5.167  1.00  0.00     0.111 A 
ATOM      6  C   UNL     1      -0.956  -2.188  -5.780  1.00  0.00     0.134 A 
ATOM      7  C   UNL     1      -1.143  -2.366  -7.157  1.00  0.00     0.093 A 
ATOM      8  C   UNL     1      -0.146  -2.936  -7.951  1.00  0.00     0.123 A 
ATOM      9  C   UNL     1       1.053  -3.342  -7.371  1.00  0.00     0.094 A 
ATOM     10  C   UNL     1       1.255  -3.211  -5.994  1.00  0.00     0.146 A 
ATOM     11  O   UNL     1       2.409  -3.620  -5.481  1.00  0.00    -0.452 OA
ENDROOT
BRANCH   1  12
ATOM     12  C   UNL     1       4.029  -4.027  -3.743  1.00  0.00     0.025 A 
ATOM     13  C   UNL     1       4.398  -5.380  -3.828  1.00  0.00     0.016 A 
ATOM     14  C   UNL     1       5.655  -5.800  -3.383  1.00  0.00     0.051 A 
ATOM     15  C   UNL     1       6.555  -4.875  -2.836  1.00  0.00     0.157 A 
ATOM     16  C   UNL     1       4.928  -3.108  -3.175  1.00  0.00     0.062 A 
ATOM     17  C   UNL     1       6.189  -3.528  -2.729  1.00  0.00     0.158 A 
BRANCH  15  18
ATOM     18  O   UNL     1       7.809  -5.289  -2.393  1.00  0.00    -0.504 OA
ATOM     19  H   UNL     1       8.364  -4.720  -1.764  1.00  0.00     0.293 HD
ENDBRANCH  15  18
BRANCH  17  20
ATOM     20  O   UNL     1       7.084  -2.613  -2.177  1.00  0.00    -0.504 OA
ATOM     21  H   UNL     1       6.928  -2.204  -1.263  1.00  0.00     0.293 HD
ENDBRANCH  17  20
ENDBRANCH   1  12
BRANCH   2  22
ATOM     22  O   UNL     1       1.982  -3.115  -1.906  1.00  0.00    -0.502 OA
ATOM     23  H   UNL     1       2.649  -2.492  -1.467  1.00  0.00     0.293 HD
ENDBRANCH   2  22
BRANCH   6  24
ATOM     24  O   UNL     1      -1.976  -1.522  -5.093  1.00  0.00    -0.507 OA
ATOM     25  H   UNL     1      -1.869  -0.634  -4.626  1.00  0.00     0.293 HD
ENDBRANCH   6  24
BRANCH   8  26
ATOM     26  O   UNL     1      -0.334  -3.095  -9.323  1.00  0.00    -0.508 OA
ATOM     27  H   UNL     1      -1.184  -3.499  -9.698  1.00  0.00     0.293 HD
ENDBRANCH   8  26
TORSDOF 6
ENDMDL
MODEL 5
REMARK VINA RESULT:    -5.719      2.242      4.098
REMARK INTER + INTRA:          -7.115
REMARK INTER:                  -6.952
REMARK INTRA:                  -0.163
REMARK UNBOUND:                -0.226
REMARK SMILES O=c1c(O)c(-c2ccc(O)c(O)c2)oc2cc(O)cc(O)c12
REMARK SMILES IDX 5 1 3 2 2 3 1 4 22 5 20 6 19 7 17 8 16 9 15 10 14 11 6 12
REMARK SMILES IDX 7 13 8 14 9 15 13 16 11 17 10 18 12 20 4 22 21 24 18 26
REMARK H PARENT 10 19 12 21 4 23 21 25 18 27
REMARK Flexibility Score: inf
ROOT
ATOM      1  C   UNL     1       3.321  -2.936  -4.430  1.00  0.00     0.180 A 
ATOM      2  C   UNL     1       4.165  -2.067  -5.143  1.00  0.00     0.208 A 
ATOM      3  C   UNL     1       5.556  -2.208  -5.011  1.00  0.00     0.238 A 
ATOM      4  O   UNL     1       6.306  -1.462  -5.693  1.00  0.00    -0.285 OA
ATOM      5  C   UNL     1       6.085  -3.203  -4.155  1.00  0.00     0.111 A 
ATOM      6  C   UNL     1       7.477  -3.408  -3.914  1.00  0.00     0.134 A 
ATOM      7  C   UNL     1       7.891  -4.506  -3.149  1.00  0.00     0.093 A 
ATOM      8  C   UNL     1       6.960  -5.369  -2.565  1.00  0.00     0.123 A 
ATOM      9  C   UNL     1       5.598  -5.142  -2.746  1.00  0.00     0.094 A 
ATOM     10  C   UNL     1       5.155  -4.075  -3.532  1.00  0.00     0.146 A 
ATOM     11  O   UNL     1       3.848  -3.902  -3.686  1.00  0.00    -0.452 OA
ENDROOT
BRANCH   1  12
ATOM     12  C   UNL     1       1.846  -2.834  -4.499  1.00  0.00     0.025 A 
ATOM     13  C   UNL     1       1.081  -2.501  -3.367  1.00  0.00     0.016 A 
ATOM     14  C   UNL     1      -0.312  -2.434  -3.449  1.00  0.00     0.051 A 
ATOM     15  C   UNL     1      -0.962  -2.710  -4.659  1.00  0.00     0.157 A 
ATOM     16  C   UNL     1       1.186  -3.130  -5.704  1.00  0.00     0.062 A 
ATOM     17  C   UNL     1      -0.212  -3.063  -5.788  1.00  0.00     0.158 A 
BRANCH  15  18
ATOM     18  O   UNL     1      -2.351  -2.642  -4.746  1.00  0.00    -0.504 OA
ATOM     19  H   UNL     1      -2.870  -3.216  -5.400  1.00  0.00     0.293 HD
ENDBRANCH  15  18
BRANCH  17  20
ATOM     20  O   UNL     1      -0.861  -3.344  -6.988  1.00  0.00    -0.504 OA
ATOM     21  H   UNL     1      -1.427  -4.178  -7.101  1.00  0.00     0.293 HD
ENDBRANCH  17  20
ENDBRANCH   1  12
BRANCH   2  22
ATOM     22  O   UNL     1       3.622  -1.105  -5.999  1.00  0.00    -0.502 OA
ATOM     23  H   UNL     1       4.189  -0.568  -6.643  1.00  0.00     0.293 HD
ENDBRANCH   2  22
BRANCH   6  24
ATOM     24  O   UNL     1       8.483  -2.554  -4.374  1.00  0.00    -0.507 OA
ATOM     25  H   UNL     1       9.444  -2.580  -4.067  1.00  0.00     0.293 HD
ENDBRANCH   6  24
BRANCH   8  26
ATOM     26  O   UNL     1       7.381  -6.451  -1.793  1.00  0.00    -0.508 OA
ATOM     27  H   UNL     1       8.359  -6.705  -1.727  1.00  0.00     0.293 HD
ENDBRANCH   8  26
TORSDOF 6
ENDMDL
MODEL 6
REMARK VINA RESULT:    -5.675      3.012      5.374
REMARK INTER + INTRA:          -7.063
REMARK INTER:                  -6.877
REMARK INTRA:                  -0.186
REMARK UNBOUND:                -0.226
REMARK SMILES O=c1c(O)c(-c2ccc(O)c(O)c2)oc2cc(O)cc(O)c12
REMARK SMILES IDX 5 1 3 2 2 3 1 4 22 5 20 6 19 7 17 8 16 9 15 10 14 11 6 12
REMARK SMILES IDX 7 13 8 14 9 15 13 16 11 17 10 18 12 20 4 22 21 24 18 26
REMARK H PARENT 10 19 12 21 4 23 21 25 18 27
REMARK Flexibility Score: inf
ROOT
ATOM      1  C   UNL     1       1.492  -3.976  -5.370  1.00  0.00     0.180 A 
ATOM      2  C   UNL     1       1.921  -2.754  -5.917  1.00  0.00     0.208 A 
ATOM      3  C   UNL     1       3.156  -2.223  -5.513  1.00  0.00     0.238 A 
ATOM      4  O   UNL     1       3.557  -1.156  -6.047  1.00  0.00    -0.285 OA
ATOM      5  C   UNL     1       3.940  -2.909  -4.556  1.00  0.00     0.111 A 
ATOM      6  C   UNL     1       5.188  -2.443  -4.045  1.00  0.00     0.134 A 
ATOM      7  C   UNL     1       5.939  -3.268  -3.199  1.00  0.00     0.093 A 
ATOM      8  C   UNL     1       5.457  -4.515  -2.794  1.00  0.00     0.123 A 
ATOM      9  C   UNL     1       4.213  -4.954  -3.241  1.00  0.00     0.094 A 
ATOM     10  C   UNL     1       3.456  -4.169  -4.114  1.00  0.00     0.146 A 
ATOM     11  O   UNL     1       2.280  -4.630  -4.523  1.00  0.00    -0.452 OA
ENDROOT
BRANCH   1  12
ATOM     12  C   UNL     1       0.192  -4.587  -5.726  1.00  0.00     0.025 A 
ATOM     13  C   UNL     1       0.122  -5.777  -6.473  1.00  0.00     0.016 A 
ATOM     14  C   UNL     1      -1.117  -6.323  -6.818  1.00  0.00     0.051 A 
ATOM     15  C   UNL     1      -2.302  -5.683  -6.432  1.00  0.00     0.157 A 
ATOM     16  C   UNL     1      -1.001  -3.940  -5.360  1.00  0.00     0.062 A 
ATOM     17  C   UNL     1      -2.244  -4.488  -5.706  1.00  0.00     0.158 A 
BRANCH  15  18
ATOM     18  O   UNL     1      -3.540  -6.226  -6.773  1.00  0.00    -0.504 OA
ATOM     19  H   UNL     1      -4.264  -5.665  -7.207  1.00  0.00     0.293 HD
ENDBRANCH  15  18
BRANCH  17  20
ATOM     20  O   UNL     1      -3.425  -3.850  -5.331  1.00  0.00    -0.504 OA
ATOM     21  H   UNL     1      -4.320  -4.117  -5.725  1.00  0.00     0.293 HD
ENDBRANCH  17  20
ENDBRANCH   1  12
BRANCH   2  22
ATOM     22  O   UNL     1       1.141  -2.103  -6.876  1.00  0.00    -0.502 OA
ATOM     23  H   UNL     1       0.276  -2.493  -7.231  1.00  0.00     0.293 HD
ENDBRANCH   2  22
BRANCH   6  24
ATOM     24  O   UNL     1       5.716  -1.177  -4.313  1.00  0.00    -0.507 OA
ATOM     25  H   UNL     1       5.374  -0.315  -3.915  1.00  0.00     0.293 HD
ENDBRANCH   6  24
BRANCH   8  26
ATOM     26  O   UNL     1       6.205  -5.323  -1.940  1.00  0.00    -0.508 OA
ATOM     27  H   UNL     1       7.026  -4.971  -1.461  1.00  0.00     0.293 HD
ENDBRANCH   8  26
TORSDOF 6
ENDMDL
MODEL 7
REMARK VINA RESULT:    -5.524      3.167      8.093
REMARK INTER + INTRA:          -6.880
REMARK INTER:                  -6.596
REMARK INTRA:                  -0.284
REMARK UNBOUND:                -0.226
REMARK SMILES O=c1c(O)c(-c2ccc(O)c(O)c2)oc2cc(O)cc(O)c12
REMARK SMILES IDX 5 1 3 2 2 3 1 4 22 5 20 6 19 7 17 8 16 9 15 10 14 11 6 12
REMARK SMILES IDX 7 13 8 14 9 15 13 16 11 17 10 18 12 20 4 22 21 24 18 26
REMARK H PARENT 10 19 12 21 4 23 21 25 18 27
REMARK Flexibility Score: inf
ROOT
ATOM      1  C   UNL     1       2.383  -3.263  -4.941  1.00  0.00     0.180 A 
ATOM      2  C   UNL     1       2.522  -2.013  -5.566  1.00  0.00     0.208 A 
ATOM      3  C   UNL     1       1.392  -1.407  -6.139  1.00  0.00     0.238 A 
ATOM      4  O   UNL     1       1.513  -0.264  -6.650  1.00  0.00    -0.285 OA
ATOM      5  C   UNL     1       0.140  -2.066  -6.093  1.00  0.00     0.111 A 
ATOM      6  C   UNL     1      -1.062  -1.564  -6.675  1.00  0.00     0.134 A 
ATOM      7  C   UNL     1      -2.269  -2.238  -6.456  1.00  0.00     0.093 A 
ATOM      8  C   UNL     1      -2.307  -3.431  -5.729  1.00  0.00     0.123 A 
ATOM      9  C   UNL     1      -1.130  -3.960  -5.207  1.00  0.00     0.094 A 
ATOM     10  C   UNL     1       0.086  -3.292  -5.379  1.00  0.00     0.146 A 
ATOM     11  O   UNL     1       1.182  -3.826  -4.856  1.00  0.00    -0.452 OA
ENDROOT
BRANCH   1  12
ATOM     12  C   UNL     1       3.532  -3.976  -4.337  1.00  0.00     0.025 A 
ATOM     13  C   UNL     1       4.046  -3.606  -3.082  1.00  0.00     0.016 A 
ATOM     14  C   UNL     1       5.146  -4.277  -2.543  1.00  0.00     0.051 A 
ATOM     15  C   UNL     1       5.755  -5.320  -3.254  1.00  0.00     0.157 A 
ATOM     16  C   UNL     1       4.159  -5.009  -5.055  1.00  0.00     0.062 A 
ATOM     17  C   UNL     1       5.263  -5.684  -4.513  1.00  0.00     0.158 A 
BRANCH  15  18
ATOM     18  O   UNL     1       6.851  -5.993  -2.719  1.00  0.00    -0.504 OA
ATOM     19  H   UNL     1       6.793  -6.967  -2.444  1.00  0.00     0.293 HD
ENDBRANCH  15  18
BRANCH  17  20
ATOM     20  O   UNL     1       5.875  -6.716  -5.221  1.00  0.00    -0.504 OA
ATOM     21  H   UNL     1       6.884  -6.809  -5.256  1.00  0.00     0.293 HD
ENDBRANCH  17  20
ENDBRANCH   1  12
BRANCH   2  22
ATOM     22  O   UNL     1       3.762  -1.370  -5.582  1.00  0.00    -0.502 OA
ATOM     23  H   UNL     1       4.483  -1.560  -4.896  1.00  0.00     0.293 HD
ENDBRANCH   2  22
BRANCH   6  24
ATOM     24  O   UNL     1      -1.119  -0.433  -7.494  1.00  0.00    -0.507 OA
ATOM     25  H   UNL     1      -0.767  -0.388  -8.439  1.00  0.00     0.293 HD
ENDBRANCH   6  24
BRANCH   8  26
ATOM     26  O   UNL     1      -3.511  -4.103  -5.529  1.00  0.00    -0.508 OA
ATOM     27  H   UNL     1      -3.647  -4.722  -4.738  1.00  0.00     0.293 HD
ENDBRANCH   8  26
TORSDOF 6
ENDMDL
MODEL 8
REMARK VINA RESULT:    -5.488      2.858      4.933
REMARK INTER + INTRA:          -6.837
REMARK INTER:                  -6.513
REMARK INTRA:                  -0.324
REMARK UNBOUND:                -0.226
REMARK SMILES O=c1c(O)c(-c2ccc(O)c(O)c2)oc2cc(O)cc(O)c12
REMARK SMILES IDX 5 1 3 2 2 3 1 4 22 5 20 6 19 7 17 8 16 9 15 10 14 11 6 12
REMARK SMILES IDX 7 13 8 14 9 15 13 16 11 17 10 18 12 20 4 22 21 24 18 26
REMARK H PARENT 10 19 12 21 4 23 21 25 18 27
REMARK Flexibility Score: inf
ROOT
ATOM      1  C   UNL     1       1.930  -3.423  -4.599  1.00  0.00     0.180 A 
ATOM      2  C   UNL     1       1.834  -4.703  -5.170  1.00  0.00     0.208 A 
ATOM      3  C   UNL     1       2.937  -5.568  -5.093  1.00  0.00     0.238 A 
ATOM      4  O   UNL     1       2.826  -6.732  -5.559  1.00  0.00    -0.285 OA
ATOM      5  C   UNL     1       4.128  -5.137  -4.460  1.00  0.00     0.111 A 
ATOM      6  C   UNL     1       5.320  -5.915  -4.360  1.00  0.00     0.134 A 
ATOM      7  C   UNL     1       6.394  -5.438  -3.598  1.00  0.00     0.093 A 
ATOM      8  C   UNL     1       6.343  -4.182  -2.988  1.00  0.00     0.123 A 
ATOM      9  C   UNL     1       5.206  -3.390  -3.130  1.00  0.00     0.094 A 
ATOM     10  C   UNL     1       4.104  -3.854  -3.854  1.00  0.00     0.146 A 
ATOM     11  O   UNL     1       3.037  -3.071  -3.955  1.00  0.00    -0.452 OA
ENDROOT
BRANCH   1  12
ATOM     12  C   UNL     1       0.820  -2.446  -4.663  1.00  0.00     0.025 A 
ATOM     13  C   UNL     1      -0.177  -2.404  -3.672  1.00  0.00     0.016 A 
ATOM     14  C   UNL     1      -1.229  -1.489  -3.765  1.00  0.00     0.051 A 
ATOM     15  C   UNL     1      -1.307  -0.611  -4.854  1.00  0.00     0.157 A 
ATOM     16  C   UNL     1       0.724  -1.577  -5.763  1.00  0.00     0.062 A 
ATOM     17  C   UNL     1      -0.331  -0.658  -5.857  1.00  0.00     0.158 A 
BRANCH  15  18
ATOM     18  O   UNL     1      -2.353   0.304  -4.949  1.00  0.00    -0.504 OA
ATOM     19  H   UNL     1      -2.788   0.701  -4.124  1.00  0.00     0.293 HD
ENDBRANCH  15  18
BRANCH  17  20
ATOM     20  O   UNL     1      -0.416   0.211  -6.943  1.00  0.00    -0.504 OA
ATOM     21  H   UNL     1       0.288   0.922  -7.109  1.00  0.00     0.293 HD
ENDBRANCH  17  20
ENDBRANCH   1  12
BRANCH   2  22
ATOM     22  O   UNL     1       0.642  -5.117  -5.771  1.00  0.00    -0.502 OA
ATOM     23  H   UNL     1       0.622  -5.630  -6.644  1.00  0.00     0.293 HD
ENDBRANCH   2  22
BRANCH   6  24
ATOM     24  O   UNL     1       5.509  -7.140  -5.006  1.00  0.00    -0.507 OA
ATOM     25  H   UNL     1       6.066  -7.271  -5.838  1.00  0.00     0.293 HD
ENDBRANCH   6  24
BRANCH   8  26
ATOM     26  O   UNL     1       7.422  -3.709  -2.244  1.00  0.00    -0.508 OA
ATOM     27  H   UNL     1       7.616  -2.718  -2.164  1.00  0.00     0.293 HD
ENDBRANCH   8  26
TORSDOF 6
ENDMDL
MODEL 9
REMARK VINA RESULT:    -5.478      3.238      7.333
REMARK INTER + INTRA:          -6.826
REMARK INTER:                  -6.530
REMARK INTRA:                  -0.295
REMARK UNBOUND:                -0.226
REMARK SMILES O=c1c(O)c(-c2ccc(O)c(O)c2)oc2cc(O)cc(O)c12
REMARK SMILES IDX 5 1 3 2 2 3 1 4 22 5 20 6 19 7 17 8 16 9 15 10 14 11 6 12
REMARK SMILES IDX 7 13 8 14 9 15 13 16 11 17 10 18 12 20 4 22 21 24 18 26
REMARK H PARENT 10 19 12 21 4 23 21 25 18 27
REMARK Flexibility Score: inf
ROOT
ATOM      1  C   UNL     1       2.288  -3.067  -4.603  1.00  0.00     0.180 A 
ATOM      2  C   UNL     1       1.048  -3.162  -3.949  1.00  0.00     0.208 A 
ATOM      3  C   UNL     1      -0.011  -2.343  -4.373  1.00  0.00     0.238 A 
ATOM      4  O   UNL     1      -1.133  -2.471  -3.818  1.00  0.00    -0.285 OA
ATOM      5  C   UNL     1       0.188  -1.427  -5.434  1.00  0.00     0.111 A 
ATOM      6  C   UNL     1      -0.802  -0.521  -5.919  1.00  0.00     0.134 A 
ATOM      7  C   UNL     1      -0.536   0.247  -7.059  1.00  0.00     0.093 A 
ATOM      8  C   UNL     1       0.708   0.189  -7.693  1.00  0.00     0.123 A 
ATOM      9  C   UNL     1       1.701  -0.649  -7.191  1.00  0.00     0.094 A 
ATOM     10  C   UNL     1       1.453  -1.454  -6.077  1.00  0.00     0.146 A 
ATOM     11  O   UNL     1       2.425  -2.246  -5.638  1.00  0.00    -0.452 OA
ENDROOT
BRANCH   1  12
ATOM     12  C   UNL     1       3.458  -3.878  -4.197  1.00  0.00     0.025 A 
ATOM     13  C   UNL     1       3.597  -5.217  -4.603  1.00  0.00     0.016 A 
ATOM     14  C   UNL     1       4.697  -5.971  -4.188  1.00  0.00     0.051 A 
ATOM     15  C   UNL     1       5.668  -5.402  -3.353  1.00  0.00     0.157 A 
ATOM     16  C   UNL     1       4.425  -3.320  -3.343  1.00  0.00     0.062 A 
ATOM     17  C   UNL     1       5.530  -4.076  -2.927  1.00  0.00     0.158 A 
BRANCH  15  18
ATOM     18  O   UNL     1       6.769  -6.151  -2.939  1.00  0.00    -0.504 OA
ATOM     19  H   UNL     1       7.455  -5.773  -2.296  1.00  0.00     0.293 HD
ENDBRANCH  15  18
BRANCH  17  20
ATOM     20  O   UNL     1       6.493  -3.516  -2.091  1.00  0.00    -0.504 OA
ATOM     21  H   UNL     1       6.658  -3.875  -1.157  1.00  0.00     0.293 HD
ENDBRANCH  17  20
ENDBRANCH   1  12
BRANCH   2  22
ATOM     22  O   UNL     1       0.867  -4.087  -2.918  1.00  0.00    -0.502 OA
ATOM     23  H   UNL     1      -0.033  -4.245  -2.480  1.00  0.00     0.293 HD
ENDBRANCH   2  22
BRANCH   6  24
ATOM     24  O   UNL     1      -2.042  -0.319  -5.306  1.00  0.00    -0.507 OA
ATOM     25  H   UNL     1      -2.511  -0.994  -4.721  1.00  0.00     0.293 HD
ENDBRANCH   6  24
BRANCH   8  26
ATOM     26  O   UNL     1       0.969   0.969  -8.818  1.00  0.00    -0.508 OA
ATOM     27  H   UNL     1       1.875   0.957  -9.272  1.00  0.00     0.293 HD
ENDBRANCH   8  26
TORSDOF 6
ENDMDL
