MODEL 1
REMARK VINA RESULT:    52.157      0.000      0.000
REMARK INTER + INTRA:          85.057
REMARK INTER:                  75.025
REMARK INTRA:                  10.032
REMARK UNBOUND:                10.032
REMARK SMILES O=c1c(O[C@H]2O[C@@H](CO)[C@H](O)[C@H](O)[C@H]2O)c(-c2ccc(O)cc2)oc2cc(O)cc(O)c12
REMARK SMILES IDX 4 1 3 2 16 3 24 4 2 5 25 6 1 7 32 8 26 9 30 10 27 11 29 12
REMARK SMILES IDX 17 13 18 14 19 15 20 16 23 17 22 18 21 19 31 21 28 23 5 25
REMARK SMILES IDX 14 26 6 27 12 28 7 29 10 30 15 31 13 33 8 35 9 36 11 38
REMARK H PARENT 21 20 31 22 28 24 15 32 13 34 9 37 11 39
REMARK Flexibility Score: inf
ROOT
ATOM      1  O   UNL     1       2.011  -0.916  -0.632  1.00  0.00    -0.454 OA
ENDROOT
BRANCH   1   2
ATOM      2  C   UNL     1       2.976  -1.154   0.367  1.00  0.00     0.214 A 
ATOM      3  C   UNL     1       2.586  -1.021   1.714  1.00  0.00     0.180 A 
ATOM      4  O   UNL     1       3.476  -1.178   2.689  1.00  0.00    -0.452 OA
ATOM      5  C   UNL     1       4.321  -1.487   0.089  1.00  0.00     0.239 A 
ATOM      6  C   UNL     1       4.746  -1.492   2.471  1.00  0.00     0.146 A 
ATOM      7  O   UNL     1       4.716  -1.596  -1.102  1.00  0.00    -0.285 OA
ATOM      8  C   UNL     1       5.228  -1.674   1.155  1.00  0.00     0.111 A 
ATOM      9  C   UNL     1       5.603  -1.652   3.565  1.00  0.00     0.094 A 
ATOM     10  C   UNL     1       6.587  -2.025   0.962  1.00  0.00     0.134 A 
ATOM     11  C   UNL     1       6.940  -2.000   3.370  1.00  0.00     0.123 A 
ATOM     12  C   UNL     1       7.429  -2.185   2.073  1.00  0.00     0.093 A 
BRANCH   3  13
ATOM     13  C   UNL     1       1.191  -0.705   2.093  1.00  0.00     0.021 A 
ATOM     14  C   UNL     1       0.116  -1.495   1.645  1.00  0.00     0.016 A 
ATOM     15  C   UNL     1      -1.195  -1.189   2.022  1.00  0.00     0.047 A 
ATOM     16  C   UNL     1      -1.446  -0.108   2.871  1.00  0.00     0.115 A 
ATOM     17  C   UNL     1       0.931   0.371   2.958  1.00  0.00     0.016 A 
ATOM     18  C   UNL     1      -0.379   0.672   3.340  1.00  0.00     0.047 A 
BRANCH  16  19
ATOM     19  O   UNL     1      -2.755   0.178   3.251  1.00  0.00    -0.508 OA
ATOM     20  H   UNL     1      -2.997   1.049   3.707  1.00  0.00     0.293 HD
ENDBRANCH  16  19
ENDBRANCH   3  13
BRANCH  10  21
ATOM     21  O   UNL     1       7.106  -2.220  -0.318  1.00  0.00    -0.507 OA
ATOM     22  H   UNL     1       7.653  -1.505  -0.787  1.00  0.00     0.293 HD
ENDBRANCH  10  21
BRANCH  11  23
ATOM     23  O   UNL     1       7.774  -2.163   4.474  1.00  0.00    -0.508 OA
ATOM     24  H   UNL     1       8.372  -1.414   4.805  1.00  0.00     0.293 HD
ENDBRANCH  11  23
ENDBRANCH   1   2
BRANCH   1  25
ATOM     25  C   UNL     1       1.048  -1.842  -1.132  1.00  0.00     0.339 C 
ATOM     26  C   UNL     1      -0.303  -1.123  -1.213  1.00  0.00     0.214 C 
ATOM     27  O   UNL     1       0.983  -2.946  -0.250  1.00  0.00    -0.332 OA
ATOM     28  C   UNL     1      -1.403  -2.050  -1.782  1.00  0.00     0.180 C 
ATOM     29  C   UNL     1      -0.057  -3.888  -0.512  1.00  0.00     0.179 C 
ATOM     30  C   UNL     1      -1.050  -3.555  -1.674  1.00  0.00     0.177 C 
BRANCH  26  31
ATOM     31  O   UNL     1      -0.659  -0.678   0.072  1.00  0.00    -0.384 OA
ATOM     32  H   UNL     1      -0.741   0.311   0.022  1.00  0.00     0.211 HD
ENDBRANCH  26  31
BRANCH  28  33
ATOM     33  O   UNL     1      -1.675  -1.719  -3.122  1.00  0.00    -0.387 OA
ATOM     34  H   UNL     1      -0.836  -1.351  -3.505  1.00  0.00     0.211 HD
ENDBRANCH  28  33
BRANCH  29  35
ATOM     35  C   UNL     1      -0.824  -4.121   0.800  1.00  0.00     0.191 C 
BRANCH  35  36
ATOM     36  O   UNL     1      -0.049  -3.722   1.900  1.00  0.00    -0.394 OA
ATOM     37  H   UNL     1       0.321  -4.548   2.309  1.00  0.00     0.210 HD
ENDBRANCH  35  36
ENDBRANCH  29  35
BRANCH  30  38
ATOM     38  O   UNL     1      -0.599  -4.093  -2.895  1.00  0.00    -0.387 OA
ATOM     39  H   UNL     1      -1.307  -4.673  -3.269  1.00  0.00     0.211 HD
ENDBRANCH  30  38
ENDBRANCH   1  25
TORSDOF 11
ENDMDL
MODEL 2
REMARK VINA RESULT:    53.568      0.877      2.016
REMARK INTER + INTRA:          87.087
REMARK INTER:                  82.796
REMARK INTRA:                   4.291
REMARK UNBOUND:                10.032
REMARK SMILES O=c1c(O[C@H]2O[C@@H](CO)[C@H](O)[C@H](O)[C@H]2O)c(-c2ccc(O)cc2)oc2cc(O)cc(O)c12
REMARK SMILES IDX 4 1 3 2 16 3 24 4 2 5 25 6 1 7 32 8 26 9 30 10 27 11 29 12
REMARK SMILES IDX 17 13 18 14 19 15 20 16 23 17 22 18 21 19 31 21 28 23 5 25
REMARK SMILES IDX 14 26 6 27 12 28 7 29 10 30 15 31 13 33 8 35 9 36 11 38
REMARK H PARENT 21 20 31 22 28 24 15 32 13 34 9 37 11 39
REMARK Flexibility Score: inf
ROOT
ATOM      1  O   UNL     1       1.724  -0.908  -0.389  1.00  0.00    -0.454 OA
ENDROOT
BRANCH   1   2
ATOM      2  C   UNL     1       2.783  -1.102   0.521  1.00  0.00     0.214 A 
ATOM      3  C   UNL     1       2.528  -0.903   1.892  1.00  0.00     0.180 A 
ATOM      4  O   UNL     1       3.509  -1.016   2.781  1.00  0.00    -0.452 OA
ATOM      5  C   UNL     1       4.095  -1.453   0.128  1.00  0.00     0.239 A 
ATOM      6  C   UNL     1       4.752  -1.346   2.454  1.00  0.00     0.146 A 
ATOM      7  O   UNL     1       4.370  -1.620  -1.089  1.00  0.00    -0.285 OA
ATOM      8  C   UNL     1       5.101  -1.592   1.107  1.00  0.00     0.111 A 
ATOM      9  C   UNL     1       5.712  -1.456   3.465  1.00  0.00     0.094 A 
ATOM     10  C   UNL     1       6.436  -1.957   0.799  1.00  0.00     0.134 A 
ATOM     11  C   UNL     1       7.024  -1.818   3.157  1.00  0.00     0.123 A 
ATOM     12  C   UNL     1       7.384  -2.068   1.828  1.00  0.00     0.093 A 
BRANCH   3  13
ATOM     13  C   UNL     1       1.176  -0.564   2.390  1.00  0.00     0.021 A 
ATOM     14  C   UNL     1       0.024  -1.141   1.826  1.00  0.00     0.016 A 
ATOM     15  C   UNL     1      -1.245  -0.818   2.317  1.00  0.00     0.047 A 
ATOM     16  C   UNL     1      -1.377   0.063   3.394  1.00  0.00     0.115 A 
ATOM     17  C   UNL     1       1.035   0.309   3.482  1.00  0.00     0.016 A 
ATOM     18  C   UNL     1      -0.233   0.626   3.977  1.00  0.00     0.047 A 
BRANCH  16  19
ATOM     19  O   UNL     1      -2.645   0.365   3.884  1.00  0.00    -0.508 OA
ATOM     20  H   UNL     1      -2.826   0.438   4.877  1.00  0.00     0.293 HD
ENDBRANCH  16  19
ENDBRANCH   3  13
BRANCH  10  21
ATOM     21  O   UNL     1       6.826  -2.215  -0.515  1.00  0.00    -0.507 OA
ATOM     22  H   UNL     1       7.117  -3.140  -0.814  1.00  0.00     0.293 HD
ENDBRANCH  10  21
BRANCH  11  23
ATOM     23  O   UNL     1       7.963  -1.932   4.180  1.00  0.00    -0.508 OA
ATOM     24  H   UNL     1       8.300  -1.120   4.685  1.00  0.00     0.293 HD
ENDBRANCH  11  23
ENDBRANCH   1   2
BRANCH   1  25
ATOM     25  C   UNL     1       0.450  -1.549  -0.370  1.00  0.00     0.339 C 
ATOM     26  C   UNL     1       0.661  -3.008   0.049  1.00  0.00     0.214 C 
ATOM     27  O   UNL     1      -0.115  -1.470  -1.664  1.00  0.00    -0.332 OA
ATOM     28  C   UNL     1      -0.683  -3.771   0.130  1.00  0.00     0.180 C 
ATOM     29  C   UNL     1      -1.318  -2.213  -1.862  1.00  0.00     0.179 C 
ATOM     30  C   UNL     1      -1.822  -3.091  -0.670  1.00  0.00     0.177 C 
BRANCH  26  31
ATOM     31  O   UNL     1       1.517  -3.628  -0.877  1.00  0.00    -0.384 OA
ATOM     32  H   UNL     1       1.829  -2.919  -1.500  1.00  0.00     0.211 HD
ENDBRANCH  26  31
BRANCH  28  33
ATOM     33  O   UNL     1      -1.073  -3.931   1.473  1.00  0.00    -0.387 OA
ATOM     34  H   UNL     1      -0.468  -3.364   2.019  1.00  0.00     0.211 HD
ENDBRANCH  28  33
BRANCH  29  35
ATOM     35  C   UNL     1      -1.139  -3.073  -3.124  1.00  0.00     0.191 C 
BRANCH  35  36
ATOM     36  O   UNL     1       0.123  -3.688  -3.125  1.00  0.00    -0.394 OA
ATOM     37  H   UNL     1       0.775  -3.014  -2.799  1.00  0.00     0.210 HD
ENDBRANCH  35  36
ENDBRANCH  29  35
BRANCH  30  38
ATOM     38  O   UNL     1      -2.704  -2.366   0.155  1.00  0.00    -0.387 OA
ATOM     39  H   UNL     1      -2.952  -2.929   0.929  1.00  0.00     0.211 HD
ENDBRANCH  30  38
ENDBRANCH   1  25
TORSDOF 11
ENDMDL
