MODEL 1
REMARK VINA RESULT:    -3.320      0.000      0.000
REMARK INTER + INTRA:          -8.832
REMARK INTER:                  -6.231
REMARK INTRA:                  -2.600
REMARK UNBOUND:                -2.600
REMARK SMILES CCCCCCCCC=CCCCCCCCC(=O)[O-]
REMARK SMILES IDX 10 1 9 2 11 3 12 4 13 5 14 6 15 7 16 8 17 9 18 10 19 11
REMARK SMILES IDX 20 12 8 13 7 14 6 15 5 16 4 17 3 18 2 19 1 20
REMARK H PARENT
REMARK Flexibility Score: inf
ROOT
ATOM      1  C   UNL     1      55.937  28.638  51.813  1.00  0.00    -0.031 C 
ATOM      2  C   UNL     1      55.268  28.339  50.689  1.00  0.00    -0.031 C 
ENDROOT
BRANCH   1   3
ATOM      3  C   UNL     1      57.438  28.565  51.877  1.00  0.00     0.027 C 
BRANCH   3   4
ATOM      4  C   UNL     1      58.019  27.980  50.581  1.00  0.00     0.004 C 
BRANCH   4   5
ATOM      5  C   UNL     1      58.244  26.463  50.667  1.00  0.00     0.000 C 
BRANCH   5   6
ATOM      6  C   UNL     1      59.592  26.028  50.067  1.00  0.00     0.000 C 
BRANCH   6   7
ATOM      7  C   UNL     1      60.356  27.209  49.433  1.00  0.00     0.000 C 
BRANCH   7   8
ATOM      8  C   UNL     1      61.753  27.435  50.039  1.00  0.00     0.006 C 
BRANCH   8   9
ATOM      9  C   UNL     1      61.703  28.049  51.442  1.00  0.00     0.053 C 
BRANCH   9  10
ATOM     10  C   UNL     1      61.467  29.524  51.358  1.00  0.00     0.041 C 
ATOM     11  O   UNL     1      61.980  30.197  50.425  1.00  0.00    -0.550 OA
ATOM     12  O   UNL     1      60.633  30.148  52.277  1.00  0.00    -0.550 OA
ENDBRANCH   9  10
ENDBRANCH   8   9
ENDBRANCH   7   8
ENDBRANCH   6   7
ENDBRANCH   5   6
ENDBRANCH   4   5
ENDBRANCH   3   4
ENDBRANCH   1   3
BRANCH   2  13
ATOM     13  C   UNL     1      53.769  28.428  50.618  1.00  0.00     0.027 C 
BRANCH  13  14
ATOM     14  C   UNL     1      53.173  27.180  49.948  1.00  0.00     0.004 C 
BRANCH  14  15
ATOM     15  C   UNL     1      54.241  26.108  49.648  1.00  0.00     0.000 C 
BRANCH  15  16
ATOM     16  C   UNL     1      53.776  24.673  49.950  1.00  0.00     0.000 C 
BRANCH  16  17
ATOM     17  C   UNL     1      53.923  24.296  51.431  1.00  0.00    -0.000 C 
BRANCH  17  18
ATOM     18  C   UNL     1      55.224  24.827  52.058  1.00  0.00    -0.000 C 
BRANCH  18  19
ATOM     19  C   UNL     1      55.025  25.491  53.435  1.00  0.00    -0.003 C 
ATOM     20  C   UNL     1      53.649  26.143  53.581  1.00  0.00     0.004 C 
ENDBRANCH  18  19
ENDBRANCH  17  18
ENDBRANCH  16  17
ENDBRANCH  15  16
ENDBRANCH  14  15
ENDBRANCH  13  14
ENDBRANCH   2  13
TORSDOF 15
ENDMDL
MODEL 2
REMARK VINA RESULT:    -3.309     11.082     13.080
REMARK INTER + INTRA:          -8.810
REMARK INTER:                  -6.349
REMARK INTRA:                  -2.462
REMARK UNBOUND:                -2.600
REMARK SMILES CCCCCCCCC=CCCCCCCCC(=O)[O-]
REMARK SMILES IDX 10 1 9 2 11 3 12 4 13 5 14 6 15 7 16 8 17 9 18 10 19 11
REMARK SMILES IDX 20 12 8 13 7 14 6 15 5 16 4 17 3 18 2 19 1 20
REMARK H PARENT
REMARK Flexibility Score: inf
ROOT
ATOM      1  C   UNL     1      64.534  29.473  61.424  1.00  0.00    -0.031 C 
ATOM      2  C   UNL     1      63.265  29.469  60.987  1.00  0.00    -0.031 C 
ENDROOT
BRANCH   1   3
ATOM      3  C   UNL     1      65.681  29.152  60.506  1.00  0.00     0.027 C 
BRANCH   3   4
ATOM      4  C   UNL     1      66.266  27.766  60.814  1.00  0.00     0.004 C 
BRANCH   4   5
ATOM      5  C   UNL     1      65.595  26.648  60.001  1.00  0.00     0.000 C 
BRANCH   5   6
ATOM      6  C   UNL     1      64.572  25.848  60.825  1.00  0.00     0.000 C 
BRANCH   6   7
ATOM      7  C   UNL     1      63.258  25.609  60.051  1.00  0.00     0.000 C 
BRANCH   7   8
ATOM      8  C   UNL     1      62.000  26.033  60.829  1.00  0.00     0.006 C 
BRANCH   8   9
ATOM      9  C   UNL     1      62.219  26.063  62.347  1.00  0.00     0.053 C 
BRANCH   9  10
ATOM     10  C   UNL     1      61.729  24.793  62.969  1.00  0.00     0.041 C 
ATOM     11  O   UNL     1      60.595  24.752  63.517  1.00  0.00    -0.550 OA
ATOM     12  O   UNL     1      62.499  23.641  62.895  1.00  0.00    -0.550 OA
ENDBRANCH   9  10
ENDBRANCH   8   9
ENDBRANCH   7   8
ENDBRANCH   6   7
ENDBRANCH   5   6
ENDBRANCH   4   5
ENDBRANCH   3   4
ENDBRANCH   1   3
BRANCH   2  13
ATOM     13  C   UNL     1      62.117  29.806  61.899  1.00  0.00     0.027 C 
BRANCH  13  14
ATOM     14  C   UNL     1      60.838  30.084  61.095  1.00  0.00     0.004 C 
BRANCH  14  15
ATOM     15  C   UNL     1      61.132  30.425  59.620  1.00  0.00     0.000 C 
BRANCH  15  16
ATOM     16  C   UNL     1      60.963  31.916  59.285  1.00  0.00     0.000 C 
BRANCH  16  17
ATOM     17  C   UNL     1      62.298  32.673  59.233  1.00  0.00    -0.000 C 
BRANCH  17  18
ATOM     18  C   UNL     1      62.665  33.334  60.573  1.00  0.00    -0.000 C 
BRANCH  18  19
ATOM     19  C   UNL     1      64.135  33.125  60.988  1.00  0.00    -0.003 C 
ATOM     20  C   UNL     1      64.769  34.388  61.572  1.00  0.00     0.004 C 
ENDBRANCH  18  19
ENDBRANCH  17  18
ENDBRANCH  16  17
ENDBRANCH  15  16
ENDBRANCH  14  15
ENDBRANCH  13  14
ENDBRANCH   2  13
TORSDOF 15
ENDMDL
MODEL 3
REMARK VINA RESULT:    -3.269      2.874      6.179
REMARK INTER + INTRA:          -8.736
REMARK INTER:                  -6.189
REMARK INTRA:                  -2.548
REMARK UNBOUND:                -2.600
REMARK SMILES CCCCCCCCC=CCCCCCCCC(=O)[O-]
REMARK SMILES IDX 10 1 9 2 11 3 12 4 13 5 14 6 15 7 16 8 17 9 18 10 19 11
REMARK SMILES IDX 20 12 8 13 7 14 6 15 5 16 4 17 3 18 2 19 1 20
REMARK H PARENT
REMARK Flexibility Score: inf
ROOT
ATOM      1  C   UNL     1      56.944  25.969  52.481  1.00  0.00    -0.031 C 
ATOM      2  C   UNL     1      56.893  27.253  52.095  1.00  0.00    -0.031 C 
ENDROOT
BRANCH   1   3
ATOM      3  C   UNL     1      56.231  24.890  51.714  1.00  0.00     0.027 C 
BRANCH   3   4
ATOM      4  C   UNL     1      55.916  25.344  50.281  1.00  0.00     0.004 C 
BRANCH   4   5
ATOM      5  C   UNL     1      54.531  24.878  49.805  1.00  0.00     0.000 C 
BRANCH   5   6
ATOM      6  C   UNL     1      53.600  26.051  49.454  1.00  0.00     0.000 C 
BRANCH   6   7
ATOM      7  C   UNL     1      53.345  26.977  50.662  1.00  0.00     0.000 C 
BRANCH   7   8
ATOM      8  C   UNL     1      53.208  28.461  50.280  1.00  0.00     0.006 C 
BRANCH   8   9
ATOM      9  C   UNL     1      54.239  29.355  50.978  1.00  0.00     0.053 C 
BRANCH   9  10
ATOM     10  C   UNL     1      53.759  29.738  52.343  1.00  0.00     0.041 C 
ATOM     11  O   UNL     1      54.088  29.052  53.346  1.00  0.00    -0.550 OA
ATOM     12  O   UNL     1      52.997  30.885  52.515  1.00  0.00    -0.550 OA
ENDBRANCH   9  10
ENDBRANCH   8   9
ENDBRANCH   7   8
ENDBRANCH   6   7
ENDBRANCH   5   6
ENDBRANCH   4   5
ENDBRANCH   3   4
ENDBRANCH   1   3
BRANCH   2  13
ATOM     13  C   UNL     1      57.619  28.332  52.850  1.00  0.00     0.027 C 
BRANCH  13  14
ATOM     14  C   UNL     1      58.493  29.173  51.907  1.00  0.00     0.004 C 
BRANCH  14  15
ATOM     15  C   UNL     1      58.430  28.676  50.448  1.00  0.00     0.000 C 
BRANCH  15  16
ATOM     16  C   UNL     1      59.807  28.577  49.770  1.00  0.00     0.000 C 
BRANCH  16  17
ATOM     17  C   UNL     1      60.187  27.137  49.395  1.00  0.00    -0.000 C 
BRANCH  17  18
ATOM     18  C   UNL     1      60.359  26.225  50.622  1.00  0.00    -0.000 C 
BRANCH  18  19
ATOM     19  C   UNL     1      60.035  24.743  50.344  1.00  0.00    -0.003 C 
ATOM     20  C   UNL     1      59.776  23.946  51.624  1.00  0.00     0.004 C 
ENDBRANCH  18  19
ENDBRANCH  17  18
ENDBRANCH  16  17
ENDBRANCH  15  16
ENDBRANCH  14  15
ENDBRANCH  13  14
ENDBRANCH   2  13
TORSDOF 15
ENDMDL
MODEL 4
REMARK VINA RESULT:    -3.242      3.177      3.863
REMARK INTER + INTRA:          -8.685
REMARK INTER:                  -6.184
REMARK INTRA:                  -2.501
REMARK UNBOUND:                -2.600
REMARK SMILES CCCCCCCCC=CCCCCCCCC(=O)[O-]
REMARK SMILES IDX 10 1 9 2 11 3 12 4 13 5 14 6 15 7 16 8 17 9 18 10 19 11
REMARK SMILES IDX 20 12 8 13 7 14 6 15 5 16 4 17 3 18 2 19 1 20
REMARK H PARENT
REMARK Flexibility Score: inf
ROOT
ATOM      1  C   UNL     1      56.560  27.622  50.585  1.00  0.00    -0.031 C 
ATOM      2  C   UNL     1      55.255  27.932  50.649  1.00  0.00    -0.031 C 
ENDROOT
BRANCH   1   3
ATOM      3  C   UNL     1      57.618  28.590  51.037  1.00  0.00     0.027 C 
BRANCH   3   4
ATOM      4  C   UNL     1      58.801  28.615  50.057  1.00  0.00     0.004 C 
BRANCH   4   5
ATOM      5  C   UNL     1      59.574  27.287  50.031  1.00  0.00     0.000 C 
BRANCH   5   6
ATOM      6  C   UNL     1      60.188  26.933  51.396  1.00  0.00     0.000 C 
BRANCH   6   7
ATOM      7  C   UNL     1      61.133  25.715  51.313  1.00  0.00     0.000 C 
BRANCH   7   8
ATOM      8  C   UNL     1      60.676  24.652  50.299  1.00  0.00     0.006 C 
BRANCH   8   9
ATOM      9  C   UNL     1      61.589  23.421  50.272  1.00  0.00     0.053 C 
BRANCH   9  10
ATOM     10  C   UNL     1      60.866  22.223  50.803  1.00  0.00     0.041 C 
ATOM     11  O   UNL     1      60.192  22.308  51.863  1.00  0.00    -0.550 OA
ATOM     12  O   UNL     1      60.888  21.029  50.096  1.00  0.00    -0.550 OA
ENDBRANCH   9  10
ENDBRANCH   8   9
ENDBRANCH   7   8
ENDBRANCH   6   7
ENDBRANCH   5   6
ENDBRANCH   4   5
ENDBRANCH   3   4
ENDBRANCH   1   3
BRANCH   2  13
ATOM     13  C   UNL     1      54.194  26.959  50.214  1.00  0.00     0.027 C 
BRANCH  13  14
ATOM     14  C   UNL     1      54.820  25.661  49.682  1.00  0.00     0.004 C 
BRANCH  14  15
ATOM     15  C   UNL     1      54.111  24.402  50.225  1.00  0.00     0.000 C 
BRANCH  15  16
ATOM     16  C   UNL     1      53.619  24.548  51.674  1.00  0.00     0.000 C 
BRANCH  16  17
ATOM     17  C   UNL     1      54.689  24.173  52.710  1.00  0.00    -0.000 C 
BRANCH  17  18
ATOM     18  C   UNL     1      55.283  25.397  53.427  1.00  0.00    -0.000 C 
BRANCH  18  19
ATOM     19  C   UNL     1      56.822  25.375  53.522  1.00  0.00    -0.003 C 
ATOM     20  C   UNL     1      57.474  24.608  52.371  1.00  0.00     0.004 C 
ENDBRANCH  18  19
ENDBRANCH  17  18
ENDBRANCH  16  17
ENDBRANCH  15  16
ENDBRANCH  14  15
ENDBRANCH  13  14
ENDBRANCH   2  13
TORSDOF 15
ENDMDL
MODEL 5
REMARK VINA RESULT:    -3.238      2.556      3.380
REMARK INTER + INTRA:          -8.677
REMARK INTER:                  -6.462
REMARK INTRA:                  -2.215
REMARK UNBOUND:                -2.600
REMARK SMILES CCCCCCCCC=CCCCCCCCC(=O)[O-]
REMARK SMILES IDX 10 1 9 2 11 3 12 4 13 5 14 6 15 7 16 8 17 9 18 10 19 11
REMARK SMILES IDX 20 12 8 13 7 14 6 15 5 16 4 17 3 18 2 19 1 20
REMARK H PARENT
REMARK Flexibility Score: inf
ROOT
ATOM      1  C   UNL     1      57.672  28.679  51.723  1.00  0.00    -0.031 C 
ATOM      2  C   UNL     1      56.686  28.683  50.811  1.00  0.00    -0.031 C 
ENDROOT
BRANCH   1   3
ATOM      3  C   UNL     1      59.118  28.726  51.315  1.00  0.00     0.027 C 
BRANCH   3   4
ATOM      4  C   UNL     1      59.278  28.464  49.809  1.00  0.00     0.004 C 
BRANCH   4   5
ATOM      5  C   UNL     1      60.152  27.235  49.514  1.00  0.00     0.000 C 
BRANCH   5   6
ATOM      6  C   UNL     1      61.086  26.878  50.683  1.00  0.00     0.000 C 
BRANCH   6   7
ATOM      7  C   UNL     1      62.345  26.119  50.213  1.00  0.00     0.000 C 
BRANCH   7   8
ATOM      8  C   UNL     1      63.627  26.969  50.254  1.00  0.00     0.006 C 
BRANCH   8   9
ATOM      9  C   UNL     1      63.854  27.771  48.968  1.00  0.00     0.053 C 
BRANCH   9  10
ATOM     10  C   UNL     1      65.115  27.331  48.294  1.00  0.00     0.041 C 
ATOM     11  O   UNL     1      65.729  26.310  48.701  1.00  0.00    -0.550 OA
ATOM     12  O   UNL     1      65.583  28.015  47.180  1.00  0.00    -0.550 OA
ENDBRANCH   9  10
ENDBRANCH   8   9
ENDBRANCH   7   8
ENDBRANCH   6   7
ENDBRANCH   5   6
ENDBRANCH   4   5
ENDBRANCH   3   4
ENDBRANCH   1   3
BRANCH   2  13
ATOM     13  C   UNL     1      55.239  28.654  51.217  1.00  0.00     0.027 C 
BRANCH  13  14
ATOM     14  C   UNL     1      54.429  27.718  50.306  1.00  0.00     0.004 C 
BRANCH  14  15
ATOM     15  C   UNL     1      54.544  26.240  50.731  1.00  0.00     0.000 C 
BRANCH  15  16
ATOM     16  C   UNL     1      55.471  25.409  49.828  1.00  0.00     0.000 C 
BRANCH  16  17
ATOM     17  C   UNL     1      56.903  25.305  50.375  1.00  0.00    -0.000 C 
BRANCH  17  18
ATOM     18  C   UNL     1      56.948  25.055  51.892  1.00  0.00    -0.000 C 
BRANCH  18  19
ATOM     19  C   UNL     1      58.365  25.133  52.493  1.00  0.00    -0.003 C 
ATOM     20  C   UNL     1      59.237  23.936  52.108  1.00  0.00     0.004 C 
ENDBRANCH  18  19
ENDBRANCH  17  18
ENDBRANCH  16  17
ENDBRANCH  15  16
ENDBRANCH  14  15
ENDBRANCH  13  14
ENDBRANCH   2  13
TORSDOF 15
ENDMDL
MODEL 6
REMARK VINA RESULT:    -3.185      2.168      2.833
REMARK INTER + INTRA:          -8.577
REMARK INTER:                  -6.266
REMARK INTRA:                  -2.312
REMARK UNBOUND:                -2.600
REMARK SMILES CCCCCCCCC=CCCCCCCCC(=O)[O-]
REMARK SMILES IDX 10 1 9 2 11 3 12 4 13 5 14 6 15 7 16 8 17 9 18 10 19 11
REMARK SMILES IDX 20 12 8 13 7 14 6 15 5 16 4 17 3 18 2 19 1 20
REMARK H PARENT
REMARK Flexibility Score: inf
ROOT
ATOM      1  C   UNL     1      56.669  27.636  50.741  1.00  0.00    -0.031 C 
ATOM      2  C   UNL     1      55.365  27.953  50.752  1.00  0.00    -0.031 C 
ENDROOT
BRANCH   1   3
ATOM      3  C   UNL     1      57.707  28.560  51.317  1.00  0.00     0.027 C 
BRANCH   3   4
ATOM      4  C   UNL     1      58.969  28.590  50.442  1.00  0.00     0.004 C 
BRANCH   4   5
ATOM      5  C   UNL     1      59.919  27.419  50.737  1.00  0.00     0.000 C 
BRANCH   5   6
ATOM      6  C   UNL     1      59.914  26.357  49.625  1.00  0.00     0.000 C 
BRANCH   6   7
ATOM      7  C   UNL     1      60.341  24.968  50.143  1.00  0.00     0.000 C 
BRANCH   7   8
ATOM      8  C   UNL     1      61.476  25.020  51.180  1.00  0.00     0.006 C 
BRANCH   8   9
ATOM      9  C   UNL     1      62.778  24.388  50.675  1.00  0.00     0.053 C 
BRANCH   9  10
ATOM     10  C   UNL     1      63.761  25.450  50.294  1.00  0.00     0.041 C 
ATOM     11  O   UNL     1      63.397  26.425  49.585  1.00  0.00    -0.550 OA
ATOM     12  O   UNL     1      65.064  25.394  50.769  1.00  0.00    -0.550 OA
ENDBRANCH   9  10
ENDBRANCH   8   9
ENDBRANCH   7   8
ENDBRANCH   6   7
ENDBRANCH   5   6
ENDBRANCH   4   5
ENDBRANCH   3   4
ENDBRANCH   1   3
BRANCH   2  13
ATOM     13  C   UNL     1      54.324  27.024  50.191  1.00  0.00     0.027 C 
BRANCH  13  14
ATOM     14  C   UNL     1      54.955  25.698  49.739  1.00  0.00     0.004 C 
BRANCH  14  15
ATOM     15  C   UNL     1      54.181  24.471  50.263  1.00  0.00     0.000 C 
BRANCH  15  16
ATOM     16  C   UNL     1      53.599  24.665  51.673  1.00  0.00     0.000 C 
BRANCH  16  17
ATOM     17  C   UNL     1      54.570  24.243  52.785  1.00  0.00    -0.000 C 
BRANCH  17  18
ATOM     18  C   UNL     1      55.235  25.441  53.485  1.00  0.00    -0.000 C 
BRANCH  18  19
ATOM     19  C   UNL     1      56.759  25.287  53.665  1.00  0.00    -0.003 C 
ATOM     20  C   UNL     1      57.429  24.607  52.471  1.00  0.00     0.004 C 
ENDBRANCH  18  19
ENDBRANCH  17  18
ENDBRANCH  16  17
ENDBRANCH  15  16
ENDBRANCH  14  15
ENDBRANCH  13  14
ENDBRANCH   2  13
TORSDOF 15
ENDMDL
MODEL 7
REMARK VINA RESULT:    -3.176      2.894      6.348
REMARK INTER + INTRA:          -8.562
REMARK INTER:                  -6.176
REMARK INTRA:                  -2.386
REMARK UNBOUND:                -2.600
REMARK SMILES CCCCCCCCC=CCCCCCCCC(=O)[O-]
REMARK SMILES IDX 10 1 9 2 11 3 12 4 13 5 14 6 15 7 16 8 17 9 18 10 19 11
REMARK SMILES IDX 20 12 8 13 7 14 6 15 5 16 4 17 3 18 2 19 1 20
REMARK H PARENT
REMARK Flexibility Score: inf
ROOT
ATOM      1  C   UNL     1      57.255  25.301  50.751  1.00  0.00    -0.031 C 
ATOM      2  C   UNL     1      58.288  25.191  51.601  1.00  0.00    -0.031 C 
ENDROOT
BRANCH   1   3
ATOM      3  C   UNL     1      55.905  25.773  51.214  1.00  0.00     0.027 C 
BRANCH   3   4
ATOM      4  C   UNL     1      55.516  27.093  50.531  1.00  0.00     0.004 C 
BRANCH   4   5
ATOM      5  C   UNL     1      54.067  27.088  50.019  1.00  0.00     0.000 C 
BRANCH   5   6
ATOM      6  C   UNL     1      53.325  28.399  50.329  1.00  0.00     0.000 C 
BRANCH   6   7
ATOM      7  C   UNL     1      54.208  29.401  51.102  1.00  0.00     0.000 C 
BRANCH   7   8
ATOM      8  C   UNL     1      53.462  30.135  52.230  1.00  0.00     0.006 C 
BRANCH   8   9
ATOM      9  C   UNL     1      54.313  31.218  52.904  1.00  0.00     0.053 C 
BRANCH   9  10
ATOM     10  C   UNL     1      54.476  30.921  54.361  1.00  0.00     0.041 C 
ATOM     11  O   UNL     1      54.021  29.852  54.846  1.00  0.00    -0.550 OA
ATOM     12  O   UNL     1      55.182  31.798  55.174  1.00  0.00    -0.550 OA
ENDBRANCH   9  10
ENDBRANCH   8   9
ENDBRANCH   7   8
ENDBRANCH   6   7
ENDBRANCH   5   6
ENDBRANCH   4   5
ENDBRANCH   3   4
ENDBRANCH   1   3
BRANCH   2  13
ATOM     13  C   UNL     1      59.644  24.734  51.139  1.00  0.00     0.027 C 
BRANCH  13  14
ATOM     14  C   UNL     1      60.017  25.386  49.798  1.00  0.00     0.004 C 
BRANCH  14  15
ATOM     15  C   UNL     1      60.607  26.800  49.976  1.00  0.00     0.000 C 
BRANCH  15  16
ATOM     16  C   UNL     1      59.771  27.906  49.311  1.00  0.00     0.000 C 
BRANCH  16  17
ATOM     17  C   UNL     1      58.860  28.645  50.302  1.00  0.00    -0.000 C 
BRANCH  17  18
ATOM     18  C   UNL     1      59.569  28.992  51.622  1.00  0.00    -0.000 C 
BRANCH  18  19
ATOM     19  C   UNL     1      58.819  28.502  52.877  1.00  0.00    -0.003 C 
ATOM     20  C   UNL     1      57.416  29.098  52.996  1.00  0.00     0.004 C 
ENDBRANCH  18  19
ENDBRANCH  17  18
ENDBRANCH  16  17
ENDBRANCH  15  16
ENDBRANCH  14  15
ENDBRANCH  13  14
ENDBRANCH   2  13
TORSDOF 15
ENDMDL
MODEL 8
REMARK VINA RESULT:    -3.167      1.498      2.348
REMARK INTER + INTRA:          -8.545
REMARK INTER:                  -5.999
REMARK INTRA:                  -2.546
REMARK UNBOUND:                -2.600
REMARK SMILES CCCCCCCCC=CCCCCCCCC(=O)[O-]
REMARK SMILES IDX 10 1 9 2 11 3 12 4 13 5 14 6 15 7 16 8 17 9 18 10 19 11
REMARK SMILES IDX 20 12 8 13 7 14 6 15 5 16 4 17 3 18 2 19 1 20
REMARK H PARENT
REMARK Flexibility Score: inf
ROOT
ATOM      1  C   UNL     1      57.309  27.823  52.376  1.00  0.00    -0.031 C 
ATOM      2  C   UNL     1      56.268  28.394  53.002  1.00  0.00    -0.031 C 
ENDROOT
BRANCH   1   3
ATOM      3  C   UNL     1      58.413  27.150  53.143  1.00  0.00     0.027 C 
BRANCH   3   4
ATOM      4  C   UNL     1      58.208  25.629  53.191  1.00  0.00     0.004 C 
BRANCH   4   5
ATOM      5  C   UNL     1      58.093  25.005  51.792  1.00  0.00     0.000 C 
BRANCH   5   6
ATOM      6  C   UNL     1      59.272  24.075  51.459  1.00  0.00     0.000 C 
BRANCH   6   7
ATOM      7  C   UNL     1      60.294  24.743  50.515  1.00  0.00     0.000 C 
BRANCH   7   8
ATOM      8  C   UNL     1      59.741  25.981  49.788  1.00  0.00     0.006 C 
BRANCH   8   9
ATOM      9  C   UNL     1      60.758  27.125  49.700  1.00  0.00     0.053 C 
BRANCH   9  10
ATOM     10  C   UNL     1      60.094  28.436  49.984  1.00  0.00     0.041 C 
ATOM     11  O   UNL     1      59.145  28.837  49.259  1.00  0.00    -0.550 OA
ATOM     12  O   UNL     1      60.484  29.189  51.083  1.00  0.00    -0.550 OA
ENDBRANCH   9  10
ENDBRANCH   8   9
ENDBRANCH   7   8
ENDBRANCH   6   7
ENDBRANCH   5   6
ENDBRANCH   4   5
ENDBRANCH   3   4
ENDBRANCH   1   3
BRANCH   2  13
ATOM     13  C   UNL     1      55.153  29.052  52.236  1.00  0.00     0.027 C 
BRANCH  13  14
ATOM     14  C   UNL     1      55.079  28.515  50.799  1.00  0.00     0.004 C 
BRANCH  14  15
ATOM     15  C   UNL     1      53.644  28.124  50.391  1.00  0.00     0.000 C 
BRANCH  15  16
ATOM     16  C   UNL     1      53.558  26.778  49.652  1.00  0.00     0.000 C 
BRANCH  16  17
ATOM     17  C   UNL     1      54.715  25.830  50.000  1.00  0.00    -0.000 C 
BRANCH  17  18
ATOM     18  C   UNL     1      54.241  24.405  50.337  1.00  0.00    -0.000 C 
BRANCH  18  19
ATOM     19  C   UNL     1      53.783  24.232  51.798  1.00  0.00    -0.003 C 
ATOM     20  C   UNL     1      54.541  25.141  52.767  1.00  0.00     0.004 C 
ENDBRANCH  18  19
ENDBRANCH  17  18
ENDBRANCH  16  17
ENDBRANCH  15  16
ENDBRANCH  14  15
ENDBRANCH  13  14
ENDBRANCH   2  13
TORSDOF 15
ENDMDL
MODEL 9
REMARK VINA RESULT:    -3.083      1.717      2.297
REMARK INTER + INTRA:          -8.388
REMARK INTER:                  -6.023
REMARK INTRA:                  -2.364
REMARK UNBOUND:                -2.600
REMARK SMILES CCCCCCCCC=CCCCCCCCC(=O)[O-]
REMARK SMILES IDX 10 1 9 2 11 3 12 4 13 5 14 6 15 7 16 8 17 9 18 10 19 11
REMARK SMILES IDX 20 12 8 13 7 14 6 15 5 16 4 17 3 18 2 19 1 20
REMARK H PARENT
REMARK Flexibility Score: inf
ROOT
ATOM      1  C   UNL     1      56.022  28.617  51.837  1.00  0.00    -0.031 C 
ATOM      2  C   UNL     1      55.261  28.398  50.754  1.00  0.00    -0.031 C 
ENDROOT
BRANCH   1   3
ATOM      3  C   UNL     1      57.505  28.368  51.818  1.00  0.00     0.027 C 
BRANCH   3   4
ATOM      4  C   UNL     1      57.980  27.957  50.416  1.00  0.00     0.004 C 
BRANCH   4   5
ATOM      5  C   UNL     1      59.381  28.496  50.086  1.00  0.00     0.000 C 
BRANCH   5   6
ATOM      6  C   UNL     1      60.353  27.388  49.645  1.00  0.00     0.000 C 
BRANCH   6   7
ATOM      7  C   UNL     1      59.722  25.983  49.748  1.00  0.00     0.000 C 
BRANCH   7   8
ATOM      8  C   UNL     1      60.421  25.069  50.769  1.00  0.00     0.006 C 
BRANCH   8   9
ATOM      9  C   UNL     1      59.843  25.200  52.183  1.00  0.00     0.053 C 
BRANCH   9  10
ATOM     10  C   UNL     1      60.786  25.960  53.062  1.00  0.00     0.041 C 
ATOM     11  O   UNL     1      61.739  25.368  53.632  1.00  0.00    -0.550 OA
ATOM     12  O   UNL     1      60.645  27.334  53.207  1.00  0.00    -0.550 OA
ENDBRANCH   9  10
ENDBRANCH   8   9
ENDBRANCH   7   8
ENDBRANCH   6   7
ENDBRANCH   5   6
ENDBRANCH   4   5
ENDBRANCH   3   4
ENDBRANCH   1   3
BRANCH   2  13
ATOM     13  C   UNL     1      53.781  28.661  50.765  1.00  0.00     0.027 C 
BRANCH  13  14
ATOM     14  C   UNL     1      53.018  27.555  50.021  1.00  0.00     0.004 C 
BRANCH  14  15
ATOM     15  C   UNL     1      53.921  26.357  49.664  1.00  0.00     0.000 C 
BRANCH  15  16
ATOM     16  C   UNL     1      53.262  24.991  49.920  1.00  0.00     0.000 C 
BRANCH  16  17
ATOM     17  C   UNL     1      53.974  24.179  51.013  1.00  0.00    -0.000 C 
BRANCH  17  18
ATOM     18  C   UNL     1      54.538  25.061  52.141  1.00  0.00    -0.000 C 
BRANCH  18  19
ATOM     19  C   UNL     1      56.064  24.936  52.323  1.00  0.00    -0.003 C 
ATOM     20  C   UNL     1      56.446  24.002  53.473  1.00  0.00     0.004 C 
ENDBRANCH  18  19
ENDBRANCH  17  18
ENDBRANCH  16  17
ENDBRANCH  15  16
ENDBRANCH  14  15
ENDBRANCH  13  14
ENDBRANCH   2  13
TORSDOF 15
ENDMDL
