MODEL 1
REMARK VINA RESULT:    -6.881      0.000      0.000
REMARK INTER + INTRA:         -10.162
REMARK INTER:                 -10.099
REMARK INTRA:                  -0.064
REMARK UNBOUND:                -0.064
REMARK SMILES O=c1c(O[C@H]2O[C@@H](CO)[C@@H](O)[C@H](O)[C@H]2O)c(-c2ccc(O)c(O)c2)oc2cc(O)cc(O)c12
REMARK SMILES IDX 4 1 3 2 16 3 25 4 2 5 26 6 1 7 33 8 27 9 31 10 28 11 30 12
REMARK SMILES IDX 17 13 18 14 19 15 20 16 24 17 22 18 21 19 23 21 32 23 29 25
REMARK SMILES IDX 5 27 14 28 6 29 12 30 7 31 10 32 15 33 13 35 8 37 9 38 11 40
REMARK H PARENT 21 20 23 22 32 24 29 26 15 34 13 36 9 39 11 41
REMARK Flexibility Score: inf
ROOT
ATOM      1  O   UNL     1      -6.253   5.975  13.875  1.00  0.00    -0.454 OA
ENDROOT
BRANCH   1   2
ATOM      2  C   UNL     1      -5.158   5.389  14.537  1.00  0.00     0.214 A 
ATOM      3  C   UNL     1      -3.831   5.758  14.238  1.00  0.00     0.180 A 
ATOM      4  O   UNL     1      -2.816   5.077  14.756  1.00  0.00    -0.452 OA
ATOM      5  C   UNL     1      -5.370   4.398  15.503  1.00  0.00     0.239 A 
ATOM      6  C   UNL     1      -2.977   4.068  15.605  1.00  0.00     0.146 A 
ATOM      7  O   UNL     1      -6.544   4.144  15.879  1.00  0.00    -0.285 OA
ATOM      8  C   UNL     1      -4.271   3.693  16.035  1.00  0.00     0.111 A 
ATOM      9  C   UNL     1      -1.851   3.391  16.083  1.00  0.00     0.094 A 
ATOM     10  C   UNL     1      -4.410   2.624  16.953  1.00  0.00     0.134 A 
ATOM     11  C   UNL     1      -1.995   2.333  16.987  1.00  0.00     0.123 A 
ATOM     12  C   UNL     1      -3.268   1.955  17.420  1.00  0.00     0.093 A 
BRANCH   3  13
ATOM     13  C   UNL     1      -3.523   6.928  13.402  1.00  0.00     0.025 A 
ATOM     14  C   UNL     1      -4.292   7.206  12.267  1.00  0.00     0.016 A 
ATOM     15  C   UNL     1      -3.953   8.276  11.436  1.00  0.00     0.051 A 
ATOM     16  C   UNL     1      -2.821   9.055  11.703  1.00  0.00     0.157 A 
ATOM     17  C   UNL     1      -2.378   7.693  13.669  1.00  0.00     0.062 A 
ATOM     18  C   UNL     1      -2.010   8.745  12.820  1.00  0.00     0.158 A 
BRANCH  16  19
ATOM     19  O   UNL     1      -2.539  10.123  10.847  1.00  0.00    -0.504 OA
ATOM     20  H   UNL     1      -3.245  10.612  10.316  1.00  0.00     0.293 HD
ENDBRANCH  16  19
BRANCH  18  21
ATOM     21  O   UNL     1      -0.826   9.428  13.099  1.00  0.00    -0.504 OA
ATOM     22  H   UNL     1      -0.156   9.123  13.790  1.00  0.00     0.293 HD
ENDBRANCH  18  21
ENDBRANCH   3  13
BRANCH  10  23
ATOM     23  O   UNL     1      -5.669   2.215  17.395  1.00  0.00    -0.507 OA
ATOM     24  H   UNL     1      -5.778   1.566  18.167  1.00  0.00     0.293 HD
ENDBRANCH  10  23
BRANCH  11  25
ATOM     25  O   UNL     1      -0.879   1.649  17.459  1.00  0.00    -0.508 OA
ATOM     26  H   UNL     1      -0.489   0.861  16.957  1.00  0.00     0.293 HD
ENDBRANCH  11  25
ENDBRANCH   1   2
BRANCH   1  27
ATOM     27  C   UNL     1      -7.466   5.244  13.642  1.00  0.00     0.339 C 
ATOM     28  C   UNL     1      -7.401   4.394  12.353  1.00  0.00     0.214 C 
ATOM     29  O   UNL     1      -8.607   6.096  13.727  1.00  0.00    -0.332 OA
ATOM     30  C   UNL     1      -7.608   5.247  11.105  1.00  0.00     0.180 C 
ATOM     31  C   UNL     1      -8.889   6.865  12.557  1.00  0.00     0.179 C 
ATOM     32  C   UNL     1      -8.914   6.022  11.262  1.00  0.00     0.177 C 
BRANCH  28  33
ATOM     33  O   UNL     1      -6.157   3.747  12.267  1.00  0.00    -0.384 OA
ATOM     34  H   UNL     1      -5.569   4.305  11.696  1.00  0.00     0.211 HD
ENDBRANCH  28  33
BRANCH  30  35
ATOM     35  O   UNL     1      -7.684   4.402   9.985  1.00  0.00    -0.387 OA
ATOM     36  H   UNL     1      -7.576   4.974   9.181  1.00  0.00     0.211 HD
ENDBRANCH  30  35
BRANCH  31  37
ATOM     37  C   UNL     1      -8.027   8.139  12.468  1.00  0.00     0.191 C 
BRANCH  37  38
ATOM     38  O   UNL     1      -7.676   8.552  13.758  1.00  0.00    -0.394 OA
ATOM     39  H   UNL     1      -7.297   9.465  13.663  1.00  0.00     0.210 HD
ENDBRANCH  37  38
ENDBRANCH  31  37
BRANCH  32  40
ATOM     40  O   UNL     1      -9.125   6.834  10.135  1.00  0.00    -0.387 OA
ATOM     41  H   UNL     1      -9.096   6.239   9.341  1.00  0.00     0.211 HD
ENDBRANCH  32  40
ENDBRANCH   1  27
TORSDOF 12
ENDMDL
MODEL 2
REMARK VINA RESULT:    -6.384      1.484      4.835
REMARK INTER + INTRA:          -9.434
REMARK INTER:                  -9.069
REMARK INTRA:                  -0.364
REMARK UNBOUND:                -0.064
REMARK SMILES O=c1c(O[C@H]2O[C@@H](CO)[C@@H](O)[C@H](O)[C@H]2O)c(-c2ccc(O)c(O)c2)oc2cc(O)cc(O)c12
REMARK SMILES IDX 4 1 3 2 16 3 25 4 2 5 26 6 1 7 33 8 27 9 31 10 28 11 30 12
REMARK SMILES IDX 17 13 18 14 19 15 20 16 24 17 22 18 21 19 23 21 32 23 29 25
REMARK SMILES IDX 5 27 14 28 6 29 12 30 7 31 10 32 15 33 13 35 8 37 9 38 11 40
REMARK H PARENT 21 20 23 22 32 24 29 26 15 34 13 36 9 39 11 41
REMARK Flexibility Score: inf
ROOT
ATOM      1  O   UNL     1      -3.652   5.853  13.699  1.00  0.00    -0.454 OA
ENDROOT
BRANCH   1   2
ATOM      2  C   UNL     1      -3.939   4.766  14.545  1.00  0.00     0.214 A 
ATOM      3  C   UNL     1      -5.231   4.206  14.613  1.00  0.00     0.180 A 
ATOM      4  O   UNL     1      -5.515   3.292  15.535  1.00  0.00    -0.452 OA
ATOM      5  C   UNL     1      -2.938   4.228  15.362  1.00  0.00     0.239 A 
ATOM      6  C   UNL     1      -4.615   2.822  16.391  1.00  0.00     0.146 A 
ATOM      7  O   UNL     1      -1.752   4.623  15.225  1.00  0.00    -0.285 OA
ATOM      8  C   UNL     1      -3.271   3.259  16.330  1.00  0.00     0.111 A 
ATOM      9  C   UNL     1      -5.008   1.878  17.345  1.00  0.00     0.094 A 
ATOM     10  C   UNL     1      -2.332   2.727  17.247  1.00  0.00     0.134 A 
ATOM     11  C   UNL     1      -4.075   1.361  18.251  1.00  0.00     0.123 A 
ATOM     12  C   UNL     1      -2.745   1.783  18.198  1.00  0.00     0.093 A 
BRANCH   3  13
ATOM     13  C   UNL     1      -6.280   4.561  13.647  1.00  0.00     0.025 A 
ATOM     14  C   UNL     1      -6.227   4.071  12.337  1.00  0.00     0.016 A 
ATOM     15  C   UNL     1      -7.185   4.467  11.402  1.00  0.00     0.051 A 
ATOM     16  C   UNL     1      -8.183   5.387  11.748  1.00  0.00     0.157 A 
ATOM     17  C   UNL     1      -7.266   5.494  13.998  1.00  0.00     0.062 A 
ATOM     18  C   UNL     1      -8.210   5.925  13.056  1.00  0.00     0.158 A 
BRANCH  16  19
ATOM     19  O   UNL     1      -9.125   5.734  10.777  1.00  0.00    -0.504 OA
ATOM     20  H   UNL     1     -10.096   5.922  10.985  1.00  0.00     0.293 HD
ENDBRANCH  16  19
BRANCH  18  21
ATOM     21  O   UNL     1      -9.125   6.903  13.445  1.00  0.00    -0.504 OA
ATOM     22  H   UNL     1      -8.937   7.588  14.163  1.00  0.00     0.293 HD
ENDBRANCH  18  21
ENDBRANCH   3  13
BRANCH  10  23
ATOM     23  O   UNL     1      -0.998   3.138  17.227  1.00  0.00    -0.507 OA
ATOM     24  H   UNL     1      -0.734   4.077  16.947  1.00  0.00     0.293 HD
ENDBRANCH  10  23
BRANCH  11  25
ATOM     25  O   UNL     1      -4.462   0.428  19.208  1.00  0.00    -0.508 OA
ATOM     26  H   UNL     1      -4.331  -0.565  19.062  1.00  0.00     0.293 HD
ENDBRANCH  11  25
ENDBRANCH   1   2
BRANCH   1  27
ATOM     27  C   UNL     1      -3.241   7.123  14.226  1.00  0.00     0.339 C 
ATOM     28  C   UNL     1      -4.431   7.947  14.768  1.00  0.00     0.214 C 
ATOM     29  O   UNL     1      -2.415   7.825  13.299  1.00  0.00    -0.332 OA
ATOM     30  C   UNL     1      -5.220   8.606  13.641  1.00  0.00     0.180 C 
ATOM     31  C   UNL     1      -3.107   8.521  12.262  1.00  0.00     0.179 C 
ATOM     32  C   UNL     1      -4.250   9.420  12.787  1.00  0.00     0.177 C 
BRANCH  28  33
ATOM     33  O   UNL     1      -5.291   7.118  15.508  1.00  0.00    -0.384 OA
ATOM     34  H   UNL     1      -4.726   6.532  16.074  1.00  0.00     0.211 HD
ENDBRANCH  28  33
BRANCH  30  35
ATOM     35  O   UNL     1      -6.191   9.453  14.200  1.00  0.00    -0.387 OA
ATOM     36  H   UNL     1      -5.814   9.807  15.048  1.00  0.00     0.211 HD
ENDBRANCH  30  35
BRANCH  31  37
ATOM     37  C   UNL     1      -3.511   7.594  11.099  1.00  0.00     0.191 C 
BRANCH  37  38
ATOM     38  O   UNL     1      -3.621   8.347   9.925  1.00  0.00    -0.394 OA
ATOM     39  H   UNL     1      -3.083   7.869   9.239  1.00  0.00     0.210 HD
ENDBRANCH  37  38
ENDBRANCH  31  37
BRANCH  32  40
ATOM     40  O   UNL     1      -4.943  10.026  11.725  1.00  0.00    -0.387 OA
ATOM     41  H   UNL     1      -4.280  10.193  11.005  1.00  0.00     0.211 HD
ENDBRANCH  32  40
ENDBRANCH   1  27
TORSDOF 12
ENDMDL
MODEL 3
REMARK VINA RESULT:    -6.101      1.938      4.577
REMARK INTER + INTRA:          -9.018
REMARK INTER:                  -8.962
REMARK INTRA:                  -0.056
REMARK UNBOUND:                -0.064
REMARK SMILES O=c1c(O[C@H]2O[C@@H](CO)[C@@H](O)[C@H](O)[C@H]2O)c(-c2ccc(O)c(O)c2)oc2cc(O)cc(O)c12
REMARK SMILES IDX 4 1 3 2 16 3 25 4 2 5 26 6 1 7 33 8 27 9 31 10 28 11 30 12
REMARK SMILES IDX 17 13 18 14 19 15 20 16 24 17 22 18 21 19 23 21 32 23 29 25
REMARK SMILES IDX 5 27 14 28 6 29 12 30 7 31 10 32 15 33 13 35 8 37 9 38 11 40
REMARK H PARENT 21 20 23 22 32 24 29 26 15 34 13 36 9 39 11 41
REMARK Flexibility Score: inf
ROOT
ATOM      1  O   UNL     1      -4.083   7.571  13.515  1.00  0.00    -0.454 OA
ENDROOT
BRANCH   1   2
ATOM      2  C   UNL     1      -3.630   6.376  14.104  1.00  0.00     0.214 A 
ATOM      3  C   UNL     1      -4.352   5.172  13.978  1.00  0.00     0.180 A 
ATOM      4  O   UNL     1      -3.992   4.101  14.676  1.00  0.00    -0.452 OA
ATOM      5  C   UNL     1      -2.450   6.367  14.857  1.00  0.00     0.239 A 
ATOM      6  C   UNL     1      -2.931   4.079  15.475  1.00  0.00     0.146 A 
ATOM      7  O   UNL     1      -1.723   7.394  14.877  1.00  0.00    -0.285 OA
ATOM      8  C   UNL     1      -2.094   5.214  15.587  1.00  0.00     0.111 A 
ATOM      9  C   UNL     1      -2.640   2.914  16.192  1.00  0.00     0.094 A 
ATOM     10  C   UNL     1      -0.961   5.154  16.434  1.00  0.00     0.134 A 
ATOM     11  C   UNL     1      -1.521   2.864  17.031  1.00  0.00     0.123 A 
ATOM     12  C   UNL     1      -0.687   3.978  17.146  1.00  0.00     0.093 A 
BRANCH   3  13
ATOM     13  C   UNL     1      -5.476   5.039  13.039  1.00  0.00     0.025 A 
ATOM     14  C   UNL     1      -5.299   5.329  11.682  1.00  0.00     0.016 A 
ATOM     15  C   UNL     1      -6.385   5.271  10.806  1.00  0.00     0.051 A 
ATOM     16  C   UNL     1      -7.667   4.963  11.279  1.00  0.00     0.157 A 
ATOM     17  C   UNL     1      -6.759   4.746  13.524  1.00  0.00     0.062 A 
ATOM     18  C   UNL     1      -7.860   4.721  12.659  1.00  0.00     0.158 A 
BRANCH  16  19
ATOM     19  O   UNL     1      -8.713   4.902  10.355  1.00  0.00    -0.504 OA
ATOM     20  H   UNL     1      -8.597   5.091   9.369  1.00  0.00     0.293 HD
ENDBRANCH  16  19
BRANCH  18  21
ATOM     21  O   UNL     1      -9.121   4.488  13.209  1.00  0.00    -0.504 OA
ATOM     22  H   UNL     1      -9.775   5.224  13.435  1.00  0.00     0.293 HD
ENDBRANCH  18  21
ENDBRANCH   3  13
BRANCH  10  23
ATOM     23  O   UNL     1      -0.116   6.255  16.581  1.00  0.00    -0.507 OA
ATOM     24  H   UNL     1       0.065   6.670  17.489  1.00  0.00     0.293 HD
ENDBRANCH  10  23
BRANCH  11  25
ATOM     25  O   UNL     1      -1.231   1.711  17.754  1.00  0.00    -0.508 OA
ATOM     26  H   UNL     1      -0.320   1.273  17.708  1.00  0.00     0.293 HD
ENDBRANCH  11  25
ENDBRANCH   1   2
BRANCH   1  27
ATOM     27  C   UNL     1      -4.557   8.666  14.313  1.00  0.00     0.339 C 
ATOM     28  C   UNL     1      -5.790   8.283  15.162  1.00  0.00     0.214 C 
ATOM     29  O   UNL     1      -4.730   9.843  13.525  1.00  0.00    -0.332 OA
ATOM     30  C   UNL     1      -7.066   8.264  14.327  1.00  0.00     0.180 C 
ATOM     31  C   UNL     1      -5.944   9.910  12.777  1.00  0.00     0.179 C 
ATOM     32  C   UNL     1      -7.202   9.613  13.625  1.00  0.00     0.177 C 
BRANCH  28  33
ATOM     33  O   UNL     1      -5.599   7.016  15.740  1.00  0.00    -0.384 OA
ATOM     34  H   UNL     1      -5.491   7.148  16.717  1.00  0.00     0.211 HD
ENDBRANCH  28  33
BRANCH  30  35
ATOM     35  O   UNL     1      -8.164   8.054  15.179  1.00  0.00    -0.387 OA
ATOM     36  H   UNL     1      -8.980   8.275  14.660  1.00  0.00     0.211 HD
ENDBRANCH  30  35
BRANCH  31  37
ATOM     37  C   UNL     1      -5.867   9.118  11.457  1.00  0.00     0.191 C 
BRANCH  37  38
ATOM     38  O   UNL     1      -4.563   9.183  10.954  1.00  0.00    -0.394 OA
ATOM     39  H   UNL     1      -4.360  10.149  10.838  1.00  0.00     0.210 HD
ENDBRANCH  37  38
ENDBRANCH  31  37
BRANCH  32  40
ATOM     40  O   UNL     1      -8.361   9.622  12.830  1.00  0.00    -0.387 OA
ATOM     41  H   UNL     1      -9.106   9.927  13.409  1.00  0.00     0.211 HD
ENDBRANCH  32  40
ENDBRANCH   1  27
TORSDOF 12
ENDMDL
MODEL 4
REMARK VINA RESULT:    -6.057      1.519      5.051
REMARK INTER + INTRA:          -8.954
REMARK INTER:                  -8.656
REMARK INTRA:                  -0.297
REMARK UNBOUND:                -0.064
REMARK SMILES O=c1c(O[C@H]2O[C@@H](CO)[C@@H](O)[C@H](O)[C@H]2O)c(-c2ccc(O)c(O)c2)oc2cc(O)cc(O)c12
REMARK SMILES IDX 4 1 3 2 16 3 25 4 2 5 26 6 1 7 33 8 27 9 31 10 28 11 30 12
REMARK SMILES IDX 17 13 18 14 19 15 20 16 24 17 22 18 21 19 23 21 32 23 29 25
REMARK SMILES IDX 5 27 14 28 6 29 12 30 7 31 10 32 15 33 13 35 8 37 9 38 11 40
REMARK H PARENT 21 20 23 22 32 24 29 26 15 34 13 36 9 39 11 41
REMARK Flexibility Score: inf
ROOT
ATOM      1  O   UNL     1      -3.392   5.843  13.611  1.00  0.00    -0.454 OA
ENDROOT
BRANCH   1   2
ATOM      2  C   UNL     1      -3.804   4.797  14.456  1.00  0.00     0.214 A 
ATOM      3  C   UNL     1      -5.145   4.364  14.492  1.00  0.00     0.180 A 
ATOM      4  O   UNL     1      -5.540   3.491  15.412  1.00  0.00    -0.452 OA
ATOM      5  C   UNL     1      -2.882   4.173  15.304  1.00  0.00     0.239 A 
ATOM      6  C   UNL     1      -4.713   2.945  16.297  1.00  0.00     0.146 A 
ATOM      7  O   UNL     1      -1.660   4.452  15.198  1.00  0.00    -0.285 OA
ATOM      8  C   UNL     1      -3.332   3.250  16.270  1.00  0.00     0.111 A 
ATOM      9  C   UNL     1      -5.221   2.052  17.246  1.00  0.00     0.094 A 
ATOM     10  C   UNL     1      -2.473   2.640  17.216  1.00  0.00     0.134 A 
ATOM     11  C   UNL     1      -4.367   1.456  18.180  1.00  0.00     0.123 A 
ATOM     12  C   UNL     1      -3.001   1.748  18.161  1.00  0.00     0.093 A 
BRANCH   3  13
ATOM     13  C   UNL     1      -6.129   4.808  13.495  1.00  0.00     0.025 A 
ATOM     14  C   UNL     1      -7.007   5.857  13.789  1.00  0.00     0.016 A 
ATOM     15  C   UNL     1      -7.988   6.228  12.867  1.00  0.00     0.051 A 
ATOM     16  C   UNL     1      -8.132   5.534  11.660  1.00  0.00     0.157 A 
ATOM     17  C   UNL     1      -6.277   4.096  12.295  1.00  0.00     0.062 A 
ATOM     18  C   UNL     1      -7.282   4.439  11.381  1.00  0.00     0.158 A 
BRANCH  16  19
ATOM     19  O   UNL     1      -9.120   5.960  10.768  1.00  0.00    -0.504 OA
ATOM     20  H   UNL     1      -9.087   5.782   9.774  1.00  0.00     0.293 HD
ENDBRANCH  16  19
BRANCH  18  21
ATOM     21  O   UNL     1      -7.422   3.654  10.236  1.00  0.00    -0.504 OA
ATOM     22  H   UNL     1      -7.136   3.955   9.316  1.00  0.00     0.293 HD
ENDBRANCH  18  21
ENDBRANCH   3  13
BRANCH  10  23
ATOM     23  O   UNL     1      -1.106   2.921  17.230  1.00  0.00    -0.507 OA
ATOM     24  H   UNL     1      -0.729   3.705  17.753  1.00  0.00     0.293 HD
ENDBRANCH  10  23
BRANCH  11  25
ATOM     25  O   UNL     1      -4.866   0.573  19.133  1.00  0.00    -0.508 OA
ATOM     26  H   UNL     1      -4.630  -0.411  19.118  1.00  0.00     0.293 HD
ENDBRANCH  11  25
ENDBRANCH   1   2
BRANCH   1  27
ATOM     27  C   UNL     1      -4.214   7.000  13.397  1.00  0.00     0.339 C 
ATOM     28  C   UNL     1      -4.270   7.413  11.909  1.00  0.00     0.214 C 
ATOM     29  O   UNL     1      -3.859   8.058  14.286  1.00  0.00    -0.332 OA
ATOM     30  C   UNL     1      -3.010   8.159  11.482  1.00  0.00     0.180 C 
ATOM     31  C   UNL     1      -2.727   8.836  13.897  1.00  0.00     0.179 C 
ATOM     32  C   UNL     1      -2.799   9.333  12.435  1.00  0.00     0.177 C 
BRANCH  28  33
ATOM     33  O   UNL     1      -4.427   6.274  11.101  1.00  0.00    -0.384 OA
ATOM     34  H   UNL     1      -5.368   5.975  11.187  1.00  0.00     0.211 HD
ENDBRANCH  28  33
BRANCH  30  35
ATOM     35  O   UNL     1      -3.183   8.631  10.170  1.00  0.00    -0.387 OA
ATOM     36  H   UNL     1      -2.875   7.912   9.559  1.00  0.00     0.211 HD
ENDBRANCH  30  35
BRANCH  31  37
ATOM     37  C   UNL     1      -1.392   8.162  14.272  1.00  0.00     0.191 C 
BRANCH  37  38
ATOM     38  O   UNL     1      -0.390   9.135  14.354  1.00  0.00    -0.394 OA
ATOM     39  H   UNL     1      -0.443   9.510  15.273  1.00  0.00     0.210 HD
ENDBRANCH  37  38
ENDBRANCH  31  37
BRANCH  32  40
ATOM     40  O   UNL     1      -1.632  10.031  12.081  1.00  0.00    -0.387 OA
ATOM     41  H   UNL     1      -1.862  10.600  11.301  1.00  0.00     0.211 HD
ENDBRANCH  32  40
ENDBRANCH   1  27
TORSDOF 12
ENDMDL
MODEL 5
REMARK VINA RESULT:    -5.658     13.016     18.519
REMARK INTER + INTRA:          -8.368
REMARK INTER:                  -7.149
REMARK INTRA:                  -1.219
REMARK UNBOUND:                -0.064
REMARK SMILES O=c1c(O[C@H]2O[C@@H](CO)[C@@H](O)[C@H](O)[C@H]2O)c(-c2ccc(O)c(O)c2)oc2cc(O)cc(O)c12
REMARK SMILES IDX 4 1 3 2 16 3 25 4 2 5 26 6 1 7 33 8 27 9 31 10 28 11 30 12
REMARK SMILES IDX 17 13 18 14 19 15 20 16 24 17 22 18 21 19 23 21 32 23 29 25
REMARK SMILES IDX 5 27 14 28 6 29 12 30 7 31 10 32 15 33 13 35 8 37 9 38 11 40
REMARK H PARENT 21 20 23 22 32 24 29 26 15 34 13 36 9 39 11 41
REMARK Flexibility Score: inf
ROOT
ATOM      1  O   UNL     1      -6.465  -7.748  25.830  1.00  0.00    -0.454 OA
ENDROOT
BRANCH   1   2
ATOM      2  C   UNL     1      -6.139  -7.297  24.538  1.00  0.00     0.214 A 
ATOM      3  C   UNL     1      -4.910  -6.660  24.269  1.00  0.00     0.180 A 
ATOM      4  O   UNL     1      -4.695  -6.098  23.084  1.00  0.00    -0.452 OA
ATOM      5  C   UNL     1      -7.050  -7.452  23.488  1.00  0.00     0.239 A 
ATOM      6  C   UNL     1      -5.574  -6.143  22.090  1.00  0.00     0.146 A 
ATOM      7  O   UNL     1      -8.095  -8.129  23.673  1.00  0.00    -0.285 OA
ATOM      8  C   UNL     1      -6.793  -6.845  22.242  1.00  0.00     0.111 A 
ATOM      9  C   UNL     1      -5.274  -5.503  20.883  1.00  0.00     0.094 A 
ATOM     10  C   UNL     1      -7.703  -6.888  21.158  1.00  0.00     0.134 A 
ATOM     11  C   UNL     1      -6.180  -5.546  19.818  1.00  0.00     0.123 A 
ATOM     12  C   UNL     1      -7.386  -6.238  19.956  1.00  0.00     0.093 A 
BRANCH   3  13
ATOM     13  C   UNL     1      -3.815  -6.645  25.249  1.00  0.00     0.025 A 
ATOM     14  C   UNL     1      -2.856  -7.663  25.250  1.00  0.00     0.016 A 
ATOM     15  C   UNL     1      -1.859  -7.685  26.228  1.00  0.00     0.051 A 
ATOM     16  C   UNL     1      -1.829  -6.716  27.238  1.00  0.00     0.157 A 
ATOM     17  C   UNL     1      -3.803  -5.679  26.266  1.00  0.00     0.062 A 
ATOM     18  C   UNL     1      -2.828  -5.715  27.272  1.00  0.00     0.158 A 
BRANCH  16  19
ATOM     19  O   UNL     1      -0.799  -6.777  28.180  1.00  0.00    -0.504 OA
ATOM     20  H   UNL     1       0.004  -6.164  28.167  1.00  0.00     0.293 HD
ENDBRANCH  16  19
BRANCH  18  21
ATOM     21  O   UNL     1      -2.905  -4.768  28.294  1.00  0.00    -0.504 OA
ATOM     22  H   UNL     1      -3.776  -4.385  28.634  1.00  0.00     0.293 HD
ENDBRANCH  18  21
ENDBRANCH   3  13
BRANCH  10  23
ATOM     23  O   UNL     1      -8.921  -7.560  21.269  1.00  0.00    -0.507 OA
ATOM     24  H   UNL     1      -9.713  -7.151  21.756  1.00  0.00     0.293 HD
ENDBRANCH  10  23
BRANCH  11  25
ATOM     25  O   UNL     1      -5.892  -4.903  18.617  1.00  0.00    -0.508 OA
ATOM     26  H   UNL     1      -5.505  -5.405  17.828  1.00  0.00     0.293 HD
ENDBRANCH  11  25
ENDBRANCH   1   2
BRANCH   1  27
ATOM     27  C   UNL     1      -7.049  -9.042  26.045  1.00  0.00     0.339 C 
ATOM     28  C   UNL     1      -8.294  -8.979  26.959  1.00  0.00     0.214 C 
ATOM     29  O   UNL     1      -6.067  -9.991  26.456  1.00  0.00    -0.332 OA
ATOM     30  C   UNL     1      -7.908  -8.845  28.429  1.00  0.00     0.180 C 
ATOM     31  C   UNL     1      -5.720  -9.958  27.840  1.00  0.00     0.179 C 
ATOM     32  C   UNL     1      -6.948  -9.979  28.779  1.00  0.00     0.177 C 
BRANCH  28  33
ATOM     33  O   UNL     1      -9.102  -7.889  26.594  1.00  0.00    -0.384 OA
ATOM     34  H   UNL     1      -9.984  -8.014  27.028  1.00  0.00     0.211 HD
ENDBRANCH  28  33
BRANCH  30  35
ATOM     35  O   UNL     1      -9.069  -8.940  29.214  1.00  0.00    -0.387 OA
ATOM     36  H   UNL     1      -8.778  -9.160  30.137  1.00  0.00     0.211 HD
ENDBRANCH  30  35
BRANCH  31  37
ATOM     37  C   UNL     1      -4.694  -8.855  28.164  1.00  0.00     0.191 C 
BRANCH  37  38
ATOM     38  O   UNL     1      -3.650  -9.401  28.919  1.00  0.00    -0.394 OA
ATOM     39  H   UNL     1      -3.417  -8.719  29.603  1.00  0.00     0.210 HD
ENDBRANCH  37  38
ENDBRANCH  31  37
BRANCH  32  40
ATOM     40  O   UNL     1      -6.557  -9.874  30.125  1.00  0.00    -0.387 OA
ATOM     41  H   UNL     1      -7.130  -9.177  30.538  1.00  0.00     0.211 HD
ENDBRANCH  32  40
ENDBRANCH   1  27
TORSDOF 12
ENDMDL
MODEL 6
REMARK VINA RESULT:    -5.656     12.083     17.478
REMARK INTER + INTRA:          -8.365
REMARK INTER:                  -8.029
REMARK INTRA:                  -0.336
REMARK UNBOUND:                -0.064
REMARK SMILES O=c1c(O[C@H]2O[C@@H](CO)[C@@H](O)[C@H](O)[C@H]2O)c(-c2ccc(O)c(O)c2)oc2cc(O)cc(O)c12
REMARK SMILES IDX 4 1 3 2 16 3 25 4 2 5 26 6 1 7 33 8 27 9 31 10 28 11 30 12
REMARK SMILES IDX 17 13 18 14 19 15 20 16 24 17 22 18 21 19 23 21 32 23 29 25
REMARK SMILES IDX 5 27 14 28 6 29 12 30 7 31 10 32 15 33 13 35 8 37 9 38 11 40
REMARK H PARENT 21 20 23 22 32 24 29 26 15 34 13 36 9 39 11 41
REMARK Flexibility Score: inf
ROOT
ATOM      1  O   UNL     1      -6.859  -8.335  24.248  1.00  0.00    -0.454 OA
ENDROOT
BRANCH   1   2
ATOM      2  C   UNL     1      -6.510  -7.535  23.144  1.00  0.00     0.214 A 
ATOM      3  C   UNL     1      -5.422  -6.640  23.197  1.00  0.00     0.180 A 
ATOM      4  O   UNL     1      -5.216  -5.781  22.205  1.00  0.00    -0.452 OA
ATOM      5  C   UNL     1      -7.262  -7.597  21.966  1.00  0.00     0.239 A 
ATOM      6  C   UNL     1      -5.965  -5.746  21.108  1.00  0.00     0.146 A 
ATOM      7  O   UNL     1      -8.154  -8.477  21.849  1.00  0.00    -0.285 OA
ATOM      8  C   UNL     1      -7.018  -6.673  20.930  1.00  0.00     0.111 A 
ATOM      9  C   UNL     1      -5.690  -4.791  20.124  1.00  0.00     0.094 A 
ATOM     10  C   UNL     1      -7.789  -6.620  19.743  1.00  0.00     0.134 A 
ATOM     11  C   UNL     1      -6.459  -4.742  18.956  1.00  0.00     0.123 A 
ATOM     12  C   UNL     1      -7.500  -5.654  18.768  1.00  0.00     0.093 A 
BRANCH   3  13
ATOM     13  C   UNL     1      -4.455  -6.661  24.304  1.00  0.00     0.025 A 
ATOM     14  C   UNL     1      -3.500  -7.680  24.386  1.00  0.00     0.016 A 
ATOM     15  C   UNL     1      -2.630  -7.738  25.477  1.00  0.00     0.051 A 
ATOM     16  C   UNL     1      -2.728  -6.806  26.518  1.00  0.00     0.157 A 
ATOM     17  C   UNL     1      -4.572  -5.733  25.350  1.00  0.00     0.062 A 
ATOM     18  C   UNL     1      -3.727  -5.806  26.465  1.00  0.00     0.158 A 
BRANCH  16  19
ATOM     19  O   UNL     1      -1.821  -6.902  27.576  1.00  0.00    -0.504 OA
ATOM     20  H   UNL     1      -1.842  -7.644  28.262  1.00  0.00     0.293 HD
ENDBRANCH  16  19
BRANCH  18  21
ATOM     21  O   UNL     1      -3.932  -4.897  27.503  1.00  0.00    -0.504 OA
ATOM     22  H   UNL     1      -4.724  -4.272  27.548  1.00  0.00     0.293 HD
ENDBRANCH  18  21
ENDBRANCH   3  13
BRANCH  10  23
ATOM     23  O   UNL     1      -8.844  -7.509  19.532  1.00  0.00    -0.507 OA
ATOM     24  H   UNL     1      -9.633  -7.268  18.941  1.00  0.00     0.293 HD
ENDBRANCH  10  23
BRANCH  11  25
ATOM     25  O   UNL     1      -6.196  -3.789  17.976  1.00  0.00    -0.508 OA
ATOM     26  H   UNL     1      -6.772  -3.709  17.148  1.00  0.00     0.293 HD
ENDBRANCH  11  25
ENDBRANCH   1   2
BRANCH   1  27
ATOM     27  C   UNL     1      -8.219  -8.443  24.694  1.00  0.00     0.339 C 
ATOM     28  C   UNL     1      -8.707  -7.162  25.406  1.00  0.00     0.214 C 
ATOM     29  O   UNL     1      -8.424  -9.643  25.439  1.00  0.00    -0.332 OA
ATOM     30  C   UNL     1      -8.185  -7.077  26.837  1.00  0.00     0.180 C 
ATOM     31  C   UNL     1      -8.018  -9.595  26.807  1.00  0.00     0.179 C 
ATOM     32  C   UNL     1      -8.565  -8.364  27.565  1.00  0.00     0.177 C 
BRANCH  28  33
ATOM     33  O   UNL     1      -8.284  -6.027  24.693  1.00  0.00    -0.384 OA
ATOM     34  H   UNL     1      -9.093  -5.588  24.324  1.00  0.00     0.211 HD
ENDBRANCH  28  33
BRANCH  30  35
ATOM     35  O   UNL     1      -8.778  -5.973  27.473  1.00  0.00    -0.387 OA
ATOM     36  H   UNL     1      -8.479  -5.989  28.419  1.00  0.00     0.211 HD
ENDBRANCH  30  35
BRANCH  31  37
ATOM     37  C   UNL     1      -6.504  -9.826  26.980  1.00  0.00     0.191 C 
BRANCH  37  38
ATOM     38  O   UNL     1      -5.864  -8.593  27.141  1.00  0.00    -0.394 OA
ATOM     39  H   UNL     1      -6.581  -7.931  27.330  1.00  0.00     0.210 HD
ENDBRANCH  37  38
ENDBRANCH  31  37
BRANCH  32  40
ATOM     40  O   UNL     1      -8.080  -8.326  28.883  1.00  0.00    -0.387 OA
ATOM     41  H   UNL     1      -7.097  -8.457  28.834  1.00  0.00     0.211 HD
ENDBRANCH  32  40
ENDBRANCH   1  27
TORSDOF 12
ENDMDL
MODEL 7
REMARK VINA RESULT:    -5.560     11.455     15.116
REMARK INTER + INTRA:          -8.224
REMARK INTER:                  -7.684
REMARK INTRA:                  -0.540
REMARK UNBOUND:                -0.064
REMARK SMILES O=c1c(O[C@H]2O[C@@H](CO)[C@@H](O)[C@H](O)[C@H]2O)c(-c2ccc(O)c(O)c2)oc2cc(O)cc(O)c12
REMARK SMILES IDX 4 1 3 2 16 3 25 4 2 5 26 6 1 7 33 8 27 9 31 10 28 11 30 12
REMARK SMILES IDX 17 13 18 14 19 15 20 16 24 17 22 18 21 19 23 21 32 23 29 25
REMARK SMILES IDX 5 27 14 28 6 29 12 30 7 31 10 32 15 33 13 35 8 37 9 38 11 40
REMARK H PARENT 21 20 23 22 32 24 29 26 15 34 13 36 9 39 11 41
REMARK Flexibility Score: inf
ROOT
ATOM      1  O   UNL     1      -7.147  -5.439  22.355  1.00  0.00    -0.454 OA
ENDROOT
BRANCH   1   2
ATOM      2  C   UNL     1      -6.659  -6.198  23.435  1.00  0.00     0.214 A 
ATOM      3  C   UNL     1      -5.359  -6.745  23.424  1.00  0.00     0.180 A 
ATOM      4  O   UNL     1      -4.983  -7.591  24.376  1.00  0.00    -0.452 OA
ATOM      5  C   UNL     1      -7.475  -6.448  24.544  1.00  0.00     0.239 A 
ATOM      6  C   UNL     1      -5.762  -7.927  25.398  1.00  0.00     0.146 A 
ATOM      7  O   UNL     1      -8.587  -5.867  24.635  1.00  0.00    -0.285 OA
ATOM      8  C   UNL     1      -7.047  -7.351  25.539  1.00  0.00     0.111 A 
ATOM      9  C   UNL     1      -5.293  -8.845  26.342  1.00  0.00     0.094 A 
ATOM     10  C   UNL     1      -7.848  -7.717  26.647  1.00  0.00     0.134 A 
ATOM     11  C   UNL     1      -6.092  -9.205  27.433  1.00  0.00     0.123 A 
ATOM     12  C   UNL     1      -7.361  -8.641  27.584  1.00  0.00     0.093 A 
BRANCH   3  13
ATOM     13  C   UNL     1      -4.367  -6.361  22.410  1.00  0.00     0.025 A 
ATOM     14  C   UNL     1      -4.224  -5.020  22.036  1.00  0.00     0.016 A 
ATOM     15  C   UNL     1      -3.331  -4.668  21.021  1.00  0.00     0.051 A 
ATOM     16  C   UNL     1      -2.601  -5.650  20.340  1.00  0.00     0.157 A 
ATOM     17  C   UNL     1      -3.652  -7.353  21.722  1.00  0.00     0.062 A 
ATOM     18  C   UNL     1      -2.782  -7.011  20.679  1.00  0.00     0.158 A 
BRANCH  16  19
ATOM     19  O   UNL     1      -1.711  -5.238  19.346  1.00  0.00    -0.504 OA
ATOM     20  H   UNL     1      -1.741  -5.580  18.395  1.00  0.00     0.293 HD
ENDBRANCH  16  19
BRANCH  18  21
ATOM     21  O   UNL     1      -2.149  -8.045  19.988  1.00  0.00    -0.504 OA
ATOM     22  H   UNL     1      -2.151  -9.006  20.299  1.00  0.00     0.293 HD
ENDBRANCH  18  21
ENDBRANCH   3  13
BRANCH  10  23
ATOM     23  O   UNL     1      -9.125  -7.180  26.819  1.00  0.00    -0.507 OA
ATOM     24  H   UNL     1      -9.766  -7.072  26.039  1.00  0.00     0.293 HD
ENDBRANCH  10  23
BRANCH  11  25
ATOM     25  O   UNL     1      -5.634 -10.125  28.372  1.00  0.00    -0.508 OA
ATOM     26  H   UNL     1      -5.329  -9.834  29.292  1.00  0.00     0.293 HD
ENDBRANCH  11  25
ENDBRANCH   1   2
BRANCH   1  27
ATOM     27  C   UNL     1      -8.309  -5.846  21.618  1.00  0.00     0.339 C 
ATOM     28  C   UNL     1      -7.956  -6.769  20.430  1.00  0.00     0.214 C 
ATOM     29  O   UNL     1      -9.120  -4.725  21.271  1.00  0.00    -0.332 OA
ATOM     30  C   UNL     1      -7.411  -5.978  19.244  1.00  0.00     0.180 C 
ATOM     31  C   UNL     1      -8.694  -3.990  20.123  1.00  0.00     0.179 C 
ATOM     32  C   UNL     1      -8.416  -4.884  18.893  1.00  0.00     0.177 C 
BRANCH  28  33
ATOM     33  O   UNL     1      -7.000  -7.719  20.827  1.00  0.00    -0.384 OA
ATOM     34  H   UNL     1      -6.235  -7.226  21.219  1.00  0.00     0.211 HD
ENDBRANCH  28  33
BRANCH  30  35
ATOM     35  O   UNL     1      -7.248  -6.848  18.153  1.00  0.00    -0.387 OA
ATOM     36  H   UNL     1      -7.264  -6.290  17.332  1.00  0.00     0.211 HD
ENDBRANCH  30  35
BRANCH  31  37
ATOM     37  C   UNL     1      -7.568  -2.990  20.449  1.00  0.00     0.191 C 
BRANCH  37  38
ATOM     38  O   UNL     1      -7.892  -1.738  19.914  1.00  0.00    -0.394 OA
ATOM     39  H   UNL     1      -7.634  -1.772  18.955  1.00  0.00     0.210 HD
ENDBRANCH  37  38
ENDBRANCH  31  37
BRANCH  32  40
ATOM     40  O   UNL     1      -7.934  -4.122  17.814  1.00  0.00    -0.387 OA
ATOM     41  H   UNL     1      -6.953  -4.038  17.936  1.00  0.00     0.211 HD
ENDBRANCH  32  40
ENDBRANCH   1  27
TORSDOF 12
ENDMDL
MODEL 8
REMARK VINA RESULT:    -5.308     11.583     16.077
REMARK INTER + INTRA:          -7.854
REMARK INTER:                  -6.266
REMARK INTRA:                  -1.588
REMARK UNBOUND:                -0.064
REMARK SMILES O=c1c(O[C@H]2O[C@@H](CO)[C@@H](O)[C@H](O)[C@H]2O)c(-c2ccc(O)c(O)c2)oc2cc(O)cc(O)c12
REMARK SMILES IDX 4 1 3 2 16 3 25 4 2 5 26 6 1 7 33 8 27 9 31 10 28 11 30 12
REMARK SMILES IDX 17 13 18 14 19 15 20 16 24 17 22 18 21 19 23 21 32 23 29 25
REMARK SMILES IDX 5 27 14 28 6 29 12 30 7 31 10 32 15 33 13 35 8 37 9 38 11 40
REMARK H PARENT 21 20 23 22 32 24 29 26 15 34 13 36 9 39 11 41
REMARK Flexibility Score: inf
ROOT
ATOM      1  O   UNL     1      -7.684  -6.109  22.055  1.00  0.00    -0.454 OA
ENDROOT
BRANCH   1   2
ATOM      2  C   UNL     1      -7.529  -6.912  23.200  1.00  0.00     0.214 A 
ATOM      3  C   UNL     1      -6.912  -8.178  23.135  1.00  0.00     0.180 A 
ATOM      4  O   UNL     1      -6.925  -8.982  24.193  1.00  0.00    -0.452 OA
ATOM      5  C   UNL     1      -8.013  -6.472  24.437  1.00  0.00     0.239 A 
ATOM      6  C   UNL     1      -7.458  -8.637  25.360  1.00  0.00     0.146 A 
ATOM      7  O   UNL     1      -8.449  -5.296  24.546  1.00  0.00    -0.285 OA
ATOM      8  C   UNL     1      -8.013  -7.348  25.541  1.00  0.00     0.111 A 
ATOM      9  C   UNL     1      -7.449  -9.556  26.413  1.00  0.00     0.094 A 
ATOM     10  C   UNL     1      -8.558  -7.004  26.802  1.00  0.00     0.134 A 
ATOM     11  C   UNL     1      -7.994  -9.211  27.655  1.00  0.00     0.123 A 
ATOM     12  C   UNL     1      -8.542  -7.941  27.846  1.00  0.00     0.093 A 
BRANCH   3  13
ATOM     13  C   UNL     1      -6.190  -8.627  21.936  1.00  0.00     0.025 A 
ATOM     14  C   UNL     1      -6.785  -9.534  21.053  1.00  0.00     0.016 A 
ATOM     15  C   UNL     1      -6.070 -10.013  19.954  1.00  0.00     0.051 A 
ATOM     16  C   UNL     1      -4.740  -9.627  19.745  1.00  0.00     0.157 A 
ATOM     17  C   UNL     1      -4.854  -8.247  21.744  1.00  0.00     0.062 A 
ATOM     18  C   UNL     1      -4.117  -8.751  20.664  1.00  0.00     0.158 A 
BRANCH  16  19
ATOM     19  O   UNL     1      -4.078 -10.125  18.620  1.00  0.00    -0.504 OA
ATOM     20  H   UNL     1      -4.383  -9.951  17.672  1.00  0.00     0.293 HD
ENDBRANCH  16  19
BRANCH  18  21
ATOM     21  O   UNL     1      -2.773  -8.390  20.561  1.00  0.00    -0.504 OA
ATOM     22  H   UNL     1      -2.243  -7.992  21.323  1.00  0.00     0.293 HD
ENDBRANCH  18  21
ENDBRANCH   3  13
BRANCH  10  23
ATOM     23  O   UNL     1      -9.125  -5.747  27.020  1.00  0.00    -0.507 OA
ATOM     24  H   UNL     1      -9.357  -5.127  26.251  1.00  0.00     0.293 HD
ENDBRANCH  10  23
BRANCH  11  25
ATOM     25  O   UNL     1      -7.997 -10.125  28.705  1.00  0.00    -0.508 OA
ATOM     26  H   UNL     1      -7.202 -10.222  29.323  1.00  0.00     0.293 HD
ENDBRANCH  11  25
ENDBRANCH   1   2
BRANCH   1  27
ATOM     27  C   UNL     1      -6.784  -5.028  21.772  1.00  0.00     0.339 C 
ATOM     28  C   UNL     1      -7.525  -3.690  21.554  1.00  0.00     0.214 C 
ATOM     29  O   UNL     1      -5.874  -5.372  20.727  1.00  0.00    -0.332 OA
ATOM     30  C   UNL     1      -8.149  -3.610  20.164  1.00  0.00     0.180 C 
ATOM     31  C   UNL     1      -6.385  -5.246  19.400  1.00  0.00     0.179 C 
ATOM     32  C   UNL     1      -7.058  -3.881  19.131  1.00  0.00     0.177 C 
BRANCH  28  33
ATOM     33  O   UNL     1      -8.533  -3.537  22.520  1.00  0.00    -0.384 OA
ATOM     34  H   UNL     1      -9.144  -4.313  22.438  1.00  0.00     0.211 HD
ENDBRANCH  28  33
BRANCH  30  35
ATOM     35  O   UNL     1      -8.678  -2.322  19.976  1.00  0.00    -0.387 OA
ATOM     36  H   UNL     1      -8.427  -1.786  20.773  1.00  0.00     0.211 HD
ENDBRANCH  30  35
BRANCH  31  37
ATOM     37  C   UNL     1      -7.229  -6.464  18.976  1.00  0.00     0.191 C 
BRANCH  37  38
ATOM     38  O   UNL     1      -6.504  -7.231  18.058  1.00  0.00    -0.394 OA
ATOM     39  H   UNL     1      -6.115  -7.986  18.574  1.00  0.00     0.210 HD
ENDBRANCH  37  38
ENDBRANCH  31  37
BRANCH  32  40
ATOM     40  O   UNL     1      -7.605  -3.834  17.837  1.00  0.00    -0.387 OA
ATOM     41  H   UNL     1      -7.079  -4.464  17.278  1.00  0.00     0.211 HD
ENDBRANCH  32  40
ENDBRANCH   1  27
TORSDOF 12
ENDMDL
