MODEL 1
REMARK VINA RESULT:    -3.796      0.000      0.000
REMARK INTER + INTRA:          -8.804
REMARK INTER:                  -6.903
REMARK INTRA:                  -1.901
REMARK UNBOUND:                -1.901
REMARK SMILES CCCCCCCCCCCCCCCC(=O)[O-]
REMARK SMILES IDX 9 1 10 2 11 3 12 4 13 5 14 6 15 7 16 8 17 9 18 10 8 11 7 12
REMARK SMILES IDX 6 13 5 14 4 15 3 16 2 17 1 18
REMARK H PARENT
REMARK Flexibility Score: inf
ROOT
ATOM      1  C   UNL     1       8.998  16.060  12.581  1.00  0.00     0.000 C 
ENDROOT
BRANCH   1   2
ATOM      2  C   UNL     1      10.371  16.587  12.138  1.00  0.00     0.000 C 
BRANCH   2   3
ATOM      3  C   UNL     1      10.631  18.030  12.598  1.00  0.00     0.000 C 
BRANCH   3   4
ATOM      4  C   UNL     1      10.723  18.159  14.129  1.00  0.00     0.000 C 
BRANCH   4   5
ATOM      5  C   UNL     1      11.673  17.108  14.747  1.00  0.00     0.000 C 
BRANCH   5   6
ATOM      6  C   UNL     1      11.100  16.425  16.002  1.00  0.00     0.006 C 
BRANCH   6   7
ATOM      7  C   UNL     1      12.166  15.824  16.928  1.00  0.00     0.053 C 
BRANCH   7   8
ATOM      8  C   UNL     1      13.435  16.622  16.906  1.00  0.00     0.041 C 
ATOM      9  O   UNL     1      14.455  16.181  16.316  1.00  0.00    -0.550 OA
ATOM     10  O   UNL     1      13.484  17.864  17.526  1.00  0.00    -0.550 OA
ENDBRANCH   7   8
ENDBRANCH   6   7
ENDBRANCH   5   6
ENDBRANCH   4   5
ENDBRANCH   3   4
ENDBRANCH   2   3
ENDBRANCH   1   2
BRANCH   1  11
ATOM     11  C   UNL     1       7.993  16.111  11.420  1.00  0.00     0.000 C 
BRANCH  11  12
ATOM     12  C   UNL     1       8.676  16.166  10.043  1.00  0.00    -0.000 C 
BRANCH  12  13
ATOM     13  C   UNL     1       8.310  17.434   9.253  1.00  0.00    -0.000 C 
BRANCH  13  14
ATOM     14  C   UNL     1       9.525  18.336   8.971  1.00  0.00    -0.000 C 
BRANCH  14  15
ATOM     15  C   UNL     1       9.461  19.735   9.609  1.00  0.00    -0.000 C 
BRANCH  15  16
ATOM     16  C   UNL     1       8.054  20.098  10.112  1.00  0.00    -0.000 C 
BRANCH  16  17
ATOM     17  C   UNL     1       8.029  20.413  11.616  1.00  0.00    -0.003 C 
ATOM     18  C   UNL     1       7.087  19.494  12.395  1.00  0.00     0.004 C 
ENDBRANCH  16  17
ENDBRANCH  15  16
ENDBRANCH  14  15
ENDBRANCH  13  14
ENDBRANCH  12  13
ENDBRANCH  11  12
ENDBRANCH   1  11
TORSDOF 14
ENDMDL
MODEL 2
REMARK VINA RESULT:    -3.789      2.924      5.295
REMARK INTER + INTRA:          -8.790
REMARK INTER:                  -7.646
REMARK INTRA:                  -1.144
REMARK UNBOUND:                -1.901
REMARK SMILES CCCCCCCCCCCCCCCC(=O)[O-]
REMARK SMILES IDX 9 1 10 2 11 3 12 4 13 5 14 6 15 7 16 8 17 9 18 10 8 11 7 12
REMARK SMILES IDX 6 13 5 14 4 15 3 16 2 17 1 18
REMARK H PARENT
REMARK Flexibility Score: inf
ROOT
ATOM      1  C   UNL     1      12.161  15.493  17.080  1.00  0.00     0.000 C 
ENDROOT
BRANCH   1   2
ATOM      2  C   UNL     1      13.446  16.132  17.630  1.00  0.00     0.000 C 
BRANCH   2   3
ATOM      3  C   UNL     1      14.474  16.439  16.529  1.00  0.00     0.000 C 
BRANCH   3   4
ATOM      4  C   UNL     1      14.777  17.942  16.401  1.00  0.00     0.000 C 
BRANCH   4   5
ATOM      5  C   UNL     1      15.246  18.324  14.979  1.00  0.00     0.000 C 
BRANCH   5   6
ATOM      6  C   UNL     1      16.592  17.689  14.586  1.00  0.00     0.006 C 
BRANCH   6   7
ATOM      7  C   UNL     1      17.782  18.656  14.652  1.00  0.00     0.053 C 
BRANCH   7   8
ATOM      8  C   UNL     1      18.769  18.252  15.705  1.00  0.00     0.041 C 
ATOM      9  O   UNL     1      18.383  18.001  16.877  1.00  0.00    -0.550 OA
ATOM     10  O   UNL     1      20.116  18.136  15.386  1.00  0.00    -0.550 OA
ENDBRANCH   7   8
ENDBRANCH   6   7
ENDBRANCH   5   6
ENDBRANCH   4   5
ENDBRANCH   3   4
ENDBRANCH   2   3
ENDBRANCH   1   2
BRANCH   1  11
ATOM     11  C   UNL     1      11.129  16.570  16.714  1.00  0.00     0.000 C 
BRANCH  11  12
ATOM     12  C   UNL     1      10.895  16.679  15.198  1.00  0.00    -0.000 C 
BRANCH  12  13
ATOM     13  C   UNL     1      11.233  18.075  14.648  1.00  0.00    -0.000 C 
BRANCH  13  14
ATOM     14  C   UNL     1      10.779  18.271  13.190  1.00  0.00    -0.000 C 
BRANCH  14  15
ATOM     15  C   UNL     1      10.292  16.994  12.481  1.00  0.00    -0.000 C 
BRANCH  15  16
ATOM     16  C   UNL     1       9.982  17.219  10.992  1.00  0.00    -0.000 C 
BRANCH  16  17
ATOM     17  C   UNL     1       8.610  16.658  10.585  1.00  0.00    -0.003 C 
ATOM     18  C   UNL     1       7.961  15.827  11.692  1.00  0.00     0.004 C 
ENDBRANCH  16  17
ENDBRANCH  15  16
ENDBRANCH  14  15
ENDBRANCH  13  14
ENDBRANCH  12  13
ENDBRANCH  11  12
ENDBRANCH   1  11
TORSDOF 14
ENDMDL
MODEL 3
REMARK VINA RESULT:    -3.781      3.353      7.608
REMARK INTER + INTRA:          -8.777
REMARK INTER:                  -7.615
REMARK INTRA:                  -1.162
REMARK UNBOUND:                -1.901
REMARK SMILES CCCCCCCCCCCCCCCC(=O)[O-]
REMARK SMILES IDX 9 1 10 2 11 3 12 4 13 5 14 6 15 7 16 8 17 9 18 10 8 11 7 12
REMARK SMILES IDX 6 13 5 14 4 15 3 16 2 17 1 18
REMARK H PARENT
REMARK Flexibility Score: inf
ROOT
ATOM      1  C   UNL     1      11.161  18.187  14.258  1.00  0.00     0.000 C 
ENDROOT
BRANCH   1   2
ATOM      2  C   UNL     1      10.437  18.279  12.906  1.00  0.00     0.000 C 
BRANCH   2   3
ATOM      3  C   UNL     1      10.215  16.904  12.257  1.00  0.00     0.000 C 
BRANCH   3   4
ATOM      4  C   UNL     1       8.741  16.647  11.898  1.00  0.00     0.000 C 
BRANCH   4   5
ATOM      5  C   UNL     1       8.585  15.970  10.518  1.00  0.00     0.000 C 
BRANCH   5   6
ATOM      6  C   UNL     1       8.348  16.967   9.369  1.00  0.00     0.006 C 
BRANCH   6   7
ATOM      7  C   UNL     1       8.082  18.406   9.835  1.00  0.00     0.053 C 
BRANCH   7   8
ATOM      8  C   UNL     1       9.189  19.333   9.434  1.00  0.00     0.041 C 
ATOM      9  O   UNL     1       8.979  20.570   9.334  1.00  0.00    -0.550 OA
ATOM     10  O   UNL     1      10.460  18.830   9.186  1.00  0.00    -0.550 OA
ENDBRANCH   7   8
ENDBRANCH   6   7
ENDBRANCH   5   6
ENDBRANCH   4   5
ENDBRANCH   3   4
ENDBRANCH   2   3
ENDBRANCH   1   2
BRANCH   1  11
ATOM     11  C   UNL     1      10.996  16.788  14.872  1.00  0.00     0.000 C 
BRANCH  11  12
ATOM     12  C   UNL     1      11.171  16.784  16.400  1.00  0.00    -0.000 C 
BRANCH  12  13
ATOM     13  C   UNL     1      11.776  15.470  16.921  1.00  0.00    -0.000 C 
BRANCH  13  14
ATOM     14  C   UNL     1      13.105  15.676  17.669  1.00  0.00    -0.000 C 
BRANCH  14  15
ATOM     15  C   UNL     1      13.948  16.869  17.182  1.00  0.00    -0.000 C 
BRANCH  15  16
ATOM     16  C   UNL     1      14.889  16.503  16.022  1.00  0.00    -0.000 C 
BRANCH  16  17
ATOM     17  C   UNL     1      15.394  17.739  15.261  1.00  0.00    -0.003 C 
ATOM     18  C   UNL     1      16.917  17.773  15.136  1.00  0.00     0.004 C 
ENDBRANCH  16  17
ENDBRANCH  15  16
ENDBRANCH  14  15
ENDBRANCH  13  14
ENDBRANCH  12  13
ENDBRANCH  11  12
ENDBRANCH   1  11
TORSDOF 14
ENDMDL
MODEL 4
REMARK VINA RESULT:    -3.734      1.700      3.576
REMARK INTER + INTRA:          -8.690
REMARK INTER:                  -7.017
REMARK INTRA:                  -1.674
REMARK UNBOUND:                -1.901
REMARK SMILES CCCCCCCCCCCCCCCC(=O)[O-]
REMARK SMILES IDX 9 1 10 2 11 3 12 4 13 5 14 6 15 7 16 8 17 9 18 10 8 11 7 12
REMARK SMILES IDX 6 13 5 14 4 15 3 16 2 17 1 18
REMARK H PARENT
REMARK Flexibility Score: inf
ROOT
ATOM      1  C   UNL     1      11.371  18.690  14.704  1.00  0.00     0.000 C 
ENDROOT
BRANCH   1   2
ATOM      2  C   UNL     1      11.288  17.176  14.456  1.00  0.00     0.000 C 
BRANCH   2   3
ATOM      3  C   UNL     1      10.993  16.379  15.736  1.00  0.00     0.000 C 
BRANCH   3   4
ATOM      4  C   UNL     1      11.759  16.913  16.959  1.00  0.00     0.000 C 
BRANCH   4   5
ATOM      5  C   UNL     1      13.031  16.089  17.258  1.00  0.00     0.000 C 
BRANCH   5   6
ATOM      6  C   UNL     1      14.329  16.911  17.177  1.00  0.00     0.006 C 
BRANCH   6   7
ATOM      7  C   UNL     1      15.301  16.439  16.087  1.00  0.00     0.053 C 
BRANCH   7   8
ATOM      8  C   UNL     1      15.700  17.559  15.175  1.00  0.00     0.041 C 
ATOM      9  O   UNL     1      16.735  17.464  14.464  1.00  0.00    -0.550 OA
ATOM     10  O   UNL     1      14.917  18.704  15.098  1.00  0.00    -0.550 OA
ENDBRANCH   7   8
ENDBRANCH   6   7
ENDBRANCH   5   6
ENDBRANCH   4   5
ENDBRANCH   3   4
ENDBRANCH   2   3
ENDBRANCH   1   2
BRANCH   1  11
ATOM     11  C   UNL     1      11.008  19.473  13.433  1.00  0.00     0.000 C 
BRANCH  11  12
ATOM     12  C   UNL     1       9.558  19.987  13.444  1.00  0.00    -0.000 C 
BRANCH  12  13
ATOM     13  C   UNL     1       8.814  19.680  12.134  1.00  0.00    -0.000 C 
BRANCH  13  14
ATOM     14  C   UNL     1       9.741  19.142  11.029  1.00  0.00    -0.000 C 
BRANCH  14  15
ATOM     15  C   UNL     1       9.286  17.820  10.383  1.00  0.00    -0.000 C 
BRANCH  15  16
ATOM     16  C   UNL     1       9.763  16.581  11.157  1.00  0.00    -0.000 C 
BRANCH  16  17
ATOM     17  C   UNL     1       8.618  15.868  11.893  1.00  0.00    -0.003 C 
ATOM     18  C   UNL     1       7.240  16.269  11.367  1.00  0.00     0.004 C 
ENDBRANCH  16  17
ENDBRANCH  15  16
ENDBRANCH  14  15
ENDBRANCH  13  14
ENDBRANCH  12  13
ENDBRANCH  11  12
ENDBRANCH   1  11
TORSDOF 14
ENDMDL
MODEL 5
REMARK VINA RESULT:    -3.723      4.786      7.774
REMARK INTER + INTRA:          -8.671
REMARK INTER:                  -6.886
REMARK INTRA:                  -1.785
REMARK UNBOUND:                -1.901
REMARK SMILES CCCCCCCCCCCCCCCC(=O)[O-]
REMARK SMILES IDX 9 1 10 2 11 3 12 4 13 5 14 6 15 7 16 8 17 9 18 10 8 11 7 12
REMARK SMILES IDX 6 13 5 14 4 15 3 16 2 17 1 18
REMARK H PARENT
REMARK Flexibility Score: inf
ROOT
ATOM      1  C   UNL     1      16.206  16.860  15.755  1.00  0.00     0.000 C 
ENDROOT
BRANCH   1   2
ATOM      2  C   UNL     1      16.621  17.626  14.490  1.00  0.00     0.000 C 
BRANCH   2   3
ATOM      3  C   UNL     1      16.882  19.117  14.758  1.00  0.00     0.000 C 
BRANCH   3   4
ATOM      4  C   UNL     1      17.803  19.758  13.705  1.00  0.00     0.000 C 
BRANCH   4   5
ATOM      5  C   UNL     1      19.246  19.942  14.225  1.00  0.00     0.000 C 
BRANCH   5   6
ATOM      6  C   UNL     1      19.390  19.694  15.738  1.00  0.00     0.006 C 
BRANCH   6   7
ATOM      7  C   UNL     1      20.207  18.443  16.090  1.00  0.00     0.053 C 
BRANCH   7   8
ATOM      8  C   UNL     1      19.784  17.855  17.402  1.00  0.00     0.041 C 
ATOM      9  O   UNL     1      19.063  18.516  18.194  1.00  0.00    -0.550 OA
ATOM     10  O   UNL     1      20.175  16.566  17.742  1.00  0.00    -0.550 OA
ENDBRANCH   7   8
ENDBRANCH   6   7
ENDBRANCH   5   6
ENDBRANCH   4   5
ENDBRANCH   3   4
ENDBRANCH   2   3
ENDBRANCH   1   2
BRANCH   1  11
ATOM     11  C   UNL     1      15.926  17.829  16.914  1.00  0.00     0.000 C 
BRANCH  11  12
ATOM     12  C   UNL     1      14.501  17.691  17.474  1.00  0.00    -0.000 C 
BRANCH  12  13
ATOM     13  C   UNL     1      13.583  18.847  17.040  1.00  0.00    -0.000 C 
BRANCH  13  14
ATOM     14  C   UNL     1      12.905  18.596  15.680  1.00  0.00    -0.000 C 
BRANCH  14  15
ATOM     15  C   UNL     1      12.554  17.127  15.387  1.00  0.00    -0.000 C 
BRANCH  15  16
ATOM     16  C   UNL     1      11.039  16.864  15.379  1.00  0.00    -0.000 C 
BRANCH  16  17
ATOM     17  C   UNL     1      10.617  15.810  16.414  1.00  0.00    -0.003 C 
ATOM     18  C   UNL     1      11.806  15.224  17.176  1.00  0.00     0.004 C 
ENDBRANCH  16  17
ENDBRANCH  15  16
ENDBRANCH  14  15
ENDBRANCH  13  14
ENDBRANCH  12  13
ENDBRANCH  11  12
ENDBRANCH   1  11
TORSDOF 14
ENDMDL
MODEL 6
REMARK VINA RESULT:    -3.718      4.202      8.194
REMARK INTER + INTRA:          -8.661
REMARK INTER:                  -6.879
REMARK INTRA:                  -1.782
REMARK UNBOUND:                -1.901
REMARK SMILES CCCCCCCCCCCCCCCC(=O)[O-]
REMARK SMILES IDX 9 1 10 2 11 3 12 4 13 5 14 6 15 7 16 8 17 9 18 10 8 11 7 12
REMARK SMILES IDX 6 13 5 14 4 15 3 16 2 17 1 18
REMARK H PARENT
REMARK Flexibility Score: inf
ROOT
ATOM      1  C   UNL     1      15.957  17.069  15.724  1.00  0.00     0.000 C 
ENDROOT
BRANCH   1   2
ATOM      2  C   UNL     1      14.776  16.151  16.077  1.00  0.00     0.000 C 
BRANCH   2   3
ATOM      3  C   UNL     1      14.035  16.598  17.346  1.00  0.00     0.000 C 
BRANCH   3   4
ATOM      4  C   UNL     1      12.906  15.633  17.747  1.00  0.00     0.000 C 
BRANCH   4   5
ATOM      5  C   UNL     1      11.902  15.398  16.597  1.00  0.00     0.000 C 
BRANCH   5   6
ATOM      6  C   UNL     1      11.058  16.639  16.255  1.00  0.00     0.006 C 
BRANCH   6   7
ATOM      7  C   UNL     1      11.342  17.224  14.864  1.00  0.00     0.053 C 
BRANCH   7   8
ATOM      8  C   UNL     1      11.759  18.661  14.941  1.00  0.00     0.041 C 
ATOM      9  O   UNL     1      12.036  19.186  16.051  1.00  0.00    -0.550 OA
ATOM     10  O   UNL     1      11.856  19.418  13.780  1.00  0.00    -0.550 OA
ENDBRANCH   7   8
ENDBRANCH   6   7
ENDBRANCH   5   6
ENDBRANCH   4   5
ENDBRANCH   3   4
ENDBRANCH   2   3
ENDBRANCH   1   2
BRANCH   1  11
ATOM     11  C   UNL     1      15.510  18.539  15.676  1.00  0.00     0.000 C 
BRANCH  11  12
ATOM     12  C   UNL     1      15.822  19.211  14.328  1.00  0.00    -0.000 C 
BRANCH  12  13
ATOM     13  C   UNL     1      17.136  18.706  13.707  1.00  0.00    -0.000 C 
BRANCH  13  14
ATOM     14  C   UNL     1      18.315  19.671  13.931  1.00  0.00    -0.000 C 
BRANCH  14  15
ATOM     15  C   UNL     1      18.997  19.559  15.306  1.00  0.00    -0.000 C 
BRANCH  15  16
ATOM     16  C   UNL     1      19.879  18.306  15.437  1.00  0.00    -0.000 C 
BRANCH  16  17
ATOM     17  C   UNL     1      19.810  17.681  16.839  1.00  0.00    -0.003 C 
ATOM     18  C   UNL     1      18.714  18.299  17.707  1.00  0.00     0.004 C 
ENDBRANCH  16  17
ENDBRANCH  15  16
ENDBRANCH  14  15
ENDBRANCH  13  14
ENDBRANCH  12  13
ENDBRANCH  11  12
ENDBRANCH   1  11
TORSDOF 14
ENDMDL
MODEL 7
REMARK VINA RESULT:    -3.712      0.980      2.158
REMARK INTER + INTRA:          -8.651
REMARK INTER:                  -6.712
REMARK INTRA:                  -1.939
REMARK UNBOUND:                -1.901
REMARK SMILES CCCCCCCCCCCCCCCC(=O)[O-]
REMARK SMILES IDX 9 1 10 2 11 3 12 4 13 5 14 6 15 7 16 8 17 9 18 10 8 11 7 12
REMARK SMILES IDX 6 13 5 14 4 15 3 16 2 17 1 18
REMARK H PARENT
REMARK Flexibility Score: inf
ROOT
ATOM      1  C   UNL     1       8.826  16.131  11.847  1.00  0.00     0.000 C 
ENDROOT
BRANCH   1   2
ATOM      2  C   UNL     1      10.274  16.541  12.157  1.00  0.00     0.000 C 
BRANCH   2   3
ATOM      3  C   UNL     1      10.363  17.663  13.202  1.00  0.00     0.000 C 
BRANCH   3   4
ATOM      4  C   UNL     1      11.362  17.350  14.329  1.00  0.00     0.000 C 
BRANCH   4   5
ATOM      5  C   UNL     1      10.778  16.373  15.374  1.00  0.00     0.000 C 
BRANCH   5   6
ATOM      6  C   UNL     1      11.687  16.167  16.599  1.00  0.00     0.006 C 
BRANCH   6   7
ATOM      7  C   UNL     1      12.621  17.350  16.889  1.00  0.00     0.053 C 
BRANCH   7   8
ATOM      8  C   UNL     1      14.050  16.914  17.007  1.00  0.00     0.041 C 
ATOM      9  O   UNL     1      14.706  17.159  18.053  1.00  0.00    -0.550 OA
ATOM     10  O   UNL     1      14.652  16.222  15.964  1.00  0.00    -0.550 OA
ENDBRANCH   7   8
ENDBRANCH   6   7
ENDBRANCH   5   6
ENDBRANCH   4   5
ENDBRANCH   3   4
ENDBRANCH   2   3
ENDBRANCH   1   2
BRANCH   1  11
ATOM     11  C   UNL     1       8.510  16.331  10.356  1.00  0.00     0.000 C 
BRANCH  11  12
ATOM     12  C   UNL     1       7.349  17.312  10.121  1.00  0.00    -0.000 C 
BRANCH  12  13
ATOM     13  C   UNL     1       6.923  18.041  11.406  1.00  0.00    -0.000 C 
BRANCH  13  14
ATOM     14  C   UNL     1       7.460  19.482  11.485  1.00  0.00    -0.000 C 
BRANCH  14  15
ATOM     15  C   UNL     1       8.303  19.930  10.277  1.00  0.00    -0.000 C 
BRANCH  15  16
ATOM     16  C   UNL     1       9.749  20.287  10.657  1.00  0.00    -0.000 C 
BRANCH  16  17
ATOM     17  C   UNL     1      10.783  19.428   9.913  1.00  0.00    -0.003 C 
ATOM     18  C   UNL     1      10.312  19.014   8.519  1.00  0.00     0.004 C 
ENDBRANCH  16  17
ENDBRANCH  15  16
ENDBRANCH  14  15
ENDBRANCH  13  14
ENDBRANCH  12  13
ENDBRANCH  11  12
ENDBRANCH   1  11
TORSDOF 14
ENDMDL
MODEL 8
REMARK VINA RESULT:    -3.655      3.402      6.977
REMARK INTER + INTRA:          -8.548
REMARK INTER:                  -6.727
REMARK INTRA:                  -1.820
REMARK UNBOUND:                -1.901
REMARK SMILES CCCCCCCCCCCCCCCC(=O)[O-]
REMARK SMILES IDX 9 1 10 2 11 3 12 4 13 5 14 6 15 7 16 8 17 9 18 10 8 11 7 12
REMARK SMILES IDX 6 13 5 14 4 15 3 16 2 17 1 18
REMARK H PARENT
REMARK Flexibility Score: inf
ROOT
ATOM      1  C   UNL     1       9.878  19.442  13.500  1.00  0.00     0.000 C 
ENDROOT
BRANCH   1   2
ATOM      2  C   UNL     1      10.753  18.490  12.670  1.00  0.00     0.000 C 
BRANCH   2   3
ATOM      3  C   UNL     1      10.322  17.021  12.802  1.00  0.00     0.000 C 
BRANCH   3   4
ATOM      4  C   UNL     1       9.907  16.398  11.458  1.00  0.00     0.000 C 
BRANCH   4   5
ATOM      5  C   UNL     1       8.377  16.207  11.351  1.00  0.00     0.000 C 
BRANCH   5   6
ATOM      6  C   UNL     1       7.753  16.921  10.138  1.00  0.00     0.006 C 
BRANCH   6   7
ATOM      7  C   UNL     1       7.216  18.325  10.447  1.00  0.00     0.053 C 
BRANCH   7   8
ATOM      8  C   UNL     1       8.205  19.391  10.081  1.00  0.00     0.041 C 
ATOM      9  O   UNL     1       9.148  19.138   9.286  1.00  0.00    -0.550 OA
ATOM     10  O   UNL     1       8.074  20.669  10.607  1.00  0.00    -0.550 OA
ENDBRANCH   7   8
ENDBRANCH   6   7
ENDBRANCH   5   6
ENDBRANCH   4   5
ENDBRANCH   3   4
ENDBRANCH   2   3
ENDBRANCH   1   2
BRANCH   1  11
ATOM     11  C   UNL     1      10.748  20.387  14.343  1.00  0.00     0.000 C 
BRANCH  11  12
ATOM     12  C   UNL     1      11.580  19.645  15.402  1.00  0.00    -0.000 C 
BRANCH  12  13
ATOM     13  C   UNL     1      13.091  19.728  15.129  1.00  0.00    -0.000 C 
BRANCH  13  14
ATOM     14  C   UNL     1      13.831  18.416  15.450  1.00  0.00    -0.000 C 
BRANCH  14  15
ATOM     15  C   UNL     1      12.962  17.147  15.393  1.00  0.00    -0.000 C 
BRANCH  15  16
ATOM     16  C   UNL     1      13.188  16.213  16.594  1.00  0.00    -0.000 C 
BRANCH  16  17
ATOM     17  C   UNL     1      11.928  15.415  16.965  1.00  0.00    -0.003 C 
ATOM     18  C   UNL     1      10.650  16.035  16.399  1.00  0.00     0.004 C 
ENDBRANCH  16  17
ENDBRANCH  15  16
ENDBRANCH  14  15
ENDBRANCH  13  14
ENDBRANCH  12  13
ENDBRANCH  11  12
ENDBRANCH   1  11
TORSDOF 14
ENDMDL
