MODEL 1
REMARK VINA RESULT:    -4.758      0.000      0.000
REMARK INTER + INTRA:         -11.563
REMARK INTER:                  -9.208
REMARK INTRA:                  -2.355
REMARK UNBOUND:                -2.355
REMARK SMILES CCCCCCCCCCCCCCCCCC(=O)[O-]
REMARK SMILES IDX 10 1 11 2 12 3 13 4 14 5 15 6 16 7 17 8 18 9 19 10 20 11
REMARK SMILES IDX 9 12 8 13 7 14 6 15 5 16 4 17 3 18 2 19 1 20
REMARK H PARENT
REMARK Flexibility Score: inf
ROOT
ATOM      1  C   UNL     1      28.990  13.387 -10.253  1.00  0.00     0.000 C 
ENDROOT
BRANCH   1   2
ATOM      2  C   UNL     1      28.656  14.854  -9.941  1.00  0.00     0.000 C 
BRANCH   2   3
ATOM      3  C   UNL     1      27.681  14.955  -8.759  1.00  0.00     0.000 C 
BRANCH   3   4
ATOM      4  C   UNL     1      26.649  13.816  -8.739  1.00  0.00     0.000 C 
BRANCH   4   5
ATOM      5  C   UNL     1      25.222  14.304  -9.045  1.00  0.00     0.000 C 
BRANCH   5   6
ATOM      6  C   UNL     1      25.150  15.827  -9.246  1.00  0.00     0.000 C 
BRANCH   6   7
ATOM      7  C   UNL     1      23.705  16.353  -9.268  1.00  0.00     0.006 C 
BRANCH   7   8
ATOM      8  C   UNL     1      23.521  17.577  -8.361  1.00  0.00     0.053 C 
BRANCH   8   9
ATOM      9  C   UNL     1      22.177  17.587  -7.700  1.00  0.00     0.041 C 
ATOM     10  O   UNL     1      21.379  16.627  -7.871  1.00  0.00    -0.550 OA
ATOM     11  O   UNL     1      21.814  18.644  -6.874  1.00  0.00    -0.550 OA
ENDBRANCH   8   9
ENDBRANCH   7   8
ENDBRANCH   6   7
ENDBRANCH   5   6
ENDBRANCH   4   5
ENDBRANCH   3   4
ENDBRANCH   2   3
ENDBRANCH   1   2
BRANCH   1  12
ATOM     12  C   UNL     1      28.666  12.994 -11.706  1.00  0.00     0.000 C 
BRANCH  12  13
ATOM     13  C   UNL     1      27.165  12.951 -12.052  1.00  0.00    -0.000 C 
BRANCH  13  14
ATOM     14  C   UNL     1      26.840  13.015 -13.558  1.00  0.00    -0.000 C 
BRANCH  14  15
ATOM     15  C   UNL     1      25.544  13.772 -13.910  1.00  0.00    -0.000 C 
BRANCH  15  16
ATOM     16  C   UNL     1      25.116  14.844 -12.888  1.00  0.00    -0.000 C 
BRANCH  16  17
ATOM     17  C   UNL     1      25.596  16.273 -13.205  1.00  0.00    -0.000 C 
BRANCH  17  18
ATOM     18  C   UNL     1      26.720  16.746 -12.271  1.00  0.00    -0.000 C 
BRANCH  18  19
ATOM     19  C   UNL     1      26.725  18.275 -12.151  1.00  0.00    -0.003 C 
ATOM     20  C   UNL     1      25.444  18.780 -11.493  1.00  0.00     0.004 C 
ENDBRANCH  18  19
ENDBRANCH  17  18
ENDBRANCH  16  17
ENDBRANCH  15  16
ENDBRANCH  14  15
ENDBRANCH  13  14
ENDBRANCH  12  13
ENDBRANCH   1  12
TORSDOF 16
ENDMDL
MODEL 2
REMARK VINA RESULT:    -4.666      1.811      2.307
REMARK INTER + INTRA:         -11.386
REMARK INTER:                  -8.728
REMARK INTRA:                  -2.659
REMARK UNBOUND:                -2.355
REMARK SMILES CCCCCCCCCCCCCCCCCC(=O)[O-]
REMARK SMILES IDX 10 1 11 2 12 3 13 4 14 5 15 6 16 7 17 8 18 9 19 10 20 11
REMARK SMILES IDX 9 12 8 13 7 14 6 15 5 16 4 17 3 18 2 19 1 20
REMARK H PARENT
REMARK Flexibility Score: inf
ROOT
ATOM      1  C   UNL     1      28.759  14.734 -10.250  1.00  0.00     0.000 C 
ENDROOT
BRANCH   1   2
ATOM      2  C   UNL     1      27.665  14.600  -9.179  1.00  0.00     0.000 C 
BRANCH   2   3
ATOM      3  C   UNL     1      28.159  13.756  -7.994  1.00  0.00     0.000 C 
BRANCH   3   4
ATOM      4  C   UNL     1      27.190  12.620  -7.629  1.00  0.00     0.000 C 
BRANCH   4   5
ATOM      5  C   UNL     1      25.921  12.620  -8.499  1.00  0.00     0.000 C 
BRANCH   5   6
ATOM      6  C   UNL     1      24.681  12.132  -7.733  1.00  0.00     0.000 C 
BRANCH   6   7
ATOM      7  C   UNL     1      23.371  12.706  -8.301  1.00  0.00     0.006 C 
BRANCH   7   8
ATOM      8  C   UNL     1      23.524  14.166  -8.745  1.00  0.00     0.053 C 
BRANCH   8   9
ATOM      9  C   UNL     1      22.410  14.596  -9.648  1.00  0.00     0.041 C 
ATOM     10  O   UNL     1      22.008  13.834 -10.568  1.00  0.00    -0.550 OA
ATOM     11  O   UNL     1      21.795  15.828  -9.459  1.00  0.00    -0.550 OA
ENDBRANCH   8   9
ENDBRANCH   7   8
ENDBRANCH   6   7
ENDBRANCH   5   6
ENDBRANCH   4   5
ENDBRANCH   3   4
ENDBRANCH   2   3
ENDBRANCH   1   2
BRANCH   1  12
ATOM     12  C   UNL     1      29.041  13.413 -10.988  1.00  0.00     0.000 C 
BRANCH  12  13
ATOM     13  C   UNL     1      27.788  12.649 -11.462  1.00  0.00    -0.000 C 
BRANCH  13  14
ATOM     14  C   UNL     1      27.496  12.748 -12.972  1.00  0.00    -0.000 C 
BRANCH  14  15
ATOM     15  C   UNL     1      26.196  13.494 -13.333  1.00  0.00    -0.000 C 
BRANCH  15  16
ATOM     16  C   UNL     1      25.342  13.937 -12.129  1.00  0.00    -0.000 C 
BRANCH  16  17
ATOM     17  C   UNL     1      25.239  15.461 -11.929  1.00  0.00    -0.000 C 
BRANCH  17  18
ATOM     18  C   UNL     1      26.254  16.243 -12.776  1.00  0.00    -0.000 C 
BRANCH  18  19
ATOM     19  C   UNL     1      26.791  17.456 -12.005  1.00  0.00    -0.003 C 
ATOM     20  C   UNL     1      25.652  18.268 -11.394  1.00  0.00     0.004 C 
ENDBRANCH  18  19
ENDBRANCH  17  18
ENDBRANCH  16  17
ENDBRANCH  15  16
ENDBRANCH  14  15
ENDBRANCH  13  14
ENDBRANCH  12  13
ENDBRANCH   1  12
TORSDOF 16
ENDMDL
MODEL 3
REMARK VINA RESULT:    -4.643      1.727      3.480
REMARK INTER + INTRA:         -11.341
REMARK INTER:                  -8.514
REMARK INTRA:                  -2.827
REMARK UNBOUND:                -2.355
REMARK SMILES CCCCCCCCCCCCCCCCCC(=O)[O-]
REMARK SMILES IDX 10 1 11 2 12 3 13 4 14 5 15 6 16 7 17 8 18 9 19 10 20 11
REMARK SMILES IDX 9 12 8 13 7 14 6 15 5 16 4 17 3 18 2 19 1 20
REMARK H PARENT
REMARK Flexibility Score: inf
ROOT
ATOM      1  C   UNL     1      27.977  15.237  -9.673  1.00  0.00     0.000 C 
ENDROOT
BRANCH   1   2
ATOM      2  C   UNL     1      26.553  15.286  -9.098  1.00  0.00     0.000 C 
BRANCH   2   3
ATOM      3  C   UNL     1      25.673  16.261  -9.893  1.00  0.00     0.000 C 
BRANCH   3   4
ATOM      4  C   UNL     1      24.273  16.432  -9.283  1.00  0.00     0.000 C 
BRANCH   4   5
ATOM      5  C   UNL     1      23.171  16.543 -10.352  1.00  0.00     0.000 C 
BRANCH   5   6
ATOM      6  C   UNL     1      21.766  16.291  -9.779  1.00  0.00     0.000 C 
BRANCH   6   7
ATOM      7  C   UNL     1      21.784  16.034  -8.261  1.00  0.00     0.006 C 
BRANCH   7   8
ATOM      8  C   UNL     1      20.738  16.878  -7.520  1.00  0.00     0.053 C 
BRANCH   8   9
ATOM      9  C   UNL     1      21.177  18.302  -7.366  1.00  0.00     0.041 C 
ATOM     10  O   UNL     1      20.464  19.237  -7.819  1.00  0.00    -0.550 OA
ATOM     11  O   UNL     1      22.359  18.599  -6.699  1.00  0.00    -0.550 OA
ENDBRANCH   8   9
ENDBRANCH   7   8
ENDBRANCH   6   7
ENDBRANCH   5   6
ENDBRANCH   4   5
ENDBRANCH   3   4
ENDBRANCH   2   3
ENDBRANCH   1   2
BRANCH   1  12
ATOM     12  C   UNL     1      28.556  13.811  -9.720  1.00  0.00     0.000 C 
BRANCH  12  13
ATOM     13  C   UNL     1      28.690  13.206 -11.131  1.00  0.00    -0.000 C 
BRANCH  13  14
ATOM     14  C   UNL     1      27.413  12.538 -11.679  1.00  0.00    -0.000 C 
BRANCH  14  15
ATOM     15  C   UNL     1      26.623  13.385 -12.697  1.00  0.00    -0.000 C 
BRANCH  15  16
ATOM     16  C   UNL     1      25.151  13.649 -12.324  1.00  0.00    -0.000 C 
BRANCH  16  17
ATOM     17  C   UNL     1      24.664  12.937 -11.048  1.00  0.00    -0.000 C 
BRANCH  17  18
ATOM     18  C   UNL     1      23.141  12.736 -11.022  1.00  0.00    -0.000 C 
BRANCH  18  19
ATOM     19  C   UNL     1      22.627  12.640  -9.580  1.00  0.00    -0.003 C 
ATOM     20  C   UNL     1      23.768  12.781  -8.577  1.00  0.00     0.004 C 
ENDBRANCH  18  19
ENDBRANCH  17  18
ENDBRANCH  16  17
ENDBRANCH  15  16
ENDBRANCH  14  15
ENDBRANCH  13  14
ENDBRANCH  12  13
ENDBRANCH   1  12
TORSDOF 16
ENDMDL
MODEL 4
REMARK VINA RESULT:    -4.631      2.153      4.088
REMARK INTER + INTRA:         -11.317
REMARK INTER:                  -8.733
REMARK INTRA:                  -2.584
REMARK UNBOUND:                -2.355
REMARK SMILES CCCCCCCCCCCCCCCCCC(=O)[O-]
REMARK SMILES IDX 10 1 11 2 12 3 13 4 14 5 15 6 16 7 17 8 18 9 19 10 20 11
REMARK SMILES IDX 9 12 8 13 7 14 6 15 5 16 4 17 3 18 2 19 1 20
REMARK H PARENT
REMARK Flexibility Score: inf
ROOT
ATOM      1  C   UNL     1      25.851  13.336 -13.937  1.00  0.00     0.000 C 
ENDROOT
BRANCH   1   2
ATOM      2  C   UNL     1      27.286  12.967 -13.532  1.00  0.00     0.000 C 
BRANCH   2   3
ATOM      3  C   UNL     1      27.377  12.694 -12.023  1.00  0.00     0.000 C 
BRANCH   3   4
ATOM      4  C   UNL     1      28.727  13.118 -11.422  1.00  0.00     0.000 C 
BRANCH   4   5
ATOM      5  C   UNL     1      28.567  14.001 -10.172  1.00  0.00     0.000 C 
BRANCH   5   6
ATOM      6  C   UNL     1      27.486  15.081 -10.347  1.00  0.00     0.000 C 
BRANCH   6   7
ATOM      7  C   UNL     1      26.462  15.084  -9.199  1.00  0.00     0.006 C 
BRANCH   7   8
ATOM      8  C   UNL     1      25.111  14.494  -9.627  1.00  0.00     0.053 C 
BRANCH   8   9
ATOM      9  C   UNL     1      24.810  13.211  -8.916  1.00  0.00     0.041 C 
ATOM     10  O   UNL     1      25.506  12.184  -9.139  1.00  0.00    -0.550 OA
ATOM     11  O   UNL     1      23.778  13.154  -7.987  1.00  0.00    -0.550 OA
ENDBRANCH   8   9
ENDBRANCH   7   8
ENDBRANCH   6   7
ENDBRANCH   5   6
ENDBRANCH   4   5
ENDBRANCH   3   4
ENDBRANCH   2   3
ENDBRANCH   1   2
BRANCH   1  12
ATOM     12  C   UNL     1      25.644  14.854 -14.093  1.00  0.00     0.000 C 
BRANCH  12  13
ATOM     13  C   UNL     1      24.526  15.455 -13.218  1.00  0.00    -0.000 C 
BRANCH  13  14
ATOM     14  C   UNL     1      23.681  16.550 -13.899  1.00  0.00    -0.000 C 
BRANCH  14  15
ATOM     15  C   UNL     1      22.516  17.093 -13.049  1.00  0.00    -0.000 C 
BRANCH  15  16
ATOM     16  C   UNL     1      22.882  18.255 -12.105  1.00  0.00    -0.000 C 
BRANCH  16  17
ATOM     17  C   UNL     1      23.308  17.833 -10.686  1.00  0.00    -0.000 C 
BRANCH  17  18
ATOM     18  C   UNL     1      24.815  17.995 -10.442  1.00  0.00    -0.000 C 
BRANCH  18  19
ATOM     19  C   UNL     1      25.455  18.866 -11.530  1.00  0.00    -0.003 C 
ATOM     20  C   UNL     1      26.647  18.160 -12.171  1.00  0.00     0.004 C 
ENDBRANCH  18  19
ENDBRANCH  17  18
ENDBRANCH  16  17
ENDBRANCH  15  16
ENDBRANCH  14  15
ENDBRANCH  13  14
ENDBRANCH  12  13
ENDBRANCH   1  12
TORSDOF 16
ENDMDL
MODEL 5
REMARK VINA RESULT:    -4.623      2.470      5.354
REMARK INTER + INTRA:         -11.302
REMARK INTER:                  -9.584
REMARK INTRA:                  -1.718
REMARK UNBOUND:                -2.355
REMARK SMILES CCCCCCCCCCCCCCCCCC(=O)[O-]
REMARK SMILES IDX 10 1 11 2 12 3 13 4 14 5 15 6 16 7 17 8 18 9 19 10 20 11
REMARK SMILES IDX 9 12 8 13 7 14 6 15 5 16 4 17 3 18 2 19 1 20
REMARK H PARENT
REMARK Flexibility Score: inf
ROOT
ATOM      1  C   UNL     1      24.498  17.681 -10.066  1.00  0.00     0.000 C 
ENDROOT
BRANCH   1   2
ATOM      2  C   UNL     1      23.836  17.535  -8.688  1.00  0.00     0.000 C 
BRANCH   2   3
ATOM      3  C   UNL     1      22.516  16.756  -8.793  1.00  0.00     0.000 C 
BRANCH   3   4
ATOM      4  C   UNL     1      21.459  17.238  -7.787  1.00  0.00     0.000 C 
BRANCH   4   5
ATOM      5  C   UNL     1      21.979  18.362  -6.875  1.00  0.00     0.000 C 
BRANCH   5   6
ATOM      6  C   UNL     1      21.061  18.613  -5.666  1.00  0.00     0.000 C 
BRANCH   6   7
ATOM      7  C   UNL     1      20.776  20.108  -5.440  1.00  0.00     0.006 C 
BRANCH   7   8
ATOM      8  C   UNL     1      19.286  20.441  -5.590  1.00  0.00     0.053 C 
BRANCH   8   9
ATOM      9  C   UNL     1      19.027  21.324  -6.772  1.00  0.00     0.041 C 
ATOM     10  O   UNL     1      17.873  21.390  -7.273  1.00  0.00    -0.550 OA
ATOM     11  O   UNL     1      20.053  22.094  -7.305  1.00  0.00    -0.550 OA
ENDBRANCH   8   9
ENDBRANCH   7   8
ENDBRANCH   6   7
ENDBRANCH   5   6
ENDBRANCH   4   5
ENDBRANCH   3   4
ENDBRANCH   2   3
ENDBRANCH   1   2
BRANCH   1  12
ATOM     12  C   UNL     1      24.162  16.519 -11.019  1.00  0.00     0.000 C 
BRANCH  12  13
ATOM     13  C   UNL     1      25.294  15.491 -11.220  1.00  0.00    -0.000 C 
BRANCH  13  14
ATOM     14  C   UNL     1      25.102  14.156 -10.474  1.00  0.00    -0.000 C 
BRANCH  14  15
ATOM     15  C   UNL     1      25.849  14.051  -9.130  1.00  0.00    -0.000 C 
BRANCH  15  16
ATOM     16  C   UNL     1      26.835  15.200  -8.840  1.00  0.00    -0.000 C 
BRANCH  16  17
ATOM     17  C   UNL     1      28.323  14.806  -8.876  1.00  0.00    -0.000 C 
BRANCH  17  18
ATOM     18  C   UNL     1      28.865  14.653 -10.305  1.00  0.00    -0.000 C 
BRANCH  18  19
ATOM     19  C   UNL     1      29.003  13.173 -10.683  1.00  0.00    -0.003 C 
ATOM     20  C   UNL     1      28.226  12.855 -11.958  1.00  0.00     0.004 C 
ENDBRANCH  18  19
ENDBRANCH  17  18
ENDBRANCH  16  17
ENDBRANCH  15  16
ENDBRANCH  14  15
ENDBRANCH  13  14
ENDBRANCH  12  13
ENDBRANCH   1  12
TORSDOF 16
ENDMDL
MODEL 6
REMARK VINA RESULT:    -4.578      2.971      5.232
REMARK INTER + INTRA:         -11.215
REMARK INTER:                  -8.899
REMARK INTRA:                  -2.316
REMARK UNBOUND:                -2.355
REMARK SMILES CCCCCCCCCCCCCCCCCC(=O)[O-]
REMARK SMILES IDX 10 1 11 2 12 3 13 4 14 5 15 6 16 7 17 8 18 9 19 10 20 11
REMARK SMILES IDX 9 12 8 13 7 14 6 15 5 16 4 17 3 18 2 19 1 20
REMARK H PARENT
REMARK Flexibility Score: inf
ROOT
ATOM      1  C   UNL     1      28.388  13.541  -9.944  1.00  0.00     0.000 C 
ENDROOT
BRANCH   1   2
ATOM      2  C   UNL     1      28.650  13.007 -11.360  1.00  0.00     0.000 C 
BRANCH   2   3
ATOM      3  C   UNL     1      27.341  12.562 -12.029  1.00  0.00     0.000 C 
BRANCH   3   4
ATOM      4  C   UNL     1      27.231  13.027 -13.490  1.00  0.00     0.000 C 
BRANCH   4   5
ATOM      5  C   UNL     1      25.774  13.239 -13.937  1.00  0.00     0.000 C 
BRANCH   5   6
ATOM      6  C   UNL     1      25.400  14.726 -14.042  1.00  0.00     0.000 C 
BRANCH   6   7
ATOM      7  C   UNL     1      26.273  15.486 -15.056  1.00  0.00     0.006 C 
BRANCH   7   8
ATOM      8  C   UNL     1      25.446  16.426 -15.942  1.00  0.00     0.053 C 
BRANCH   8   9
ATOM      9  C   UNL     1      25.338  17.799 -15.353  1.00  0.00     0.041 C 
ATOM     10  O   UNL     1      26.330  18.576 -15.369  1.00  0.00    -0.550 OA
ATOM     11  O   UNL     1      24.135  18.231 -14.808  1.00  0.00    -0.550 OA
ENDBRANCH   8   9
ENDBRANCH   7   8
ENDBRANCH   6   7
ENDBRANCH   5   6
ENDBRANCH   4   5
ENDBRANCH   3   4
ENDBRANCH   2   3
ENDBRANCH   1   2
BRANCH   1  12
ATOM     12  C   UNL     1      28.981  14.943  -9.713  1.00  0.00     0.000 C 
BRANCH  12  13
ATOM     13  C   UNL     1      28.775  15.939 -10.872  1.00  0.00    -0.000 C 
BRANCH  13  14
ATOM     14  C   UNL     1      27.304  16.253 -11.209  1.00  0.00    -0.000 C 
BRANCH  14  15
ATOM     15  C   UNL     1      27.088  17.536 -12.035  1.00  0.00    -0.000 C 
BRANCH  15  16
ATOM     16  C   UNL     1      25.848  18.364 -11.643  1.00  0.00    -0.000 C 
BRANCH  16  17
ATOM     17  C   UNL     1      24.604  17.537 -11.269  1.00  0.00    -0.000 C 
BRANCH  17  18
ATOM     18  C   UNL     1      24.279  17.592  -9.769  1.00  0.00    -0.000 C 
BRANCH  18  19
ATOM     19  C   UNL     1      24.457  16.214  -9.120  1.00  0.00    -0.003 C 
ATOM     20  C   UNL     1      24.081  15.096 -10.088  1.00  0.00     0.004 C 
ENDBRANCH  18  19
ENDBRANCH  17  18
ENDBRANCH  16  17
ENDBRANCH  15  16
ENDBRANCH  14  15
ENDBRANCH  13  14
ENDBRANCH  12  13
ENDBRANCH   1  12
TORSDOF 16
ENDMDL
MODEL 7
REMARK VINA RESULT:    -4.571      3.586      5.968
REMARK INTER + INTRA:         -11.201
REMARK INTER:                  -8.673
REMARK INTRA:                  -2.527
REMARK UNBOUND:                -2.355
REMARK SMILES CCCCCCCCCCCCCCCCCC(=O)[O-]
REMARK SMILES IDX 10 1 11 2 12 3 13 4 14 5 15 6 16 7 17 8 18 9 19 10 20 11
REMARK SMILES IDX 9 12 8 13 7 14 6 15 5 16 4 17 3 18 2 19 1 20
REMARK H PARENT
REMARK Flexibility Score: inf
ROOT
ATOM      1  C   UNL     1      25.443  16.616 -10.144  1.00  0.00     0.000 C 
ENDROOT
BRANCH   1   2
ATOM      2  C   UNL     1      24.716  17.753 -10.878  1.00  0.00     0.000 C 
BRANCH   2   3
ATOM      3  C   UNL     1      25.709  18.617 -11.670  1.00  0.00     0.000 C 
BRANCH   3   4
ATOM      4  C   UNL     1      26.947  17.831 -12.130  1.00  0.00     0.000 C 
BRANCH   4   5
ATOM      5  C   UNL     1      26.726  17.112 -13.472  1.00  0.00     0.000 C 
BRANCH   5   6
ATOM      6  C   UNL     1      25.664  17.802 -14.343  1.00  0.00     0.000 C 
BRANCH   6   7
ATOM      7  C   UNL     1      24.645  16.810 -14.931  1.00  0.00     0.006 C 
BRANCH   7   8
ATOM      8  C   UNL     1      24.826  16.622 -16.443  1.00  0.00     0.053 C 
BRANCH   8   9
ATOM      9  C   UNL     1      24.001  17.593 -17.230  1.00  0.00     0.041 C 
ATOM     10  O   UNL     1      24.244  17.788 -18.451  1.00  0.00    -0.550 OA
ATOM     11  O   UNL     1      22.946  18.264 -16.623  1.00  0.00    -0.550 OA
ENDBRANCH   8   9
ENDBRANCH   7   8
ENDBRANCH   6   7
ENDBRANCH   5   6
ENDBRANCH   4   5
ENDBRANCH   3   4
ENDBRANCH   2   3
ENDBRANCH   1   2
BRANCH   1  12
ATOM     12  C   UNL     1      24.742  15.254 -10.305  1.00  0.00     0.000 C 
BRANCH  12  13
ATOM     13  C   UNL     1      24.445  14.840 -11.759  1.00  0.00    -0.000 C 
BRANCH  13  14
ATOM     14  C   UNL     1      24.965  13.445 -12.160  1.00  0.00    -0.000 C 
BRANCH  14  15
ATOM     15  C   UNL     1      26.026  13.446 -13.278  1.00  0.00    -0.000 C 
BRANCH  15  16
ATOM     16  C   UNL     1      27.430  12.981 -12.845  1.00  0.00    -0.000 C 
BRANCH  16  17
ATOM     17  C   UNL     1      27.633  12.849 -11.324  1.00  0.00    -0.000 C 
BRANCH  17  18
ATOM     18  C   UNL     1      28.990  13.392 -10.854  1.00  0.00    -0.000 C 
BRANCH  18  19
ATOM     19  C   UNL     1      28.843  14.802 -10.269  1.00  0.00    -0.003 C 
ATOM     20  C   UNL     1      28.293  14.754  -8.846  1.00  0.00     0.004 C 
ENDBRANCH  18  19
ENDBRANCH  17  18
ENDBRANCH  16  17
ENDBRANCH  15  16
ENDBRANCH  14  15
ENDBRANCH  13  14
ENDBRANCH  12  13
ENDBRANCH   1  12
TORSDOF 16
ENDMDL
MODEL 8
REMARK VINA RESULT:    -4.531      2.657      4.664
REMARK INTER + INTRA:         -11.124
REMARK INTER:                  -8.333
REMARK INTRA:                  -2.791
REMARK UNBOUND:                -2.355
REMARK SMILES CCCCCCCCCCCCCCCCCC(=O)[O-]
REMARK SMILES IDX 10 1 11 2 12 3 13 4 14 5 15 6 16 7 17 8 18 9 19 10 20 11
REMARK SMILES IDX 9 12 8 13 7 14 6 15 5 16 4 17 3 18 2 19 1 20
REMARK H PARENT
REMARK Flexibility Score: inf
ROOT
ATOM      1  C   UNL     1      27.615  15.181  -9.027  1.00  0.00     0.000 C 
ENDROOT
BRANCH   1   2
ATOM      2  C   UNL     1      26.114  15.425  -9.245  1.00  0.00     0.000 C 
BRANCH   2   3
ATOM      3  C   UNL     1      25.878  16.347 -10.450  1.00  0.00     0.000 C 
BRANCH   3   4
ATOM      4  C   UNL     1      27.137  16.532 -11.313  1.00  0.00     0.000 C 
BRANCH   4   5
ATOM      5  C   UNL     1      27.090  17.816 -12.160  1.00  0.00     0.000 C 
BRANCH   5   6
ATOM      6  C   UNL     1      25.873  18.696 -11.831  1.00  0.00     0.000 C 
BRANCH   6   7
ATOM      7  C   UNL     1      24.924  18.865 -13.030  1.00  0.00     0.006 C 
BRANCH   7   8
ATOM      8  C   UNL     1      25.307  17.953 -14.204  1.00  0.00     0.053 C 
BRANCH   8   9
ATOM      9  C   UNL     1      24.435  16.738 -14.275  1.00  0.00     0.041 C 
ATOM     10  O   UNL     1      24.639  15.863 -15.158  1.00  0.00    -0.550 OA
ATOM     11  O   UNL     1      23.414  16.557 -13.350  1.00  0.00    -0.550 OA
ENDBRANCH   8   9
ENDBRANCH   7   8
ENDBRANCH   6   7
ENDBRANCH   5   6
ENDBRANCH   4   5
ENDBRANCH   3   4
ENDBRANCH   2   3
ENDBRANCH   1   2
BRANCH   1  12
ATOM     12  C   UNL     1      28.011  13.702  -9.190  1.00  0.00     0.000 C 
BRANCH  12  13
ATOM     13  C   UNL     1      29.022  13.417 -10.319  1.00  0.00    -0.000 C 
BRANCH  13  14
ATOM     14  C   UNL     1      28.399  12.974 -11.657  1.00  0.00    -0.000 C 
BRANCH  14  15
ATOM     15  C   UNL     1      26.896  12.636 -11.592  1.00  0.00    -0.000 C 
BRANCH  15  16
ATOM     16  C   UNL     1      26.015  13.381 -12.614  1.00  0.00    -0.000 C 
BRANCH  16  17
ATOM     17  C   UNL     1      24.517  13.443 -12.261  1.00  0.00    -0.000 C 
BRANCH  17  18
ATOM     18  C   UNL     1      24.202  12.830 -10.888  1.00  0.00    -0.000 C 
BRANCH  18  19
ATOM     19  C   UNL     1      22.769  13.162 -10.456  1.00  0.00    -0.003 C 
ATOM     20  C   UNL     1      22.543  14.671 -10.412  1.00  0.00     0.004 C 
ENDBRANCH  18  19
ENDBRANCH  17  18
ENDBRANCH  16  17
ENDBRANCH  15  16
ENDBRANCH  14  15
ENDBRANCH  13  14
ENDBRANCH  12  13
ENDBRANCH   1  12
TORSDOF 16
ENDMDL
MODEL 9
REMARK VINA RESULT:    -4.530      1.311      3.901
REMARK INTER + INTRA:         -11.122
REMARK INTER:                  -8.652
REMARK INTRA:                  -2.470
REMARK UNBOUND:                -2.355
REMARK SMILES CCCCCCCCCCCCCCCCCC(=O)[O-]
REMARK SMILES IDX 10 1 11 2 12 3 13 4 14 5 15 6 16 7 17 8 18 9 19 10 20 11
REMARK SMILES IDX 9 12 8 13 7 14 6 15 5 16 4 17 3 18 2 19 1 20
REMARK H PARENT
REMARK Flexibility Score: inf
ROOT
ATOM      1  C   UNL     1      26.476  16.726 -11.737  1.00  0.00     0.000 C 
ENDROOT
BRANCH   1   2
ATOM      2  C   UNL     1      26.184  18.233 -11.786  1.00  0.00     0.000 C 
BRANCH   2   3
ATOM      3  C   UNL     1      24.925  18.575 -10.975  1.00  0.00     0.000 C 
BRANCH   3   4
ATOM      4  C   UNL     1      24.554  17.479  -9.963  1.00  0.00     0.000 C 
BRANCH   4   5
ATOM      5  C   UNL     1      23.113  16.970 -10.144  1.00  0.00     0.000 C 
BRANCH   5   6
ATOM      6  C   UNL     1      22.660  16.061  -8.989  1.00  0.00     0.000 C 
BRANCH   6   7
ATOM      7  C   UNL     1      21.731  16.783  -7.997  1.00  0.00     0.006 C 
BRANCH   7   8
ATOM      8  C   UNL     1      21.080  18.027  -8.615  1.00  0.00     0.053 C 
BRANCH   8   9
ATOM      9  C   UNL     1      20.425  18.889  -7.580  1.00  0.00     0.041 C 
ATOM     10  O   UNL     1      20.295  18.472  -6.398  1.00  0.00    -0.550 OA
ATOM     11  O   UNL     1      19.981  20.163  -7.912  1.00  0.00    -0.550 OA
ENDBRANCH   8   9
ENDBRANCH   7   8
ENDBRANCH   6   7
ENDBRANCH   5   6
ENDBRANCH   4   5
ENDBRANCH   3   4
ENDBRANCH   2   3
ENDBRANCH   1   2
BRANCH   1  12
ATOM     12  C   UNL     1      25.890  15.962 -12.939  1.00  0.00     0.000 C 
BRANCH  12  13
ATOM     13  C   UNL     1      24.998  14.758 -12.576  1.00  0.00    -0.000 C 
BRANCH  13  14
ATOM     14  C   UNL     1      25.671  13.691 -11.691  1.00  0.00    -0.000 C 
BRANCH  14  15
ATOM     15  C   UNL     1      25.017  13.486 -10.311  1.00  0.00    -0.000 C 
BRANCH  15  16
ATOM     16  C   UNL     1      25.781  14.112  -9.127  1.00  0.00    -0.000 C 
BRANCH  16  17
ATOM     17  C   UNL     1      27.258  13.693  -9.011  1.00  0.00    -0.000 C 
BRANCH  17  18
ATOM     18  C   UNL     1      28.221  14.890  -9.031  1.00  0.00    -0.000 C 
BRANCH  18  19
ATOM     19  C   UNL     1      29.250  14.745 -10.159  1.00  0.00    -0.003 C 
ATOM     20  C   UNL     1      29.154  13.373 -10.820  1.00  0.00     0.004 C 
ENDBRANCH  18  19
ENDBRANCH  17  18
ENDBRANCH  16  17
ENDBRANCH  15  16
ENDBRANCH  14  15
ENDBRANCH  13  14
ENDBRANCH  12  13
ENDBRANCH   1  12
TORSDOF 16
ENDMDL
