MODEL 1
REMARK VINA RESULT:    -4.968      0.000      0.000
REMARK INTER + INTRA:         -15.496
REMARK INTER:                 -12.520
REMARK INTRA:                  -2.976
REMARK UNBOUND:                -2.976
REMARK SMILES CCCCCCCCCCCCCCCCCCCCCCCCCCCC(=O)[O-]
REMARK SMILES IDX 15 1 16 2 17 3 18 4 19 5 20 6 21 7 22 8 23 9 24 10 25 11
REMARK SMILES IDX 26 12 27 13 28 14 29 15 30 16 14 17 13 18 12 19 11 20 10 21
REMARK SMILES IDX 9 22 8 23 7 24 6 25 5 26 4 27 3 28 2 29 1 30
REMARK H PARENT
REMARK Flexibility Score: inf
ROOT
ATOM      1  C   UNL     1      23.906  -3.038  36.955  1.00  0.00     0.000 C 
ENDROOT
BRANCH   1   2
ATOM      2  C   UNL     1      24.507  -1.835  36.206  1.00  0.00     0.000 C 
BRANCH   2   3
ATOM      3  C   UNL     1      25.757  -1.275  36.902  1.00  0.00     0.000 C 
BRANCH   3   4
ATOM      4  C   UNL     1      25.511   0.109  37.530  1.00  0.00     0.000 C 
BRANCH   4   5
ATOM      5  C   UNL     1      26.326   0.329  38.815  1.00  0.00     0.000 C 
BRANCH   5   6
ATOM      6  C   UNL     1      27.169   1.614  38.758  1.00  0.00     0.000 C 
BRANCH   6   7
ATOM      7  C   UNL     1      26.550   2.776  39.554  1.00  0.00     0.000 C 
BRANCH   7   8
ATOM      8  C   UNL     1      25.190   2.477  40.221  1.00  0.00     0.000 C 
BRANCH   8   9
ATOM      9  C   UNL     1      24.997   3.086  41.622  1.00  0.00     0.000 C 
BRANCH   9  10
ATOM     10  C   UNL     1      26.062   2.622  42.632  1.00  0.00     0.000 C 
BRANCH  10  11
ATOM     11  C   UNL     1      25.549   1.497  43.552  1.00  0.00     0.000 C 
BRANCH  11  12
ATOM     12  C   UNL     1      26.637   0.495  43.989  1.00  0.00     0.006 C 
BRANCH  12  13
ATOM     13  C   UNL     1      26.940  -0.561  42.917  1.00  0.00     0.053 C 
BRANCH  13  14
ATOM     14  C   UNL     1      27.676  -1.717  43.516  1.00  0.00     0.041 C 
ATOM     15  O   UNL     1      27.797  -2.794  42.876  1.00  0.00    -0.550 OA
ATOM     16  O   UNL     1      28.253  -1.596  44.775  1.00  0.00    -0.550 OA
ENDBRANCH  13  14
ENDBRANCH  12  13
ENDBRANCH  11  12
ENDBRANCH  10  11
ENDBRANCH   9  10
ENDBRANCH   8   9
ENDBRANCH   7   8
ENDBRANCH   6   7
ENDBRANCH   5   6
ENDBRANCH   4   5
ENDBRANCH   3   4
ENDBRANCH   2   3
ENDBRANCH   1   2
BRANCH   1  17
ATOM     17  C   UNL     1      22.389  -3.165  36.752  1.00  0.00     0.000 C 
BRANCH  17  18
ATOM     18  C   UNL     1      21.977  -4.553  36.238  1.00  0.00     0.000 C 
BRANCH  18  19
ATOM     19  C   UNL     1      22.632  -4.908  34.893  1.00  0.00     0.000 C 
BRANCH  19  20
ATOM     20  C   UNL     1      23.218  -6.336  34.852  1.00  0.00     0.000 C 
BRANCH  20  21
ATOM     21  C   UNL     1      24.625  -6.372  34.229  1.00  0.00     0.000 C 
BRANCH  21  22
ATOM     22  C   UNL     1      25.274  -4.981  34.146  1.00  0.00    -0.000 C 
BRANCH  22  23
ATOM     23  C   UNL     1      26.689  -4.946  34.740  1.00  0.00    -0.000 C 
BRANCH  23  24
ATOM     24  C   UNL     1      26.707  -5.545  36.152  1.00  0.00    -0.000 C 
BRANCH  24  25
ATOM     25  C   UNL     1      28.032  -5.231  36.866  1.00  0.00    -0.000 C 
BRANCH  25  26
ATOM     26  C   UNL     1      28.200  -3.732  37.161  1.00  0.00    -0.000 C 
BRANCH  26  27
ATOM     27  C   UNL     1      29.658  -3.353  37.475  1.00  0.00    -0.000 C 
BRANCH  27  28
ATOM     28  C   UNL     1      30.476  -3.079  36.203  1.00  0.00    -0.000 C 
BRANCH  28  29
ATOM     29  C   UNL     1      31.533  -4.163  35.943  1.00  0.00    -0.003 C 
ATOM     30  C   UNL     1      31.727  -5.044  37.173  1.00  0.00     0.004 C 
ENDBRANCH  28  29
ENDBRANCH  27  28
ENDBRANCH  26  27
ENDBRANCH  25  26
ENDBRANCH  24  25
ENDBRANCH  23  24
ENDBRANCH  22  23
ENDBRANCH  21  22
ENDBRANCH  20  21
ENDBRANCH  19  20
ENDBRANCH  18  19
ENDBRANCH  17  18
ENDBRANCH   1  17
TORSDOF 26
ENDMDL
MODEL 2
REMARK VINA RESULT:    -4.774      1.114      2.130
REMARK INTER + INTRA:         -15.006
REMARK INTER:                 -11.967
REMARK INTRA:                  -3.039
REMARK UNBOUND:                -2.976
REMARK SMILES CCCCCCCCCCCCCCCCCCCCCCCCCCCC(=O)[O-]
REMARK SMILES IDX 15 1 16 2 17 3 18 4 19 5 20 6 21 7 22 8 23 9 24 10 25 11
REMARK SMILES IDX 26 12 27 13 28 14 29 15 30 16 14 17 13 18 12 19 11 20 10 21
REMARK SMILES IDX 9 22 8 23 7 24 6 25 5 26 4 27 3 28 2 29 1 30
REMARK H PARENT
REMARK Flexibility Score: inf
ROOT
ATOM      1  C   UNL     1      24.284  -1.441  36.430  1.00  0.00     0.000 C 
ENDROOT
BRANCH   1   2
ATOM      2  C   UNL     1      25.647  -1.133  37.076  1.00  0.00     0.000 C 
BRANCH   2   3
ATOM      3  C   UNL     1      25.645   0.199  37.843  1.00  0.00     0.000 C 
BRANCH   3   4
ATOM      4  C   UNL     1      26.839   0.325  38.806  1.00  0.00     0.000 C 
BRANCH   4   5
ATOM      5  C   UNL     1      26.717   1.537  39.745  1.00  0.00     0.000 C 
BRANCH   5   6
ATOM      6  C   UNL     1      25.348   2.226  39.633  1.00  0.00     0.000 C 
BRANCH   6   7
ATOM      7  C   UNL     1      24.945   2.977  40.915  1.00  0.00     0.000 C 
BRANCH   7   8
ATOM      8  C   UNL     1      25.892   2.793  42.120  1.00  0.00     0.000 C 
BRANCH   8   9
ATOM      9  C   UNL     1      25.375   1.856  43.227  1.00  0.00     0.000 C 
BRANCH   9  10
ATOM     10  C   UNL     1      26.482   0.979  43.839  1.00  0.00     0.000 C 
BRANCH  10  11
ATOM     11  C   UNL     1      26.480  -0.453  43.271  1.00  0.00     0.000 C 
BRANCH  11  12
ATOM     12  C   UNL     1      27.565  -1.371  43.869  1.00  0.00     0.006 C 
BRANCH  12  13
ATOM     13  C   UNL     1      27.655  -2.729  43.159  1.00  0.00     0.053 C 
BRANCH  13  14
ATOM     14  C   UNL     1      27.193  -3.825  44.068  1.00  0.00     0.041 C 
ATOM     15  O   UNL     1      27.384  -3.743  45.309  1.00  0.00    -0.550 OA
ATOM     16  O   UNL     1      26.525  -4.927  43.545  1.00  0.00    -0.550 OA
ENDBRANCH  13  14
ENDBRANCH  12  13
ENDBRANCH  11  12
ENDBRANCH  10  11
ENDBRANCH   9  10
ENDBRANCH   8   9
ENDBRANCH   7   8
ENDBRANCH   6   7
ENDBRANCH   5   6
ENDBRANCH   4   5
ENDBRANCH   3   4
ENDBRANCH   2   3
ENDBRANCH   1   2
BRANCH   1  17
ATOM     17  C   UNL     1      23.980  -2.946  36.379  1.00  0.00     0.000 C 
BRANCH  17  18
ATOM     18  C   UNL     1      22.554  -3.275  36.849  1.00  0.00     0.000 C 
BRANCH  18  19
ATOM     19  C   UNL     1      22.120  -4.702  36.476  1.00  0.00     0.000 C 
BRANCH  19  20
ATOM     20  C   UNL     1      22.345  -5.044  34.987  1.00  0.00     0.000 C 
BRANCH  20  21
ATOM     21  C   UNL     1      22.950  -6.447  34.795  1.00  0.00     0.000 C 
BRANCH  21  22
ATOM     22  C   UNL     1      24.004  -6.492  33.677  1.00  0.00    -0.000 C 
BRANCH  22  23
ATOM     23  C   UNL     1      25.347  -5.880  34.099  1.00  0.00    -0.000 C 
BRANCH  23  24
ATOM     24  C   UNL     1      25.710  -6.286  35.533  1.00  0.00    -0.000 C 
BRANCH  24  25
ATOM     25  C   UNL     1      26.726  -5.307  36.142  1.00  0.00    -0.000 C 
BRANCH  25  26
ATOM     26  C   UNL     1      27.306  -4.337  35.100  1.00  0.00    -0.000 C 
BRANCH  26  27
ATOM     27  C   UNL     1      28.291  -3.329  35.717  1.00  0.00    -0.000 C 
BRANCH  27  28
ATOM     28  C   UNL     1      29.579  -4.005  36.216  1.00  0.00    -0.000 C 
BRANCH  28  29
ATOM     29  C   UNL     1      29.805  -3.794  37.721  1.00  0.00    -0.003 C 
ATOM     30  C   UNL     1      28.826  -2.767  38.281  1.00  0.00     0.004 C 
ENDBRANCH  28  29
ENDBRANCH  27  28
ENDBRANCH  26  27
ENDBRANCH  25  26
ENDBRANCH  24  25
ENDBRANCH  23  24
ENDBRANCH  22  23
ENDBRANCH  21  22
ENDBRANCH  20  21
ENDBRANCH  19  20
ENDBRANCH  18  19
ENDBRANCH  17  18
ENDBRANCH   1  17
TORSDOF 26
ENDMDL
MODEL 3
REMARK VINA RESULT:    -4.641      2.069      8.584
REMARK INTER + INTRA:         -14.671
REMARK INTER:                 -11.825
REMARK INTRA:                  -2.845
REMARK UNBOUND:                -2.976
REMARK SMILES CCCCCCCCCCCCCCCCCCCCCCCCCCCC(=O)[O-]
REMARK SMILES IDX 15 1 16 2 17 3 18 4 19 5 20 6 21 7 22 8 23 9 24 10 25 11
REMARK SMILES IDX 26 12 27 13 28 14 29 15 30 16 14 17 13 18 12 19 11 20 10 21
REMARK SMILES IDX 9 22 8 23 7 24 6 25 5 26 4 27 3 28 2 29 1 30
REMARK H PARENT
REMARK Flexibility Score: inf
ROOT
ATOM      1  C   UNL     1      25.478  -1.960  36.373  1.00  0.00     0.000 C 
ENDROOT
BRANCH   1   2
ATOM      2  C   UNL     1      24.385  -2.813  35.704  1.00  0.00     0.000 C 
BRANCH   2   3
ATOM      3  C   UNL     1      23.121  -2.932  36.569  1.00  0.00     0.000 C 
BRANCH   3   4
ATOM      4  C   UNL     1      22.352  -4.241  36.311  1.00  0.00     0.000 C 
BRANCH   4   5
ATOM      5  C   UNL     1      22.530  -4.759  34.875  1.00  0.00     0.000 C 
BRANCH   5   6
ATOM      6  C   UNL     1      22.905  -6.249  34.835  1.00  0.00     0.000 C 
BRANCH   6   7
ATOM      7  C   UNL     1      23.902  -6.589  33.712  1.00  0.00     0.000 C 
BRANCH   7   8
ATOM      8  C   UNL     1      25.233  -5.808  33.744  1.00  0.00     0.000 C 
BRANCH   8   9
ATOM      9  C   UNL     1      26.329  -6.412  34.641  1.00  0.00     0.000 C 
BRANCH   9  10
ATOM     10  C   UNL     1      26.217  -5.969  36.110  1.00  0.00     0.000 C 
BRANCH  10  11
ATOM     11  C   UNL     1      27.512  -5.314  36.628  1.00  0.00     0.000 C 
BRANCH  11  12
ATOM     12  C   UNL     1      28.496  -4.899  35.516  1.00  0.00     0.006 C 
BRANCH  12  13
ATOM     13  C   UNL     1      28.810  -3.395  35.529  1.00  0.00     0.053 C 
BRANCH  13  14
ATOM     14  C   UNL     1      30.104  -3.138  36.235  1.00  0.00     0.041 C 
ATOM     15  O   UNL     1      30.108  -2.712  37.419  1.00  0.00    -0.550 OA
ATOM     16  O   UNL     1      31.309  -3.395  35.591  1.00  0.00    -0.550 OA
ENDBRANCH  13  14
ENDBRANCH  12  13
ENDBRANCH  11  12
ENDBRANCH  10  11
ENDBRANCH   9  10
ENDBRANCH   8   9
ENDBRANCH   7   8
ENDBRANCH   6   7
ENDBRANCH   5   6
ENDBRANCH   4   5
ENDBRANCH   3   4
ENDBRANCH   2   3
ENDBRANCH   1   2
BRANCH   1  17
ATOM     17  C   UNL     1      24.904  -0.921  37.348  1.00  0.00     0.000 C 
BRANCH  17  18
ATOM     18  C   UNL     1      25.799   0.320  37.481  1.00  0.00     0.000 C 
BRANCH  18  19
ATOM     19  C   UNL     1      26.200   0.612  38.937  1.00  0.00     0.000 C 
BRANCH  19  20
ATOM     20  C   UNL     1      27.139   1.830  39.084  1.00  0.00     0.000 C 
BRANCH  20  21
ATOM     21  C   UNL     1      26.535   2.927  39.979  1.00  0.00     0.000 C 
BRANCH  21  22
ATOM     22  C   UNL     1      25.091   2.619  40.404  1.00  0.00    -0.000 C 
BRANCH  22  23
ATOM     23  C   UNL     1      24.821   2.947  41.879  1.00  0.00    -0.000 C 
BRANCH  23  24
ATOM     24  C   UNL     1      26.033   2.596  42.751  1.00  0.00    -0.000 C 
BRANCH  24  25
ATOM     25  C   UNL     1      25.754   1.348  43.604  1.00  0.00    -0.000 C 
BRANCH  25  26
ATOM     26  C   UNL     1      26.301   0.063  42.961  1.00  0.00    -0.000 C 
BRANCH  26  27
ATOM     27  C   UNL     1      27.261  -0.699  43.892  1.00  0.00    -0.000 C 
BRANCH  27  28
ATOM     28  C   UNL     1      27.798  -1.987  43.247  1.00  0.00    -0.000 C 
BRANCH  28  29
ATOM     29  C   UNL     1      27.735  -3.189  44.202  1.00  0.00    -0.003 C 
ATOM     30  C   UNL     1      27.614  -4.497  43.427  1.00  0.00     0.004 C 
ENDBRANCH  28  29
ENDBRANCH  27  28
ENDBRANCH  26  27
ENDBRANCH  25  26
ENDBRANCH  24  25
ENDBRANCH  23  24
ENDBRANCH  22  23
ENDBRANCH  21  22
ENDBRANCH  20  21
ENDBRANCH  19  20
ENDBRANCH  18  19
ENDBRANCH  17  18
ENDBRANCH   1  17
TORSDOF 26
ENDMDL
MODEL 4
REMARK VINA RESULT:    -4.638      1.490      3.244
REMARK INTER + INTRA:         -14.663
REMARK INTER:                 -11.924
REMARK INTRA:                  -2.738
REMARK UNBOUND:                -2.976
REMARK SMILES CCCCCCCCCCCCCCCCCCCCCCCCCCCC(=O)[O-]
REMARK SMILES IDX 15 1 16 2 17 3 18 4 19 5 20 6 21 7 22 8 23 9 24 10 25 11
REMARK SMILES IDX 26 12 27 13 28 14 29 15 30 16 14 17 13 18 12 19 11 20 10 21
REMARK SMILES IDX 9 22 8 23 7 24 6 25 5 26 4 27 3 28 2 29 1 30
REMARK H PARENT
REMARK Flexibility Score: inf
ROOT
ATOM      1  C   UNL     1      24.874  -0.690  37.123  1.00  0.00     0.000 C 
ENDROOT
BRANCH   1   2
ATOM      2  C   UNL     1      26.037   0.002  37.858  1.00  0.00     0.000 C 
BRANCH   2   3
ATOM      3  C   UNL     1      25.617   1.333  38.499  1.00  0.00     0.000 C 
BRANCH   3   4
ATOM      4  C   UNL     1      26.093   1.460  39.957  1.00  0.00     0.000 C 
BRANCH   4   5
ATOM      5  C   UNL     1      25.744   2.823  40.578  1.00  0.00     0.000 C 
BRANCH   5   6
ATOM      6  C   UNL     1      25.274   2.696  42.037  1.00  0.00     0.000 C 
BRANCH   6   7
ATOM      7  C   UNL     1      26.438   2.626  43.040  1.00  0.00     0.000 C 
BRANCH   7   8
ATOM      8  C   UNL     1      26.376   1.463  44.054  1.00  0.00     0.000 C 
BRANCH   8   9
ATOM      9  C   UNL     1      25.924   0.109  43.475  1.00  0.00     0.000 C 
BRANCH   9  10
ATOM     10  C   UNL     1      27.092  -0.732  42.929  1.00  0.00     0.000 C 
BRANCH  10  11
ATOM     11  C   UNL     1      27.561  -1.806  43.930  1.00  0.00     0.000 C 
BRANCH  11  12
ATOM     12  C   UNL     1      27.787  -3.196  43.302  1.00  0.00     0.006 C 
BRANCH  12  13
ATOM     13  C   UNL     1      27.651  -4.339  44.319  1.00  0.00     0.053 C 
BRANCH  13  14
ATOM     14  C   UNL     1      26.208  -4.615  44.603  1.00  0.00     0.041 C 
ATOM     15  O   UNL     1      25.852  -5.028  45.737  1.00  0.00    -0.550 OA
ATOM     16  O   UNL     1      25.250  -4.388  43.621  1.00  0.00    -0.550 OA
ENDBRANCH  13  14
ENDBRANCH  12  13
ENDBRANCH  11  12
ENDBRANCH  10  11
ENDBRANCH   9  10
ENDBRANCH   8   9
ENDBRANCH   7   8
ENDBRANCH   6   7
ENDBRANCH   5   6
ENDBRANCH   4   5
ENDBRANCH   3   4
ENDBRANCH   2   3
ENDBRANCH   1   2
BRANCH   1  17
ATOM     17  C   UNL     1      25.195  -2.143  36.743  1.00  0.00     0.000 C 
BRANCH  17  18
ATOM     18  C   UNL     1      24.082  -2.792  35.905  1.00  0.00     0.000 C 
BRANCH  18  19
ATOM     19  C   UNL     1      22.860  -3.193  36.749  1.00  0.00     0.000 C 
BRANCH  19  20
ATOM     20  C   UNL     1      22.302  -4.590  36.398  1.00  0.00     0.000 C 
BRANCH  20  21
ATOM     21  C   UNL     1      22.453  -4.919  34.901  1.00  0.00     0.000 C 
BRANCH  21  22
ATOM     22  C   UNL     1      23.162  -6.260  34.656  1.00  0.00    -0.000 C 
BRANCH  22  23
ATOM     23  C   UNL     1      24.453  -6.112  33.838  1.00  0.00    -0.000 C 
BRANCH  23  24
ATOM     24  C   UNL     1      25.645  -6.738  34.574  1.00  0.00    -0.000 C 
BRANCH  24  25
ATOM     25  C   UNL     1      25.617  -6.383  36.069  1.00  0.00    -0.000 C 
BRANCH  25  26
ATOM     26  C   UNL     1      26.698  -5.359  36.451  1.00  0.00    -0.000 C 
BRANCH  26  27
ATOM     27  C   UNL     1      28.021  -6.027  36.865  1.00  0.00    -0.000 C 
BRANCH  27  28
ATOM     28  C   UNL     1      29.147  -5.003  37.084  1.00  0.00    -0.000 C 
BRANCH  28  29
ATOM     29  C   UNL     1      28.672  -3.557  36.875  1.00  0.00    -0.003 C 
ATOM     30  C   UNL     1      28.763  -2.760  38.172  1.00  0.00     0.004 C 
ENDBRANCH  28  29
ENDBRANCH  27  28
ENDBRANCH  26  27
ENDBRANCH  25  26
ENDBRANCH  24  25
ENDBRANCH  23  24
ENDBRANCH  22  23
ENDBRANCH  21  22
ENDBRANCH  20  21
ENDBRANCH  19  20
ENDBRANCH  18  19
ENDBRANCH  17  18
ENDBRANCH   1  17
TORSDOF 26
ENDMDL
MODEL 5
REMARK VINA RESULT:    -4.604      1.754      5.254
REMARK INTER + INTRA:         -14.578
REMARK INTER:                 -11.708
REMARK INTRA:                  -2.870
REMARK UNBOUND:                -2.976
REMARK SMILES CCCCCCCCCCCCCCCCCCCCCCCCCCCC(=O)[O-]
REMARK SMILES IDX 15 1 16 2 17 3 18 4 19 5 20 6 21 7 22 8 23 9 24 10 25 11
REMARK SMILES IDX 26 12 27 13 28 14 29 15 30 16 14 17 13 18 12 19 11 20 10 21
REMARK SMILES IDX 9 22 8 23 7 24 6 25 5 26 4 27 3 28 2 29 1 30
REMARK H PARENT
REMARK Flexibility Score: inf
ROOT
ATOM      1  C   UNL     1      28.001   0.398  39.364  1.00  0.00     0.000 C 
ENDROOT
BRANCH   1   2
ATOM      2  C   UNL     1      26.550   0.397  38.850  1.00  0.00     0.000 C 
BRANCH   2   3
ATOM      3  C   UNL     1      25.726   1.564  39.418  1.00  0.00     0.000 C 
BRANCH   3   4
ATOM      4  C   UNL     1      26.596   2.785  39.764  1.00  0.00     0.000 C 
BRANCH   4   5
ATOM      5  C   UNL     1      26.344   3.309  41.188  1.00  0.00     0.000 C 
BRANCH   5   6
ATOM      6  C   UNL     1      25.576   2.297  42.054  1.00  0.00     0.000 C 
BRANCH   6   7
ATOM      7  C   UNL     1      26.158   2.154  43.471  1.00  0.00     0.000 C 
BRANCH   7   8
ATOM      8  C   UNL     1      26.594   0.729  43.873  1.00  0.00     0.000 C 
BRANCH   8   9
ATOM      9  C   UNL     1      26.625  -0.298  42.727  1.00  0.00     0.000 C 
BRANCH   9  10
ATOM     10  C   UNL     1      27.680  -1.400  42.933  1.00  0.00     0.000 C 
BRANCH  10  11
ATOM     11  C   UNL     1      27.777  -1.854  44.402  1.00  0.00     0.000 C 
BRANCH  11  12
ATOM     12  C   UNL     1      27.557  -3.366  44.611  1.00  0.00     0.006 C 
BRANCH  12  13
ATOM     13  C   UNL     1      26.335  -3.901  43.850  1.00  0.00     0.053 C 
BRANCH  13  14
ATOM     14  C   UNL     1      26.143  -5.358  44.130  1.00  0.00     0.041 C 
ATOM     15  O   UNL     1      25.315  -5.735  44.999  1.00  0.00    -0.550 OA
ATOM     16  O   UNL     1      26.862  -6.305  43.408  1.00  0.00    -0.550 OA
ENDBRANCH  13  14
ENDBRANCH  12  13
ENDBRANCH  11  12
ENDBRANCH  10  11
ENDBRANCH   9  10
ENDBRANCH   8   9
ENDBRANCH   7   8
ENDBRANCH   6   7
ENDBRANCH   5   6
ENDBRANCH   4   5
ENDBRANCH   3   4
ENDBRANCH   2   3
ENDBRANCH   1   2
BRANCH   1  17
ATOM     17  C   UNL     1      28.623  -1.006  39.379  1.00  0.00     0.000 C 
BRANCH  17  18
ATOM     18  C   UNL     1      28.104  -1.893  38.237  1.00  0.00     0.000 C 
BRANCH  18  19
ATOM     19  C   UNL     1      29.051  -3.061  37.913  1.00  0.00     0.000 C 
BRANCH  19  20
ATOM     20  C   UNL     1      29.120  -3.398  36.407  1.00  0.00     0.000 C 
BRANCH  20  21
ATOM     21  C   UNL     1      27.725  -3.439  35.755  1.00  0.00     0.000 C 
BRANCH  21  22
ATOM     22  C   UNL     1      27.267  -4.868  35.423  1.00  0.00    -0.000 C 
BRANCH  22  23
ATOM     23  C   UNL     1      26.586  -5.567  36.608  1.00  0.00    -0.000 C 
BRANCH  23  24
ATOM     24  C   UNL     1      25.405  -6.425  36.135  1.00  0.00    -0.000 C 
BRANCH  24  25
ATOM     25  C   UNL     1      25.044  -6.108  34.675  1.00  0.00    -0.000 C 
BRANCH  25  26
ATOM     26  C   UNL     1      23.679  -5.413  34.544  1.00  0.00    -0.000 C 
BRANCH  26  27
ATOM     27  C   UNL     1      22.903  -5.385  35.872  1.00  0.00    -0.000 C 
BRANCH  27  28
ATOM     28  C   UNL     1      21.990  -4.153  35.987  1.00  0.00    -0.000 C 
BRANCH  28  29
ATOM     29  C   UNL     1      22.640  -3.017  36.792  1.00  0.00    -0.003 C 
ATOM     30  C   UNL     1      24.092  -2.813  36.375  1.00  0.00     0.004 C 
ENDBRANCH  28  29
ENDBRANCH  27  28
ENDBRANCH  26  27
ENDBRANCH  25  26
ENDBRANCH  24  25
ENDBRANCH  23  24
ENDBRANCH  22  23
ENDBRANCH  21  22
ENDBRANCH  20  21
ENDBRANCH  19  20
ENDBRANCH  18  19
ENDBRANCH  17  18
ENDBRANCH   1  17
TORSDOF 26
ENDMDL
MODEL 6
REMARK VINA RESULT:    -4.598      2.018      8.659
REMARK INTER + INTRA:         -14.562
REMARK INTER:                 -12.139
REMARK INTRA:                  -2.423
REMARK UNBOUND:                -2.976
REMARK SMILES CCCCCCCCCCCCCCCCCCCCCCCCCCCC(=O)[O-]
REMARK SMILES IDX 15 1 16 2 17 3 18 4 19 5 20 6 21 7 22 8 23 9 24 10 25 11
REMARK SMILES IDX 26 12 27 13 28 14 29 15 30 16 14 17 13 18 12 19 11 20 10 21
REMARK SMILES IDX 9 22 8 23 7 24 6 25 5 26 4 27 3 28 2 29 1 30
REMARK H PARENT
REMARK Flexibility Score: inf
ROOT
ATOM      1  C   UNL     1      25.549  -1.092  37.147  1.00  0.00     0.000 C 
ENDROOT
BRANCH   1   2
ATOM      2  C   UNL     1      24.288  -1.479  36.352  1.00  0.00     0.000 C 
BRANCH   2   3
ATOM      3  C   UNL     1      23.962  -2.977  36.463  1.00  0.00     0.000 C 
BRANCH   3   4
ATOM      4  C   UNL     1      22.470  -3.235  36.743  1.00  0.00     0.000 C 
BRANCH   4   5
ATOM      5  C   UNL     1      21.923  -4.445  35.969  1.00  0.00     0.000 C 
BRANCH   5   6
ATOM      6  C   UNL     1      22.836  -5.677  36.089  1.00  0.00     0.000 C 
BRANCH   6   7
ATOM      7  C   UNL     1      23.107  -6.359  34.737  1.00  0.00     0.000 C 
BRANCH   7   8
ATOM      8  C   UNL     1      24.572  -6.777  34.483  1.00  0.00     0.000 C 
BRANCH   8   9
ATOM      9  C   UNL     1      25.389  -5.812  33.605  1.00  0.00     0.000 C 
BRANCH   9  10
ATOM     10  C   UNL     1      26.245  -4.830  34.425  1.00  0.00     0.000 C 
BRANCH  10  11
ATOM     11  C   UNL     1      26.749  -5.448  35.743  1.00  0.00     0.000 C 
BRANCH  11  12
ATOM     12  C   UNL     1      28.157  -4.978  36.161  1.00  0.00     0.006 C 
BRANCH  12  13
ATOM     13  C   UNL     1      28.212  -3.479  36.491  1.00  0.00     0.053 C 
BRANCH  13  14
ATOM     14  C   UNL     1      28.971  -3.251  37.760  1.00  0.00     0.041 C 
ATOM     15  O   UNL     1      29.864  -4.062  38.120  1.00  0.00    -0.550 OA
ATOM     16  O   UNL     1      28.711  -2.125  38.533  1.00  0.00    -0.550 OA
ENDBRANCH  13  14
ENDBRANCH  12  13
ENDBRANCH  11  12
ENDBRANCH  10  11
ENDBRANCH   9  10
ENDBRANCH   8   9
ENDBRANCH   7   8
ENDBRANCH   6   7
ENDBRANCH   5   6
ENDBRANCH   4   5
ENDBRANCH   3   4
ENDBRANCH   2   3
ENDBRANCH   1   2
BRANCH   1  17
ATOM     17  C   UNL     1      25.575   0.397  37.525  1.00  0.00     0.000 C 
BRANCH  17  18
ATOM     18  C   UNL     1      26.425   0.672  38.776  1.00  0.00     0.000 C 
BRANCH  18  19
ATOM     19  C   UNL     1      26.684   2.171  39.001  1.00  0.00     0.000 C 
BRANCH  19  20
ATOM     20  C   UNL     1      26.336   2.646  40.429  1.00  0.00     0.000 C 
BRANCH  20  21
ATOM     21  C   UNL     1      25.941   1.479  41.352  1.00  0.00     0.000 C 
BRANCH  21  22
ATOM     22  C   UNL     1      25.858   1.893  42.831  1.00  0.00    -0.000 C 
BRANCH  22  23
ATOM     23  C   UNL     1      26.395   0.814  43.782  1.00  0.00    -0.000 C 
BRANCH  23  24
ATOM     24  C   UNL     1      26.352  -0.571  43.124  1.00  0.00    -0.000 C 
BRANCH  24  25
ATOM     25  C   UNL     1      27.651  -1.346  43.388  1.00  0.00    -0.000 C 
BRANCH  25  26
ATOM     26  C   UNL     1      27.392  -2.764  43.924  1.00  0.00    -0.000 C 
BRANCH  26  27
ATOM     27  C   UNL     1      27.915  -2.957  45.358  1.00  0.00    -0.000 C 
BRANCH  27  28
ATOM     28  C   UNL     1      27.299  -4.188  46.042  1.00  0.00    -0.000 C 
BRANCH  28  29
ATOM     29  C   UNL     1      26.212  -4.852  45.184  1.00  0.00    -0.003 C 
ATOM     30  C   UNL     1      25.258  -5.670  46.048  1.00  0.00     0.004 C 
ENDBRANCH  28  29
ENDBRANCH  27  28
ENDBRANCH  26  27
ENDBRANCH  25  26
ENDBRANCH  24  25
ENDBRANCH  23  24
ENDBRANCH  22  23
ENDBRANCH  21  22
ENDBRANCH  20  21
ENDBRANCH  19  20
ENDBRANCH  18  19
ENDBRANCH  17  18
ENDBRANCH   1  17
TORSDOF 26
ENDMDL
MODEL 7
REMARK VINA RESULT:    -4.594      3.146      6.982
REMARK INTER + INTRA:         -14.553
REMARK INTER:                 -12.707
REMARK INTRA:                  -1.846
REMARK UNBOUND:                -2.976
REMARK SMILES CCCCCCCCCCCCCCCCCCCCCCCCCCCC(=O)[O-]
REMARK SMILES IDX 15 1 16 2 17 3 18 4 19 5 20 6 21 7 22 8 23 9 24 10 25 11
REMARK SMILES IDX 26 12 27 13 28 14 29 15 30 16 14 17 13 18 12 19 11 20 10 21
REMARK SMILES IDX 9 22 8 23 7 24 6 25 5 26 4 27 3 28 2 29 1 30
REMARK H PARENT
REMARK Flexibility Score: inf
ROOT
ATOM      1  C   UNL     1      25.768   3.437  41.651  1.00  0.00     0.000 C 
ENDROOT
BRANCH   1   2
ATOM      2  C   UNL     1      26.364   2.811  42.925  1.00  0.00     0.000 C 
BRANCH   2   3
ATOM      3  C   UNL     1      25.582   1.573  43.392  1.00  0.00     0.000 C 
BRANCH   3   4
ATOM      4  C   UNL     1      26.496   0.494  44.000  1.00  0.00     0.000 C 
BRANCH   4   5
ATOM      5  C   UNL     1      26.736  -0.686  43.044  1.00  0.00     0.000 C 
BRANCH   5   6
ATOM      6  C   UNL     1      27.923  -1.559  43.482  1.00  0.00     0.000 C 
BRANCH   6   7
ATOM      7  C   UNL     1      27.497  -2.778  44.320  1.00  0.00     0.000 C 
BRANCH   7   8
ATOM      8  C   UNL     1      27.065  -4.022  43.516  1.00  0.00     0.000 C 
BRANCH   8   9
ATOM      9  C   UNL     1      25.666  -4.570  43.850  1.00  0.00     0.000 C 
BRANCH   9  10
ATOM     10  C   UNL     1      25.648  -6.095  44.052  1.00  0.00     0.000 C 
BRANCH  10  11
ATOM     11  C   UNL     1      25.889  -6.497  45.520  1.00  0.00     0.000 C 
BRANCH  11  12
ATOM     12  C   UNL     1      25.278  -5.524  46.549  1.00  0.00     0.006 C 
BRANCH  12  13
ATOM     13  C   UNL     1      26.060  -5.485  47.870  1.00  0.00     0.053 C 
BRANCH  13  14
ATOM     14  C   UNL     1      25.120  -5.416  49.031  1.00  0.00     0.041 C 
ATOM     15  O   UNL     1      23.879  -5.323  48.840  1.00  0.00    -0.550 OA
ATOM     16  O   UNL     1      25.613  -5.482  50.330  1.00  0.00    -0.550 OA
ENDBRANCH  13  14
ENDBRANCH  12  13
ENDBRANCH  11  12
ENDBRANCH  10  11
ENDBRANCH   9  10
ENDBRANCH   8   9
ENDBRANCH   7   8
ENDBRANCH   6   7
ENDBRANCH   5   6
ENDBRANCH   4   5
ENDBRANCH   3   4
ENDBRANCH   2   3
ENDBRANCH   1   2
BRANCH   1  17
ATOM     17  C   UNL     1      26.387   2.866  40.367  1.00  0.00     0.000 C 
BRANCH  17  18
ATOM     18  C   UNL     1      25.409   1.973  39.588  1.00  0.00     0.000 C 
BRANCH  18  19
ATOM     19  C   UNL     1      26.099   0.766  38.930  1.00  0.00     0.000 C 
BRANCH  19  20
ATOM     20  C   UNL     1      25.547   0.432  37.527  1.00  0.00     0.000 C 
BRANCH  20  21
ATOM     21  C   UNL     1      25.637  -1.072  37.208  1.00  0.00     0.000 C 
BRANCH  21  22
ATOM     22  C   UNL     1      24.510  -1.550  36.278  1.00  0.00    -0.000 C 
BRANCH  22  23
ATOM     23  C   UNL     1      24.137  -3.023  36.503  1.00  0.00    -0.000 C 
BRANCH  23  24
ATOM     24  C   UNL     1      22.634  -3.174  36.772  1.00  0.00    -0.000 C 
BRANCH  24  25
ATOM     25  C   UNL     1      22.114  -4.521  36.247  1.00  0.00    -0.000 C 
BRANCH  25  26
ATOM     26  C   UNL     1      22.736  -4.905  34.894  1.00  0.00    -0.000 C 
BRANCH  26  27
ATOM     27  C   UNL     1      22.951  -6.422  34.754  1.00  0.00    -0.000 C 
BRANCH  27  28
ATOM     28  C   UNL     1      24.372  -6.769  34.280  1.00  0.00    -0.000 C 
BRANCH  28  29
ATOM     29  C   UNL     1      25.388  -5.671  34.628  1.00  0.00    -0.003 C 
ATOM     30  C   UNL     1      26.396  -6.167  35.659  1.00  0.00     0.004 C 
ENDBRANCH  28  29
ENDBRANCH  27  28
ENDBRANCH  26  27
ENDBRANCH  25  26
ENDBRANCH  24  25
ENDBRANCH  23  24
ENDBRANCH  22  23
ENDBRANCH  21  22
ENDBRANCH  20  21
ENDBRANCH  19  20
ENDBRANCH  18  19
ENDBRANCH  17  18
ENDBRANCH   1  17
TORSDOF 26
ENDMDL
MODEL 8
REMARK VINA RESULT:    -4.573      2.535      5.566
REMARK INTER + INTRA:         -14.500
REMARK INTER:                 -12.235
REMARK INTRA:                  -2.265
REMARK UNBOUND:                -2.976
REMARK SMILES CCCCCCCCCCCCCCCCCCCCCCCCCCCC(=O)[O-]
REMARK SMILES IDX 15 1 16 2 17 3 18 4 19 5 20 6 21 7 22 8 23 9 24 10 25 11
REMARK SMILES IDX 26 12 27 13 28 14 29 15 30 16 14 17 13 18 12 19 11 20 10 21
REMARK SMILES IDX 9 22 8 23 7 24 6 25 5 26 4 27 3 28 2 29 1 30
REMARK H PARENT
REMARK Flexibility Score: inf
ROOT
ATOM      1  C   UNL     1      26.439   1.910  39.819  1.00  0.00     0.000 C 
ENDROOT
BRANCH   1   2
ATOM      2  C   UNL     1      25.022   2.450  40.086  1.00  0.00     0.000 C 
BRANCH   2   3
ATOM      3  C   UNL     1      24.889   3.086  41.479  1.00  0.00     0.000 C 
BRANCH   3   4
ATOM      4  C   UNL     1      25.997   2.628  42.444  1.00  0.00     0.000 C 
BRANCH   4   5
ATOM      5  C   UNL     1      25.496   1.608  43.480  1.00  0.00     0.000 C 
BRANCH   5   6
ATOM      6  C   UNL     1      26.586   0.600  43.880  1.00  0.00     0.000 C 
BRANCH   6   7
ATOM      7  C   UNL     1      26.816  -0.490  42.818  1.00  0.00     0.000 C 
BRANCH   7   8
ATOM      8  C   UNL     1      27.302  -1.853  43.356  1.00  0.00     0.000 C 
BRANCH   8   9
ATOM      9  C   UNL     1      28.038  -1.803  44.707  1.00  0.00     0.000 C 
BRANCH   9  10
ATOM     10  C   UNL     1      28.062  -3.161  45.431  1.00  0.00     0.000 C 
BRANCH  10  11
ATOM     11  C   UNL     1      27.248  -4.238  44.688  1.00  0.00     0.000 C 
BRANCH  11  12
ATOM     12  C   UNL     1      26.493  -5.210  45.617  1.00  0.00     0.006 C 
BRANCH  12  13
ATOM     13  C   UNL     1      26.387  -4.696  47.059  1.00  0.00     0.053 C 
BRANCH  13  14
ATOM     14  C   UNL     1      25.686  -5.698  47.921  1.00  0.00     0.041 C 
ATOM     15  O   UNL     1      24.429  -5.752  47.939  1.00  0.00    -0.550 OA
ATOM     16  O   UNL     1      26.425  -6.594  48.687  1.00  0.00    -0.550 OA
ENDBRANCH  13  14
ENDBRANCH  12  13
ENDBRANCH  11  12
ENDBRANCH  10  11
ENDBRANCH   9  10
ENDBRANCH   8   9
ENDBRANCH   7   8
ENDBRANCH   6   7
ENDBRANCH   5   6
ENDBRANCH   4   5
ENDBRANCH   3   4
ENDBRANCH   2   3
ENDBRANCH   1   2
BRANCH   1  17
ATOM     17  C   UNL     1      26.429   0.536  39.135  1.00  0.00     0.000 C 
BRANCH  17  18
ATOM     18  C   UNL     1      25.603   0.529  37.838  1.00  0.00     0.000 C 
BRANCH  18  19
ATOM     19  C   UNL     1      25.523  -0.864  37.192  1.00  0.00     0.000 C 
BRANCH  19  20
ATOM     20  C   UNL     1      24.152  -1.165  36.548  1.00  0.00     0.000 C 
BRANCH  20  21
ATOM     21  C   UNL     1      23.948  -2.668  36.285  1.00  0.00     0.000 C 
BRANCH  21  22
ATOM     22  C   UNL     1      22.579  -3.175  36.765  1.00  0.00    -0.000 C 
BRANCH  22  23
ATOM     23  C   UNL     1      22.096  -4.410  35.992  1.00  0.00    -0.000 C 
BRANCH  23  24
ATOM     24  C   UNL     1      23.166  -5.509  35.986  1.00  0.00    -0.000 C 
BRANCH  24  25
ATOM     25  C   UNL     1      23.248  -6.192  34.612  1.00  0.00    -0.000 C 
BRANCH  25  26
ATOM     26  C   UNL     1      24.694  -6.500  34.193  1.00  0.00    -0.000 C 
BRANCH  26  27
ATOM     27  C   UNL     1      25.576  -5.239  34.147  1.00  0.00    -0.000 C 
BRANCH  27  28
ATOM     28  C   UNL     1      26.823  -5.367  35.035  1.00  0.00    -0.000 C 
BRANCH  28  29
ATOM     29  C   UNL     1      27.114  -4.082  35.824  1.00  0.00    -0.003 C 
ATOM     30  C   UNL     1      28.328  -3.355  35.256  1.00  0.00     0.004 C 
ENDBRANCH  28  29
ENDBRANCH  27  28
ENDBRANCH  26  27
ENDBRANCH  25  26
ENDBRANCH  24  25
ENDBRANCH  23  24
ENDBRANCH  22  23
ENDBRANCH  21  22
ENDBRANCH  20  21
ENDBRANCH  19  20
ENDBRANCH  18  19
ENDBRANCH  17  18
ENDBRANCH   1  17
TORSDOF 26
ENDMDL
MODEL 9
REMARK VINA RESULT:    -4.458      3.952      9.780
REMARK INTER + INTRA:         -14.210
REMARK INTER:                 -12.576
REMARK INTRA:                  -1.634
REMARK UNBOUND:                -2.976
REMARK SMILES CCCCCCCCCCCCCCCCCCCCCCCCCCCC(=O)[O-]
REMARK SMILES IDX 15 1 16 2 17 3 18 4 19 5 20 6 21 7 22 8 23 9 24 10 25 11
REMARK SMILES IDX 26 12 27 13 28 14 29 15 30 16 14 17 13 18 12 19 11 20 10 21
REMARK SMILES IDX 9 22 8 23 7 24 6 25 5 26 4 27 3 28 2 29 1 30
REMARK H PARENT
REMARK Flexibility Score: inf
ROOT
ATOM      1  C   UNL     1      25.174   2.870  41.161  1.00  0.00     0.000 C 
ENDROOT
BRANCH   1   2
ATOM      2  C   UNL     1      25.249   2.261  39.749  1.00  0.00     0.000 C 
BRANCH   2   3
ATOM      3  C   UNL     1      26.666   1.792  39.387  1.00  0.00     0.000 C 
BRANCH   3   4
ATOM      4  C   UNL     1      26.678   0.391  38.749  1.00  0.00     0.000 C 
BRANCH   4   5
ATOM      5  C   UNL     1      25.636   0.242  37.628  1.00  0.00     0.000 C 
BRANCH   5   6
ATOM      6  C   UNL     1      25.528  -1.205  37.121  1.00  0.00     0.000 C 
BRANCH   6   7
ATOM      7  C   UNL     1      24.189  -1.499  36.420  1.00  0.00     0.000 C 
BRANCH   7   8
ATOM      8  C   UNL     1      23.828  -2.992  36.270  1.00  0.00     0.000 C 
BRANCH   8   9
ATOM      9  C   UNL     1      22.443  -3.392  36.811  1.00  0.00     0.000 C 
BRANCH   9  10
ATOM     10  C   UNL     1      21.975  -4.769  36.307  1.00  0.00     0.000 C 
BRANCH  10  11
ATOM     11  C   UNL     1      22.608  -5.147  34.954  1.00  0.00     0.000 C 
BRANCH  11  12
ATOM     12  C   UNL     1      23.276  -6.537  34.937  1.00  0.00     0.006 C 
BRANCH  12  13
ATOM     13  C   UNL     1      24.150  -6.763  33.695  1.00  0.00     0.053 C 
BRANCH  13  14
ATOM     14  C   UNL     1      25.545  -6.285  33.945  1.00  0.00     0.041 C 
ATOM     15  O   UNL     1      26.311  -6.027  32.980  1.00  0.00    -0.550 OA
ATOM     16  O   UNL     1      25.993  -6.099  35.248  1.00  0.00    -0.550 OA
ENDBRANCH  13  14
ENDBRANCH  12  13
ENDBRANCH  11  12
ENDBRANCH  10  11
ENDBRANCH   9  10
ENDBRANCH   8   9
ENDBRANCH   7   8
ENDBRANCH   6   7
ENDBRANCH   5   6
ENDBRANCH   4   5
ENDBRANCH   3   4
ENDBRANCH   2   3
ENDBRANCH   1   2
BRANCH   1  17
ATOM     17  C   UNL     1      26.223   2.282  42.116  1.00  0.00     0.000 C 
BRANCH  17  18
ATOM     18  C   UNL     1      25.623   1.877  43.472  1.00  0.00     0.000 C 
BRANCH  18  19
ATOM     19  C   UNL     1      25.853   0.393  43.805  1.00  0.00     0.000 C 
BRANCH  19  20
ATOM     20  C   UNL     1      26.665  -0.360  42.729  1.00  0.00     0.000 C 
BRANCH  20  21
ATOM     21  C   UNL     1      27.647  -1.375  43.343  1.00  0.00     0.000 C 
BRANCH  21  22
ATOM     22  C   UNL     1      27.013  -2.758  43.560  1.00  0.00    -0.000 C 
BRANCH  22  23
ATOM     23  C   UNL     1      28.015  -3.797  44.084  1.00  0.00    -0.000 C 
BRANCH  23  24
ATOM     24  C   UNL     1      27.316  -5.128  44.392  1.00  0.00    -0.000 C 
BRANCH  24  25
ATOM     25  C   UNL     1      26.080  -4.908  45.278  1.00  0.00    -0.000 C 
BRANCH  25  26
ATOM     26  C   UNL     1      26.403  -5.025  46.777  1.00  0.00    -0.000 C 
BRANCH  26  27
ATOM     27  C   UNL     1      25.234  -5.613  47.587  1.00  0.00    -0.000 C 
BRANCH  27  28
ATOM     28  C   UNL     1      25.293  -5.212  49.070  1.00  0.00    -0.000 C 
BRANCH  28  29
ATOM     29  C   UNL     1      23.907  -5.211  49.732  1.00  0.00    -0.003 C 
ATOM     30  C   UNL     1      22.916  -6.042  48.924  1.00  0.00     0.004 C 
ENDBRANCH  28  29
ENDBRANCH  27  28
ENDBRANCH  26  27
ENDBRANCH  25  26
ENDBRANCH  24  25
ENDBRANCH  23  24
ENDBRANCH  22  23
ENDBRANCH  21  22
ENDBRANCH  20  21
ENDBRANCH  19  20
ENDBRANCH  18  19
ENDBRANCH  17  18
ENDBRANCH   1  17
TORSDOF 26
ENDMDL
