MODEL 1
REMARK VINA RESULT:    -7.473      0.000      0.000
REMARK INTER + INTRA:          -9.064
REMARK INTER:                  -8.784
REMARK INTRA:                  -0.281
REMARK UNBOUND:                -0.281
REMARK SMILES O=c1c(O)c(-c2ccc(O)cc2)oc2cc(O)cc(O)c12
REMARK SMILES IDX 5 1 3 2 2 3 1 4 21 5 19 6 18 7 16 8 15 9 14 10 13 11 6 12
REMARK SMILES IDX 7 13 8 14 9 15 12 16 11 17 10 18 4 20 20 22 17 24
REMARK H PARENT 10 19 4 21 20 23 17 25
REMARK Flexibility Score: inf
ROOT
ATOM      1  C   UNL     1      18.238 -11.322  19.133  1.00  0.00     0.180 A 
ATOM      2  C   UNL     1      17.651 -10.127  18.680  1.00  0.00     0.208 A 
ATOM      3  C   UNL     1      17.791  -8.964  19.454  1.00  0.00     0.238 A 
ATOM      4  O   UNL     1      17.217  -7.912  19.070  1.00  0.00    -0.285 OA
ATOM      5  C   UNL     1      18.529  -9.005  20.660  1.00  0.00     0.111 A 
ATOM      6  C   UNL     1      18.769  -7.877  21.502  1.00  0.00     0.134 A 
ATOM      7  C   UNL     1      19.402  -8.060  22.738  1.00  0.00     0.093 A 
ATOM      8  C   UNL     1      19.862  -9.319  23.132  1.00  0.00     0.123 A 
ATOM      9  C   UNL     1      19.685 -10.415  22.291  1.00  0.00     0.094 A 
ATOM     10  C   UNL     1      19.026 -10.270  21.069  1.00  0.00     0.146 A 
ATOM     11  O   UNL     1      18.869 -11.343  20.302  1.00  0.00    -0.452 OA
ENDROOT
BRANCH   1  12
ATOM     12  C   UNL     1      18.156 -12.582  18.362  1.00  0.00     0.021 A 
ATOM     13  C   UNL     1      19.180 -12.909  17.457  1.00  0.00     0.016 A 
ATOM     14  C   UNL     1      19.110 -14.084  16.702  1.00  0.00     0.047 A 
ATOM     15  C   UNL     1      18.011 -14.938  16.829  1.00  0.00     0.115 A 
ATOM     16  C   UNL     1      17.043 -13.437  18.470  1.00  0.00     0.016 A 
ATOM     17  C   UNL     1      16.975 -14.610  17.713  1.00  0.00     0.047 A 
BRANCH  15  18
ATOM     18  O   UNL     1      17.956 -16.106  16.071  1.00  0.00    -0.508 OA
ATOM     19  H   UNL     1      17.732 -17.000  16.491  1.00  0.00     0.293 HD
ENDBRANCH  15  18
ENDBRANCH   1  12
BRANCH   2  20
ATOM     20  O   UNL     1      16.907 -10.114  17.497  1.00  0.00    -0.502 OA
ATOM     21  H   UNL     1      16.497 -10.952  17.103  1.00  0.00     0.293 HD
ENDBRANCH   2  20
BRANCH   6  22
ATOM     22  O   UNL     1      18.434  -6.563  21.162  1.00  0.00    -0.507 OA
ATOM     23  H   UNL     1      18.759  -6.084  20.336  1.00  0.00     0.293 HD
ENDBRANCH   6  22
BRANCH   8  24
ATOM     24  O   UNL     1      20.504  -9.489  24.357  1.00  0.00    -0.508 OA
ATOM     25  H   UNL     1      20.662 -10.409  24.750  1.00  0.00     0.293 HD
ENDBRANCH   8  24
TORSDOF 5
ENDMDL
MODEL 2
REMARK VINA RESULT:    -6.985      1.960      7.308
REMARK INTER + INTRA:          -8.490
REMARK INTER:                  -8.204
REMARK INTRA:                  -0.286
REMARK UNBOUND:                -0.281
REMARK SMILES O=c1c(O)c(-c2ccc(O)cc2)oc2cc(O)cc(O)c12
REMARK SMILES IDX 5 1 3 2 2 3 1 4 21 5 19 6 18 7 16 8 15 9 14 10 13 11 6 12
REMARK SMILES IDX 7 13 8 14 9 15 12 16 11 17 10 18 4 20 20 22 17 24
REMARK H PARENT 10 19 4 21 20 23 17 25
REMARK Flexibility Score: inf
ROOT
ATOM      1  C   UNL     1      18.286 -11.621  17.877  1.00  0.00     0.180 A 
ATOM      2  C   UNL     1      17.638 -12.781  18.337  1.00  0.00     0.208 A 
ATOM      3  C   UNL     1      17.746 -13.964  17.588  1.00  0.00     0.238 A 
ATOM      4  O   UNL     1      17.119 -14.984  17.976  1.00  0.00    -0.285 OA
ATOM      5  C   UNL     1      18.514 -13.977  16.399  1.00  0.00     0.111 A 
ATOM      6  C   UNL     1      18.725 -15.129  15.583  1.00  0.00     0.134 A 
ATOM      7  C   UNL     1      19.394 -14.997  14.360  1.00  0.00     0.093 A 
ATOM      8  C   UNL     1      19.916 -13.765  13.955  1.00  0.00     0.123 A 
ATOM      9  C   UNL     1      19.766 -12.647  14.771  1.00  0.00     0.094 A 
ATOM     10  C   UNL     1      19.073 -12.741  15.980  1.00  0.00     0.146 A 
ATOM     11  O   UNL     1      18.944 -11.649  16.723  1.00  0.00    -0.452 OA
ENDROOT
BRANCH   1  12
ATOM     12  C   UNL     1      18.238 -10.344  18.623  1.00  0.00     0.021 A 
ATOM     13  C   UNL     1      19.232 -10.062  19.577  1.00  0.00     0.016 A 
ATOM     14  C   UNL     1      19.192  -8.871  20.308  1.00  0.00     0.047 A 
ATOM     15  C   UNL     1      18.155  -7.955  20.109  1.00  0.00     0.115 A 
ATOM     16  C   UNL     1      17.186  -9.427  18.442  1.00  0.00     0.016 A 
ATOM     17  C   UNL     1      17.149  -8.238  19.177  1.00  0.00     0.047 A 
BRANCH  15  18
ATOM     18  O   UNL     1      18.130  -6.773  20.846  1.00  0.00    -0.508 OA
ATOM     19  H   UNL     1      17.264  -6.279  21.025  1.00  0.00     0.293 HD
ENDBRANCH  15  18
ENDBRANCH   1  12
BRANCH   2  20
ATOM     20  O   UNL     1      16.867 -12.741  19.501  1.00  0.00    -0.502 OA
ATOM     21  H   UNL     1      17.136 -13.225  20.349  1.00  0.00     0.293 HD
ENDBRANCH   2  20
BRANCH   6  22
ATOM     22  O   UNL     1      18.327 -16.421  15.939  1.00  0.00    -0.507 OA
ATOM     23  H   UNL     1      18.174 -17.175  15.287  1.00  0.00     0.293 HD
ENDBRANCH   6  22
BRANCH   8  24
ATOM     24  O   UNL     1      20.593 -13.646  12.742  1.00  0.00    -0.508 OA
ATOM     25  H   UNL     1      20.097 -13.515  11.869  1.00  0.00     0.293 HD
ENDBRANCH   8  24
TORSDOF 5
ENDMDL
MODEL 3
REMARK VINA RESULT:    -6.763      3.449      6.037
REMARK INTER + INTRA:          -8.230
REMARK INTER:                  -8.063
REMARK INTRA:                  -0.168
REMARK UNBOUND:                -0.281
REMARK SMILES O=c1c(O)c(-c2ccc(O)cc2)oc2cc(O)cc(O)c12
REMARK SMILES IDX 5 1 3 2 2 3 1 4 21 5 19 6 18 7 16 8 15 9 14 10 13 11 6 12
REMARK SMILES IDX 7 13 8 14 9 15 12 16 11 17 10 18 4 20 20 22 17 24
REMARK H PARENT 10 19 4 21 20 23 17 25
REMARK Flexibility Score: inf
ROOT
ATOM      1  C   UNL     1      19.856 -15.429  16.524  1.00  0.00     0.180 A 
ATOM      2  C   UNL     1      20.029 -14.954  15.213  1.00  0.00     0.208 A 
ATOM      3  C   UNL     1      19.644 -13.638  14.909  1.00  0.00     0.238 A 
ATOM      4  O   UNL     1      19.751 -13.237  13.721  1.00  0.00    -0.285 OA
ATOM      5  C   UNL     1      19.106 -12.810  15.923  1.00  0.00     0.111 A 
ATOM      6  C   UNL     1      18.719 -11.448  15.737  1.00  0.00     0.134 A 
ATOM      7  C   UNL     1      18.079 -10.764  16.777  1.00  0.00     0.093 A 
ATOM      8  C   UNL     1      17.869 -11.372  18.018  1.00  0.00     0.123 A 
ATOM      9  C   UNL     1      18.296 -12.681  18.228  1.00  0.00     0.094 A 
ATOM     10  C   UNL     1      18.906 -13.400  17.198  1.00  0.00     0.146 A 
ATOM     11  O   UNL     1      19.288 -14.649  17.437  1.00  0.00    -0.452 OA
ENDROOT
BRANCH   1  12
ATOM     12  C   UNL     1      20.261 -16.795  16.927  1.00  0.00     0.021 A 
ATOM     13  C   UNL     1      21.378 -16.968  17.762  1.00  0.00     0.016 A 
ATOM     14  C   UNL     1      21.790 -18.251  18.136  1.00  0.00     0.047 A 
ATOM     15  C   UNL     1      21.104 -19.376  17.669  1.00  0.00     0.115 A 
ATOM     16  C   UNL     1      19.587 -17.933  16.445  1.00  0.00     0.016 A 
ATOM     17  C   UNL     1      20.003 -19.213  16.819  1.00  0.00     0.047 A 
BRANCH  15  18
ATOM     18  O   UNL     1      21.526 -20.647  18.051  1.00  0.00    -0.508 OA
ATOM     19  H   UNL     1      21.621 -20.903  19.027  1.00  0.00     0.293 HD
ENDBRANCH  15  18
ENDBRANCH   1  12
BRANCH   2  20
ATOM     20  O   UNL     1      20.541 -15.795  14.222  1.00  0.00    -0.502 OA
ATOM     21  H   UNL     1      20.611 -16.798  14.342  1.00  0.00     0.293 HD
ENDBRANCH   2  20
BRANCH   6  22
ATOM     22  O   UNL     1      18.966 -10.719  14.570  1.00  0.00    -0.507 OA
ATOM     23  H   UNL     1      19.171  -9.732  14.543  1.00  0.00     0.293 HD
ENDBRANCH   6  22
BRANCH   8  24
ATOM     24  O   UNL     1      17.244 -10.679  19.052  1.00  0.00    -0.508 OA
ATOM     25  H   UNL     1      17.008 -11.131  19.927  1.00  0.00     0.293 HD
ENDBRANCH   8  24
TORSDOF 5
ENDMDL
MODEL 4
REMARK VINA RESULT:    -6.623      2.762      6.877
REMARK INTER + INTRA:          -8.065
REMARK INTER:                  -8.027
REMARK INTRA:                  -0.038
REMARK UNBOUND:                -0.281
REMARK SMILES O=c1c(O)c(-c2ccc(O)cc2)oc2cc(O)cc(O)c12
REMARK SMILES IDX 5 1 3 2 2 3 1 4 21 5 19 6 18 7 16 8 15 9 14 10 13 11 6 12
REMARK SMILES IDX 7 13 8 14 9 15 12 16 11 17 10 18 4 20 20 22 17 24
REMARK H PARENT 10 19 4 21 20 23 17 25
REMARK Flexibility Score: inf
ROOT
ATOM      1  C   UNL     1      19.924  -8.435  20.397  1.00  0.00     0.180 A 
ATOM      2  C   UNL     1      19.924  -8.849  21.740  1.00  0.00     0.208 A 
ATOM      3  C   UNL     1      19.478 -10.142  22.054  1.00  0.00     0.238 A 
ATOM      4  O   UNL     1      19.429 -10.487  23.264  1.00  0.00    -0.285 OA
ATOM      5  C   UNL     1      19.052 -11.011  21.021  1.00  0.00     0.111 A 
ATOM      6  C   UNL     1      18.618 -12.356  21.221  1.00  0.00     0.134 A 
ATOM      7  C   UNL     1      18.096 -13.081  20.143  1.00  0.00     0.093 A 
ATOM      8  C   UNL     1      18.054 -12.531  18.858  1.00  0.00     0.123 A 
ATOM      9  C   UNL     1      18.530 -11.240  18.642  1.00  0.00     0.094 A 
ATOM     10  C   UNL     1      19.023 -10.480  19.706  1.00  0.00     0.146 A 
ATOM     11  O   UNL     1      19.457  -9.250  19.458  1.00  0.00    -0.452 OA
ENDROOT
BRANCH   1  12
ATOM     12  C   UNL     1      20.403  -7.096  19.984  1.00  0.00     0.021 A 
ATOM     13  C   UNL     1      21.479  -6.993  19.087  1.00  0.00     0.016 A 
ATOM     14  C   UNL     1      21.961  -5.737  18.702  1.00  0.00     0.047 A 
ATOM     15  C   UNL     1      21.386  -4.573  19.220  1.00  0.00     0.115 A 
ATOM     16  C   UNL     1      19.842  -5.920  20.517  1.00  0.00     0.016 A 
ATOM     17  C   UNL     1      20.327  -4.668  20.131  1.00  0.00     0.047 A 
BRANCH  15  18
ATOM     18  O   UNL     1      21.877  -3.330  18.826  1.00  0.00    -0.508 OA
ATOM     19  H   UNL     1      22.309  -3.194  17.920  1.00  0.00     0.293 HD
ENDBRANCH  15  18
ENDBRANCH   1  12
BRANCH   2  20
ATOM     20  O   UNL     1      20.327  -7.968  22.747  1.00  0.00    -0.502 OA
ATOM     21  H   UNL     1      21.297  -7.714  22.893  1.00  0.00     0.293 HD
ENDBRANCH   2  20
BRANCH   6  22
ATOM     22  O   UNL     1      18.704 -13.031  22.442  1.00  0.00    -0.507 OA
ATOM     23  H   UNL     1      18.985 -13.995  22.547  1.00  0.00     0.293 HD
ENDBRANCH   6  22
BRANCH   8  24
ATOM     24  O   UNL     1      17.547 -13.265  17.788  1.00  0.00    -0.508 OA
ATOM     25  H   UNL     1      18.065 -13.371  16.925  1.00  0.00     0.293 HD
ENDBRANCH   8  24
TORSDOF 5
ENDMDL
MODEL 5
REMARK VINA RESULT:    -6.535      1.931      3.706
REMARK INTER + INTRA:          -7.962
REMARK INTER:                  -7.960
REMARK INTRA:                  -0.002
REMARK UNBOUND:                -0.281
REMARK SMILES O=c1c(O)c(-c2ccc(O)cc2)oc2cc(O)cc(O)c12
REMARK SMILES IDX 5 1 3 2 2 3 1 4 21 5 19 6 18 7 16 8 15 9 14 10 13 11 6 12
REMARK SMILES IDX 7 13 8 14 9 15 12 16 11 17 10 18 4 20 20 22 17 24
REMARK H PARENT 10 19 4 21 20 23 17 25
REMARK Flexibility Score: inf
ROOT
ATOM      1  C   UNL     1      18.856 -12.383  18.534  1.00  0.00     0.180 A 
ATOM      2  C   UNL     1      19.221 -12.059  19.852  1.00  0.00     0.208 A 
ATOM      3  C   UNL     1      18.802 -10.833  20.393  1.00  0.00     0.238 A 
ATOM      4  O   UNL     1      19.178 -10.525  21.554  1.00  0.00    -0.285 OA
ATOM      5  C   UNL     1      18.010  -9.955  19.616  1.00  0.00     0.111 A 
ATOM      6  C   UNL     1      17.495  -8.705  20.077  1.00  0.00     0.134 A 
ATOM      7  C   UNL     1      16.832  -7.858  19.180  1.00  0.00     0.093 A 
ATOM      8  C   UNL     1      16.608  -8.245  17.856  1.00  0.00     0.123 A 
ATOM      9  C   UNL     1      17.055  -9.487  17.413  1.00  0.00     0.094 A 
ATOM     10  C   UNL     1      17.750 -10.338  18.274  1.00  0.00     0.146 A 
ATOM     11  O   UNL     1      18.167 -11.510  17.808  1.00  0.00    -0.452 OA
ENDROOT
BRANCH   1  12
ATOM     12  C   UNL     1      19.239 -13.667  17.903  1.00  0.00     0.021 A 
ATOM     13  C   UNL     1      20.596 -14.025  17.831  1.00  0.00     0.016 A 
ATOM     14  C   UNL     1      20.980 -15.222  17.219  1.00  0.00     0.047 A 
ATOM     15  C   UNL     1      20.018 -16.068  16.659  1.00  0.00     0.115 A 
ATOM     16  C   UNL     1      18.277 -14.513  17.320  1.00  0.00     0.016 A 
ATOM     17  C   UNL     1      18.665 -15.708  16.708  1.00  0.00     0.047 A 
BRANCH  15  18
ATOM     18  O   UNL     1      20.417 -17.258  16.054  1.00  0.00    -0.508 OA
ATOM     19  H   UNL     1      21.053 -17.899  16.514  1.00  0.00     0.293 HD
ENDBRANCH  15  18
ENDBRANCH   1  12
BRANCH   2  20
ATOM     20  O   UNL     1      20.023 -12.931  20.594  1.00  0.00    -0.502 OA
ATOM     21  H   UNL     1      20.967 -12.696  20.875  1.00  0.00     0.293 HD
ENDBRANCH   2  20
BRANCH   6  22
ATOM     22  O   UNL     1      17.582  -8.266  21.401  1.00  0.00    -0.507 OA
ATOM     23  H   UNL     1      17.952  -7.371  21.686  1.00  0.00     0.293 HD
ENDBRANCH   6  22
BRANCH   8  24
ATOM     24  O   UNL     1      15.935  -7.401  16.974  1.00  0.00    -0.508 OA
ATOM     25  H   UNL     1      16.430  -6.727  16.403  1.00  0.00     0.293 HD
ENDBRANCH   8  24
TORSDOF 5
ENDMDL
MODEL 6
REMARK VINA RESULT:    -6.317      2.343      7.073
REMARK INTER + INTRA:          -7.706
REMARK INTER:                  -7.425
REMARK INTRA:                  -0.281
REMARK UNBOUND:                -0.281
REMARK SMILES O=c1c(O)c(-c2ccc(O)cc2)oc2cc(O)cc(O)c12
REMARK SMILES IDX 5 1 3 2 2 3 1 4 21 5 19 6 18 7 16 8 15 9 14 10 13 11 6 12
REMARK SMILES IDX 7 13 8 14 9 15 12 16 11 17 10 18 4 20 20 22 17 24
REMARK H PARENT 10 19 4 21 20 23 17 25
REMARK Flexibility Score: inf
ROOT
ATOM      1  C   UNL     1      19.610 -11.196  17.986  1.00  0.00     0.180 A 
ATOM      2  C   UNL     1      20.333 -10.716  16.879  1.00  0.00     0.208 A 
ATOM      3  C   UNL     1      20.493 -11.547  15.759  1.00  0.00     0.238 A 
ATOM      4  O   UNL     1      21.188 -11.133  14.794  1.00  0.00    -0.285 OA
ATOM      5  C   UNL     1      19.915 -12.839  15.751  1.00  0.00     0.111 A 
ATOM      6  C   UNL     1      19.980 -13.749  14.653  1.00  0.00     0.134 A 
ATOM      7  C   UNL     1      19.483 -15.050  14.804  1.00  0.00     0.093 A 
ATOM      8  C   UNL     1      18.866 -15.451  15.992  1.00  0.00     0.123 A 
ATOM      9  C   UNL     1      18.745 -14.552  17.048  1.00  0.00     0.094 A 
ATOM     10  C   UNL     1      19.263 -13.259  16.939  1.00  0.00     0.146 A 
ATOM     11  O   UNL     1      19.136 -12.436  17.974  1.00  0.00    -0.452 OA
ENDROOT
BRANCH   1  12
ATOM     12  C   UNL     1      19.378 -10.371  19.193  1.00  0.00     0.021 A 
ATOM     13  C   UNL     1      18.209  -9.598  19.288  1.00  0.00     0.016 A 
ATOM     14  C   UNL     1      17.981  -8.794  20.410  1.00  0.00     0.047 A 
ATOM     15  C   UNL     1      18.923  -8.741  21.441  1.00  0.00     0.115 A 
ATOM     16  C   UNL     1      20.332 -10.297  20.226  1.00  0.00     0.016 A 
ATOM     17  C   UNL     1      20.102  -9.492  21.344  1.00  0.00     0.047 A 
BRANCH  15  18
ATOM     18  O   UNL     1      18.682  -7.936  22.553  1.00  0.00    -0.508 OA
ATOM     19  H   UNL     1      17.745  -7.636  22.796  1.00  0.00     0.293 HD
ENDBRANCH  15  18
ENDBRANCH   1  12
BRANCH   2  20
ATOM     20  O   UNL     1      20.915  -9.447  16.917  1.00  0.00    -0.502 OA
ATOM     21  H   UNL     1      21.109  -8.962  17.785  1.00  0.00     0.293 HD
ENDBRANCH   2  20
BRANCH   6  22
ATOM     22  O   UNL     1      20.491 -13.419  13.395  1.00  0.00    -0.507 OA
ATOM     23  H   UNL     1      20.109 -13.740  12.518  1.00  0.00     0.293 HD
ENDBRANCH   6  22
BRANCH   8  24
ATOM     24  O   UNL     1      18.362 -16.743  16.128  1.00  0.00    -0.508 OA
ATOM     25  H   UNL     1      17.531 -17.043  15.633  1.00  0.00     0.293 HD
ENDBRANCH   8  24
TORSDOF 5
ENDMDL
MODEL 7
REMARK VINA RESULT:    -6.314      2.303      7.022
REMARK INTER + INTRA:          -7.702
REMARK INTER:                  -7.425
REMARK INTRA:                  -0.277
REMARK UNBOUND:                -0.281
REMARK SMILES O=c1c(O)c(-c2ccc(O)cc2)oc2cc(O)cc(O)c12
REMARK SMILES IDX 5 1 3 2 2 3 1 4 21 5 19 6 18 7 16 8 15 9 14 10 13 11 6 12
REMARK SMILES IDX 7 13 8 14 9 15 12 16 11 17 10 18 4 20 20 22 17 24
REMARK H PARENT 10 19 4 21 20 23 17 25
REMARK Flexibility Score: inf
ROOT
ATOM      1  C   UNL     1      19.763 -11.853  18.008  1.00  0.00     0.180 A 
ATOM      2  C   UNL     1      19.406 -11.518  16.690  1.00  0.00     0.208 A 
ATOM      3  C   UNL     1      19.386 -12.527  15.714  1.00  0.00     0.238 A 
ATOM      4  O   UNL     1      19.119 -12.211  14.525  1.00  0.00    -0.285 OA
ATOM      5  C   UNL     1      19.706 -13.859  16.070  1.00  0.00     0.111 A 
ATOM      6  C   UNL     1      19.679 -14.967  15.171  1.00  0.00     0.134 A 
ATOM      7  C   UNL     1      20.140 -16.218  15.601  1.00  0.00     0.093 A 
ATOM      8  C   UNL     1      20.567 -16.414  16.917  1.00  0.00     0.123 A 
ATOM      9  C   UNL     1      20.542 -15.352  17.818  1.00  0.00     0.094 A 
ATOM     10  C   UNL     1      20.120 -14.085  17.408  1.00  0.00     0.146 A 
ATOM     11  O   UNL     1      20.122 -13.098  18.297  1.00  0.00    -0.452 OA
ENDROOT
BRANCH   1  12
ATOM     12  C   UNL     1      19.784 -10.850  19.097  1.00  0.00     0.021 A 
ATOM     13  C   UNL     1      20.932 -10.063  19.292  1.00  0.00     0.016 A 
ATOM     14  C   UNL     1      20.979  -9.126  20.329  1.00  0.00     0.047 A 
ATOM     15  C   UNL     1      19.891  -8.974  21.193  1.00  0.00     0.115 A 
ATOM     16  C   UNL     1      18.699 -10.706  19.983  1.00  0.00     0.016 A 
ATOM     17  C   UNL     1      18.751  -9.770  21.019  1.00  0.00     0.047 A 
BRANCH  15  18
ATOM     18  O   UNL     1      19.954  -8.036  22.220  1.00  0.00    -0.508 OA
ATOM     19  H   UNL     1      20.839  -7.746  22.619  1.00  0.00     0.293 HD
ENDBRANCH  15  18
ENDBRANCH   1  12
BRANCH   2  20
ATOM     20  O   UNL     1      19.116 -10.193  16.355  1.00  0.00    -0.502 OA
ATOM     21  H   UNL     1      18.263  -9.732  16.649  1.00  0.00     0.293 HD
ENDBRANCH   2  20
BRANCH   6  22
ATOM     22  O   UNL     1      19.185 -14.901  13.865  1.00  0.00    -0.507 OA
ATOM     23  H   UNL     1      19.730 -15.080  13.035  1.00  0.00     0.293 HD
ENDBRANCH   6  22
BRANCH   8  24
ATOM     24  O   UNL     1      21.010 -17.665  17.341  1.00  0.00    -0.508 OA
ATOM     25  H   UNL     1      20.416 -18.285  17.877  1.00  0.00     0.293 HD
ENDBRANCH   8  24
TORSDOF 5
ENDMDL
MODEL 8
REMARK VINA RESULT:    -6.284      1.740      2.920
REMARK INTER + INTRA:          -7.667
REMARK INTER:                  -7.372
REMARK INTRA:                  -0.295
REMARK UNBOUND:                -0.281
REMARK SMILES O=c1c(O)c(-c2ccc(O)cc2)oc2cc(O)cc(O)c12
REMARK SMILES IDX 5 1 3 2 2 3 1 4 21 5 19 6 18 7 16 8 15 9 14 10 13 11 6 12
REMARK SMILES IDX 7 13 8 14 9 15 12 16 11 17 10 18 4 20 20 22 17 24
REMARK H PARENT 10 19 4 21 20 23 17 25
REMARK Flexibility Score: inf
ROOT
ATOM      1  C   UNL     1      19.164 -11.914  19.470  1.00  0.00     0.180 A 
ATOM      2  C   UNL     1      19.022 -11.963  20.867  1.00  0.00     0.208 A 
ATOM      3  C   UNL     1      19.254 -10.799  21.617  1.00  0.00     0.238 A 
ATOM      4  O   UNL     1      19.179 -10.864  22.872  1.00  0.00    -0.285 OA
ATOM      5  C   UNL     1      19.608  -9.597  20.959  1.00  0.00     0.111 A 
ATOM      6  C   UNL     1      19.827  -8.348  21.616  1.00  0.00     0.134 A 
ATOM      7  C   UNL     1      20.300  -7.254  20.880  1.00  0.00     0.093 A 
ATOM      8  C   UNL     1      20.500  -7.347  19.500  1.00  0.00     0.123 A 
ATOM      9  C   UNL     1      20.233  -8.545  18.841  1.00  0.00     0.094 A 
ATOM     10  C   UNL     1      19.794  -9.663  19.554  1.00  0.00     0.146 A 
ATOM     11  O   UNL     1      19.561 -10.788  18.888  1.00  0.00    -0.452 OA
ENDROOT
BRANCH   1  12
ATOM     12  C   UNL     1      18.913 -13.093  18.610  1.00  0.00     0.021 A 
ATOM     13  C   UNL     1      19.995 -13.881  18.182  1.00  0.00     0.016 A 
ATOM     14  C   UNL     1      19.781 -14.985  17.352  1.00  0.00     0.047 A 
ATOM     15  C   UNL     1      18.489 -15.307  16.926  1.00  0.00     0.115 A 
ATOM     16  C   UNL     1      17.617 -13.411  18.161  1.00  0.00     0.016 A 
ATOM     17  C   UNL     1      17.408 -14.514  17.329  1.00  0.00     0.047 A 
BRANCH  15  18
ATOM     18  O   UNL     1      18.293 -16.411  16.099  1.00  0.00    -0.508 OA
ATOM     19  H   UNL     1      19.043 -17.061  15.896  1.00  0.00     0.293 HD
ENDBRANCH  15  18
ENDBRANCH   1  12
BRANCH   2  20
ATOM     20  O   UNL     1      18.694 -13.166  21.498  1.00  0.00    -0.502 OA
ATOM     21  H   UNL     1      17.989 -13.226  22.223  1.00  0.00     0.293 HD
ENDBRANCH   2  20
BRANCH   6  22
ATOM     22  O   UNL     1      19.570  -8.123  22.971  1.00  0.00    -0.507 OA
ATOM     23  H   UNL     1      18.875  -7.483  23.325  1.00  0.00     0.293 HD
ENDBRANCH   6  22
BRANCH   8  24
ATOM     24  O   UNL     1      20.957  -6.250  18.773  1.00  0.00    -0.508 OA
ATOM     25  H   UNL     1      20.524  -5.339  18.861  1.00  0.00     0.293 HD
ENDBRANCH   8  24
TORSDOF 5
ENDMDL
MODEL 9
REMARK VINA RESULT:    -6.233      1.749      3.432
REMARK INTER + INTRA:          -7.607
REMARK INTER:                  -7.325
REMARK INTRA:                  -0.282
REMARK UNBOUND:                -0.281
REMARK SMILES O=c1c(O)c(-c2ccc(O)cc2)oc2cc(O)cc(O)c12
REMARK SMILES IDX 5 1 3 2 2 3 1 4 21 5 19 6 18 7 16 8 15 9 14 10 13 11 6 12
REMARK SMILES IDX 7 13 8 14 9 15 12 16 11 17 10 18 4 20 20 22 17 24
REMARK H PARENT 10 19 4 21 20 23 17 25
REMARK Flexibility Score: inf
ROOT
ATOM      1  C   UNL     1      19.775 -12.013  18.648  1.00  0.00     0.180 A 
ATOM      2  C   UNL     1      20.605 -12.475  19.685  1.00  0.00     0.208 A 
ATOM      3  C   UNL     1      20.716 -11.712  20.858  1.00  0.00     0.238 A 
ATOM      4  O   UNL     1      21.503 -12.102  21.760  1.00  0.00    -0.285 OA
ATOM      5  C   UNL     1      19.985 -10.507  20.987  1.00  0.00     0.111 A 
ATOM      6  C   UNL     1      19.992  -9.675  22.148  1.00  0.00     0.134 A 
ATOM      7  C   UNL     1      19.333  -8.440  22.117  1.00  0.00     0.093 A 
ATOM      8  C   UNL     1      18.613  -8.036  20.988  1.00  0.00     0.123 A 
ATOM      9  C   UNL     1      18.552  -8.867  19.873  1.00  0.00     0.094 A 
ATOM     10  C   UNL     1      19.229 -10.089  19.862  1.00  0.00     0.146 A 
ATOM     11  O   UNL     1      19.153 -10.846  18.774  1.00  0.00    -0.452 OA
ENDROOT
BRANCH   1  12
ATOM     12  C   UNL     1      19.586 -12.774  17.392  1.00  0.00     0.021 A 
ATOM     13  C   UNL     1      18.638 -13.810  17.346  1.00  0.00     0.016 A 
ATOM     14  C   UNL     1      18.461 -14.555  16.176  1.00  0.00     0.047 A 
ATOM     15  C   UNL     1      19.237 -14.286  15.045  1.00  0.00     0.115 A 
ATOM     16  C   UNL     1      20.378 -12.521  16.256  1.00  0.00     0.016 A 
ATOM     17  C   UNL     1      20.199 -13.269  15.089  1.00  0.00     0.047 A 
BRANCH  15  18
ATOM     18  O   UNL     1      19.048 -15.036  13.886  1.00  0.00    -0.508 OA
ATOM     19  H   UNL     1      18.120 -15.244  13.535  1.00  0.00     0.293 HD
ENDBRANCH  15  18
ENDBRANCH   1  12
BRANCH   2  20
ATOM     20  O   UNL     1      21.335 -13.655  19.528  1.00  0.00    -0.502 OA
ATOM     21  H   UNL     1      21.984 -13.991  20.229  1.00  0.00     0.293 HD
ENDBRANCH   2  20
BRANCH   6  22
ATOM     22  O   UNL     1      20.601 -10.026  23.357  1.00  0.00    -0.507 OA
ATOM     23  H   UNL     1      20.808  -9.381  24.103  1.00  0.00     0.293 HD
ENDBRANCH   6  22
BRANCH   8  24
ATOM     24  O   UNL     1      17.949  -6.812  20.971  1.00  0.00    -0.508 OA
ATOM     25  H   UNL     1      18.447  -5.937  21.075  1.00  0.00     0.293 HD
ENDBRANCH   8  24
TORSDOF 5
ENDMDL
