MODEL 1
REMARK VINA RESULT:    -3.612      0.000      0.000
REMARK INTER + INTRA:         -11.953
REMARK INTER:                  -7.835
REMARK INTRA:                  -4.118
REMARK UNBOUND:                -4.118
REMARK SMILES CCCCCCCCCCCCCCCCCCCCCC(=O)[O-]
REMARK SMILES IDX 12 1 11 2 10 3 9 4 8 5 7 6 6 7 5 8 4 9 3 10 2 11 1 12 13 13
REMARK SMILES IDX 14 14 15 15 16 16 17 17 18 18 19 19 20 20 21 21 22 22 23 23
REMARK SMILES IDX 24 24
REMARK H PARENT
REMARK Flexibility Score: inf
ROOT
ATOM      1  C   UNL     1     127.558 142.061 107.529  1.00  0.00     0.000 C 
ENDROOT
BRANCH   1   2
ATOM      2  C   UNL     1     127.079 142.569 106.160  1.00  0.00     0.000 C 
BRANCH   2   3
ATOM      3  C   UNL     1     128.131 143.427 105.440  1.00  0.00     0.000 C 
BRANCH   3   4
ATOM      4  C   UNL     1     127.562 144.752 104.912  1.00  0.00    -0.000 C 
BRANCH   4   5
ATOM      5  C   UNL     1     126.882 145.541 106.043  1.00  0.00    -0.000 C 
BRANCH   5   6
ATOM      6  C   UNL     1     127.824 145.808 107.227  1.00  0.00    -0.000 C 
BRANCH   6   7
ATOM      7  C   UNL     1     127.162 145.520 108.585  1.00  0.00    -0.000 C 
BRANCH   7   8
ATOM      8  C   UNL     1     128.178 145.440 109.738  1.00  0.00    -0.000 C 
BRANCH   8   9
ATOM      9  C   UNL     1     129.577 145.999 109.411  1.00  0.00    -0.000 C 
BRANCH   9  10
ATOM     10  C   UNL     1     130.527 146.121 110.616  1.00  0.00    -0.000 C 
BRANCH  10  11
ATOM     11  C   UNL     1     130.959 144.757 111.175  1.00  0.00    -0.003 C 
ATOM     12  C   UNL     1     132.397 144.799 111.683  1.00  0.00     0.004 C 
ENDBRANCH  10  11
ENDBRANCH   9  10
ENDBRANCH   8   9
ENDBRANCH   7   8
ENDBRANCH   6   7
ENDBRANCH   5   6
ENDBRANCH   4   5
ENDBRANCH   3   4
ENDBRANCH   2   3
ENDBRANCH   1   2
BRANCH   1  13
ATOM     13  C   UNL     1     129.040 141.664 107.474  1.00  0.00     0.000 C 
BRANCH  13  14
ATOM     14  C   UNL     1     129.901 142.402 108.513  1.00  0.00     0.000 C 
BRANCH  14  15
ATOM     15  C   UNL     1     131.255 142.918 107.988  1.00  0.00     0.000 C 
BRANCH  15  16
ATOM     16  C   UNL     1     131.502 142.620 106.492  1.00  0.00     0.000 C 
BRANCH  16  17
ATOM     17  C   UNL     1     131.869 143.888 105.699  1.00  0.00     0.000 C 
BRANCH  17  18
ATOM     18  C   UNL     1     131.257 145.169 106.296  1.00  0.00     0.000 C 
BRANCH  18  19
ATOM     19  C   UNL     1     132.194 146.391 106.305  1.00  0.00     0.000 C 
BRANCH  19  20
ATOM     20  C   UNL     1     132.748 146.711 107.702  1.00  0.00     0.006 C 
BRANCH  20  21
ATOM     21  C   UNL     1     133.780 145.669 108.140  1.00  0.00     0.053 C 
BRANCH  21  22
ATOM     22  C   UNL     1     135.080 145.886 107.432  1.00  0.00     0.041 C 
ATOM     23  O   UNL     1     135.767 146.915 107.666  1.00  0.00    -0.550 OA
ATOM     24  O   UNL     1     135.519 144.967 106.488  1.00  0.00    -0.550 OA
ENDBRANCH  21  22
ENDBRANCH  20  21
ENDBRANCH  19  20
ENDBRANCH  18  19
ENDBRANCH  17  18
ENDBRANCH  16  17
ENDBRANCH  15  16
ENDBRANCH  14  15
ENDBRANCH  13  14
ENDBRANCH   1  13
TORSDOF 20
ENDMDL
MODEL 2
REMARK VINA RESULT:    -3.588      2.196      4.122
REMARK INTER + INTRA:         -11.901
REMARK INTER:                  -8.552
REMARK INTRA:                  -3.349
REMARK UNBOUND:                -4.118
REMARK SMILES CCCCCCCCCCCCCCCCCCCCCC(=O)[O-]
REMARK SMILES IDX 12 1 11 2 10 3 9 4 8 5 7 6 6 7 5 8 4 9 3 10 2 11 1 12 13 13
REMARK SMILES IDX 14 14 15 15 16 16 17 17 18 18 19 19 20 20 21 21 22 22 23 23
REMARK SMILES IDX 24 24
REMARK H PARENT
REMARK Flexibility Score: inf
ROOT
ATOM      1  C   UNL     1     128.720 146.086 109.127  1.00  0.00     0.000 C 
ENDROOT
BRANCH   1   2
ATOM      2  C   UNL     1     127.324 146.312 108.527  1.00  0.00     0.000 C 
BRANCH   2   3
ATOM      3  C   UNL     1     127.016 145.362 107.358  1.00  0.00     0.000 C 
BRANCH   3   4
ATOM      4  C   UNL     1     126.878 146.095 106.015  1.00  0.00    -0.000 C 
BRANCH   4   5
ATOM      5  C   UNL     1     127.480 145.259 104.875  1.00  0.00    -0.000 C 
BRANCH   5   6
ATOM      6  C   UNL     1     127.397 143.749 105.142  1.00  0.00    -0.000 C 
BRANCH   6   7
ATOM      7  C   UNL     1     128.783 143.091 105.247  1.00  0.00    -0.000 C 
BRANCH   7   8
ATOM      8  C   UNL     1     128.784 141.844 106.150  1.00  0.00    -0.000 C 
BRANCH   8   9
ATOM      9  C   UNL     1     127.727 141.853 107.272  1.00  0.00    -0.000 C 
BRANCH   9  10
ATOM     10  C   UNL     1     128.255 141.477 108.668  1.00  0.00    -0.000 C 
BRANCH  10  11
ATOM     11  C   UNL     1     129.688 140.923 108.633  1.00  0.00    -0.003 C 
ATOM     12  C   UNL     1     130.634 141.790 109.458  1.00  0.00     0.004 C 
ENDBRANCH  10  11
ENDBRANCH   9  10
ENDBRANCH   8   9
ENDBRANCH   7   8
ENDBRANCH   6   7
ENDBRANCH   5   6
ENDBRANCH   4   5
ENDBRANCH   3   4
ENDBRANCH   2   3
ENDBRANCH   1   2
BRANCH   1  13
ATOM     13  C   UNL     1     129.492 145.027 108.327  1.00  0.00     0.000 C 
BRANCH  13  14
ATOM     14  C   UNL     1     130.793 145.568 107.707  1.00  0.00     0.000 C 
BRANCH  14  15
ATOM     15  C   UNL     1     130.656 146.096 106.266  1.00  0.00     0.000 C 
BRANCH  15  16
ATOM     16  C   UNL     1     131.906 146.842 105.749  1.00  0.00     0.000 C 
BRANCH  16  17
ATOM     17  C   UNL     1     133.213 146.147 106.171  1.00  0.00     0.000 C 
BRANCH  17  18
ATOM     18  C   UNL     1     134.221 146.007 105.016  1.00  0.00     0.000 C 
BRANCH  18  19
ATOM     19  C   UNL     1     135.379 145.027 105.280  1.00  0.00     0.000 C 
BRANCH  19  20
ATOM     20  C   UNL     1     134.922 143.730 105.967  1.00  0.00     0.006 C 
BRANCH  20  21
ATOM     21  C   UNL     1     134.316 142.753 104.957  1.00  0.00     0.053 C 
BRANCH  21  22
ATOM     22  C   UNL     1     132.839 142.632 105.162  1.00  0.00     0.041 C 
ATOM     23  O   UNL     1     132.062 142.590 104.172  1.00  0.00    -0.550 OA
ATOM     24  O   UNL     1     132.317 142.597 106.449  1.00  0.00    -0.550 OA
ENDBRANCH  21  22
ENDBRANCH  20  21
ENDBRANCH  19  20
ENDBRANCH  18  19
ENDBRANCH  17  18
ENDBRANCH  16  17
ENDBRANCH  15  16
ENDBRANCH  14  15
ENDBRANCH  13  14
ENDBRANCH   1  13
TORSDOF 20
ENDMDL
MODEL 3
REMARK VINA RESULT:    -3.574      2.268      5.981
REMARK INTER + INTRA:         -11.871
REMARK INTER:                  -8.350
REMARK INTRA:                  -3.520
REMARK UNBOUND:                -4.118
REMARK SMILES CCCCCCCCCCCCCCCCCCCCCC(=O)[O-]
REMARK SMILES IDX 12 1 11 2 10 3 9 4 8 5 7 6 6 7 5 8 4 9 3 10 2 11 1 12 13 13
REMARK SMILES IDX 14 14 15 15 16 16 17 17 18 18 19 19 20 20 21 21 22 22 23 23
REMARK SMILES IDX 24 24
REMARK H PARENT
REMARK Flexibility Score: inf
ROOT
ATOM      1  C   UNL     1     129.875 144.995 105.925  1.00  0.00     0.000 C 
ENDROOT
BRANCH   1   2
ATOM      2  C   UNL     1     130.944 146.051 106.243  1.00  0.00     0.000 C 
BRANCH   2   3
ATOM      3  C   UNL     1     132.037 145.528 107.189  1.00  0.00     0.000 C 
BRANCH   3   4
ATOM      4  C   UNL     1     133.269 146.445 107.241  1.00  0.00    -0.000 C 
BRANCH   4   5
ATOM      5  C   UNL     1     134.560 145.632 107.057  1.00  0.00    -0.000 C 
BRANCH   5   6
ATOM      6  C   UNL     1     135.330 146.024 105.787  1.00  0.00    -0.000 C 
BRANCH   6   7
ATOM      7  C   UNL     1     134.580 145.643 104.500  1.00  0.00    -0.000 C 
BRANCH   7   8
ATOM      8  C   UNL     1     134.679 144.142 104.173  1.00  0.00    -0.000 C 
BRANCH   8   9
ATOM      9  C   UNL     1     133.362 143.356 104.327  1.00  0.00    -0.000 C 
BRANCH   9  10
ATOM     10  C   UNL     1     133.248 142.521 105.615  1.00  0.00    -0.000 C 
BRANCH  10  11
ATOM     11  C   UNL     1     131.843 141.937 105.825  1.00  0.00    -0.003 C 
ATOM     12  C   UNL     1     131.791 141.060 107.073  1.00  0.00     0.004 C 
ENDBRANCH  10  11
ENDBRANCH   9  10
ENDBRANCH   8   9
ENDBRANCH   7   8
ENDBRANCH   6   7
ENDBRANCH   5   6
ENDBRANCH   4   5
ENDBRANCH   3   4
ENDBRANCH   2   3
ENDBRANCH   1   2
BRANCH   1  13
ATOM     13  C   UNL     1     128.526 145.661 105.618  1.00  0.00     0.000 C 
BRANCH  13  14
ATOM     14  C   UNL     1     127.430 144.654 105.229  1.00  0.00     0.000 C 
BRANCH  14  15
ATOM     15  C   UNL     1     127.843 143.172 105.329  1.00  0.00     0.000 C 
BRANCH  15  16
ATOM     16  C   UNL     1     127.235 142.431 106.540  1.00  0.00     0.000 C 
BRANCH  16  17
ATOM     17  C   UNL     1     128.296 142.082 107.600  1.00  0.00     0.000 C 
BRANCH  17  18
ATOM     18  C   UNL     1     128.064 142.800 108.943  1.00  0.00     0.000 C 
BRANCH  18  19
ATOM     19  C   UNL     1     127.496 144.226 108.825  1.00  0.00     0.000 C 
BRANCH  19  20
ATOM     20  C   UNL     1     127.982 145.160 109.945  1.00  0.00     0.006 C 
BRANCH  20  21
ATOM     21  C   UNL     1     129.085 146.096 109.445  1.00  0.00     0.053 C 
BRANCH  21  22
ATOM     22  C   UNL     1     130.224 146.133 110.414  1.00  0.00     0.041 C 
ATOM     23  O   UNL     1     131.109 147.024 110.320  1.00  0.00    -0.550 OA
ATOM     24  O   UNL     1     130.326 145.164 111.404  1.00  0.00    -0.550 OA
ENDBRANCH  21  22
ENDBRANCH  20  21
ENDBRANCH  19  20
ENDBRANCH  18  19
ENDBRANCH  17  18
ENDBRANCH  16  17
ENDBRANCH  15  16
ENDBRANCH  14  15
ENDBRANCH  13  14
ENDBRANCH   1  13
TORSDOF 20
ENDMDL
MODEL 4
REMARK VINA RESULT:    -3.567      2.998      5.306
REMARK INTER + INTRA:         -11.855
REMARK INTER:                  -7.921
REMARK INTRA:                  -3.934
REMARK UNBOUND:                -4.118
REMARK SMILES CCCCCCCCCCCCCCCCCCCCCC(=O)[O-]
REMARK SMILES IDX 12 1 11 2 10 3 9 4 8 5 7 6 6 7 5 8 4 9 3 10 2 11 1 12 13 13
REMARK SMILES IDX 14 14 15 15 16 16 17 17 18 18 19 19 20 20 21 21 22 22 23 23
REMARK SMILES IDX 24 24
REMARK H PARENT
REMARK Flexibility Score: inf
ROOT
ATOM      1  C   UNL     1     130.466 142.651 107.445  1.00  0.00     0.000 C 
ENDROOT
BRANCH   1   2
ATOM      2  C   UNL     1     130.895 142.900 105.991  1.00  0.00     0.000 C 
BRANCH   2   3
ATOM      3  C   UNL     1     131.802 144.132 105.839  1.00  0.00     0.000 C 
BRANCH   3   4
ATOM      4  C   UNL     1     131.051 145.455 106.054  1.00  0.00    -0.000 C 
BRANCH   4   5
ATOM      5  C   UNL     1     132.038 146.606 106.303  1.00  0.00    -0.000 C 
BRANCH   5   6
ATOM      6  C   UNL     1     133.463 146.112 106.594  1.00  0.00    -0.000 C 
BRANCH   6   7
ATOM      7  C   UNL     1     133.934 146.471 108.013  1.00  0.00    -0.000 C 
BRANCH   7   8
ATOM      8  C   UNL     1     134.412 145.245 108.811  1.00  0.00    -0.000 C 
BRANCH   8   9
ATOM      9  C   UNL     1     133.289 144.296 109.278  1.00  0.00    -0.000 C 
BRANCH   9  10
ATOM     10  C   UNL     1     132.013 144.995 109.779  1.00  0.00    -0.000 C 
BRANCH  10  11
ATOM     11  C   UNL     1     132.214 145.711 111.124  1.00  0.00    -0.003 C 
ATOM     12  C   UNL     1     131.371 146.981 111.203  1.00  0.00     0.004 C 
ENDBRANCH  10  11
ENDBRANCH   9  10
ENDBRANCH   8   9
ENDBRANCH   7   8
ENDBRANCH   6   7
ENDBRANCH   5   6
ENDBRANCH   4   5
ENDBRANCH   3   4
ENDBRANCH   2   3
ENDBRANCH   1   2
BRANCH   1  13
ATOM     13  C   UNL     1     129.059 142.037 107.499  1.00  0.00     0.000 C 
BRANCH  13  14
ATOM     14  C   UNL     1     128.379 141.966 106.121  1.00  0.00     0.000 C 
BRANCH  14  15
ATOM     15  C   UNL     1     127.219 142.960 105.916  1.00  0.00     0.000 C 
BRANCH  15  16
ATOM     16  C   UNL     1     127.570 144.152 104.998  1.00  0.00     0.000 C 
BRANCH  16  17
ATOM     17  C   UNL     1     127.321 145.508 105.684  1.00  0.00     0.000 C 
BRANCH  17  18
ATOM     18  C   UNL     1     127.104 145.383 107.204  1.00  0.00     0.000 C 
BRANCH  18  19
ATOM     19  C   UNL     1     128.197 146.036 108.069  1.00  0.00     0.000 C 
BRANCH  19  20
ATOM     20  C   UNL     1     128.483 145.257 109.363  1.00  0.00     0.006 C 
BRANCH  20  21
ATOM     21  C   UNL     1     127.240 145.187 110.253  1.00  0.00     0.053 C 
BRANCH  21  22
ATOM     22  C   UNL     1     127.317 144.010 111.173  1.00  0.00     0.041 C 
ATOM     23  O   UNL     1     127.498 144.180 112.408  1.00  0.00    -0.550 OA
ATOM     24  O   UNL     1     127.220 142.722 110.663  1.00  0.00    -0.550 OA
ENDBRANCH  21  22
ENDBRANCH  20  21
ENDBRANCH  19  20
ENDBRANCH  18  19
ENDBRANCH  17  18
ENDBRANCH  16  17
ENDBRANCH  15  16
ENDBRANCH  14  15
ENDBRANCH  13  14
ENDBRANCH   1  13
TORSDOF 20
ENDMDL
MODEL 5
REMARK VINA RESULT:    -3.554      3.528      6.898
REMARK INTER + INTRA:         -11.826
REMARK INTER:                  -8.647
REMARK INTRA:                  -3.179
REMARK UNBOUND:                -4.118
REMARK SMILES CCCCCCCCCCCCCCCCCCCCCC(=O)[O-]
REMARK SMILES IDX 12 1 11 2 10 3 9 4 8 5 7 6 6 7 5 8 4 9 3 10 2 11 1 12 13 13
REMARK SMILES IDX 14 14 15 15 16 16 17 17 18 18 19 19 20 20 21 21 22 22 23 23
REMARK SMILES IDX 24 24
REMARK H PARENT
REMARK Flexibility Score: inf
ROOT
ATOM      1  C   UNL     1     129.022 145.382 108.794  1.00  0.00     0.000 C 
ENDROOT
BRANCH   1   2
ATOM      2  C   UNL     1     130.036 144.308 108.371  1.00  0.00     0.000 C 
BRANCH   2   3
ATOM      3  C   UNL     1     131.309 144.902 107.748  1.00  0.00     0.000 C 
BRANCH   3   4
ATOM      4  C   UNL     1     131.061 145.529 106.367  1.00  0.00    -0.000 C 
BRANCH   4   5
ATOM      5  C   UNL     1     132.224 146.453 105.973  1.00  0.00    -0.000 C 
BRANCH   5   6
ATOM      6  C   UNL     1     133.412 146.356 106.942  1.00  0.00    -0.000 C 
BRANCH   6   7
ATOM      7  C   UNL     1     134.697 145.867 106.254  1.00  0.00    -0.000 C 
BRANCH   7   8
ATOM      8  C   UNL     1     134.524 145.671 104.737  1.00  0.00    -0.000 C 
BRANCH   8   9
ATOM      9  C   UNL     1     134.702 144.220 104.245  1.00  0.00    -0.000 C 
BRANCH   9  10
ATOM     10  C   UNL     1     133.436 143.349 104.317  1.00  0.00    -0.000 C 
BRANCH  10  11
ATOM     11  C   UNL     1     133.408 142.437 105.553  1.00  0.00    -0.003 C 
ATOM     12  C   UNL     1     132.020 141.843 105.769  1.00  0.00     0.004 C 
ENDBRANCH  10  11
ENDBRANCH   9  10
ENDBRANCH   8   9
ENDBRANCH   7   8
ENDBRANCH   6   7
ENDBRANCH   5   6
ENDBRANCH   4   5
ENDBRANCH   3   4
ENDBRANCH   2   3
ENDBRANCH   1   2
BRANCH   1  13
ATOM     13  C   UNL     1     127.593 144.956 108.425  1.00  0.00     0.000 C 
BRANCH  13  14
ATOM     14  C   UNL     1     126.983 145.805 107.295  1.00  0.00     0.000 C 
BRANCH  14  15
ATOM     15  C   UNL     1     127.735 145.736 105.952  1.00  0.00     0.000 C 
BRANCH  15  16
ATOM     16  C   UNL     1     127.287 144.571 105.041  1.00  0.00     0.000 C 
BRANCH  16  17
ATOM     17  C   UNL     1     128.142 143.307 105.251  1.00  0.00     0.000 C 
BRANCH  17  18
ATOM     18  C   UNL     1     127.414 142.214 106.055  1.00  0.00     0.000 C 
BRANCH  18  19
ATOM     19  C   UNL     1     128.325 141.349 106.944  1.00  0.00     0.000 C 
BRANCH  19  20
ATOM     20  C   UNL     1     128.838 140.088 106.232  1.00  0.00     0.006 C 
BRANCH  20  21
ATOM     21  C   UNL     1     127.685 139.145 105.878  1.00  0.00     0.053 C 
BRANCH  21  22
ATOM     22  C   UNL     1     128.196 137.935 105.161  1.00  0.00     0.041 C 
ATOM     23  O   UNL     1     127.598 137.503 104.140  1.00  0.00    -0.550 OA
ATOM     24  O   UNL     1     129.314 137.265 105.639  1.00  0.00    -0.550 OA
ENDBRANCH  21  22
ENDBRANCH  20  21
ENDBRANCH  19  20
ENDBRANCH  18  19
ENDBRANCH  17  18
ENDBRANCH  16  17
ENDBRANCH  15  16
ENDBRANCH  14  15
ENDBRANCH  13  14
ENDBRANCH   1  13
TORSDOF 20
ENDMDL
MODEL 6
REMARK VINA RESULT:    -3.527      1.961      3.285
REMARK INTER + INTRA:         -11.769
REMARK INTER:                  -7.880
REMARK INTRA:                  -3.889
REMARK UNBOUND:                -4.118
REMARK SMILES CCCCCCCCCCCCCCCCCCCCCC(=O)[O-]
REMARK SMILES IDX 12 1 11 2 10 3 9 4 8 5 7 6 6 7 5 8 4 9 3 10 2 11 1 12 13 13
REMARK SMILES IDX 14 14 15 15 16 16 17 17 18 18 19 19 20 20 21 21 22 22 23 23
REMARK SMILES IDX 24 24
REMARK H PARENT
REMARK Flexibility Score: inf
ROOT
ATOM      1  C   UNL     1     130.709 143.470 107.109  1.00  0.00     0.000 C 
ENDROOT
BRANCH   1   2
ATOM      2  C   UNL     1     129.438 142.647 106.850  1.00  0.00     0.000 C 
BRANCH   2   3
ATOM      3  C   UNL     1     128.845 142.888 105.453  1.00  0.00     0.000 C 
BRANCH   3   4
ATOM      4  C   UNL     1     127.441 143.512 105.500  1.00  0.00    -0.000 C 
BRANCH   4   5
ATOM      5  C   UNL     1     127.460 144.937 104.926  1.00  0.00    -0.000 C 
BRANCH   5   6
ATOM      6  C   UNL     1     127.095 146.001 105.972  1.00  0.00    -0.000 C 
BRANCH   6   7
ATOM      7  C   UNL     1     126.932 145.410 107.383  1.00  0.00    -0.000 C 
BRANCH   7   8
ATOM      8  C   UNL     1     127.683 146.215 108.458  1.00  0.00    -0.000 C 
BRANCH   8   9
ATOM      9  C   UNL     1     128.657 145.391 109.324  1.00  0.00    -0.000 C 
BRANCH   9  10
ATOM     10  C   UNL     1     128.041 144.784 110.598  1.00  0.00    -0.000 C 
BRANCH  10  11
ATOM     11  C   UNL     1     128.001 143.249 110.568  1.00  0.00    -0.003 C 
ATOM     12  C   UNL     1     129.407 142.660 110.625  1.00  0.00     0.004 C 
ENDBRANCH  10  11
ENDBRANCH   9  10
ENDBRANCH   8   9
ENDBRANCH   7   8
ENDBRANCH   6   7
ENDBRANCH   5   6
ENDBRANCH   4   5
ENDBRANCH   3   4
ENDBRANCH   2   3
ENDBRANCH   1   2
BRANCH   1  13
ATOM     13  C   UNL     1     130.964 144.454 105.957  1.00  0.00     0.000 C 
BRANCH  13  14
ATOM     14  C   UNL     1     130.886 145.927 106.393  1.00  0.00     0.000 C 
BRANCH  14  15
ATOM     15  C   UNL     1     132.247 146.632 106.552  1.00  0.00     0.000 C 
BRANCH  15  16
ATOM     16  C   UNL     1     133.305 146.195 105.515  1.00  0.00     0.000 C 
BRANCH  16  17
ATOM     17  C   UNL     1     134.595 145.684 106.180  1.00  0.00     0.000 C 
BRANCH  17  18
ATOM     18  C   UNL     1     134.350 144.512 107.149  1.00  0.00     0.000 C 
BRANCH  18  19
ATOM     19  C   UNL     1     135.194 144.548 108.436  1.00  0.00     0.000 C 
BRANCH  19  20
ATOM     20  C   UNL     1     134.461 145.205 109.616  1.00  0.00     0.006 C 
BRANCH  20  21
ATOM     21  C   UNL     1     132.987 144.793 109.650  1.00  0.00     0.053 C 
BRANCH  21  22
ATOM     22  C   UNL     1     132.178 145.796 110.410  1.00  0.00     0.041 C 
ATOM     23  O   UNL     1     132.112 146.990 110.013  1.00  0.00    -0.550 OA
ATOM     24  O   UNL     1     131.521 145.421 111.574  1.00  0.00    -0.550 OA
ENDBRANCH  21  22
ENDBRANCH  20  21
ENDBRANCH  19  20
ENDBRANCH  18  19
ENDBRANCH  17  18
ENDBRANCH  16  17
ENDBRANCH  15  16
ENDBRANCH  14  15
ENDBRANCH  13  14
ENDBRANCH   1  13
TORSDOF 20
ENDMDL
MODEL 7
REMARK VINA RESULT:    -3.490      2.870      5.965
REMARK INTER + INTRA:         -11.689
REMARK INTER:                  -7.928
REMARK INTRA:                  -3.761
REMARK UNBOUND:                -4.118
REMARK SMILES CCCCCCCCCCCCCCCCCCCCCC(=O)[O-]
REMARK SMILES IDX 12 1 11 2 10 3 9 4 8 5 7 6 6 7 5 8 4 9 3 10 2 11 1 12 13 13
REMARK SMILES IDX 14 14 15 15 16 16 17 17 18 18 19 19 20 20 21 21 22 22 23 23
REMARK SMILES IDX 24 24
REMARK H PARENT
REMARK Flexibility Score: inf
ROOT
ATOM      1  C   UNL     1     133.111 142.701 106.316  1.00  0.00     0.000 C 
ENDROOT
BRANCH   1   2
ATOM      2  C   UNL     1     133.398 143.029 104.843  1.00  0.00     0.000 C 
BRANCH   2   3
ATOM      3  C   UNL     1     134.772 143.686 104.634  1.00  0.00     0.000 C 
BRANCH   3   4
ATOM      4  C   UNL     1     134.671 145.165 104.231  1.00  0.00    -0.000 C 
BRANCH   4   5
ATOM      5  C   UNL     1     134.527 146.058 105.473  1.00  0.00    -0.000 C 
BRANCH   5   6
ATOM      6  C   UNL     1     135.492 145.662 106.601  1.00  0.00    -0.000 C 
BRANCH   6   7
ATOM      7  C   UNL     1     134.814 145.655 107.982  1.00  0.00    -0.000 C 
BRANCH   7   8
ATOM      8  C   UNL     1     133.552 146.534 108.031  1.00  0.00    -0.000 C 
BRANCH   8   9
ATOM      9  C   UNL     1     132.777 146.484 109.363  1.00  0.00    -0.000 C 
BRANCH   9  10
ATOM     10  C   UNL     1     132.503 145.069 109.904  1.00  0.00    -0.000 C 
BRANCH  10  11
ATOM     11  C   UNL     1     131.025 144.840 110.254  1.00  0.00    -0.003 C 
ATOM     12  C   UNL     1     130.239 146.147 110.210  1.00  0.00     0.004 C 
ENDBRANCH  10  11
ENDBRANCH   9  10
ENDBRANCH   8   9
ENDBRANCH   7   8
ENDBRANCH   6   7
ENDBRANCH   5   6
ENDBRANCH   4   5
ENDBRANCH   3   4
ENDBRANCH   2   3
ENDBRANCH   1   2
BRANCH   1  13
ATOM     13  C   UNL     1     131.847 143.428 106.798  1.00  0.00     0.000 C 
BRANCH  13  14
ATOM     14  C   UNL     1     131.290 144.421 105.764  1.00  0.00     0.000 C 
BRANCH  14  15
ATOM     15  C   UNL     1     130.680 145.706 106.359  1.00  0.00     0.000 C 
BRANCH  15  16
ATOM     16  C   UNL     1     129.215 145.547 106.824  1.00  0.00     0.000 C 
BRANCH  16  17
ATOM     17  C   UNL     1     128.215 145.720 105.667  1.00  0.00     0.000 C 
BRANCH  17  18
ATOM     18  C   UNL     1     127.313 144.489 105.461  1.00  0.00     0.000 C 
BRANCH  18  19
ATOM     19  C   UNL     1     128.023 143.256 104.873  1.00  0.00     0.000 C 
BRANCH  19  20
ATOM     20  C   UNL     1     128.345 142.188 105.930  1.00  0.00     0.006 C 
BRANCH  20  21
ATOM     21  C   UNL     1     127.178 142.004 106.904  1.00  0.00     0.053 C 
BRANCH  21  22
ATOM     22  C   UNL     1     127.618 142.273 108.309  1.00  0.00     0.041 C 
ATOM     23  O   UNL     1     128.227 141.386 108.964  1.00  0.00    -0.550 OA
ATOM     24  O   UNL     1     127.327 143.492 108.906  1.00  0.00    -0.550 OA
ENDBRANCH  21  22
ENDBRANCH  20  21
ENDBRANCH  19  20
ENDBRANCH  18  19
ENDBRANCH  17  18
ENDBRANCH  16  17
ENDBRANCH  15  16
ENDBRANCH  14  15
ENDBRANCH  13  14
ENDBRANCH   1  13
TORSDOF 20
ENDMDL
MODEL 8
REMARK VINA RESULT:    -3.447      1.441      2.072
REMARK INTER + INTRA:         -11.594
REMARK INTER:                  -8.011
REMARK INTRA:                  -3.583
REMARK UNBOUND:                -4.118
REMARK SMILES CCCCCCCCCCCCCCCCCCCCCC(=O)[O-]
REMARK SMILES IDX 12 1 11 2 10 3 9 4 8 5 7 6 6 7 5 8 4 9 3 10 2 11 1 12 13 13
REMARK SMILES IDX 14 14 15 15 16 16 17 17 18 18 19 19 20 20 21 21 22 22 23 23
REMARK SMILES IDX 24 24
REMARK H PARENT
REMARK Flexibility Score: inf
ROOT
ATOM      1  C   UNL     1     127.831 142.290 108.166  1.00  0.00     0.000 C 
ENDROOT
BRANCH   1   2
ATOM      2  C   UNL     1     127.068 141.900 106.891  1.00  0.00     0.000 C 
BRANCH   2   3
ATOM      3  C   UNL     1     127.332 142.860 105.720  1.00  0.00     0.000 C 
BRANCH   3   4
ATOM      4  C   UNL     1     127.265 144.338 106.134  1.00  0.00    -0.000 C 
BRANCH   4   5
ATOM      5  C   UNL     1     128.354 145.154 105.421  1.00  0.00    -0.000 C 
BRANCH   5   6
ATOM      6  C   UNL     1     129.443 145.655 106.382  1.00  0.00    -0.000 C 
BRANCH   6   7
ATOM      7  C   UNL     1     128.992 145.625 107.852  1.00  0.00    -0.000 C 
BRANCH   7   8
ATOM      8  C   UNL     1     130.172 145.544 108.836  1.00  0.00    -0.000 C 
BRANCH   8   9
ATOM      9  C   UNL     1     129.774 145.469 110.324  1.00  0.00    -0.000 C 
BRANCH   9  10
ATOM     10  C   UNL     1     130.225 144.192 111.055  1.00  0.00    -0.000 C 
BRANCH  10  11
ATOM     11  C   UNL     1     129.047 143.325 111.522  1.00  0.00    -0.003 C 
ATOM     12  C   UNL     1     127.852 144.186 111.922  1.00  0.00     0.004 C 
ENDBRANCH  10  11
ENDBRANCH   9  10
ENDBRANCH   8   9
ENDBRANCH   7   8
ENDBRANCH   6   7
ENDBRANCH   5   6
ENDBRANCH   4   5
ENDBRANCH   3   4
ENDBRANCH   2   3
ENDBRANCH   1   2
BRANCH   1  13
ATOM     13  C   UNL     1     129.067 141.399 108.355  1.00  0.00     0.000 C 
BRANCH  13  14
ATOM     14  C   UNL     1     130.358 142.036 107.813  1.00  0.00     0.000 C 
BRANCH  14  15
ATOM     15  C   UNL     1     130.838 141.481 106.457  1.00  0.00     0.000 C 
BRANCH  15  16
ATOM     16  C   UNL     1     130.938 142.548 105.344  1.00  0.00     0.000 C 
BRANCH  16  17
ATOM     17  C   UNL     1     132.371 143.086 105.181  1.00  0.00     0.000 C 
BRANCH  17  18
ATOM     18  C   UNL     1     132.742 144.141 106.239  1.00  0.00     0.000 C 
BRANCH  18  19
ATOM     19  C   UNL     1     133.148 145.513 105.671  1.00  0.00     0.000 C 
BRANCH  19  20
ATOM     20  C   UNL     1     134.367 145.440 104.739  1.00  0.00     0.006 C 
BRANCH  20  21
ATOM     21  C   UNL     1     135.481 146.379 105.210  1.00  0.00     0.053 C 
BRANCH  21  22
ATOM     22  C   UNL     1     136.004 145.948 106.543  1.00  0.00     0.041 C 
ATOM     23  O   UNL     1     136.478 144.791 106.696  1.00  0.00    -0.550 OA
ATOM     24  O   UNL     1     135.941 146.814 107.627  1.00  0.00    -0.550 OA
ENDBRANCH  21  22
ENDBRANCH  20  21
ENDBRANCH  19  20
ENDBRANCH  18  19
ENDBRANCH  17  18
ENDBRANCH  16  17
ENDBRANCH  15  16
ENDBRANCH  14  15
ENDBRANCH  13  14
ENDBRANCH   1  13
TORSDOF 20
ENDMDL
MODEL 9
REMARK VINA RESULT:    -3.411      3.256      6.590
REMARK INTER + INTRA:         -11.518
REMARK INTER:                  -7.980
REMARK INTRA:                  -3.538
REMARK UNBOUND:                -4.118
REMARK SMILES CCCCCCCCCCCCCCCCCCCCCC(=O)[O-]
REMARK SMILES IDX 12 1 11 2 10 3 9 4 8 5 7 6 6 7 5 8 4 9 3 10 2 11 1 12 13 13
REMARK SMILES IDX 14 14 15 15 16 16 17 17 18 18 19 19 20 20 21 21 22 22 23 23
REMARK SMILES IDX 24 24
REMARK H PARENT
REMARK Flexibility Score: inf
ROOT
ATOM      1  C   UNL     1     130.084 143.706 108.569  1.00  0.00     0.000 C 
ENDROOT
BRANCH   1   2
ATOM      2  C   UNL     1     130.916 144.910 108.100  1.00  0.00     0.000 C 
BRANCH   2   3
ATOM      3  C   UNL     1     130.991 145.024 106.569  1.00  0.00     0.000 C 
BRANCH   3   4
ATOM      4  C   UNL     1     131.821 146.229 106.101  1.00  0.00    -0.000 C 
BRANCH   4   5
ATOM      5  C   UNL     1     133.037 146.441 107.017  1.00  0.00    -0.000 C 
BRANCH   5   6
ATOM      6  C   UNL     1     134.353 145.984 106.368  1.00  0.00    -0.000 C 
BRANCH   6   7
ATOM      7  C   UNL     1     134.269 145.936 104.833  1.00  0.00    -0.000 C 
BRANCH   7   8
ATOM      8  C   UNL     1     134.774 144.605 104.250  1.00  0.00    -0.000 C 
BRANCH   8   9
ATOM      9  C   UNL     1     133.767 143.439 104.324  1.00  0.00    -0.000 C 
BRANCH   9  10
ATOM     10  C   UNL     1     134.322 142.137 104.928  1.00  0.00    -0.000 C 
BRANCH  10  11
ATOM     11  C   UNL     1     134.673 142.274 106.418  1.00  0.00    -0.003 C 
ATOM     12  C   UNL     1     133.416 142.289 107.282  1.00  0.00     0.004 C 
ENDBRANCH  10  11
ENDBRANCH   9  10
ENDBRANCH   8   9
ENDBRANCH   7   8
ENDBRANCH   6   7
ENDBRANCH   5   6
ENDBRANCH   4   5
ENDBRANCH   3   4
ENDBRANCH   2   3
ENDBRANCH   1   2
BRANCH   1  13
ATOM     13  C   UNL     1     128.718 144.163 109.101  1.00  0.00     0.000 C 
BRANCH  13  14
ATOM     14  C   UNL     1     128.612 145.689 109.260  1.00  0.00     0.000 C 
BRANCH  14  15
ATOM     15  C   UNL     1     127.616 146.375 108.304  1.00  0.00     0.000 C 
BRANCH  15  16
ATOM     16  C   UNL     1     126.877 145.399 107.362  1.00  0.00     0.000 C 
BRANCH  16  17
ATOM     17  C   UNL     1     127.346 145.532 105.902  1.00  0.00     0.000 C 
BRANCH  17  18
ATOM     18  C   UNL     1     127.755 144.186 105.276  1.00  0.00     0.000 C 
BRANCH  18  19
ATOM     19  C   UNL     1     127.204 142.942 105.997  1.00  0.00     0.000 C 
BRANCH  19  20
ATOM     20  C   UNL     1     128.242 141.816 106.128  1.00  0.00     0.006 C 
BRANCH  20  21
ATOM     21  C   UNL     1     127.563 140.449 106.237  1.00  0.00     0.053 C 
BRANCH  21  22
ATOM     22  C   UNL     1     127.787 139.858 107.594  1.00  0.00     0.041 C 
ATOM     23  O   UNL     1     127.753 138.609 107.756  1.00  0.00    -0.550 OA
ATOM     24  O   UNL     1     128.001 140.688 108.687  1.00  0.00    -0.550 OA
ENDBRANCH  21  22
ENDBRANCH  20  21
ENDBRANCH  19  20
ENDBRANCH  18  19
ENDBRANCH  17  18
ENDBRANCH  16  17
ENDBRANCH  15  16
ENDBRANCH  14  15
ENDBRANCH  13  14
ENDBRANCH   1  13
TORSDOF 20
ENDMDL
