MODEL 1
REMARK VINA RESULT:    -5.568      0.000      0.000
REMARK INTER + INTRA:          -7.057
REMARK INTER:                  -6.707
REMARK INTRA:                  -0.350
REMARK UNBOUND:                -0.350
REMARK SMILES Oc1cc(O)c2cc(O)c(-c3ccc(O)c(O)c3)[o+]c2c1
REMARK SMILES IDX 10 1 19 2 20 3 21 4 2 5 3 6 4 7 6 8 7 9 8 10 11 11 12 12
REMARK SMILES IDX 13 13 14 14 18 15 16 16 15 17 17 19 9 21 1 23 5 25
REMARK H PARENT 15 18 17 20 9 22 1 24 5 26
REMARK Flexibility Score: inf
ROOT
ATOM      1  C   UNL     1      48.903  13.817  -4.658  1.00  0.00     0.402 A 
ATOM      2  O   UNL     1      49.901  13.074  -5.131  1.00  0.00    -0.202 OA
ATOM      3  C   UNL     1      51.019  13.587  -5.632  1.00  0.00     0.368 A 
ATOM      4  C   UNL     1      52.010  12.724  -6.107  1.00  0.00     0.162 A 
ATOM      5  C   UNL     1      53.195  13.237  -6.643  1.00  0.00     0.128 A 
ATOM      6  C   UNL     1      53.390  14.618  -6.703  1.00  0.00     0.093 A 
ATOM      7  C   UNL     1      52.413  15.505  -6.234  1.00  0.00     0.136 A 
ATOM      8  C   UNL     1      51.209  14.989  -5.687  1.00  0.00     0.125 A 
ATOM      9  C   UNL     1      50.181  15.801  -5.181  1.00  0.00     0.078 A 
ATOM     10  C   UNL     1      49.024  15.220  -4.653  1.00  0.00     0.223 A 
ENDROOT
BRANCH   1  11
ATOM     11  C   UNL     1      47.703  13.128  -4.134  1.00  0.00     0.087 A 
ATOM     12  C   UNL     1      46.569  12.917  -4.938  1.00  0.00     0.022 A 
ATOM     13  C   UNL     1      45.456  12.242  -4.429  1.00  0.00     0.051 A 
ATOM     14  C   UNL     1      45.463  11.757  -3.118  1.00  0.00     0.157 A 
ATOM     15  C   UNL     1      47.714  12.620  -2.824  1.00  0.00     0.068 A 
ATOM     16  C   UNL     1      46.598  11.943  -2.311  1.00  0.00     0.158 A 
BRANCH  14  17
ATOM     17  O   UNL     1      44.338  11.089  -2.636  1.00  0.00    -0.504 OA
ATOM     18  H   UNL     1      43.493  10.991  -3.185  1.00  0.00     0.293 HD
ENDBRANCH  14  17
BRANCH  16  19
ATOM     19  O   UNL     1      46.614  11.456  -1.004  1.00  0.00    -0.504 OA
ATOM     20  H   UNL     1      47.274  10.745  -0.712  1.00  0.00     0.293 HD
ENDBRANCH  16  19
ENDBRANCH   1  11
BRANCH  10  21
ATOM     21  O   UNL     1      48.025  16.024  -4.105  1.00  0.00    -0.500 OA
ATOM     22  H   UNL     1      47.084  16.035  -4.481  1.00  0.00     0.294 HD
ENDBRANCH  10  21
BRANCH   5  23
ATOM     23  O   UNL     1      54.187  12.382  -7.119  1.00  0.00    -0.507 OA
ATOM     24  H   UNL     1      54.876  11.971  -6.499  1.00  0.00     0.293 HD
ENDBRANCH   5  23
BRANCH   7  25
ATOM     25  O   UNL     1      52.683  16.873  -6.333  1.00  0.00    -0.507 OA
ATOM     26  H   UNL     1      52.324  17.572  -5.702  1.00  0.00     0.293 HD
ENDBRANCH   7  25
TORSDOF 6
ENDMDL
MODEL 2
REMARK VINA RESULT:    -5.389      3.710      4.534
REMARK INTER + INTRA:          -6.842
REMARK INTER:                  -6.564
REMARK INTRA:                  -0.278
REMARK UNBOUND:                -0.350
REMARK SMILES Oc1cc(O)c2cc(O)c(-c3ccc(O)c(O)c3)[o+]c2c1
REMARK SMILES IDX 10 1 19 2 20 3 21 4 2 5 3 6 4 7 6 8 7 9 8 10 11 11 12 12
REMARK SMILES IDX 13 13 14 14 18 15 16 16 15 17 17 19 9 21 1 23 5 25
REMARK H PARENT 15 18 17 20 9 22 1 24 5 26
REMARK Flexibility Score: inf
ROOT
ATOM      1  C   UNL     1      45.555  16.217  -4.455  1.00  0.00     0.402 A 
ATOM      2  O   UNL     1      46.580  15.436  -4.124  1.00  0.00    -0.202 OA
ATOM      3  C   UNL     1      47.793  15.560  -4.650  1.00  0.00     0.368 A 
ATOM      4  C   UNL     1      48.806  14.689  -4.240  1.00  0.00     0.162 A 
ATOM      5  C   UNL     1      50.091  14.797  -4.780  1.00  0.00     0.128 A 
ATOM      6  C   UNL     1      50.364  15.779  -5.735  1.00  0.00     0.093 A 
ATOM      7  C   UNL     1      49.367  16.664  -6.163  1.00  0.00     0.136 A 
ATOM      8  C   UNL     1      48.061  16.561  -5.616  1.00  0.00     0.125 A 
ATOM      9  C   UNL     1      47.004  17.412  -5.976  1.00  0.00     0.078 A 
ATOM     10  C   UNL     1      45.745  17.252  -5.389  1.00  0.00     0.223 A 
ENDROOT
BRANCH   1  11
ATOM     11  C   UNL     1      44.248  15.972  -3.805  1.00  0.00     0.087 A 
ATOM     12  C   UNL     1      43.453  14.865  -4.151  1.00  0.00     0.022 A 
ATOM     13  C   UNL     1      42.233  14.641  -3.506  1.00  0.00     0.051 A 
ATOM     14  C   UNL     1      41.796  15.508  -2.501  1.00  0.00     0.157 A 
ATOM     15  C   UNL     1      43.815  16.829  -2.779  1.00  0.00     0.068 A 
ATOM     16  C   UNL     1      42.590  16.607  -2.132  1.00  0.00     0.158 A 
BRANCH  14  17
ATOM     17  O   UNL     1      40.574  15.261  -1.876  1.00  0.00    -0.504 OA
ATOM     18  H   UNL     1      39.855  14.690  -2.304  1.00  0.00     0.293 HD
ENDBRANCH  14  17
BRANCH  16  19
ATOM     19  O   UNL     1      42.163  17.472  -1.125  1.00  0.00    -0.504 OA
ATOM     20  H   UNL     1      42.392  18.458  -1.142  1.00  0.00     0.293 HD
ENDBRANCH  16  19
ENDBRANCH   1  11
BRANCH  10  21
ATOM     21  O   UNL     1      44.708  18.129  -5.709  1.00  0.00    -0.500 OA
ATOM     22  H   UNL     1      44.349  18.207  -6.653  1.00  0.00     0.294 HD
ENDBRANCH  10  21
BRANCH   5  23
ATOM     23  O   UNL     1      51.105  13.931  -4.375  1.00  0.00    -0.507 OA
ATOM     24  H   UNL     1      52.067  14.240  -4.299  1.00  0.00     0.293 HD
ENDBRANCH   5  23
BRANCH   7  25
ATOM     25  O   UNL     1      49.719  17.615  -7.124  1.00  0.00    -0.507 OA
ATOM     26  H   UNL     1      50.584  18.135  -7.122  1.00  0.00     0.293 HD
ENDBRANCH   7  25
TORSDOF 6
ENDMDL
MODEL 3
REMARK VINA RESULT:    -5.218      4.176      5.356
REMARK INTER + INTRA:          -6.636
REMARK INTER:                  -6.845
REMARK INTRA:                   0.209
REMARK UNBOUND:                -0.350
REMARK SMILES Oc1cc(O)c2cc(O)c(-c3ccc(O)c(O)c3)[o+]c2c1
REMARK SMILES IDX 10 1 19 2 20 3 21 4 2 5 3 6 4 7 6 8 7 9 8 10 11 11 12 12
REMARK SMILES IDX 13 13 14 14 18 15 16 16 15 17 17 19 9 21 1 23 5 25
REMARK H PARENT 15 18 17 20 9 22 1 24 5 26
REMARK Flexibility Score: inf
ROOT
ATOM      1  C   UNL     1      45.497  16.047  -3.765  1.00  0.00     0.402 A 
ATOM      2  O   UNL     1      46.038  15.015  -3.123  1.00  0.00    -0.202 OA
ATOM      3  C   UNL     1      47.148  14.405  -3.526  1.00  0.00     0.368 A 
ATOM      4  C   UNL     1      47.638  13.326  -2.785  1.00  0.00     0.162 A 
ATOM      5  C   UNL     1      48.802  12.664  -3.188  1.00  0.00     0.128 A 
ATOM      6  C   UNL     1      49.478  13.083  -4.335  1.00  0.00     0.093 A 
ATOM      7  C   UNL     1      49.007  14.161  -5.095  1.00  0.00     0.136 A 
ATOM      8  C   UNL     1      47.827  14.838  -4.690  1.00  0.00     0.125 A 
ATOM      9  C   UNL     1      47.290  15.936  -5.381  1.00  0.00     0.078 A 
ATOM     10  C   UNL     1      46.126  16.555  -4.917  1.00  0.00     0.223 A 
ENDROOT
BRANCH   1  11
ATOM     11  C   UNL     1      44.252  16.635  -3.223  1.00  0.00     0.087 A 
ATOM     12  C   UNL     1      43.974  18.007  -3.349  1.00  0.00     0.022 A 
ATOM     13  C   UNL     1      42.781  18.536  -2.849  1.00  0.00     0.051 A 
ATOM     14  C   UNL     1      41.843  17.705  -2.231  1.00  0.00     0.157 A 
ATOM     15  C   UNL     1      43.298  15.799  -2.619  1.00  0.00     0.068 A 
ATOM     16  C   UNL     1      42.100  16.328  -2.116  1.00  0.00     0.158 A 
BRANCH  14  17
ATOM     17  O   UNL     1      40.662  18.260  -1.740  1.00  0.00    -0.504 OA
ATOM     18  H   UNL     1      39.752  17.881  -1.970  1.00  0.00     0.293 HD
ENDBRANCH  14  17
BRANCH  16  19
ATOM     19  O   UNL     1      41.167  15.491  -1.506  1.00  0.00    -0.504 OA
ATOM     20  H   UNL     1      41.262  15.206  -0.539  1.00  0.00     0.293 HD
ENDBRANCH  16  19
ENDBRANCH   1  11
BRANCH  10  21
ATOM     21  O   UNL     1      45.620  17.676  -5.576  1.00  0.00    -0.500 OA
ATOM     22  H   UNL     1      46.057  18.045  -6.412  1.00  0.00     0.294 HD
ENDBRANCH  10  21
BRANCH   5  23
ATOM     23  O   UNL     1      49.295  11.588  -2.454  1.00  0.00    -0.507 OA
ATOM     24  H   UNL     1      48.995  11.413  -1.502  1.00  0.00     0.293 HD
ENDBRANCH   5  23
BRANCH   7  25
ATOM     25  O   UNL     1      49.739  14.516  -6.232  1.00  0.00    -0.507 OA
ATOM     26  H   UNL     1      49.378  14.490  -7.174  1.00  0.00     0.293 HD
ENDBRANCH   7  25
TORSDOF 6
ENDMDL
MODEL 4
REMARK VINA RESULT:    -5.209      3.148      4.441
REMARK INTER + INTRA:          -6.625
REMARK INTER:                  -6.346
REMARK INTRA:                  -0.279
REMARK UNBOUND:                -0.350
REMARK SMILES Oc1cc(O)c2cc(O)c(-c3ccc(O)c(O)c3)[o+]c2c1
REMARK SMILES IDX 10 1 19 2 20 3 21 4 2 5 3 6 4 7 6 8 7 9 8 10 11 11 12 12
REMARK SMILES IDX 13 13 14 14 18 15 16 16 15 17 17 19 9 21 1 23 5 25
REMARK H PARENT 15 18 17 20 9 22 1 24 5 26
REMARK Flexibility Score: inf
ROOT
ATOM      1  C   UNL     1      46.136  15.004  -3.935  1.00  0.00     0.402 A 
ATOM      2  O   UNL     1      46.688  15.906  -4.741  1.00  0.00    -0.202 OA
ATOM      3  C   UNL     1      47.976  15.906  -5.065  1.00  0.00     0.368 A 
ATOM      4  C   UNL     1      48.463  16.899  -5.920  1.00  0.00     0.162 A 
ATOM      5  C   UNL     1      49.815  16.925  -6.274  1.00  0.00     0.128 A 
ATOM      6  C   UNL     1      50.683  15.953  -5.773  1.00  0.00     0.093 A 
ATOM      7  C   UNL     1      50.221  14.947  -4.916  1.00  0.00     0.136 A 
ATOM      8  C   UNL     1      48.848  14.915  -4.554  1.00  0.00     0.125 A 
ATOM      9  C   UNL     1      48.294  13.938  -3.712  1.00  0.00     0.078 A 
ATOM     10  C   UNL     1      46.931  13.969  -3.405  1.00  0.00     0.223 A 
ENDROOT
BRANCH   1  11
ATOM     11  C   UNL     1      44.690  15.116  -3.641  1.00  0.00     0.087 A 
ATOM     12  C   UNL     1      43.755  14.236  -4.213  1.00  0.00     0.022 A 
ATOM     13  C   UNL     1      42.397  14.346  -3.902  1.00  0.00     0.051 A 
ATOM     14  C   UNL     1      41.954  15.325  -3.008  1.00  0.00     0.157 A 
ATOM     15  C   UNL     1      44.244  16.085  -2.727  1.00  0.00     0.068 A 
ATOM     16  C   UNL     1      42.881  16.198  -2.414  1.00  0.00     0.158 A 
BRANCH  14  17
ATOM     17  O   UNL     1      40.593  15.413  -2.718  1.00  0.00    -0.504 OA
ATOM     18  H   UNL     1      40.158  16.281  -2.431  1.00  0.00     0.293 HD
ENDBRANCH  14  17
BRANCH  16  19
ATOM     19  O   UNL     1      42.447  17.173  -1.516  1.00  0.00    -0.504 OA
ATOM     20  H   UNL     1      42.566  17.063  -0.516  1.00  0.00     0.293 HD
ENDBRANCH  16  19
ENDBRANCH   1  11
BRANCH  10  21
ATOM     21  O   UNL     1      46.370  12.970  -2.608  1.00  0.00    -0.500 OA
ATOM     22  H   UNL     1      45.368  12.884  -2.489  1.00  0.00     0.294 HD
ENDBRANCH  10  21
BRANCH   5  23
ATOM     23  O   UNL     1      50.306  17.912  -7.125  1.00  0.00    -0.507 OA
ATOM     24  H   UNL     1      50.160  17.871  -8.127  1.00  0.00     0.293 HD
ENDBRANCH   5  23
BRANCH   7  25
ATOM     25  O   UNL     1      51.154  14.014  -4.454  1.00  0.00    -0.507 OA
ATOM     26  H   UNL     1      51.483  13.224  -4.988  1.00  0.00     0.293 HD
ENDBRANCH   7  25
TORSDOF 6
ENDMDL
MODEL 5
REMARK VINA RESULT:    -5.169      3.814      5.066
REMARK INTER + INTRA:          -6.578
REMARK INTER:                  -6.642
REMARK INTRA:                   0.065
REMARK UNBOUND:                -0.350
REMARK SMILES Oc1cc(O)c2cc(O)c(-c3ccc(O)c(O)c3)[o+]c2c1
REMARK SMILES IDX 10 1 19 2 20 3 21 4 2 5 3 6 4 7 6 8 7 9 8 10 11 11 12 12
REMARK SMILES IDX 13 13 14 14 18 15 16 16 15 17 17 19 9 21 1 23 5 25
REMARK H PARENT 15 18 17 20 9 22 1 24 5 26
REMARK Flexibility Score: inf
ROOT
ATOM      1  C   UNL     1      46.052  15.657  -3.953  1.00  0.00     0.402 A 
ATOM      2  O   UNL     1      47.162  16.188  -4.458  1.00  0.00    -0.202 OA
ATOM      3  C   UNL     1      48.303  15.519  -4.576  1.00  0.00     0.368 A 
ATOM      4  C   UNL     1      49.418  16.165  -5.118  1.00  0.00     0.162 A 
ATOM      5  C   UNL     1      50.633  15.485  -5.250  1.00  0.00     0.128 A 
ATOM      6  C   UNL     1      50.733  14.155  -4.839  1.00  0.00     0.093 A 
ATOM      7  C   UNL     1      49.631  13.484  -4.293  1.00  0.00     0.136 A 
ATOM      8  C   UNL     1      48.395  14.169  -4.159  1.00  0.00     0.125 A 
ATOM      9  C   UNL     1      47.236  13.574  -3.635  1.00  0.00     0.078 A 
ATOM     10  C   UNL     1      46.052  14.311  -3.538  1.00  0.00     0.223 A 
ENDROOT
BRANCH   1  11
ATOM     11  C   UNL     1      44.844  16.508  -3.865  1.00  0.00     0.087 A 
ATOM     12  C   UNL     1      44.432  17.310  -4.943  1.00  0.00     0.022 A 
ATOM     13  C   UNL     1      43.275  18.087  -4.845  1.00  0.00     0.051 A 
ATOM     14  C   UNL     1      42.506  18.067  -3.678  1.00  0.00     0.157 A 
ATOM     15  C   UNL     1      44.058  16.474  -2.701  1.00  0.00     0.068 A 
ATOM     16  C   UNL     1      42.897  17.254  -2.600  1.00  0.00     0.158 A 
BRANCH  14  17
ATOM     17  O   UNL     1      41.358  18.854  -3.607  1.00  0.00    -0.504 OA
ATOM     18  H   UNL     1      41.386  19.860  -3.720  1.00  0.00     0.293 HD
ENDBRANCH  14  17
BRANCH  16  19
ATOM     19  O   UNL     1      42.131  17.224  -1.435  1.00  0.00    -0.504 OA
ATOM     20  H   UNL     1      41.596  16.405  -1.173  1.00  0.00     0.293 HD
ENDBRANCH  16  19
ENDBRANCH   1  11
BRANCH  10  21
ATOM     21  O   UNL     1      44.888  13.706  -3.065  1.00  0.00    -0.500 OA
ATOM     22  H   UNL     1      44.086  14.251  -2.772  1.00  0.00     0.294 HD
ENDBRANCH  10  21
BRANCH   5  23
ATOM     23  O   UNL     1      51.747  16.124  -5.789  1.00  0.00    -0.507 OA
ATOM     24  H   UNL     1      52.198  15.784  -6.631  1.00  0.00     0.293 HD
ENDBRANCH   5  23
BRANCH   7  25
ATOM     25  O   UNL     1      49.815  12.155  -3.903  1.00  0.00    -0.507 OA
ATOM     26  H   UNL     1      50.623  11.813  -3.406  1.00  0.00     0.293 HD
ENDBRANCH   7  25
TORSDOF 6
ENDMDL
MODEL 6
REMARK VINA RESULT:    -5.149      4.017      7.684
REMARK INTER + INTRA:          -6.553
REMARK INTER:                  -6.820
REMARK INTRA:                   0.267
REMARK UNBOUND:                -0.350
REMARK SMILES Oc1cc(O)c2cc(O)c(-c3ccc(O)c(O)c3)[o+]c2c1
REMARK SMILES IDX 10 1 19 2 20 3 21 4 2 5 3 6 4 7 6 8 7 9 8 10 11 11 12 12
REMARK SMILES IDX 13 13 14 14 18 15 16 16 15 17 17 19 9 21 1 23 5 25
REMARK H PARENT 15 18 17 20 9 22 1 24 5 26
REMARK Flexibility Score: inf
ROOT
ATOM      1  C   UNL     1      46.462  16.343  -4.655  1.00  0.00     0.402 A 
ATOM      2  O   UNL     1      45.613  15.931  -3.717  1.00  0.00    -0.202 OA
ATOM      3  C   UNL     1      44.390  16.428  -3.570  1.00  0.00     0.368 A 
ATOM      4  C   UNL     1      43.572  15.931  -2.552  1.00  0.00     0.162 A 
ATOM      5  C   UNL     1      42.281  16.438  -2.373  1.00  0.00     0.128 A 
ATOM      6  C   UNL     1      41.807  17.446  -3.216  1.00  0.00     0.093 A 
ATOM      7  C   UNL     1      42.607  17.960  -4.244  1.00  0.00     0.136 A 
ATOM      8  C   UNL     1      43.918  17.448  -4.431  1.00  0.00     0.125 A 
ATOM      9  C   UNL     1      44.784  17.894  -5.442  1.00  0.00     0.078 A 
ATOM     10  C   UNL     1      46.060  17.336  -5.568  1.00  0.00     0.223 A 
ENDROOT
BRANCH   1  11
ATOM     11  C   UNL     1      47.803  15.718  -4.710  1.00  0.00     0.087 A 
ATOM     12  C   UNL     1      48.894  16.375  -5.306  1.00  0.00     0.022 A 
ATOM     13  C   UNL     1      50.156  15.776  -5.325  1.00  0.00     0.051 A 
ATOM     14  C   UNL     1      50.351  14.521  -4.741  1.00  0.00     0.157 A 
ATOM     15  C   UNL     1      48.008  14.467  -4.106  1.00  0.00     0.068 A 
ATOM     16  C   UNL     1      49.274  13.863  -4.125  1.00  0.00     0.158 A 
BRANCH  14  17
ATOM     17  O   UNL     1      51.621  13.946  -4.777  1.00  0.00    -0.504 OA
ATOM     18  H   UNL     1      51.845  13.172  -5.390  1.00  0.00     0.293 HD
ENDBRANCH  14  17
BRANCH  16  19
ATOM     19  O   UNL     1      49.463  12.614  -3.535  1.00  0.00    -0.504 OA
ATOM     20  H   UNL     1      48.775  11.875  -3.624  1.00  0.00     0.293 HD
ENDBRANCH  16  19
ENDBRANCH   1  11
BRANCH  10  21
ATOM     21  O   UNL     1      46.902  17.744  -6.603  1.00  0.00    -0.500 OA
ATOM     22  H   UNL     1      47.846  17.387  -6.692  1.00  0.00     0.294 HD
ENDBRANCH  10  21
BRANCH   5  23
ATOM     23  O   UNL     1      41.461  15.948  -1.360  1.00  0.00    -0.507 OA
ATOM     24  H   UNL     1      41.424  16.387  -0.447  1.00  0.00     0.293 HD
ENDBRANCH   5  23
BRANCH   7  25
ATOM     25  O   UNL     1      42.061  18.970  -5.041  1.00  0.00    -0.507 OA
ATOM     26  H   UNL     1      41.226  18.868  -5.598  1.00  0.00     0.293 HD
ENDBRANCH   7  25
TORSDOF 6
ENDMDL
MODEL 7
REMARK VINA RESULT:    -4.912      4.624      8.661
REMARK INTER + INTRA:          -6.267
REMARK INTER:                  -6.329
REMARK INTRA:                   0.062
REMARK UNBOUND:                -0.350
REMARK SMILES Oc1cc(O)c2cc(O)c(-c3ccc(O)c(O)c3)[o+]c2c1
REMARK SMILES IDX 10 1 19 2 20 3 21 4 2 5 3 6 4 7 6 8 7 9 8 10 11 11 12 12
REMARK SMILES IDX 13 13 14 14 18 15 16 16 15 17 17 19 9 21 1 23 5 25
REMARK H PARENT 15 18 17 20 9 22 1 24 5 26
REMARK Flexibility Score: inf
ROOT
ATOM      1  C   UNL     1      45.683  16.466  -4.236  1.00  0.00     0.402 A 
ATOM      2  O   UNL     1      45.016  17.603  -4.059  1.00  0.00    -0.202 OA
ATOM      3  C   UNL     1      43.869  17.681  -3.394  1.00  0.00     0.368 A 
ATOM      4  C   UNL     1      43.242  18.923  -3.264  1.00  0.00     0.162 A 
ATOM      5  C   UNL     1      42.032  19.033  -2.572  1.00  0.00     0.128 A 
ATOM      6  C   UNL     1      41.448  17.897  -2.008  1.00  0.00     0.093 A 
ATOM      7  C   UNL     1      42.057  16.642  -2.124  1.00  0.00     0.136 A 
ATOM      8  C   UNL     1      43.286  16.524  -2.824  1.00  0.00     0.125 A 
ATOM      9  C   UNL     1      43.974  15.310  -2.979  1.00  0.00     0.078 A 
ATOM     10  C   UNL     1      45.184  15.274  -3.678  1.00  0.00     0.223 A 
ENDROOT
BRANCH   1  11
ATOM     11  C   UNL     1      46.947  16.506  -5.006  1.00  0.00     0.087 A 
ATOM     12  C   UNL     1      47.049  17.223  -6.210  1.00  0.00     0.022 A 
ATOM     13  C   UNL     1      48.260  17.266  -6.907  1.00  0.00     0.051 A 
ATOM     14  C   UNL     1      49.387  16.608  -6.407  1.00  0.00     0.157 A 
ATOM     15  C   UNL     1      48.087  15.864  -4.495  1.00  0.00     0.068 A 
ATOM     16  C   UNL     1      49.303  15.905  -5.194  1.00  0.00     0.158 A 
BRANCH  14  17
ATOM     17  O   UNL     1      50.582  16.667  -7.125  1.00  0.00    -0.504 OA
ATOM     18  H   UNL     1      51.032  17.545  -7.352  1.00  0.00     0.293 HD
ENDBRANCH  14  17
BRANCH  16  19
ATOM     19  O   UNL     1      50.425  15.251  -4.686  1.00  0.00    -0.504 OA
ATOM     20  H   UNL     1      51.123  15.743  -4.140  1.00  0.00     0.293 HD
ENDBRANCH  16  19
ENDBRANCH   1  11
BRANCH  10  21
ATOM     21  O   UNL     1      45.892  14.077  -3.789  1.00  0.00    -0.500 OA
ATOM     22  H   UNL     1      45.512  13.201  -3.454  1.00  0.00     0.294 HD
ENDBRANCH  10  21
BRANCH   5  23
ATOM     23  O   UNL     1      41.401  20.268  -2.439  1.00  0.00    -0.507 OA
ATOM     24  H   UNL     1      40.974  20.555  -1.565  1.00  0.00     0.293 HD
ENDBRANCH   5  23
BRANCH   7  25
ATOM     25  O   UNL     1      41.406  15.554  -1.534  1.00  0.00    -0.507 OA
ATOM     26  H   UNL     1      41.742  15.060  -0.721  1.00  0.00     0.293 HD
ENDBRANCH   7  25
TORSDOF 6
ENDMDL
MODEL 8
REMARK VINA RESULT:    -4.767      3.037      7.209
REMARK INTER + INTRA:          -6.093
REMARK INTER:                  -6.097
REMARK INTRA:                   0.004
REMARK UNBOUND:                -0.350
REMARK SMILES Oc1cc(O)c2cc(O)c(-c3ccc(O)c(O)c3)[o+]c2c1
REMARK SMILES IDX 10 1 19 2 20 3 21 4 2 5 3 6 4 7 6 8 7 9 8 10 11 11 12 12
REMARK SMILES IDX 13 13 14 14 18 15 16 16 15 17 17 19 9 21 1 23 5 25
REMARK H PARENT 15 18 17 20 9 22 1 24 5 26
REMARK Flexibility Score: inf
ROOT
ATOM      1  C   UNL     1      48.147  15.116  -4.628  1.00  0.00     0.402 A 
ATOM      2  O   UNL     1      47.537  16.133  -5.231  1.00  0.00    -0.202 OA
ATOM      3  C   UNL     1      46.311  16.539  -4.920  1.00  0.00     0.368 A 
ATOM      4  C   UNL     1      45.754  17.616  -5.614  1.00  0.00     0.162 A 
ATOM      5  C   UNL     1      44.465  18.062  -5.308  1.00  0.00     0.128 A 
ATOM      6  C   UNL     1      43.730  17.428  -4.304  1.00  0.00     0.093 A 
ATOM      7  C   UNL     1      44.265  16.346  -3.594  1.00  0.00     0.136 A 
ATOM      8  C   UNL     1      45.575  15.891  -3.899  1.00  0.00     0.125 A 
ATOM      9  C   UNL     1      46.196  14.824  -3.230  1.00  0.00     0.078 A 
ATOM     10  C   UNL     1      47.492  14.436  -3.583  1.00  0.00     0.223 A 
ENDROOT
BRANCH   1  11
ATOM     11  C   UNL     1      49.511  14.752  -5.072  1.00  0.00     0.087 A 
ATOM     12  C   UNL     1      49.884  13.412  -5.270  1.00  0.00     0.022 A 
ATOM     13  C   UNL     1      51.171  13.094  -5.713  1.00  0.00     0.051 A 
ATOM     14  C   UNL     1      52.098  14.106  -5.977  1.00  0.00     0.157 A 
ATOM     15  C   UNL     1      50.438  15.768  -5.358  1.00  0.00     0.068 A 
ATOM     16  C   UNL     1      51.731  15.451  -5.802  1.00  0.00     0.158 A 
BRANCH  14  17
ATOM     17  O   UNL     1      53.375  13.759  -6.416  1.00  0.00    -0.504 OA
ATOM     18  H   UNL     1      53.736  14.059  -7.313  1.00  0.00     0.293 HD
ENDBRANCH  14  17
BRANCH  16  19
ATOM     19  O   UNL     1      52.648  16.466  -6.069  1.00  0.00    -0.504 OA
ATOM     20  H   UNL     1      53.538  16.517  -5.589  1.00  0.00     0.293 HD
ENDBRANCH  16  19
ENDBRANCH   1  11
BRANCH  10  21
ATOM     21  O   UNL     1      48.129  13.408  -2.886  1.00  0.00    -0.500 OA
ATOM     22  H   UNL     1      47.961  13.250  -1.900  1.00  0.00     0.294 HD
ENDBRANCH  10  21
BRANCH   5  23
ATOM     23  O   UNL     1      43.904  19.135  -5.997  1.00  0.00    -0.507 OA
ATOM     24  H   UNL     1      42.918  19.360  -5.917  1.00  0.00     0.293 HD
ENDBRANCH   5  23
BRANCH   7  25
ATOM     25  O   UNL     1      43.464  15.764  -2.607  1.00  0.00    -0.507 OA
ATOM     26  H   UNL     1      43.671  14.891  -2.146  1.00  0.00     0.293 HD
ENDBRANCH   7  25
TORSDOF 6
ENDMDL
MODEL 9
REMARK VINA RESULT:    -4.753      3.353      7.977
REMARK INTER + INTRA:          -6.077
REMARK INTER:                  -5.768
REMARK INTRA:                  -0.309
REMARK UNBOUND:                -0.350
REMARK SMILES Oc1cc(O)c2cc(O)c(-c3ccc(O)c(O)c3)[o+]c2c1
REMARK SMILES IDX 10 1 19 2 20 3 21 4 2 5 3 6 4 7 6 8 7 9 8 10 11 11 12 12
REMARK SMILES IDX 13 13 14 14 18 15 16 16 15 17 17 19 9 21 1 23 5 25
REMARK H PARENT 15 18 17 20 9 22 1 24 5 26
REMARK Flexibility Score: inf
ROOT
ATOM      1  C   UNL     1      46.410  15.334  -4.980  1.00  0.00     0.402 A 
ATOM      2  O   UNL     1      45.814  16.039  -4.023  1.00  0.00    -0.202 OA
ATOM      3  C   UNL     1      44.543  15.869  -3.674  1.00  0.00     0.368 A 
ATOM      4  C   UNL     1      44.005  16.662  -2.657  1.00  0.00     0.162 A 
ATOM      5  C   UNL     1      42.670  16.506  -2.272  1.00  0.00     0.128 A 
ATOM      6  C   UNL     1      41.870  15.553  -2.907  1.00  0.00     0.093 A 
ATOM      7  C   UNL     1      42.385  14.746  -3.929  1.00  0.00     0.136 A 
ATOM      8  C   UNL     1      43.741  14.899  -4.322  1.00  0.00     0.125 A 
ATOM      9  C   UNL     1      44.346  14.126  -5.326  1.00  0.00     0.078 A 
ATOM     10  C   UNL     1      45.689  14.331  -5.655  1.00  0.00     0.223 A 
ENDROOT
BRANCH   1  11
ATOM     11  C   UNL     1      47.829  15.624  -5.284  1.00  0.00     0.087 A 
ATOM     12  C   UNL     1      48.201  16.746  -6.044  1.00  0.00     0.022 A 
ATOM     13  C   UNL     1      49.550  17.012  -6.298  1.00  0.00     0.051 A 
ATOM     14  C   UNL     1      50.545  16.173  -5.788  1.00  0.00     0.157 A 
ATOM     15  C   UNL     1      48.833  14.794  -4.755  1.00  0.00     0.068 A 
ATOM     16  C   UNL     1      50.186  15.059  -5.010  1.00  0.00     0.158 A 
BRANCH  14  17
ATOM     17  O   UNL     1      51.882  16.462  -6.060  1.00  0.00    -0.504 OA
ATOM     18  H   UNL     1      52.336  17.294  -5.704  1.00  0.00     0.293 HD
ENDBRANCH  14  17
BRANCH  16  19
ATOM     19  O   UNL     1      51.173  14.221  -4.493  1.00  0.00    -0.504 OA
ATOM     20  H   UNL     1      51.768  14.512  -3.726  1.00  0.00     0.293 HD
ENDBRANCH  16  19
ENDBRANCH   1  11
BRANCH  10  21
ATOM     21  O   UNL     1      46.303  13.530  -6.618  1.00  0.00    -0.500 OA
ATOM     22  H   UNL     1      47.228  13.142  -6.476  1.00  0.00     0.294 HD
ENDBRANCH  10  21
BRANCH   5  23
ATOM     23  O   UNL     1      42.127  17.294  -1.259  1.00  0.00    -0.507 OA
ATOM     24  H   UNL     1      42.332  17.117  -0.282  1.00  0.00     0.293 HD
ENDBRANCH   5  23
BRANCH   7  25
ATOM     25  O   UNL     1      41.519  13.820  -4.516  1.00  0.00    -0.507 OA
ATOM     26  H   UNL     1      41.113  13.921  -5.434  1.00  0.00     0.293 HD
ENDBRANCH   7  25
TORSDOF 6
ENDMDL
