MODEL 1
REMARK VINA RESULT:    -3.655      0.000      0.000
REMARK INTER + INTRA:          -6.807
REMARK INTER:                  -6.218
REMARK INTRA:                  -0.588
REMARK UNBOUND:                -0.588
REMARK SMILES CCCCCCCCCCCCCC(=O)[O-]
REMARK SMILES IDX 8 1 9 2 10 3 11 4 12 5 13 6 14 7 15 8 16 9 7 10 6 11 5 12
REMARK SMILES IDX 4 13 3 14 2 15 1 16
REMARK H PARENT
REMARK Flexibility Score: inf
ROOT
ATOM      1  C   UNL     1      11.204  -7.861   6.399  1.00  0.00     0.000 C 
ENDROOT
BRANCH   1   2
ATOM      2  C   UNL     1      12.603  -8.114   5.824  1.00  0.00     0.000 C 
BRANCH   2   3
ATOM      3  C   UNL     1      13.636  -8.284   6.949  1.00  0.00     0.000 C 
BRANCH   3   4
ATOM      4  C   UNL     1      15.080  -8.337   6.424  1.00  0.00     0.000 C 
BRANCH   4   5
ATOM      5  C   UNL     1      15.950  -7.189   6.966  1.00  0.00     0.006 C 
BRANCH   5   6
ATOM      6  C   UNL     1      17.321  -7.128   6.280  1.00  0.00     0.053 C 
BRANCH   6   7
ATOM      7  C   UNL     1      18.435  -7.436   7.233  1.00  0.00     0.041 C 
ATOM      8  O   UNL     1      19.264  -8.346   6.965  1.00  0.00    -0.550 OA
ATOM      9  O   UNL     1      18.576  -6.700   8.402  1.00  0.00    -0.550 OA
ENDBRANCH   6   7
ENDBRANCH   5   6
ENDBRANCH   4   5
ENDBRANCH   3   4
ENDBRANCH   2   3
ENDBRANCH   1   2
BRANCH   1  10
ATOM     10  C   UNL     1      10.133  -7.955   5.302  1.00  0.00     0.000 C 
BRANCH  10  11
ATOM     11  C   UNL     1       9.142  -9.106   5.538  1.00  0.00    -0.000 C 
BRANCH  11  12
ATOM     12  C   UNL     1       8.842  -9.333   7.027  1.00  0.00    -0.000 C 
BRANCH  12  13
ATOM     13  C   UNL     1       7.536  -8.638   7.436  1.00  0.00    -0.000 C 
BRANCH  13  14
ATOM     14  C   UNL     1       6.614  -8.444   6.223  1.00  0.00    -0.000 C 
BRANCH  14  15
ATOM     15  C   UNL     1       6.104  -7.000   6.094  1.00  0.00    -0.003 C 
ATOM     16  C   UNL     1       5.066  -6.838   4.984  1.00  0.00     0.004 C 
ENDBRANCH  14  15
ENDBRANCH  13  14
ENDBRANCH  12  13
ENDBRANCH  11  12
ENDBRANCH  10  11
ENDBRANCH   1  10
TORSDOF 12
ENDMDL
MODEL 2
REMARK VINA RESULT:    -3.597      1.174      2.144
REMARK INTER + INTRA:          -6.708
REMARK INTER:                  -6.002
REMARK INTRA:                  -0.706
REMARK UNBOUND:                -0.588
REMARK SMILES CCCCCCCCCCCCCC(=O)[O-]
REMARK SMILES IDX 8 1 9 2 10 3 11 4 12 5 13 6 14 7 15 8 16 9 7 10 6 11 5 12
REMARK SMILES IDX 4 13 3 14 2 15 1 16
REMARK H PARENT
REMARK Flexibility Score: inf
ROOT
ATOM      1  C   UNL     1      12.431  -7.960   6.329  1.00  0.00     0.000 C 
ENDROOT
BRANCH   1   2
ATOM      2  C   UNL     1      13.086  -7.596   4.991  1.00  0.00     0.000 C 
BRANCH   2   3
ATOM      3  C   UNL     1      14.618  -7.592   5.112  1.00  0.00     0.000 C 
BRANCH   3   4
ATOM      4  C   UNL     1      15.099  -7.785   6.558  1.00  0.00     0.000 C 
BRANCH   4   5
ATOM      5  C   UNL     1      16.186  -6.772   6.961  1.00  0.00     0.006 C 
BRANCH   5   6
ATOM      6  C   UNL     1      17.563  -7.146   6.399  1.00  0.00     0.053 C 
BRANCH   6   7
ATOM      7  C   UNL     1      18.575  -7.342   7.487  1.00  0.00     0.041 C 
ATOM      8  O   UNL     1      18.574  -6.589   8.495  1.00  0.00    -0.550 OA
ATOM      9  O   UNL     1      19.499  -8.376   7.400  1.00  0.00    -0.550 OA
ENDBRANCH   6   7
ENDBRANCH   5   6
ENDBRANCH   4   5
ENDBRANCH   3   4
ENDBRANCH   2   3
ENDBRANCH   1   2
BRANCH   1  10
ATOM     10  C   UNL     1      10.953  -8.331   6.135  1.00  0.00     0.000 C 
BRANCH  10  11
ATOM     11  C   UNL     1      10.263  -7.478   5.060  1.00  0.00    -0.000 C 
BRANCH  11  12
ATOM     12  C   UNL     1       8.857  -7.989   4.710  1.00  0.00    -0.000 C 
BRANCH  12  13
ATOM     13  C   UNL     1       8.430  -9.114   5.662  1.00  0.00    -0.000 C 
BRANCH  13  14
ATOM     14  C   UNL     1       7.227  -8.685   6.514  1.00  0.00    -0.000 C 
BRANCH  14  15
ATOM     15  C   UNL     1       7.528  -8.717   8.020  1.00  0.00    -0.003 C 
ATOM     16  C   UNL     1       7.201 -10.067   8.659  1.00  0.00     0.004 C 
ENDBRANCH  14  15
ENDBRANCH  13  14
ENDBRANCH  12  13
ENDBRANCH  11  12
ENDBRANCH  10  11
ENDBRANCH   1  10
TORSDOF 12
ENDMDL
MODEL 3
REMARK VINA RESULT:    -3.468      1.157      2.272
REMARK INTER + INTRA:          -6.489
REMARK INTER:                  -5.866
REMARK INTRA:                  -0.622
REMARK UNBOUND:                -0.588
REMARK SMILES CCCCCCCCCCCCCC(=O)[O-]
REMARK SMILES IDX 8 1 9 2 10 3 11 4 12 5 13 6 14 7 15 8 16 9 7 10 6 11 5 12
REMARK SMILES IDX 4 13 3 14 2 15 1 16
REMARK H PARENT
REMARK Flexibility Score: inf
ROOT
ATOM      1  C   UNL     1      13.361  -8.253   6.543  1.00  0.00     0.000 C 
ENDROOT
BRANCH   1   2
ATOM      2  C   UNL     1      14.854  -8.564   6.382  1.00  0.00     0.000 C 
BRANCH   2   3
ATOM      3  C   UNL     1      15.708  -7.316   6.658  1.00  0.00     0.000 C 
BRANCH   3   4
ATOM      4  C   UNL     1      16.515  -6.867   5.430  1.00  0.00     0.000 C 
BRANCH   4   5
ATOM      5  C   UNL     1      18.002  -7.253   5.525  1.00  0.00     0.006 C 
BRANCH   5   6
ATOM      6  C   UNL     1      18.459  -7.446   6.977  1.00  0.00     0.053 C 
BRANCH   6   7
ATOM      7  C   UNL     1      19.379  -8.619   7.123  1.00  0.00     0.041 C 
ATOM      8  O   UNL     1      19.834  -9.197   6.101  1.00  0.00    -0.550 OA
ATOM      9  O   UNL     1      19.759  -9.054   8.386  1.00  0.00    -0.550 OA
ENDBRANCH   6   7
ENDBRANCH   5   6
ENDBRANCH   4   5
ENDBRANCH   3   4
ENDBRANCH   2   3
ENDBRANCH   1   2
BRANCH   1  10
ATOM     10  C   UNL     1      12.723  -7.902   5.190  1.00  0.00     0.000 C 
BRANCH  10  11
ATOM     11  C   UNL     1      11.239  -7.524   5.315  1.00  0.00    -0.000 C 
BRANCH  11  12
ATOM     12  C   UNL     1      10.556  -8.195   6.516  1.00  0.00    -0.000 C 
BRANCH  12  13
ATOM     13  C   UNL     1       9.307  -8.970   6.074  1.00  0.00    -0.000 C 
BRANCH  13  14
ATOM     14  C   UNL     1       8.558  -9.543   7.286  1.00  0.00    -0.000 C 
BRANCH  14  15
ATOM     15  C   UNL     1       7.293  -8.743   7.632  1.00  0.00    -0.003 C 
ATOM     16  C   UNL     1       6.769  -7.927   6.451  1.00  0.00     0.004 C 
ENDBRANCH  14  15
ENDBRANCH  13  14
ENDBRANCH  12  13
ENDBRANCH  11  12
ENDBRANCH  10  11
ENDBRANCH   1  10
TORSDOF 12
ENDMDL
MODEL 4
REMARK VINA RESULT:    -3.414      4.733      9.438
REMARK INTER + INTRA:          -6.397
REMARK INTER:                  -5.735
REMARK INTRA:                  -0.662
REMARK UNBOUND:                -0.588
REMARK SMILES CCCCCCCCCCCCCC(=O)[O-]
REMARK SMILES IDX 8 1 9 2 10 3 11 4 12 5 13 6 14 7 15 8 16 9 7 10 6 11 5 12
REMARK SMILES IDX 4 13 3 14 2 15 1 16
REMARK H PARENT
REMARK Flexibility Score: inf
ROOT
ATOM      1  C   UNL     1      12.873  -7.916   5.696  1.00  0.00     0.000 C 
ENDROOT
BRANCH   1   2
ATOM      2  C   UNL     1      11.398  -7.875   6.114  1.00  0.00     0.000 C 
BRANCH   2   3
ATOM      3  C   UNL     1      10.502  -8.489   5.027  1.00  0.00     0.000 C 
BRANCH   3   4
ATOM      4  C   UNL     1       9.026  -8.090   5.180  1.00  0.00     0.000 C 
BRANCH   4   5
ATOM      5  C   UNL     1       8.223  -9.103   6.016  1.00  0.00     0.006 C 
BRANCH   5   6
ATOM      6  C   UNL     1       7.197  -8.417   6.928  1.00  0.00     0.053 C 
BRANCH   6   7
ATOM      7  C   UNL     1       6.164  -7.668   6.143  1.00  0.00     0.041 C 
ATOM      8  O   UNL     1       5.445  -8.273   5.304  1.00  0.00    -0.550 OA
ATOM      9  O   UNL     1       5.975  -6.309   6.359  1.00  0.00    -0.550 OA
ENDBRANCH   6   7
ENDBRANCH   5   6
ENDBRANCH   4   5
ENDBRANCH   3   4
ENDBRANCH   2   3
ENDBRANCH   1   2
BRANCH   1  10
ATOM     10  C   UNL     1      13.773  -8.276   6.887  1.00  0.00     0.000 C 
BRANCH  10  11
ATOM     11  C   UNL     1      15.266  -8.066   6.588  1.00  0.00    -0.000 C 
BRANCH  11  12
ATOM     12  C   UNL     1      15.505  -7.101   5.417  1.00  0.00    -0.000 C 
BRANCH  12  13
ATOM     13  C   UNL     1      17.005  -6.907   5.163  1.00  0.00    -0.000 C 
BRANCH  13  14
ATOM     14  C   UNL     1      17.833  -7.933   5.949  1.00  0.00    -0.000 C 
BRANCH  14  15
ATOM     15  C   UNL     1      18.985  -7.286   6.735  1.00  0.00    -0.003 C 
ATOM     16  C   UNL     1      18.592  -6.921   8.166  1.00  0.00     0.004 C 
ENDBRANCH  14  15
ENDBRANCH  13  14
ENDBRANCH  12  13
ENDBRANCH  11  12
ENDBRANCH  10  11
ENDBRANCH   1  10
TORSDOF 12
ENDMDL
MODEL 5
REMARK VINA RESULT:    -3.389      4.436      9.315
REMARK INTER + INTRA:          -6.355
REMARK INTER:                  -5.667
REMARK INTRA:                  -0.688
REMARK UNBOUND:                -0.588
REMARK SMILES CCCCCCCCCCCCCC(=O)[O-]
REMARK SMILES IDX 8 1 9 2 10 3 11 4 12 5 13 6 14 7 15 8 16 9 7 10 6 11 5 12
REMARK SMILES IDX 4 13 3 14 2 15 1 16
REMARK H PARENT
REMARK Flexibility Score: inf
ROOT
ATOM      1  C   UNL     1      13.596  -8.254   6.449  1.00  0.00     0.000 C 
ENDROOT
BRANCH   1   2
ATOM      2  C   UNL     1      13.145  -7.909   5.024  1.00  0.00     0.000 C 
BRANCH   2   3
ATOM      3  C   UNL     1      11.694  -7.404   5.013  1.00  0.00     0.000 C 
BRANCH   3   4
ATOM      4  C   UNL     1      10.870  -7.943   6.193  1.00  0.00     0.000 C 
BRANCH   4   5
ATOM      5  C   UNL     1       9.437  -8.333   5.785  1.00  0.00     0.006 C 
BRANCH   5   6
ATOM      6  C   UNL     1       8.845  -9.408   6.706  1.00  0.00     0.053 C 
BRANCH   6   7
ATOM      7  C   UNL     1       7.607  -8.929   7.399  1.00  0.00     0.041 C 
ATOM      8  O   UNL     1       6.848  -8.097   6.836  1.00  0.00    -0.550 OA
ATOM      9  O   UNL     1       7.275  -9.425   8.653  1.00  0.00    -0.550 OA
ENDBRANCH   6   7
ENDBRANCH   5   6
ENDBRANCH   4   5
ENDBRANCH   3   4
ENDBRANCH   2   3
ENDBRANCH   1   2
BRANCH   1  10
ATOM     10  C   UNL     1      15.113  -8.484   6.505  1.00  0.00     0.000 C 
BRANCH  10  11
ATOM     11  C   UNL     1      15.911  -7.172   6.570  1.00  0.00    -0.000 C 
BRANCH  11  12
ATOM     12  C   UNL     1      16.678  -6.882   5.271  1.00  0.00    -0.000 C 
BRANCH  12  13
ATOM     13  C   UNL     1      18.175  -7.170   5.442  1.00  0.00    -0.000 C 
BRANCH  13  14
ATOM     14  C   UNL     1      18.559  -7.220   6.928  1.00  0.00    -0.000 C 
BRANCH  14  15
ATOM     15  C   UNL     1      19.269  -8.528   7.311  1.00  0.00    -0.003 C 
ATOM     16  C   UNL     1      20.190  -9.046   6.206  1.00  0.00     0.004 C 
ENDBRANCH  14  15
ENDBRANCH  13  14
ENDBRANCH  12  13
ENDBRANCH  11  12
ENDBRANCH  10  11
ENDBRANCH   1  10
TORSDOF 12
ENDMDL
MODEL 6
REMARK VINA RESULT:    -3.229      4.058      8.929
REMARK INTER + INTRA:          -6.082
REMARK INTER:                  -5.026
REMARK INTRA:                  -1.056
REMARK UNBOUND:                -0.588
REMARK SMILES CCCCCCCCCCCCCC(=O)[O-]
REMARK SMILES IDX 8 1 9 2 10 3 11 4 12 5 13 6 14 7 15 8 16 9 7 10 6 11 5 12
REMARK SMILES IDX 4 13 3 14 2 15 1 16
REMARK H PARENT
REMARK Flexibility Score: inf
ROOT
ATOM      1  C   UNL     1      15.282  -7.680   6.500  1.00  0.00     0.000 C 
ENDROOT
BRANCH   1   2
ATOM      2  C   UNL     1      13.889  -8.302   6.652  1.00  0.00     0.000 C 
BRANCH   2   3
ATOM      3  C   UNL     1      12.986  -7.923   5.468  1.00  0.00     0.000 C 
BRANCH   3   4
ATOM      4  C   UNL     1      12.496  -9.148   4.680  1.00  0.00     0.000 C 
BRANCH   4   5
ATOM      5  C   UNL     1      11.017  -9.036   4.271  1.00  0.00     0.006 C 
BRANCH   5   6
ATOM      6  C   UNL     1      10.182  -8.283   5.315  1.00  0.00     0.053 C 
BRANCH   6   7
ATOM      7  C   UNL     1       9.369  -7.188   4.696  1.00  0.00     0.041 C 
ATOM      8  O   UNL     1       9.940  -6.221   4.127  1.00  0.00    -0.550 OA
ATOM      9  O   UNL     1       7.982  -7.250   4.722  1.00  0.00    -0.550 OA
ENDBRANCH   6   7
ENDBRANCH   5   6
ENDBRANCH   4   5
ENDBRANCH   3   4
ENDBRANCH   2   3
ENDBRANCH   1   2
BRANCH   1  10
ATOM     10  C   UNL     1      15.788  -7.808   5.055  1.00  0.00     0.000 C 
BRANCH  10  11
ATOM     11  C   UNL     1      16.287  -6.473   4.480  1.00  0.00    -0.000 C 
BRANCH  11  12
ATOM     12  C   UNL     1      17.763  -6.525   4.058  1.00  0.00    -0.000 C 
BRANCH  12  13
ATOM     13  C   UNL     1      18.492  -7.682   4.753  1.00  0.00    -0.000 C 
BRANCH  13  14
ATOM     14  C   UNL     1      19.362  -7.169   5.909  1.00  0.00    -0.000 C 
BRANCH  14  15
ATOM     15  C   UNL     1      18.994  -7.810   7.256  1.00  0.00    -0.003 C 
ATOM     16  C   UNL     1      18.557  -6.783   8.300  1.00  0.00     0.004 C 
ENDBRANCH  14  15
ENDBRANCH  13  14
ENDBRANCH  12  13
ENDBRANCH  11  12
ENDBRANCH  10  11
ENDBRANCH   1  10
TORSDOF 12
ENDMDL
MODEL 7
REMARK VINA RESULT:    -3.024      3.378      6.111
REMARK INTER + INTRA:          -5.733
REMARK INTER:                  -4.423
REMARK INTRA:                  -1.310
REMARK UNBOUND:                -0.588
REMARK SMILES CCCCCCCCCCCCCC(=O)[O-]
REMARK SMILES IDX 8 1 9 2 10 3 11 4 12 5 13 6 14 7 15 8 16 9 7 10 6 11 5 12
REMARK SMILES IDX 4 13 3 14 2 15 1 16
REMARK H PARENT
REMARK Flexibility Score: inf
ROOT
ATOM      1  C   UNL     1      18.896  -6.436   4.711  1.00  0.00     0.000 C 
ENDROOT
BRANCH   1   2
ATOM      2  C   UNL     1      20.025  -7.422   4.390  1.00  0.00     0.000 C 
BRANCH   2   3
ATOM      3  C   UNL     1      19.598  -8.866   4.698  1.00  0.00     0.000 C 
BRANCH   3   4
ATOM      4  C   UNL     1      20.015  -9.320   6.106  1.00  0.00     0.000 C 
BRANCH   4   5
ATOM      5  C   UNL     1      18.905  -9.104   7.151  1.00  0.00     0.006 C 
BRANCH   5   6
ATOM      6  C   UNL     1      19.381  -8.249   8.333  1.00  0.00     0.053 C 
BRANCH   6   7
ATOM      7  C   UNL     1      18.697  -6.916   8.369  1.00  0.00     0.041 C 
ATOM      8  O   UNL     1      17.479  -6.822   8.064  1.00  0.00    -0.550 OA
ATOM      9  O   UNL     1      19.397  -5.785   8.769  1.00  0.00    -0.550 OA
ENDBRANCH   6   7
ENDBRANCH   5   6
ENDBRANCH   4   5
ENDBRANCH   3   4
ENDBRANCH   2   3
ENDBRANCH   1   2
BRANCH   1  10
ATOM     10  C   UNL     1      17.644  -6.742   3.875  1.00  0.00     0.000 C 
BRANCH  10  11
ATOM     11  C   UNL     1      16.356  -6.742   4.714  1.00  0.00    -0.000 C 
BRANCH  11  12
ATOM     12  C   UNL     1      15.974  -8.144   5.210  1.00  0.00    -0.000 C 
BRANCH  12  13
ATOM     13  C   UNL     1      14.641  -8.598   4.601  1.00  0.00    -0.000 C 
BRANCH  13  14
ATOM     14  C   UNL     1      13.754  -7.391   4.258  1.00  0.00    -0.000 C 
BRANCH  14  15
ATOM     15  C   UNL     1      12.259  -7.682   4.458  1.00  0.00    -0.003 C 
ATOM     16  C   UNL     1      11.865  -7.769   5.932  1.00  0.00     0.004 C 
ENDBRANCH  14  15
ENDBRANCH  13  14
ENDBRANCH  12  13
ENDBRANCH  11  12
ENDBRANCH  10  11
ENDBRANCH   1  10
TORSDOF 12
ENDMDL
MODEL 8
REMARK VINA RESULT:    -2.892      3.058      4.879
REMARK INTER + INTRA:          -5.509
REMARK INTER:                  -4.456
REMARK INTRA:                  -1.053
REMARK UNBOUND:                -0.588
REMARK SMILES CCCCCCCCCCCCCC(=O)[O-]
REMARK SMILES IDX 8 1 9 2 10 3 11 4 12 5 13 6 14 7 15 8 16 9 7 10 6 11 5 12
REMARK SMILES IDX 4 13 3 14 2 15 1 16
REMARK H PARENT
REMARK Flexibility Score: inf
ROOT
ATOM      1  C   UNL     1       7.119  -8.884   7.207  1.00  0.00     0.000 C 
ENDROOT
BRANCH   1   2
ATOM      2  C   UNL     1       8.605  -8.713   6.870  1.00  0.00     0.000 C 
BRANCH   2   3
ATOM      3  C   UNL     1       9.013  -9.630   5.705  1.00  0.00     0.000 C 
BRANCH   3   4
ATOM      4  C   UNL     1       9.441  -8.845   4.455  1.00  0.00     0.000 C 
BRANCH   4   5
ATOM      5  C   UNL     1      10.971  -8.764   4.302  1.00  0.00     0.006 C 
BRANCH   5   6
ATOM      6  C   UNL     1      11.557  -7.527   4.994  1.00  0.00     0.053 C 
BRANCH   6   7
ATOM      7  C   UNL     1      12.771  -7.863   5.806  1.00  0.00     0.041 C 
ATOM      8  O   UNL     1      12.645  -8.291   6.983  1.00  0.00    -0.550 OA
ATOM      9  O   UNL     1      14.037  -7.734   5.251  1.00  0.00    -0.550 OA
ENDBRANCH   6   7
ENDBRANCH   5   6
ENDBRANCH   4   5
ENDBRANCH   3   4
ENDBRANCH   2   3
ENDBRANCH   1   2
BRANCH   1  10
ATOM     10  C   UNL     1       6.377  -9.610   6.075  1.00  0.00     0.000 C 
BRANCH  10  11
ATOM     11  C   UNL     1       5.319  -8.726   5.397  1.00  0.00    -0.000 C 
BRANCH  11  12
ATOM     12  C   UNL     1       5.748  -8.256   3.998  1.00  0.00    -0.000 C 
BRANCH  12  13
ATOM     13  C   UNL     1       5.835  -6.726   3.936  1.00  0.00    -0.000 C 
BRANCH  13  14
ATOM     14  C   UNL     1       4.796  -6.078   4.863  1.00  0.00    -0.000 C 
BRANCH  14  15
ATOM     15  C   UNL     1       3.654  -5.402   4.090  1.00  0.00    -0.003 C 
ATOM     16  C   UNL     1       3.147  -4.133   4.774  1.00  0.00     0.004 C 
ENDBRANCH  14  15
ENDBRANCH  13  14
ENDBRANCH  12  13
ENDBRANCH  11  12
ENDBRANCH  10  11
ENDBRANCH   1  10
TORSDOF 12
ENDMDL
MODEL 9
REMARK VINA RESULT:    -2.612      1.289      2.186
REMARK INTER + INTRA:          -5.033
REMARK INTER:                  -4.096
REMARK INTRA:                  -0.936
REMARK UNBOUND:                -0.588
REMARK SMILES CCCCCCCCCCCCCC(=O)[O-]
REMARK SMILES IDX 8 1 9 2 10 3 11 4 12 5 13 6 14 7 15 8 16 9 7 10 6 11 5 12
REMARK SMILES IDX 4 13 3 14 2 15 1 16
REMARK H PARENT
REMARK Flexibility Score: inf
ROOT
ATOM      1  C   UNL     1      10.717  -8.323   5.907  1.00  0.00     0.000 C 
ENDROOT
BRANCH   1   2
ATOM      2  C   UNL     1      12.175  -7.850   5.881  1.00  0.00     0.000 C 
BRANCH   2   3
ATOM      3  C   UNL     1      12.922  -8.298   7.147  1.00  0.00     0.000 C 
BRANCH   3   4
ATOM      4  C   UNL     1      14.401  -8.619   6.881  1.00  0.00     0.000 C 
BRANCH   4   5
ATOM      5  C   UNL     1      14.892  -8.071   5.529  1.00  0.00     0.006 C 
BRANCH   5   6
ATOM      6  C   UNL     1      15.788  -6.837   5.695  1.00  0.00     0.053 C 
BRANCH   6   7
ATOM      7  C   UNL     1      17.022  -7.146   6.487  1.00  0.00     0.041 C 
ATOM      8  O   UNL     1      17.108  -6.787   7.691  1.00  0.00    -0.550 OA
ATOM      9  O   UNL     1      18.064  -7.856   5.905  1.00  0.00    -0.550 OA
ENDBRANCH   6   7
ENDBRANCH   5   6
ENDBRANCH   4   5
ENDBRANCH   3   4
ENDBRANCH   2   3
ENDBRANCH   1   2
BRANCH   1  10
ATOM     10  C   UNL     1      10.430  -9.286   4.745  1.00  0.00     0.000 C 
BRANCH  10  11
ATOM     11  C   UNL     1       8.955  -9.713   4.680  1.00  0.00    -0.000 C 
BRANCH  11  12
ATOM     12  C   UNL     1       7.991  -8.517   4.696  1.00  0.00    -0.000 C 
BRANCH  12  13
ATOM     13  C   UNL     1       6.751  -8.824   5.546  1.00  0.00    -0.000 C 
BRANCH  13  14
ATOM     14  C   UNL     1       6.762  -8.011   6.849  1.00  0.00    -0.000 C 
BRANCH  14  15
ATOM     15  C   UNL     1       7.635  -8.654   7.938  1.00  0.00    -0.003 C 
ATOM     16  C   UNL     1       7.296 -10.125   8.175  1.00  0.00     0.004 C 
ENDBRANCH  14  15
ENDBRANCH  13  14
ENDBRANCH  12  13
ENDBRANCH  11  12
ENDBRANCH  10  11
ENDBRANCH   1  10
TORSDOF 12
ENDMDL
