MODEL 1
REMARK VINA RESULT:    -4.860      0.000      0.000
REMARK INTER + INTRA:          -8.508
REMARK INTER:                  -7.701
REMARK INTRA:                  -0.806
REMARK UNBOUND:                -0.806
REMARK SMILES CCCCCCCCCCCC(=O)[O-]
REMARK SMILES IDX 7 1 8 2 9 3 10 4 11 5 12 6 13 7 14 8 6 9 5 10 4 11 3 12 2 13
REMARK SMILES IDX 1 14
REMARK H PARENT
REMARK Flexibility Score: inf
ROOT
ATOM      1  C   UNL     1      48.933  33.749  17.073  1.00  0.00     0.000 C 
ENDROOT
BRANCH   1   2
ATOM      2  C   UNL     1      49.205  32.296  17.482  1.00  0.00     0.000 C 
BRANCH   2   3
ATOM      3  C   UNL     1      47.921  31.614  17.975  1.00  0.00     0.000 C 
BRANCH   3   4
ATOM      4  C   UNL     1      47.866  30.121  17.613  1.00  0.00     0.006 C 
BRANCH   4   5
ATOM      5  C   UNL     1      47.639  29.885  16.114  1.00  0.00     0.053 C 
BRANCH   5   6
ATOM      6  C   UNL     1      48.753  29.066  15.540  1.00  0.00     0.041 C 
ATOM      7  O   UNL     1      48.507  27.962  14.988  1.00  0.00    -0.550 OA
ATOM      8  O   UNL     1      50.055  29.545  15.572  1.00  0.00    -0.550 OA
ENDBRANCH   5   6
ENDBRANCH   4   5
ENDBRANCH   3   4
ENDBRANCH   2   3
ENDBRANCH   1   2
BRANCH   1   9
ATOM      9  C   UNL     1      47.876  33.821  15.964  1.00  0.00     0.000 C 
BRANCH   9  10
ATOM     10  C   UNL     1      48.406  33.220  14.658  1.00  0.00    -0.000 C 
BRANCH  10  11
ATOM     11  C   UNL     1      48.840  34.319  13.680  1.00  0.00    -0.000 C 
BRANCH  11  12
ATOM     12  C   UNL     1      48.041  34.238  12.372  1.00  0.00    -0.000 C 
BRANCH  12  13
ATOM     13  C   UNL     1      48.814  33.527  11.251  1.00  0.00    -0.003 C 
ATOM     14  C   UNL     1      50.330  33.609  11.434  1.00  0.00     0.004 C 
ENDBRANCH  12  13
ENDBRANCH  11  12
ENDBRANCH  10  11
ENDBRANCH   9  10
ENDBRANCH   1   9
TORSDOF 10
ENDMDL
MODEL 2
REMARK VINA RESULT:    -4.646     12.687     14.570
REMARK INTER + INTRA:          -8.169
REMARK INTER:                  -6.628
REMARK INTRA:                  -1.541
REMARK UNBOUND:                -0.806
REMARK SMILES CCCCCCCCCCCC(=O)[O-]
REMARK SMILES IDX 7 1 8 2 9 3 10 4 11 5 12 6 13 7 14 8 6 9 5 10 4 11 3 12 2 13
REMARK SMILES IDX 1 14
REMARK H PARENT
REMARK Flexibility Score: inf
ROOT
ATOM      1  C   UNL     1      37.998  39.060  22.911  1.00  0.00     0.000 C 
ENDROOT
BRANCH   1   2
ATOM      2  C   UNL     1      38.708  38.722  21.595  1.00  0.00     0.000 C 
BRANCH   2   3
ATOM      3  C   UNL     1      39.871  39.690  21.333  1.00  0.00     0.000 C 
BRANCH   3   4
ATOM      4  C   UNL     1      39.843  40.916  22.260  1.00  0.00     0.006 C 
BRANCH   4   5
ATOM      5  C   UNL     1      41.213  41.218  22.882  1.00  0.00     0.053 C 
BRANCH   5   6
ATOM      6  C   UNL     1      41.106  41.276  24.374  1.00  0.00     0.041 C 
ATOM      7  O   UNL     1      40.627  40.303  25.013  1.00  0.00    -0.550 OA
ATOM      8  O   UNL     1      41.582  42.384  25.062  1.00  0.00    -0.550 OA
ENDBRANCH   5   6
ENDBRANCH   4   5
ENDBRANCH   3   4
ENDBRANCH   2   3
ENDBRANCH   1   2
BRANCH   1   9
ATOM      9  C   UNL     1      38.078  37.890  23.898  1.00  0.00     0.000 C 
BRANCH   9  10
ATOM     10  C   UNL     1      38.657  36.641  23.225  1.00  0.00    -0.000 C 
BRANCH  10  11
ATOM     11  C   UNL     1      39.803  36.048  24.055  1.00  0.00    -0.000 C 
BRANCH  11  12
ATOM     12  C   UNL     1      41.018  36.987  24.066  1.00  0.00    -0.000 C 
BRANCH  12  13
ATOM     13  C   UNL     1      41.804  36.950  22.747  1.00  0.00    -0.003 C 
ATOM     14  C   UNL     1      42.955  37.956  22.717  1.00  0.00     0.004 C 
ENDBRANCH  12  13
ENDBRANCH  11  12
ENDBRANCH  10  11
ENDBRANCH   9  10
ENDBRANCH   1   9
TORSDOF 10
ENDMDL
MODEL 3
REMARK VINA RESULT:    -4.563      3.693      5.229
REMARK INTER + INTRA:          -8.036
REMARK INTER:                  -7.607
REMARK INTRA:                  -0.429
REMARK UNBOUND:                -0.806
REMARK SMILES CCCCCCCCCCCC(=O)[O-]
REMARK SMILES IDX 7 1 8 2 9 3 10 4 11 5 12 6 13 7 14 8 6 9 5 10 4 11 3 12 2 13
REMARK SMILES IDX 1 14
REMARK H PARENT
REMARK Flexibility Score: inf
ROOT
ATOM      1  C   UNL     1      47.421  34.605  12.304  1.00  0.00     0.000 C 
ENDROOT
BRANCH   1   2
ATOM      2  C   UNL     1      48.578  34.447  13.296  1.00  0.00     0.000 C 
BRANCH   2   3
ATOM      3  C   UNL     1      48.175  33.547  14.473  1.00  0.00     0.000 C 
BRANCH   3   4
ATOM      4  C   UNL     1      48.697  34.066  15.823  1.00  0.00     0.006 C 
BRANCH   4   5
ATOM      5  C   UNL     1      47.829  33.614  17.005  1.00  0.00     0.053 C 
BRANCH   5   6
ATOM      6  C   UNL     1      48.451  32.436  17.687  1.00  0.00     0.041 C 
ATOM      7  O   UNL     1      47.727  31.507  18.131  1.00  0.00    -0.550 OA
ATOM      8  O   UNL     1      49.833  32.341  17.789  1.00  0.00    -0.550 OA
ENDBRANCH   5   6
ENDBRANCH   4   5
ENDBRANCH   3   4
ENDBRANCH   2   3
ENDBRANCH   1   2
BRANCH   1   9
ATOM      9  C   UNL     1      46.508  35.771  12.701  1.00  0.00     0.000 C 
BRANCH   9  10
ATOM     10  C   UNL     1      45.032  35.369  12.617  1.00  0.00    -0.000 C 
BRANCH  10  11
ATOM     11  C   UNL     1      44.129  36.603  12.498  1.00  0.00    -0.000 C 
BRANCH  11  12
ATOM     12  C   UNL     1      42.749  36.225  11.943  1.00  0.00    -0.000 C 
BRANCH  12  13
ATOM     13  C   UNL     1      42.325  37.109  10.760  1.00  0.00    -0.003 C 
ATOM     14  C   UNL     1      42.898  38.525  10.846  1.00  0.00     0.004 C 
ENDBRANCH  12  13
ENDBRANCH  11  12
ENDBRANCH  10  11
ENDBRANCH   9  10
ENDBRANCH   1   9
TORSDOF 10
ENDMDL
MODEL 4
REMARK VINA RESULT:    -4.400      6.384      8.765
REMARK INTER + INTRA:          -7.779
REMARK INTER:                  -6.928
REMARK INTRA:                  -0.851
REMARK UNBOUND:                -0.806
REMARK SMILES CCCCCCCCCCCC(=O)[O-]
REMARK SMILES IDX 7 1 8 2 9 3 10 4 11 5 12 6 13 7 14 8 6 9 5 10 4 11 3 12 2 13
REMARK SMILES IDX 1 14
REMARK H PARENT
REMARK Flexibility Score: inf
ROOT
ATOM      1  C   UNL     1      48.380  25.646  19.512  1.00  0.00     0.000 C 
ENDROOT
BRANCH   1   2
ATOM      2  C   UNL     1      49.672  25.024  18.969  1.00  0.00     0.000 C 
BRANCH   2   3
ATOM      3  C   UNL     1      49.612  24.877  17.441  1.00  0.00     0.000 C 
BRANCH   3   4
ATOM      4  C   UNL     1      48.438  25.648  16.817  1.00  0.00     0.006 C 
BRANCH   4   5
ATOM      5  C   UNL     1      48.482  25.651  15.283  1.00  0.00     0.053 C 
BRANCH   5   6
ATOM      6  C   UNL     1      49.721  26.337  14.799  1.00  0.00     0.041 C 
ATOM      7  O   UNL     1      50.441  25.795  13.920  1.00  0.00    -0.550 OA
ATOM      8  O   UNL     1      50.053  27.595  15.282  1.00  0.00    -0.550 OA
ENDBRANCH   5   6
ENDBRANCH   4   5
ENDBRANCH   3   4
ENDBRANCH   2   3
ENDBRANCH   1   2
BRANCH   1   9
ATOM      9  C   UNL     1      48.335  25.574  21.043  1.00  0.00     0.000 C 
BRANCH   9  10
ATOM     10  C   UNL     1      48.414  26.974  21.662  1.00  0.00    -0.000 C 
BRANCH  10  11
ATOM     11  C   UNL     1      49.617  27.092  22.607  1.00  0.00    -0.000 C 
BRANCH  11  12
ATOM     12  C   UNL     1      50.426  25.788  22.633  1.00  0.00    -0.000 C 
BRANCH  12  13
ATOM     13  C   UNL     1      51.893  25.996  22.228  1.00  0.00    -0.003 C 
ATOM     14  C   UNL     1      52.248  27.469  22.024  1.00  0.00     0.004 C 
ENDBRANCH  12  13
ENDBRANCH  11  12
ENDBRANCH  10  11
ENDBRANCH   9  10
ENDBRANCH   1   9
TORSDOF 10
ENDMDL
MODEL 5
REMARK VINA RESULT:    -4.385      8.766     10.309
REMARK INTER + INTRA:          -7.755
REMARK INTER:                  -6.347
REMARK INTRA:                  -1.408
REMARK UNBOUND:                -0.806
REMARK SMILES CCCCCCCCCCCC(=O)[O-]
REMARK SMILES IDX 7 1 8 2 9 3 10 4 11 5 12 6 13 7 14 8 6 9 5 10 4 11 3 12 2 13
REMARK SMILES IDX 1 14
REMARK H PARENT
REMARK Flexibility Score: inf
ROOT
ATOM      1  C   UNL     1      40.093  39.411  12.790  1.00  0.00     0.000 C 
ENDROOT
BRANCH   1   2
ATOM      2  C   UNL     1      40.402  38.431  13.928  1.00  0.00     0.000 C 
BRANCH   2   3
ATOM      3  C   UNL     1      39.523  37.176  13.826  1.00  0.00     0.000 C 
BRANCH   3   4
ATOM      4  C   UNL     1      39.284  36.736  12.373  1.00  0.00     0.006 C 
BRANCH   4   5
ATOM      5  C   UNL     1      39.509  35.232  12.167  1.00  0.00     0.053 C 
BRANCH   5   6
ATOM      6  C   UNL     1      39.557  34.907  10.706  1.00  0.00     0.041 C 
ATOM      7  O   UNL     1      40.638  34.540  10.175  1.00  0.00    -0.550 OA
ATOM      8  O   UNL     1      38.398  34.963   9.943  1.00  0.00    -0.550 OA
ENDBRANCH   5   6
ENDBRANCH   4   5
ENDBRANCH   3   4
ENDBRANCH   2   3
ENDBRANCH   1   2
BRANCH   1   9
ATOM      9  C   UNL     1      41.355  39.730  11.979  1.00  0.00     0.000 C 
BRANCH   9  10
ATOM     10  C   UNL     1      41.228  39.217  10.540  1.00  0.00    -0.000 C 
BRANCH  10  11
ATOM     11  C   UNL     1      42.127  37.996  10.308  1.00  0.00    -0.000 C 
BRANCH  11  12
ATOM     12  C   UNL     1      43.125  37.820  11.461  1.00  0.00    -0.000 C 
BRANCH  12  13
ATOM     13  C   UNL     1      43.051  36.424  12.098  1.00  0.00    -0.003 C 
ATOM     14  C   UNL     1      44.381  35.981  12.708  1.00  0.00     0.004 C 
ENDBRANCH  12  13
ENDBRANCH  11  12
ENDBRANCH  10  11
ENDBRANCH   9  10
ENDBRANCH   1   9
TORSDOF 10
ENDMDL
MODEL 6
REMARK VINA RESULT:    -4.373      7.700      9.656
REMARK INTER + INTRA:          -7.736
REMARK INTER:                  -6.432
REMARK INTRA:                  -1.304
REMARK UNBOUND:                -0.806
REMARK SMILES CCCCCCCCCCCC(=O)[O-]
REMARK SMILES IDX 7 1 8 2 9 3 10 4 11 5 12 6 13 7 14 8 6 9 5 10 4 11 3 12 2 13
REMARK SMILES IDX 1 14
REMARK H PARENT
REMARK Flexibility Score: inf
ROOT
ATOM      1  C   UNL     1      41.494  39.701  11.963  1.00  0.00     0.000 C 
ENDROOT
BRANCH   1   2
ATOM      2  C   UNL     1      42.136  39.199  10.664  1.00  0.00     0.000 C 
BRANCH   2   3
ATOM      3  C   UNL     1      42.544  37.724  10.786  1.00  0.00     0.000 C 
BRANCH   3   4
ATOM      4  C   UNL     1      43.649  37.499  11.831  1.00  0.00     0.006 C 
BRANCH   4   5
ATOM      5  C   UNL     1      43.555  36.123  12.503  1.00  0.00     0.053 C 
BRANCH   5   6
ATOM      6  C   UNL     1      44.846  35.785  13.181  1.00  0.00     0.041 C 
ATOM      7  O   UNL     1      44.853  35.441  14.392  1.00  0.00    -0.550 OA
ATOM      8  O   UNL     1      46.034  35.803  12.463  1.00  0.00    -0.550 OA
ENDBRANCH   5   6
ENDBRANCH   4   5
ENDBRANCH   3   4
ENDBRANCH   2   3
ENDBRANCH   1   2
BRANCH   1   9
ATOM      9  C   UNL     1      40.121  39.056  12.185  1.00  0.00     0.000 C 
BRANCH   9  10
ATOM     10  C   UNL     1      40.156  38.075  13.362  1.00  0.00    -0.000 C 
BRANCH  10  11
ATOM     11  C   UNL     1      39.178  36.914  13.142  1.00  0.00    -0.000 C 
BRANCH  11  12
ATOM     12  C   UNL     1      39.894  35.700  12.531  1.00  0.00    -0.000 C 
BRANCH  12  13
ATOM     13  C   UNL     1      39.523  35.477  11.057  1.00  0.00    -0.003 C 
ATOM     14  C   UNL     1      40.596  34.705  10.288  1.00  0.00     0.004 C 
ENDBRANCH  12  13
ENDBRANCH  11  12
ENDBRANCH  10  11
ENDBRANCH   9  10
ENDBRANCH   1   9
TORSDOF 10
ENDMDL
MODEL 7
REMARK VINA RESULT:    -4.368      5.992      8.710
REMARK INTER + INTRA:          -7.727
REMARK INTER:                  -6.624
REMARK INTRA:                  -1.103
REMARK UNBOUND:                -0.806
REMARK SMILES CCCCCCCCCCCC(=O)[O-]
REMARK SMILES IDX 7 1 8 2 9 3 10 4 11 5 12 6 13 7 14 8 6 9 5 10 4 11 3 12 2 13
REMARK SMILES IDX 1 14
REMARK H PARENT
REMARK Flexibility Score: inf
ROOT
ATOM      1  C   UNL     1      48.241  25.645  21.113  1.00  0.00     0.000 C 
ENDROOT
BRANCH   1   2
ATOM      2  C   UNL     1      48.290  25.625  19.581  1.00  0.00     0.000 C 
BRANCH   2   3
ATOM      3  C   UNL     1      49.592  24.984  19.079  1.00  0.00     0.000 C 
BRANCH   3   4
ATOM      4  C   UNL     1      49.647  24.875  17.547  1.00  0.00     0.006 C 
BRANCH   4   5
ATOM      5  C   UNL     1      48.531  25.671  16.858  1.00  0.00     0.053 C 
BRANCH   5   6
ATOM      6  C   UNL     1      49.090  26.899  16.209  1.00  0.00     0.041 C 
ATOM      7  O   UNL     1      50.155  27.413  16.640  1.00  0.00    -0.550 OA
ATOM      8  O   UNL     1      48.460  27.447  15.099  1.00  0.00    -0.550 OA
ENDBRANCH   5   6
ENDBRANCH   4   5
ENDBRANCH   3   4
ENDBRANCH   2   3
ENDBRANCH   1   2
BRANCH   1   9
ATOM      9  C   UNL     1      48.478  27.060  21.654  1.00  0.00     0.000 C 
BRANCH   9  10
ATOM     10  C   UNL     1      49.668  27.087  22.621  1.00  0.00    -0.000 C 
BRANCH  10  11
ATOM     11  C   UNL     1      50.356  25.718  22.688  1.00  0.00    -0.000 C 
BRANCH  11  12
ATOM     12  C   UNL     1      51.864  25.847  22.434  1.00  0.00    -0.000 C 
BRANCH  12  13
ATOM     13  C   UNL     1      52.226  27.126  21.663  1.00  0.00    -0.003 C 
ATOM     14  C   UNL     1      52.640  26.848  20.218  1.00  0.00     0.004 C 
ENDBRANCH  12  13
ENDBRANCH  11  12
ENDBRANCH  10  11
ENDBRANCH   9  10
ENDBRANCH   1   9
TORSDOF 10
ENDMDL
MODEL 8
REMARK VINA RESULT:    -4.367     12.584     14.368
REMARK INTER + INTRA:          -7.727
REMARK INTER:                  -6.299
REMARK INTRA:                  -1.427
REMARK UNBOUND:                -0.806
REMARK SMILES CCCCCCCCCCCC(=O)[O-]
REMARK SMILES IDX 7 1 8 2 9 3 10 4 11 5 12 6 13 7 14 8 6 9 5 10 4 11 3 12 2 13
REMARK SMILES IDX 1 14
REMARK H PARENT
REMARK Flexibility Score: inf
ROOT
ATOM      1  C   UNL     1      38.263  38.685  24.612  1.00  0.00     0.000 C 
ENDROOT
BRANCH   1   2
ATOM      2  C   UNL     1      37.576  40.049  24.475  1.00  0.00     0.000 C 
BRANCH   2   3
ATOM      3  C   UNL     1      38.557  41.109  23.953  1.00  0.00     0.000 C 
BRANCH   3   4
ATOM      4  C   UNL     1      39.939  40.524  23.619  1.00  0.00     0.006 C 
BRANCH   4   5
ATOM      5  C   UNL     1      40.459  40.982  22.250  1.00  0.00     0.053 C 
BRANCH   5   6
ATOM      6  C   UNL     1      40.307  39.886  21.242  1.00  0.00     0.041 C 
ATOM      7  O   UNL     1      39.221  39.256  21.150  1.00  0.00    -0.550 OA
ATOM      8  O   UNL     1      41.348  39.593  20.371  1.00  0.00    -0.550 OA
ENDBRANCH   5   6
ENDBRANCH   4   5
ENDBRANCH   3   4
ENDBRANCH   2   3
ENDBRANCH   1   2
BRANCH   1   9
ATOM      9  C   UNL     1      37.556  37.623  23.762  1.00  0.00     0.000 C 
BRANCH   9  10
ATOM     10  C   UNL     1      38.539  36.540  23.304  1.00  0.00    -0.000 C 
BRANCH  10  11
ATOM     11  C   UNL     1      39.859  36.630  24.079  1.00  0.00    -0.000 C 
BRANCH  11  12
ATOM     12  C   UNL     1      41.043  36.846  23.126  1.00  0.00    -0.000 C 
BRANCH  12  13
ATOM     13  C   UNL     1      42.151  37.709  23.748  1.00  0.00    -0.003 C 
ATOM     14  C   UNL     1      43.325  37.941  22.796  1.00  0.00     0.004 C 
ENDBRANCH  12  13
ENDBRANCH  11  12
ENDBRANCH  10  11
ENDBRANCH   9  10
ENDBRANCH   1   9
TORSDOF 10
ENDMDL
MODEL 9
REMARK VINA RESULT:    -4.267      6.404      9.029
REMARK INTER + INTRA:          -7.569
REMARK INTER:                  -7.016
REMARK INTRA:                  -0.553
REMARK UNBOUND:                -0.806
REMARK SMILES CCCCCCCCCCCC(=O)[O-]
REMARK SMILES IDX 7 1 8 2 9 3 10 4 11 5 12 6 13 7 14 8 6 9 5 10 4 11 3 12 2 13
REMARK SMILES IDX 1 14
REMARK H PARENT
REMARK Flexibility Score: inf
ROOT
ATOM      1  C   UNL     1      48.554  26.382  19.606  1.00  0.00     0.000 C 
ENDROOT
BRANCH   1   2
ATOM      2  C   UNL     1      48.869  25.252  18.617  1.00  0.00     0.000 C 
BRANCH   2   3
ATOM      3  C   UNL     1      48.423  25.625  17.196  1.00  0.00     0.000 C 
BRANCH   3   4
ATOM      4  C   UNL     1      49.558  25.501  16.167  1.00  0.00     0.006 C 
BRANCH   4   5
ATOM      5  C   UNL     1      49.363  26.426  14.958  1.00  0.00     0.053 C 
BRANCH   5   6
ATOM      6  C   UNL     1      49.122  25.622  13.719  1.00  0.00     0.041 C 
ATOM      7  O   UNL     1      49.991  25.585  12.810  1.00  0.00    -0.550 OA
ATOM      8  O   UNL     1      47.958  24.875  13.591  1.00  0.00    -0.550 OA
ENDBRANCH   5   6
ENDBRANCH   4   5
ENDBRANCH   3   4
ENDBRANCH   2   3
ENDBRANCH   1   2
BRANCH   1   9
ATOM      9  C   UNL     1      48.432  25.844  21.037  1.00  0.00     0.000 C 
BRANCH   9  10
ATOM     10  C   UNL     1      49.598  24.909  21.375  1.00  0.00    -0.000 C 
BRANCH  10  11
ATOM     11  C   UNL     1      50.329  25.373  22.642  1.00  0.00    -0.000 C 
BRANCH  11  12
ATOM     12  C   UNL     1      50.618  26.879  22.589  1.00  0.00    -0.000 C 
BRANCH  12  13
ATOM     13  C   UNL     1      52.077  27.188  22.223  1.00  0.00    -0.003 C 
ATOM     14  C   UNL     1      53.024  26.028  22.535  1.00  0.00     0.004 C 
ENDBRANCH  12  13
ENDBRANCH  11  12
ENDBRANCH  10  11
ENDBRANCH   9  10
ENDBRANCH   1   9
TORSDOF 10
ENDMDL
