MODEL 1
REMARK VINA RESULT:    -8.875      0.000      0.000
REMARK INTER + INTRA:         -11.012
REMARK INTER:                 -10.691
REMARK INTRA:                  -0.321
REMARK UNBOUND:                -0.321
REMARK SMILES O=c1c(O)c(-c2ccc(O)c(O)c2)oc2cc(O)cc(O)c12
REMARK SMILES IDX 5 1 3 2 2 3 1 4 22 5 20 6 19 7 17 8 16 9 15 10 14 11 6 12
REMARK SMILES IDX 7 13 8 14 9 15 13 16 11 17 10 18 12 20 4 22 21 24 18 26
REMARK H PARENT 10 19 12 21 4 23 21 25 18 27
REMARK Flexibility Score: inf
ROOT
ATOM      1  C   UNL     1      -2.765   0.018  10.158  1.00  0.00     0.180 A 
ATOM      2  C   UNL     1      -2.085  -0.558  11.245  1.00  0.00     0.208 A 
ATOM      3  C   UNL     1      -2.787  -1.413  12.110  1.00  0.00     0.238 A 
ATOM      4  O   UNL     1      -2.159  -1.971  13.048  1.00  0.00    -0.285 OA
ATOM      5  C   UNL     1      -4.161  -1.667  11.888  1.00  0.00     0.111 A 
ATOM      6  C   UNL     1      -4.979  -2.485  12.724  1.00  0.00     0.134 A 
ATOM      7  C   UNL     1      -6.294  -2.772  12.336  1.00  0.00     0.093 A 
ATOM      8  C   UNL     1      -6.840  -2.217  11.176  1.00  0.00     0.123 A 
ATOM      9  C   UNL     1      -6.068  -1.371  10.385  1.00  0.00     0.094 A 
ATOM     10  C   UNL     1      -4.742  -1.094  10.726  1.00  0.00     0.146 A 
ATOM     11  O   UNL     1      -4.037  -0.291   9.939  1.00  0.00    -0.452 OA
ENDROOT
BRANCH   1  12
ATOM     12  C   UNL     1      -2.100   0.950   9.217  1.00  0.00     0.025 A 
ATOM     13  C   UNL     1      -1.493   0.488   8.038  1.00  0.00     0.016 A 
ATOM     14  C   UNL     1      -0.853   1.382   7.178  1.00  0.00     0.051 A 
ATOM     15  C   UNL     1      -0.794   2.747   7.480  1.00  0.00     0.157 A 
ATOM     16  C   UNL     1      -2.023   2.315   9.534  1.00  0.00     0.062 A 
ATOM     17  C   UNL     1      -1.383   3.219   8.677  1.00  0.00     0.158 A 
BRANCH  15  18
ATOM     18  O   UNL     1      -0.142   3.588   6.576  1.00  0.00    -0.504 OA
ATOM     19  H   UNL     1       0.287   4.466   6.830  1.00  0.00     0.293 HD
ENDBRANCH  15  18
BRANCH  17  20
ATOM     20  O   UNL     1      -1.356   4.564   9.050  1.00  0.00    -0.504 OA
ATOM     21  H   UNL     1      -0.783   4.932   9.796  1.00  0.00     0.293 HD
ENDBRANCH  17  20
ENDBRANCH   1  12
BRANCH   2  22
ATOM     22  O   UNL     1      -0.723  -0.311  11.432  1.00  0.00    -0.502 OA
ATOM     23  H   UNL     1      -0.037  -0.466  10.703  1.00  0.00     0.293 HD
ENDBRANCH   2  22
BRANCH   6  24
ATOM     24  O   UNL     1      -4.561  -3.013  13.949  1.00  0.00    -0.507 OA
ATOM     25  H   UNL     1      -5.167  -3.193  14.735  1.00  0.00     0.293 HD
ENDBRANCH   6  24
BRANCH   8  26
ATOM     26  O   UNL     1      -8.154  -2.496  10.806  1.00  0.00    -0.508 OA
ATOM     27  H   UNL     1      -8.636  -1.944  10.106  1.00  0.00     0.293 HD
ENDBRANCH   8  26
TORSDOF 6
ENDMDL
MODEL 2
REMARK VINA RESULT:    -8.734      1.877      3.062
REMARK INTER + INTRA:         -10.842
REMARK INTER:                 -10.603
REMARK INTRA:                  -0.239
REMARK UNBOUND:                -0.321
REMARK SMILES O=c1c(O)c(-c2ccc(O)c(O)c2)oc2cc(O)cc(O)c12
REMARK SMILES IDX 5 1 3 2 2 3 1 4 22 5 20 6 19 7 17 8 16 9 15 10 14 11 6 12
REMARK SMILES IDX 7 13 8 14 9 15 13 16 11 17 10 18 12 20 4 22 21 24 18 26
REMARK H PARENT 10 19 12 21 4 23 21 25 18 27
REMARK Flexibility Score: inf
ROOT
ATOM      1  C   UNL     1      -3.613   0.322  10.023  1.00  0.00     0.180 A 
ATOM      2  C   UNL     1      -4.844   0.587  10.648  1.00  0.00     0.208 A 
ATOM      3  C   UNL     1      -5.382  -0.368  11.524  1.00  0.00     0.238 A 
ATOM      4  O   UNL     1      -6.456  -0.101  12.124  1.00  0.00    -0.285 OA
ATOM      5  C   UNL     1      -4.693  -1.583  11.752  1.00  0.00     0.111 A 
ATOM      6  C   UNL     1      -5.165  -2.638  12.589  1.00  0.00     0.134 A 
ATOM      7  C   UNL     1      -4.338  -3.740  12.844  1.00  0.00     0.093 A 
ATOM      8  C   UNL     1      -3.084  -3.855  12.240  1.00  0.00     0.123 A 
ATOM      9  C   UNL     1      -2.639  -2.858  11.376  1.00  0.00     0.094 A 
ATOM     10  C   UNL     1      -3.425  -1.729  11.129  1.00  0.00     0.146 A 
ATOM     11  O   UNL     1      -2.959  -0.798  10.306  1.00  0.00    -0.452 OA
ENDROOT
BRANCH   1  12
ATOM     12  C   UNL     1      -2.994   1.269   9.066  1.00  0.00     0.025 A 
ATOM     13  C   UNL     1      -1.882   2.047   9.424  1.00  0.00     0.016 A 
ATOM     14  C   UNL     1      -1.329   2.949   8.514  1.00  0.00     0.051 A 
ATOM     15  C   UNL     1      -1.881   3.104   7.237  1.00  0.00     0.157 A 
ATOM     16  C   UNL     1      -3.563   1.438   7.795  1.00  0.00     0.062 A 
ATOM     17  C   UNL     1      -3.016   2.341   6.874  1.00  0.00     0.158 A 
BRANCH  15  18
ATOM     18  O   UNL     1      -1.278   4.020   6.372  1.00  0.00    -0.504 OA
ATOM     19  H   UNL     1      -0.302   4.275   6.411  1.00  0.00     0.293 HD
ENDBRANCH  15  18
BRANCH  17  20
ATOM     20  O   UNL     1      -3.627   2.448   5.623  1.00  0.00    -0.504 OA
ATOM     21  H   UNL     1      -3.128   2.409   4.746  1.00  0.00     0.293 HD
ENDBRANCH  17  20
ENDBRANCH   1  12
BRANCH   2  22
ATOM     22  O   UNL     1      -5.497   1.802  10.426  1.00  0.00    -0.502 OA
ATOM     23  H   UNL     1      -6.176   1.928   9.684  1.00  0.00     0.293 HD
ENDBRANCH   2  22
BRANCH   6  24
ATOM     24  O   UNL     1      -6.438  -2.666  13.166  1.00  0.00    -0.507 OA
ATOM     25  H   UNL     1      -7.133  -3.375  12.992  1.00  0.00     0.293 HD
ENDBRANCH   6  24
BRANCH   8  26
ATOM     26  O   UNL     1      -2.275  -4.962  12.487  1.00  0.00    -0.508 OA
ATOM     27  H   UNL     1      -1.730  -5.395  11.751  1.00  0.00     0.293 HD
ENDBRANCH   8  26
TORSDOF 6
ENDMDL
MODEL 3
REMARK VINA RESULT:    -8.664      1.998      2.798
REMARK INTER + INTRA:         -10.758
REMARK INTER:                 -10.441
REMARK INTRA:                  -0.317
REMARK UNBOUND:                -0.321
REMARK SMILES O=c1c(O)c(-c2ccc(O)c(O)c2)oc2cc(O)cc(O)c12
REMARK SMILES IDX 5 1 3 2 2 3 1 4 22 5 20 6 19 7 17 8 16 9 15 10 14 11 6 12
REMARK SMILES IDX 7 13 8 14 9 15 13 16 11 17 10 18 12 20 4 22 21 24 18 26
REMARK H PARENT 10 19 12 21 4 23 21 25 18 27
REMARK Flexibility Score: inf
ROOT
ATOM      1  C   UNL     1      -2.849   0.046   9.599  1.00  0.00     0.180 A 
ATOM      2  C   UNL     1      -3.190  -1.265   9.226  1.00  0.00     0.208 A 
ATOM      3  C   UNL     1      -3.663  -2.151  10.207  1.00  0.00     0.238 A 
ATOM      4  O   UNL     1      -4.020  -3.306   9.856  1.00  0.00    -0.285 OA
ATOM      5  C   UNL     1      -3.772  -1.721  11.551  1.00  0.00     0.111 A 
ATOM      6  C   UNL     1      -4.200  -2.546  12.634  1.00  0.00     0.134 A 
ATOM      7  C   UNL     1      -4.395  -1.978  13.899  1.00  0.00     0.093 A 
ATOM      8  C   UNL     1      -4.114  -0.631  14.136  1.00  0.00     0.123 A 
ATOM      9  C   UNL     1      -3.639   0.168  13.099  1.00  0.00     0.094 A 
ATOM     10  C   UNL     1      -3.468  -0.359  11.817  1.00  0.00     0.146 A 
ATOM     11  O   UNL     1      -3.023   0.439  10.855  1.00  0.00    -0.452 OA
ENDROOT
BRANCH   1  12
ATOM     12  C   UNL     1      -2.319   1.031   8.627  1.00  0.00     0.025 A 
ATOM     13  C   UNL     1      -3.177   1.806   7.830  1.00  0.00     0.016 A 
ATOM     14  C   UNL     1      -2.655   2.711   6.904  1.00  0.00     0.051 A 
ATOM     15  C   UNL     1      -1.272   2.851   6.744  1.00  0.00     0.157 A 
ATOM     16  C   UNL     1      -0.932   1.154   8.452  1.00  0.00     0.062 A 
ATOM     17  C   UNL     1      -0.399   2.059   7.526  1.00  0.00     0.158 A 
BRANCH  15  18
ATOM     18  O   UNL     1      -0.815   3.777   5.804  1.00  0.00    -0.504 OA
ATOM     19  H   UNL     1       0.093   3.733   5.364  1.00  0.00     0.293 HD
ENDBRANCH  15  18
BRANCH  17  20
ATOM     20  O   UNL     1       0.991   2.136   7.416  1.00  0.00    -0.504 OA
ATOM     21  H   UNL     1       1.634   1.644   8.020  1.00  0.00     0.293 HD
ENDBRANCH  17  20
ENDBRANCH   1  12
BRANCH   2  22
ATOM     22  O   UNL     1      -3.096  -1.662   7.889  1.00  0.00    -0.502 OA
ATOM     23  H   UNL     1      -2.377  -1.312   7.267  1.00  0.00     0.293 HD
ENDBRANCH   2  22
BRANCH   6  24
ATOM     24  O   UNL     1      -4.420  -3.922  12.526  1.00  0.00    -0.507 OA
ATOM     25  H   UNL     1      -4.634  -4.533  13.299  1.00  0.00     0.293 HD
ENDBRANCH   6  24
BRANCH   8  26
ATOM     26  O   UNL     1      -4.295  -0.079  15.402  1.00  0.00    -0.508 OA
ATOM     27  H   UNL     1      -4.381  -0.660  16.226  1.00  0.00     0.293 HD
ENDBRANCH   8  26
TORSDOF 6
ENDMDL
MODEL 4
REMARK VINA RESULT:    -8.029      1.512      3.195
REMARK INTER + INTRA:          -9.993
REMARK INTER:                  -9.729
REMARK INTRA:                  -0.264
REMARK UNBOUND:                -0.321
REMARK SMILES O=c1c(O)c(-c2ccc(O)c(O)c2)oc2cc(O)cc(O)c12
REMARK SMILES IDX 5 1 3 2 2 3 1 4 22 5 20 6 19 7 17 8 16 9 15 10 14 11 6 12
REMARK SMILES IDX 7 13 8 14 9 15 13 16 11 17 10 18 12 20 4 22 21 24 18 26
REMARK H PARENT 10 19 12 21 4 23 21 25 18 27
REMARK Flexibility Score: inf
ROOT
ATOM      1  C   UNL     1      -3.742   0.015   9.243  1.00  0.00     0.180 A 
ATOM      2  C   UNL     1      -4.831  -0.602   8.604  1.00  0.00     0.208 A 
ATOM      3  C   UNL     1      -5.645  -1.477   9.341  1.00  0.00     0.238 A 
ATOM      4  O   UNL     1      -6.651  -1.984   8.779  1.00  0.00    -0.285 OA
ATOM      5  C   UNL     1      -5.350  -1.738  10.701  1.00  0.00     0.111 A 
ATOM      6  C   UNL     1      -6.083  -2.637  11.531  1.00  0.00     0.134 A 
ATOM      7  C   UNL     1      -5.783  -2.718  12.897  1.00  0.00     0.093 A 
ATOM      8  C   UNL     1      -4.733  -1.979  13.448  1.00  0.00     0.123 A 
ATOM      9  C   UNL     1      -3.974  -1.143  12.633  1.00  0.00     0.094 A 
ATOM     10  C   UNL     1      -4.272  -1.014  11.275  1.00  0.00     0.146 A 
ATOM     11  O   UNL     1      -3.530  -0.198  10.536  1.00  0.00    -0.452 OA
ENDROOT
BRANCH   1  12
ATOM     12  C   UNL     1      -2.823   0.931   8.527  1.00  0.00     0.025 A 
ATOM     13  C   UNL     1      -3.205   2.241   8.199  1.00  0.00     0.016 A 
ATOM     14  C   UNL     1      -2.331   3.078   7.504  1.00  0.00     0.051 A 
ATOM     15  C   UNL     1      -1.067   2.623   7.110  1.00  0.00     0.157 A 
ATOM     16  C   UNL     1      -1.565   0.465   8.114  1.00  0.00     0.062 A 
ATOM     17  C   UNL     1      -0.681   1.297   7.416  1.00  0.00     0.158 A 
BRANCH  15  18
ATOM     18  O   UNL     1      -0.239   3.511   6.421  1.00  0.00    -0.504 OA
ATOM     19  H   UNL     1      -0.133   4.486   6.662  1.00  0.00     0.293 HD
ENDBRANCH  15  18
BRANCH  17  20
ATOM     20  O   UNL     1       0.559   0.769   7.048  1.00  0.00    -0.504 OA
ATOM     21  H   UNL     1       1.231   0.397   7.704  1.00  0.00     0.293 HD
ENDBRANCH  17  20
ENDBRANCH   1  12
BRANCH   2  22
ATOM     22  O   UNL     1      -5.116  -0.314   7.267  1.00  0.00    -0.502 OA
ATOM     23  H   UNL     1      -4.401  -0.299   6.550  1.00  0.00     0.293 HD
ENDBRANCH   2  22
BRANCH   6  24
ATOM     24  O   UNL     1      -7.090  -3.487  11.062  1.00  0.00    -0.507 OA
ATOM     25  H   UNL     1      -8.077  -3.340  11.199  1.00  0.00     0.293 HD
ENDBRANCH   6  24
BRANCH   8  26
ATOM     26  O   UNL     1      -4.431  -2.077  14.804  1.00  0.00    -0.508 OA
ATOM     27  H   UNL     1      -4.899  -2.746  15.404  1.00  0.00     0.293 HD
ENDBRANCH   8  26
TORSDOF 6
ENDMDL
MODEL 5
REMARK VINA RESULT:    -7.955      1.983      7.050
REMARK INTER + INTRA:          -9.904
REMARK INTER:                  -9.886
REMARK INTRA:                  -0.018
REMARK UNBOUND:                -0.321
REMARK SMILES O=c1c(O)c(-c2ccc(O)c(O)c2)oc2cc(O)cc(O)c12
REMARK SMILES IDX 5 1 3 2 2 3 1 4 22 5 20 6 19 7 17 8 16 9 15 10 14 11 6 12
REMARK SMILES IDX 7 13 8 14 9 15 13 16 11 17 10 18 12 20 4 22 21 24 18 26
REMARK H PARENT 10 19 12 21 4 23 21 25 18 27
REMARK Flexibility Score: inf
ROOT
ATOM      1  C   UNL     1      -4.116  -0.179  10.271  1.00  0.00     0.180 A 
ATOM      2  C   UNL     1      -5.094  -0.017   9.275  1.00  0.00     0.208 A 
ATOM      3  C   UNL     1      -4.758   0.670   8.097  1.00  0.00     0.238 A 
ATOM      4  O   UNL     1      -5.621   0.763   7.185  1.00  0.00    -0.285 OA
ATOM      5  C   UNL     1      -3.456   1.202   7.938  1.00  0.00     0.111 A 
ATOM      6  C   UNL     1      -3.019   1.950   6.804  1.00  0.00     0.134 A 
ATOM      7  C   UNL     1      -1.671   2.314   6.694  1.00  0.00     0.093 A 
ATOM      8  C   UNL     1      -0.759   2.014   7.709  1.00  0.00     0.123 A 
ATOM      9  C   UNL     1      -1.189   1.336   8.846  1.00  0.00     0.094 A 
ATOM     10  C   UNL     1      -2.519   0.927   8.969  1.00  0.00     0.146 A 
ATOM     11  O   UNL     1      -2.885   0.274  10.065  1.00  0.00    -0.452 OA
ENDROOT
BRANCH   1  12
ATOM     12  C   UNL     1      -4.401  -0.869  11.551  1.00  0.00     0.025 A 
ATOM     13  C   UNL     1      -4.963  -2.155  11.578  1.00  0.00     0.016 A 
ATOM     14  C   UNL     1      -5.244  -2.777  12.796  1.00  0.00     0.051 A 
ATOM     15  C   UNL     1      -4.983  -2.126  14.007  1.00  0.00     0.157 A 
ATOM     16  C   UNL     1      -4.160  -0.205  12.763  1.00  0.00     0.062 A 
ATOM     17  C   UNL     1      -4.438  -0.820  13.990  1.00  0.00     0.158 A 
BRANCH  15  18
ATOM     18  O   UNL     1      -5.283  -2.804  15.190  1.00  0.00    -0.504 OA
ATOM     19  H   UNL     1      -4.636  -3.410  15.673  1.00  0.00     0.293 HD
ENDBRANCH  15  18
BRANCH  17  20
ATOM     20  O   UNL     1      -4.160  -0.105  15.157  1.00  0.00    -0.504 OA
ATOM     21  H   UNL     1      -4.404   0.865  15.296  1.00  0.00     0.293 HD
ENDBRANCH  17  20
ENDBRANCH   1  12
BRANCH   2  22
ATOM     22  O   UNL     1      -6.367  -0.568   9.443  1.00  0.00    -0.502 OA
ATOM     23  H   UNL     1      -6.637  -1.450   9.025  1.00  0.00     0.293 HD
ENDBRANCH   2  22
BRANCH   6  24
ATOM     24  O   UNL     1      -3.868   2.380   5.779  1.00  0.00    -0.507 OA
ATOM     25  H   UNL     1      -3.695   2.247   4.795  1.00  0.00     0.293 HD
ENDBRANCH   6  24
BRANCH   8  26
ATOM     26  O   UNL     1       0.576   2.394   7.599  1.00  0.00    -0.508 OA
ATOM     27  H   UNL     1       0.879   3.336   7.819  1.00  0.00     0.293 HD
ENDBRANCH   8  26
TORSDOF 6
ENDMDL
MODEL 6
REMARK VINA RESULT:    -7.929      1.988      6.696
REMARK INTER + INTRA:          -9.872
REMARK INTER:                  -9.541
REMARK INTRA:                  -0.331
REMARK UNBOUND:                -0.321
REMARK SMILES O=c1c(O)c(-c2ccc(O)c(O)c2)oc2cc(O)cc(O)c12
REMARK SMILES IDX 5 1 3 2 2 3 1 4 22 5 20 6 19 7 17 8 16 9 15 10 14 11 6 12
REMARK SMILES IDX 7 13 8 14 9 15 13 16 11 17 10 18 12 20 4 22 21 24 18 26
REMARK H PARENT 10 19 12 21 4 23 21 25 18 27
REMARK Flexibility Score: inf
ROOT
ATOM      1  C   UNL     1      -2.132  -0.225  10.929  1.00  0.00     0.180 A 
ATOM      2  C   UNL     1      -2.080   0.955  11.691  1.00  0.00     0.208 A 
ATOM      3  C   UNL     1      -1.983   2.189  11.028  1.00  0.00     0.238 A 
ATOM      4  O   UNL     1      -1.994   3.244  11.713  1.00  0.00    -0.285 OA
ATOM      5  C   UNL     1      -1.922   2.227   9.615  1.00  0.00     0.111 A 
ATOM      6  C   UNL     1      -1.783   3.418   8.841  1.00  0.00     0.134 A 
ATOM      7  C   UNL     1      -1.865   3.349   7.445  1.00  0.00     0.093 A 
ATOM      8  C   UNL     1      -2.016   2.123   6.792  1.00  0.00     0.123 A 
ATOM      9  C   UNL     1      -2.094   0.949   7.536  1.00  0.00     0.094 A 
ATOM     10  C   UNL     1      -2.051   0.988   8.932  1.00  0.00     0.146 A 
ATOM     11  O   UNL     1      -2.139  -0.153   9.603  1.00  0.00    -0.452 OA
ENDROOT
BRANCH   1  12
ATOM     12  C   UNL     1      -2.209  -1.566  11.555  1.00  0.00     0.025 A 
ATOM     13  C   UNL     1      -1.050  -2.290  11.877  1.00  0.00     0.016 A 
ATOM     14  C   UNL     1      -1.148  -3.561  12.446  1.00  0.00     0.051 A 
ATOM     15  C   UNL     1      -2.398  -4.140  12.692  1.00  0.00     0.157 A 
ATOM     16  C   UNL     1      -3.464  -2.153  11.781  1.00  0.00     0.062 A 
ATOM     17  C   UNL     1      -3.572  -3.428  12.351  1.00  0.00     0.158 A 
BRANCH  15  18
ATOM     18  O   UNL     1      -2.426  -5.412  13.267  1.00  0.00    -0.504 OA
ATOM     19  H   UNL     1      -1.601  -5.939  13.512  1.00  0.00     0.293 HD
ENDBRANCH  15  18
BRANCH  17  20
ATOM     20  O   UNL     1      -4.853  -3.943  12.558  1.00  0.00    -0.504 OA
ATOM     21  H   UNL     1      -5.690  -3.380  12.590  1.00  0.00     0.293 HD
ENDBRANCH  17  20
ENDBRANCH   1  12
BRANCH   2  22
ATOM     22  O   UNL     1      -2.164   0.895  13.084  1.00  0.00    -0.502 OA
ATOM     23  H   UNL     1      -1.360   0.703  13.670  1.00  0.00     0.293 HD
ENDBRANCH   2  22
BRANCH   6  24
ATOM     24  O   UNL     1      -1.537   4.680   9.390  1.00  0.00    -0.507 OA
ATOM     25  H   UNL     1      -1.642   5.553   8.896  1.00  0.00     0.293 HD
ENDBRANCH   6  24
BRANCH   8  26
ATOM     26  O   UNL     1      -2.082   2.062   5.402  1.00  0.00    -0.508 OA
ATOM     27  H   UNL     1      -2.657   2.703   4.869  1.00  0.00     0.293 HD
ENDBRANCH   8  26
TORSDOF 6
ENDMDL
MODEL 7
REMARK VINA RESULT:    -7.923      2.331      7.157
REMARK INTER + INTRA:          -9.865
REMARK INTER:                  -9.537
REMARK INTRA:                  -0.328
REMARK UNBOUND:                -0.321
REMARK SMILES O=c1c(O)c(-c2ccc(O)c(O)c2)oc2cc(O)cc(O)c12
REMARK SMILES IDX 5 1 3 2 2 3 1 4 22 5 20 6 19 7 17 8 16 9 15 10 14 11 6 12
REMARK SMILES IDX 7 13 8 14 9 15 13 16 11 17 10 18 12 20 4 22 21 24 18 26
REMARK H PARENT 10 19 12 21 4 23 21 25 18 27
REMARK Flexibility Score: inf
ROOT
ATOM      1  C   UNL     1      -4.207   0.758  10.631  1.00  0.00     0.180 A 
ATOM      2  C   UNL     1      -5.162   0.663   9.604  1.00  0.00     0.208 A 
ATOM      3  C   UNL     1      -4.801   1.044   8.302  1.00  0.00     0.238 A 
ATOM      4  O   UNL     1      -5.643   0.904   7.377  1.00  0.00    -0.285 OA
ATOM      5  C   UNL     1      -3.497   1.530   8.046  1.00  0.00     0.111 A 
ATOM      6  C   UNL     1      -3.036   1.982   6.773  1.00  0.00     0.134 A 
ATOM      7  C   UNL     1      -1.687   2.319   6.607  1.00  0.00     0.093 A 
ATOM      8  C   UNL     1      -0.798   2.284   7.684  1.00  0.00     0.123 A 
ATOM      9  C   UNL     1      -1.252   1.901   8.943  1.00  0.00     0.094 A 
ATOM     10  C   UNL     1      -2.584   1.524   9.133  1.00  0.00     0.146 A 
ATOM     11  O   UNL     1      -2.973   1.156  10.347  1.00  0.00    -0.452 OA
ENDROOT
BRANCH   1  12
ATOM     12  C   UNL     1      -4.520   0.399  12.034  1.00  0.00     0.025 A 
ATOM     13  C   UNL     1      -4.972   1.361  12.951  1.00  0.00     0.016 A 
ATOM     14  C   UNL     1      -5.238   1.005  14.274  1.00  0.00     0.051 A 
ATOM     15  C   UNL     1      -5.046  -0.310  14.712  1.00  0.00     0.157 A 
ATOM     16  C   UNL     1      -4.305  -0.915  12.476  1.00  0.00     0.062 A 
ATOM     17  C   UNL     1      -4.569  -1.282  13.802  1.00  0.00     0.158 A 
BRANCH  15  18
ATOM     18  O   UNL     1      -5.335  -0.602  16.047  1.00  0.00    -0.504 OA
ATOM     19  H   UNL     1      -6.248  -0.493  16.464  1.00  0.00     0.293 HD
ENDBRANCH  15  18
BRANCH  17  20
ATOM     20  O   UNL     1      -4.345  -2.612  14.167  1.00  0.00    -0.504 OA
ATOM     21  H   UNL     1      -4.897  -3.389  13.836  1.00  0.00     0.293 HD
ENDBRANCH  17  20
ENDBRANCH   1  12
BRANCH   2  22
ATOM     22  O   UNL     1      -6.437   0.160   9.875  1.00  0.00    -0.502 OA
ATOM     23  H   UNL     1      -7.279   0.584   9.505  1.00  0.00     0.293 HD
ENDBRANCH   2  22
BRANCH   6  24
ATOM     24  O   UNL     1      -3.862   2.142   5.656  1.00  0.00    -0.507 OA
ATOM     25  H   UNL     1      -4.006   1.444   4.943  1.00  0.00     0.293 HD
ENDBRANCH   6  24
BRANCH   8  26
ATOM     26  O   UNL     1       0.539   2.636   7.513  1.00  0.00    -0.508 OA
ATOM     27  H   UNL     1       0.806   3.534   7.127  1.00  0.00     0.293 HD
ENDBRANCH   8  26
TORSDOF 6
ENDMDL
MODEL 8
REMARK VINA RESULT:    -7.903      1.776      6.836
REMARK INTER + INTRA:          -9.840
REMARK INTER:                  -9.511
REMARK INTRA:                  -0.329
REMARK UNBOUND:                -0.321
REMARK SMILES O=c1c(O)c(-c2ccc(O)c(O)c2)oc2cc(O)cc(O)c12
REMARK SMILES IDX 5 1 3 2 2 3 1 4 22 5 20 6 19 7 17 8 16 9 15 10 14 11 6 12
REMARK SMILES IDX 7 13 8 14 9 15 13 16 11 17 10 18 12 20 4 22 21 24 18 26
REMARK H PARENT 10 19 12 21 4 23 21 25 18 27
REMARK Flexibility Score: inf
ROOT
ATOM      1  C   UNL     1      -3.454  -1.146   9.302  1.00  0.00     0.180 A 
ATOM      2  C   UNL     1      -2.218  -1.799   9.155  1.00  0.00     0.208 A 
ATOM      3  C   UNL     1      -1.128  -1.083   8.635  1.00  0.00     0.238 A 
ATOM      4  O   UNL     1      -0.010  -1.656   8.559  1.00  0.00    -0.285 OA
ATOM      5  C   UNL     1      -1.292   0.270   8.252  1.00  0.00     0.111 A 
ATOM      6  C   UNL     1      -0.266   1.078   7.676  1.00  0.00     0.134 A 
ATOM      7  C   UNL     1      -0.503   2.442   7.457  1.00  0.00     0.093 A 
ATOM      8  C   UNL     1      -1.749   3.009   7.732  1.00  0.00     0.123 A 
ATOM      9  C   UNL     1      -2.774   2.215   8.238  1.00  0.00     0.094 A 
ATOM     10  C   UNL     1      -2.558   0.860   8.502  1.00  0.00     0.146 A 
ATOM     11  O   UNL     1      -3.560   0.141   8.994  1.00  0.00    -0.452 OA
ENDROOT
BRANCH   1  12
ATOM     12  C   UNL     1      -4.656  -1.840   9.819  1.00  0.00     0.025 A 
ATOM     13  C   UNL     1      -5.562  -2.476   8.955  1.00  0.00     0.016 A 
ATOM     14  C   UNL     1      -6.700  -3.104   9.464  1.00  0.00     0.051 A 
ATOM     15  C   UNL     1      -6.965  -3.100  10.838  1.00  0.00     0.157 A 
ATOM     16  C   UNL     1      -4.931  -1.816  11.195  1.00  0.00     0.062 A 
ATOM     17  C   UNL     1      -6.070  -2.443  11.715  1.00  0.00     0.158 A 
BRANCH  15  18
ATOM     18  O   UNL     1      -8.118  -3.750  11.282  1.00  0.00    -0.504 OA
ATOM     19  H   UNL     1      -8.174  -4.274  12.144  1.00  0.00     0.293 HD
ENDBRANCH  15  18
BRANCH  17  20
ATOM     20  O   UNL     1      -6.272  -2.389  13.096  1.00  0.00    -0.504 OA
ATOM     21  H   UNL     1      -6.400  -3.202  13.680  1.00  0.00     0.293 HD
ENDBRANCH  17  20
ENDBRANCH   1  12
BRANCH   2  22
ATOM     22  O   UNL     1      -2.074  -3.128   9.560  1.00  0.00    -0.502 OA
ATOM     23  H   UNL     1      -2.047  -3.399  10.536  1.00  0.00     0.293 HD
ENDBRANCH   2  22
BRANCH   6  24
ATOM     24  O   UNL     1       0.982   0.590   7.279  1.00  0.00    -0.507 OA
ATOM     25  H   UNL     1       1.130  -0.274   6.780  1.00  0.00     0.293 HD
ENDBRANCH   6  24
BRANCH   8  26
ATOM     26  O   UNL     1      -1.981   4.363   7.496  1.00  0.00    -0.508 OA
ATOM     27  H   UNL     1      -1.919   5.049   8.239  1.00  0.00     0.293 HD
ENDBRANCH   8  26
TORSDOF 6
ENDMDL
MODEL 9
REMARK VINA RESULT:    -7.870      1.561      6.890
REMARK INTER + INTRA:          -9.801
REMARK INTER:                  -9.500
REMARK INTRA:                  -0.301
REMARK UNBOUND:                -0.321
REMARK SMILES O=c1c(O)c(-c2ccc(O)c(O)c2)oc2cc(O)cc(O)c12
REMARK SMILES IDX 5 1 3 2 2 3 1 4 22 5 20 6 19 7 17 8 16 9 15 10 14 11 6 12
REMARK SMILES IDX 7 13 8 14 9 15 13 16 11 17 10 18 12 20 4 22 21 24 18 26
REMARK H PARENT 10 19 12 21 4 23 21 25 18 27
REMARK Flexibility Score: inf
ROOT
ATOM      1  C   UNL     1      -3.020  -1.004  10.315  1.00  0.00     0.180 A 
ATOM      2  C   UNL     1      -1.875  -1.663   9.837  1.00  0.00     0.208 A 
ATOM      3  C   UNL     1      -0.997  -0.972   8.987  1.00  0.00     0.238 A 
ATOM      4  O   UNL     1       0.055  -1.549   8.607  1.00  0.00    -0.285 OA
ATOM      5  C   UNL     1      -1.283   0.363   8.612  1.00  0.00     0.111 A 
ATOM      6  C   UNL     1      -0.484   1.144   7.725  1.00  0.00     0.134 A 
ATOM      7  C   UNL     1      -0.792   2.497   7.528  1.00  0.00     0.093 A 
ATOM      8  C   UNL     1      -1.907   3.077   8.136  1.00  0.00     0.123 A 
ATOM      9  C   UNL     1      -2.727   2.307   8.957  1.00  0.00     0.094 A 
ATOM     10  C   UNL     1      -2.426   0.965   9.202  1.00  0.00     0.146 A 
ATOM     11  O   UNL     1      -3.227   0.269   9.998  1.00  0.00    -0.452 OA
ENDROOT
BRANCH   1  12
ATOM     12  C   UNL     1      -4.007  -1.674  11.194  1.00  0.00     0.025 A 
ATOM     13  C   UNL     1      -3.793  -1.791  12.577  1.00  0.00     0.016 A 
ATOM     14  C   UNL     1      -4.726  -2.447  13.382  1.00  0.00     0.051 A 
ATOM     15  C   UNL     1      -5.880  -3.009  12.826  1.00  0.00     0.157 A 
ATOM     16  C   UNL     1      -5.153  -2.256  10.631  1.00  0.00     0.062 A 
ATOM     17  C   UNL     1      -6.094  -2.916  11.430  1.00  0.00     0.158 A 
BRANCH  15  18
ATOM     18  O   UNL     1      -6.775  -3.647  13.687  1.00  0.00    -0.504 OA
ATOM     19  H   UNL     1      -7.438  -4.349  13.392  1.00  0.00     0.293 HD
ENDBRANCH  15  18
BRANCH  17  20
ATOM     20  O   UNL     1      -7.217  -3.459  10.802  1.00  0.00    -0.504 OA
ATOM     21  H   UNL     1      -8.066  -3.715  11.285  1.00  0.00     0.293 HD
ENDBRANCH  17  20
ENDBRANCH   1  12
BRANCH   2  22
ATOM     22  O   UNL     1      -1.601  -2.974  10.236  1.00  0.00    -0.502 OA
ATOM     23  H   UNL     1      -0.721  -3.432  10.031  1.00  0.00     0.293 HD
ENDBRANCH   2  22
BRANCH   6  24
ATOM     24  O   UNL     1       0.597   0.637   6.997  1.00  0.00    -0.507 OA
ATOM     25  H   UNL     1       1.059  -0.238   7.189  1.00  0.00     0.293 HD
ENDBRANCH   6  24
BRANCH   8  26
ATOM     26  O   UNL     1      -2.215   4.419   7.922  1.00  0.00    -0.508 OA
ATOM     27  H   UNL     1      -3.169   4.757   7.959  1.00  0.00     0.293 HD
ENDBRANCH   8  26
TORSDOF 6
ENDMDL
