MODEL 1
REMARK VINA RESULT:    -2.314      0.000      0.000
REMARK INTER + INTRA:          -4.886
REMARK INTER:                  -4.479
REMARK INTRA:                  -0.408
REMARK UNBOUND:                -0.408
REMARK SMILES CCCCCCCCCCCCCCCCCC(=O)[O-]
REMARK SMILES IDX 10 1 11 2 12 3 13 4 14 5 15 6 16 7 17 8 18 9 19 10 20 11
REMARK SMILES IDX 9 12 8 13 7 14 6 15 5 16 4 17 3 18 2 19 1 20
REMARK H PARENT
REMARK Flexibility Score: inf
ROOT
ATOM      1  C   UNL     1       2.025 -22.214  16.025  1.00  0.00     0.000 C 
ENDROOT
BRANCH   1   2
ATOM      2  C   UNL     1       0.715 -22.926  15.643  1.00  0.00     0.000 C 
BRANCH   2   3
ATOM      3  C   UNL     1      -0.522 -22.289  16.299  1.00  0.00     0.000 C 
BRANCH   3   4
ATOM      4  C   UNL     1      -1.810 -23.093  16.047  1.00  0.00     0.000 C 
BRANCH   4   5
ATOM      5  C   UNL     1      -3.077 -22.511  16.704  1.00  0.00     0.000 C 
BRANCH   5   6
ATOM      6  C   UNL     1      -4.411 -23.028  16.128  1.00  0.00     0.000 C 
BRANCH   6   7
ATOM      7  C   UNL     1      -5.658 -22.224  16.550  1.00  0.00     0.006 C 
BRANCH   7   8
ATOM      8  C   UNL     1      -6.961 -23.038  16.565  1.00  0.00     0.053 C 
BRANCH   8   9
ATOM      9  C   UNL     1      -7.826 -22.689  17.737  1.00  0.00     0.041 C 
ATOM     10  O   UNL     1      -7.317 -22.538  18.878  1.00  0.00    -0.550 OA
ATOM     11  O   UNL     1      -9.200 -22.562  17.573  1.00  0.00    -0.550 OA
ENDBRANCH   8   9
ENDBRANCH   7   8
ENDBRANCH   6   7
ENDBRANCH   5   6
ENDBRANCH   4   5
ENDBRANCH   3   4
ENDBRANCH   2   3
ENDBRANCH   1   2
BRANCH   1  12
ATOM     12  C   UNL     1       3.276 -23.117  16.035  1.00  0.00     0.000 C 
BRANCH  12  13
ATOM     13  C   UNL     1       4.622 -22.368  15.978  1.00  0.00    -0.000 C 
BRANCH  13  14
ATOM     14  C   UNL     1       5.183 -21.933  17.346  1.00  0.00    -0.000 C 
BRANCH  14  15
ATOM     15  C   UNL     1       6.651 -22.327  17.601  1.00  0.00    -0.000 C 
BRANCH  15  16
ATOM     16  C   UNL     1       7.697 -21.380  16.983  1.00  0.00    -0.000 C 
BRANCH  16  17
ATOM     17  C   UNL     1       8.154 -21.755  15.559  1.00  0.00    -0.000 C 
BRANCH  17  18
ATOM     18  C   UNL     1       8.668 -20.577  14.707  1.00  0.00    -0.000 C 
BRANCH  18  19
ATOM     19  C   UNL     1       8.676 -20.830  13.190  1.00  0.00    -0.003 C 
ATOM     20  C   UNL     1       8.662 -19.540  12.370  1.00  0.00     0.004 C 
ENDBRANCH  18  19
ENDBRANCH  17  18
ENDBRANCH  16  17
ENDBRANCH  15  16
ENDBRANCH  14  15
ENDBRANCH  13  14
ENDBRANCH  12  13
ENDBRANCH   1  12
TORSDOF 16
ENDMDL
MODEL 2
REMARK VINA RESULT:    -2.108      1.752      3.125
REMARK INTER + INTRA:          -4.488
REMARK INTER:                  -3.896
REMARK INTRA:                  -0.593
REMARK UNBOUND:                -0.408
REMARK SMILES CCCCCCCCCCCCCCCCCC(=O)[O-]
REMARK SMILES IDX 10 1 11 2 12 3 13 4 14 5 15 6 16 7 17 8 18 9 19 10 20 11
REMARK SMILES IDX 9 12 8 13 7 14 6 15 5 16 4 17 3 18 2 19 1 20
REMARK H PARENT
REMARK Flexibility Score: inf
ROOT
ATOM      1  C   UNL     1      -0.511 -22.540  16.336  1.00  0.00     0.000 C 
ENDROOT
BRANCH   1   2
ATOM      2  C   UNL     1      -1.883 -22.635  15.644  1.00  0.00     0.000 C 
BRANCH   2   3
ATOM      3  C   UNL     1      -3.017 -22.990  16.620  1.00  0.00     0.000 C 
BRANCH   3   4
ATOM      4  C   UNL     1      -4.285 -22.148  16.390  1.00  0.00     0.000 C 
BRANCH   4   5
ATOM      5  C   UNL     1      -5.611 -22.889  16.651  1.00  0.00     0.000 C 
BRANCH   5   6
ATOM      6  C   UNL     1      -6.778 -21.998  17.124  1.00  0.00     0.000 C 
BRANCH   6   7
ATOM      7  C   UNL     1      -8.055 -22.085  16.263  1.00  0.00     0.006 C 
BRANCH   7   8
ATOM      8  C   UNL     1      -8.266 -20.889  15.321  1.00  0.00     0.053 C 
BRANCH   8   9
ATOM      9  C   UNL     1      -9.702 -20.465  15.268  1.00  0.00     0.041 C 
ATOM     10  O   UNL     1     -10.214 -19.839  16.232  1.00  0.00    -0.550 OA
ATOM     11  O   UNL     1     -10.482 -20.792  14.166  1.00  0.00    -0.550 OA
ENDBRANCH   8   9
ENDBRANCH   7   8
ENDBRANCH   6   7
ENDBRANCH   5   6
ENDBRANCH   4   5
ENDBRANCH   3   4
ENDBRANCH   2   3
ENDBRANCH   1   2
BRANCH   1  12
ATOM     12  C   UNL     1       0.693 -22.904  15.442  1.00  0.00     0.000 C 
BRANCH  12  13
ATOM     13  C   UNL     1       2.068 -22.479  15.994  1.00  0.00    -0.000 C 
BRANCH  13  14
ATOM     14  C   UNL     1       3.278 -22.956  15.167  1.00  0.00    -0.000 C 
BRANCH  14  15
ATOM     15  C   UNL     1       4.617 -22.979  15.929  1.00  0.00    -0.000 C 
BRANCH  15  16
ATOM     16  C   UNL     1       4.711 -21.994  17.110  1.00  0.00    -0.000 C 
BRANCH  16  17
ATOM     17  C   UNL     1       6.113 -21.398  17.351  1.00  0.00    -0.000 C 
BRANCH  17  18
ATOM     18  C   UNL     1       7.243 -22.433  17.514  1.00  0.00    -0.000 C 
BRANCH  18  19
ATOM     19  C   UNL     1       8.392 -22.304  16.499  1.00  0.00    -0.003 C 
ATOM     20  C   UNL     1       8.131 -21.235  15.438  1.00  0.00     0.004 C 
ENDBRANCH  18  19
ENDBRANCH  17  18
ENDBRANCH  16  17
ENDBRANCH  15  16
ENDBRANCH  14  15
ENDBRANCH  13  14
ENDBRANCH  12  13
ENDBRANCH   1  12
TORSDOF 16
ENDMDL
MODEL 3
REMARK VINA RESULT:    -2.081      1.542      3.018
REMARK INTER + INTRA:          -4.435
REMARK INTER:                  -3.922
REMARK INTRA:                  -0.513
REMARK UNBOUND:                -0.408
REMARK SMILES CCCCCCCCCCCCCCCCCC(=O)[O-]
REMARK SMILES IDX 10 1 11 2 12 3 13 4 14 5 15 6 16 7 17 8 18 9 19 10 20 11
REMARK SMILES IDX 9 12 8 13 7 14 6 15 5 16 4 17 3 18 2 19 1 20
REMARK H PARENT
REMARK Flexibility Score: inf
ROOT
ATOM      1  C   UNL     1      -0.716 -22.398  16.370  1.00  0.00     0.000 C 
ENDROOT
BRANCH   1   2
ATOM      2  C   UNL     1      -2.089 -22.311  15.679  1.00  0.00     0.000 C 
BRANCH   2   3
ATOM      3  C   UNL     1      -3.201 -23.015  16.476  1.00  0.00     0.000 C 
BRANCH   3   4
ATOM      4  C   UNL     1      -4.538 -22.253  16.429  1.00  0.00     0.000 C 
BRANCH   4   5
ATOM      5  C   UNL     1      -5.785 -23.116  16.703  1.00  0.00     0.000 C 
BRANCH   5   6
ATOM      6  C   UNL     1      -6.650 -22.659  17.895  1.00  0.00     0.000 C 
BRANCH   6   7
ATOM      7  C   UNL     1      -8.173 -22.759  17.671  1.00  0.00     0.006 C 
BRANCH   7   8
ATOM      8  C   UNL     1      -8.933 -21.442  17.891  1.00  0.00     0.053 C 
BRANCH   8   9
ATOM      9  C   UNL     1      -9.359 -21.273  19.318  1.00  0.00     0.041 C 
ATOM     10  O   UNL     1      -9.680 -20.137  19.754  1.00  0.00    -0.550 OA
ATOM     11  O   UNL     1      -9.368 -22.367  20.174  1.00  0.00    -0.550 OA
ENDBRANCH   8   9
ENDBRANCH   7   8
ENDBRANCH   6   7
ENDBRANCH   5   6
ENDBRANCH   4   5
ENDBRANCH   3   4
ENDBRANCH   2   3
ENDBRANCH   1   2
BRANCH   1  12
ATOM     12  C   UNL     1       0.454 -22.792  15.444  1.00  0.00     0.000 C 
BRANCH  12  13
ATOM     13  C   UNL     1       1.849 -22.355  15.932  1.00  0.00    -0.000 C 
BRANCH  13  14
ATOM     14  C   UNL     1       3.014 -22.736  14.999  1.00  0.00    -0.000 C 
BRANCH  14  15
ATOM     15  C   UNL     1       4.384 -22.875  15.693  1.00  0.00    -0.000 C 
BRANCH  15  16
ATOM     16  C   UNL     1       4.481 -22.209  17.079  1.00  0.00    -0.000 C 
BRANCH  16  17
ATOM     17  C   UNL     1       5.851 -21.580  17.405  1.00  0.00    -0.000 C 
BRANCH  17  18
ATOM     18  C   UNL     1       7.071 -22.385  16.915  1.00  0.00    -0.000 C 
BRANCH  18  19
ATOM     19  C   UNL     1       8.123 -21.564  16.149  1.00  0.00    -0.003 C 
ATOM     20  C   UNL     1       8.950 -22.411  15.182  1.00  0.00     0.004 C 
ENDBRANCH  18  19
ENDBRANCH  17  18
ENDBRANCH  16  17
ENDBRANCH  15  16
ENDBRANCH  14  15
ENDBRANCH  13  14
ENDBRANCH  12  13
ENDBRANCH   1  12
TORSDOF 16
ENDMDL
MODEL 4
REMARK VINA RESULT:    -2.037      5.369     13.144
REMARK INTER + INTRA:          -4.351
REMARK INTER:                  -3.931
REMARK INTRA:                  -0.420
REMARK UNBOUND:                -0.408
REMARK SMILES CCCCCCCCCCCCCCCCCC(=O)[O-]
REMARK SMILES IDX 10 1 11 2 12 3 13 4 14 5 15 6 16 7 17 8 18 9 19 10 20 11
REMARK SMILES IDX 9 12 8 13 7 14 6 15 5 16 4 17 3 18 2 19 1 20
REMARK H PARENT
REMARK Flexibility Score: inf
ROOT
ATOM      1  C   UNL     1      -2.027 -23.123  16.024  1.00  0.00     0.000 C 
ENDROOT
BRANCH   1   2
ATOM      2  C   UNL     1      -0.757 -22.313  16.343  1.00  0.00     0.000 C 
BRANCH   2   3
ATOM      3  C   UNL     1       0.505 -22.906  15.692  1.00  0.00     0.000 C 
BRANCH   3   4
ATOM      4  C   UNL     1       1.788 -22.155  16.092  1.00  0.00     0.000 C 
BRANCH   4   5
ATOM      5  C   UNL     1       3.093 -22.770  15.550  1.00  0.00     0.000 C 
BRANCH   5   6
ATOM      6  C   UNL     1       4.366 -22.411  16.343  1.00  0.00     0.000 C 
BRANCH   6   7
ATOM      7  C   UNL     1       5.688 -22.876  15.700  1.00  0.00     0.006 C 
BRANCH   7   8
ATOM      8  C   UNL     1       6.920 -22.062  16.125  1.00  0.00     0.053 C 
BRANCH   8   9
ATOM      9  C   UNL     1       7.879 -21.864  14.991  1.00  0.00     0.041 C 
ATOM     10  O   UNL     1       7.572 -22.237  13.829  1.00  0.00    -0.550 OA
ATOM     11  O   UNL     1       9.125 -21.297  15.226  1.00  0.00    -0.550 OA
ENDBRANCH   8   9
ENDBRANCH   7   8
ENDBRANCH   6   7
ENDBRANCH   5   6
ENDBRANCH   4   5
ENDBRANCH   3   4
ENDBRANCH   2   3
ENDBRANCH   1   2
BRANCH   1  12
ATOM     12  C   UNL     1      -3.339 -22.311  16.051  1.00  0.00     0.000 C 
BRANCH  12  13
ATOM     13  C   UNL     1      -4.538 -23.030  16.700  1.00  0.00    -0.000 C 
BRANCH  13  14
ATOM     14  C   UNL     1      -5.841 -22.208  16.749  1.00  0.00    -0.000 C 
BRANCH  14  15
ATOM     15  C   UNL     1      -7.069 -22.969  17.287  1.00  0.00    -0.000 C 
BRANCH  15  16
ATOM     16  C   UNL     1      -7.582 -22.490  18.659  1.00  0.00    -0.000 C 
BRANCH  16  17
ATOM     17  C   UNL     1      -9.116 -22.463  18.807  1.00  0.00    -0.000 C 
BRANCH  17  18
ATOM     18  C   UNL     1      -9.858 -21.603  17.764  1.00  0.00    -0.000 C 
BRANCH  18  19
ATOM     19  C   UNL     1     -10.379 -20.254  18.290  1.00  0.00    -0.003 C 
ATOM     20  C   UNL     1     -10.025 -20.010  19.757  1.00  0.00     0.004 C 
ENDBRANCH  18  19
ENDBRANCH  17  18
ENDBRANCH  16  17
ENDBRANCH  15  16
ENDBRANCH  14  15
ENDBRANCH  13  14
ENDBRANCH  12  13
ENDBRANCH   1  12
TORSDOF 16
ENDMDL
MODEL 5
REMARK VINA RESULT:    -1.737      5.101     13.087
REMARK INTER + INTRA:          -3.770
REMARK INTER:                  -3.083
REMARK INTRA:                  -0.688
REMARK UNBOUND:                -0.408
REMARK SMILES CCCCCCCCCCCCCCCCCC(=O)[O-]
REMARK SMILES IDX 10 1 11 2 12 3 13 4 14 5 15 6 16 7 17 8 18 9 19 10 20 11
REMARK SMILES IDX 9 12 8 13 7 14 6 15 5 16 4 17 3 18 2 19 1 20
REMARK H PARENT
REMARK Flexibility Score: inf
ROOT
ATOM      1  C   UNL     1      -5.142 -23.116  17.616  1.00  0.00     0.000 C 
ENDROOT
BRANCH   1   2
ATOM      2  C   UNL     1      -5.107 -22.466  16.221  1.00  0.00     0.000 C 
BRANCH   2   3
ATOM      3  C   UNL     1      -3.684 -22.084  15.779  1.00  0.00     0.000 C 
BRANCH   3   4
ATOM      4  C   UNL     1      -2.630 -23.120  16.209  1.00  0.00     0.000 C 
BRANCH   4   5
ATOM      5  C   UNL     1      -1.218 -22.884  15.636  1.00  0.00     0.000 C 
BRANCH   5   6
ATOM      6  C   UNL     1      -0.346 -21.892  16.431  1.00  0.00     0.000 C 
BRANCH   6   7
ATOM      7  C   UNL     1       1.166 -22.200  16.421  1.00  0.00     0.006 C 
BRANCH   7   8
ATOM      8  C   UNL     1       1.671 -22.846  15.122  1.00  0.00     0.053 C 
BRANCH   8   9
ATOM      9  C   UNL     1       3.166 -22.943  15.090  1.00  0.00     0.041 C 
ATOM     10  O   UNL     1       3.831 -22.832  16.153  1.00  0.00    -0.550 OA
ATOM     11  O   UNL     1       3.825 -23.124  13.881  1.00  0.00    -0.550 OA
ENDBRANCH   8   9
ENDBRANCH   7   8
ENDBRANCH   6   7
ENDBRANCH   5   6
ENDBRANCH   4   5
ENDBRANCH   3   4
ENDBRANCH   2   3
ENDBRANCH   1   2
BRANCH   1  12
ATOM     12  C   UNL     1      -6.528 -23.123  18.295  1.00  0.00     0.000 C 
BRANCH  12  13
ATOM     13  C   UNL     1      -7.650 -22.431  17.495  1.00  0.00    -0.000 C 
BRANCH  13  14
ATOM     14  C   UNL     1      -8.564 -21.508  18.323  1.00  0.00    -0.000 C 
BRANCH  14  15
ATOM     15  C   UNL     1     -10.019 -21.414  17.821  1.00  0.00    -0.000 C 
BRANCH  15  16
ATOM     16  C   UNL     1     -11.036 -22.258  18.612  1.00  0.00    -0.000 C 
BRANCH  16  17
ATOM     17  C   UNL     1     -10.616 -22.599  20.056  1.00  0.00    -0.000 C 
BRANCH  17  18
ATOM     18  C   UNL     1     -10.673 -21.420  21.048  1.00  0.00    -0.000 C 
BRANCH  18  19
ATOM     19  C   UNL     1     -10.285 -21.771  22.494  1.00  0.00    -0.003 C 
ATOM     20  C   UNL     1      -8.930 -21.195  22.905  1.00  0.00     0.004 C 
ENDBRANCH  18  19
ENDBRANCH  17  18
ENDBRANCH  16  17
ENDBRANCH  15  16
ENDBRANCH  14  15
ENDBRANCH  13  14
ENDBRANCH  12  13
ENDBRANCH   1  12
TORSDOF 16
ENDMDL
MODEL 6
REMARK VINA RESULT:    -1.710      7.207      9.452
REMARK INTER + INTRA:          -3.718
REMARK INTER:                  -2.341
REMARK INTRA:                  -1.377
REMARK UNBOUND:                -0.408
REMARK SMILES CCCCCCCCCCCCCCCCCC(=O)[O-]
REMARK SMILES IDX 10 1 11 2 12 3 13 4 14 5 15 6 16 7 17 8 18 9 19 10 20 11
REMARK SMILES IDX 9 12 8 13 7 14 6 15 5 16 4 17 3 18 2 19 1 20
REMARK H PARENT
REMARK Flexibility Score: inf
ROOT
ATOM      1  C   UNL     1       3.997 -22.570  13.622  1.00  0.00     0.000 C 
ENDROOT
BRANCH   1   2
ATOM      2  C   UNL     1       3.729 -23.125  15.033  1.00  0.00     0.000 C 
BRANCH   2   3
ATOM      3  C   UNL     1       2.973 -22.129  15.930  1.00  0.00     0.000 C 
BRANCH   3   4
ATOM      4  C   UNL     1       3.869 -21.508  17.016  1.00  0.00     0.000 C 
BRANCH   4   5
ATOM      5  C   UNL     1       5.290 -22.100  17.100  1.00  0.00     0.000 C 
BRANCH   5   6
ATOM      6  C   UNL     1       6.311 -21.246  17.879  1.00  0.00     0.000 C 
BRANCH   6   7
ATOM      7  C   UNL     1       7.778 -21.704  17.748  1.00  0.00     0.006 C 
BRANCH   7   8
ATOM      8  C   UNL     1       8.012 -22.782  16.679  1.00  0.00     0.053 C 
BRANCH   8   9
ATOM      9  C   UNL     1       8.591 -22.207  15.423  1.00  0.00     0.041 C 
ATOM     10  O   UNL     1       8.579 -20.963  15.230  1.00  0.00    -0.550 OA
ATOM     11  O   UNL     1       9.115 -23.049  14.450  1.00  0.00    -0.550 OA
ENDBRANCH   8   9
ENDBRANCH   7   8
ENDBRANCH   6   7
ENDBRANCH   5   6
ENDBRANCH   4   5
ENDBRANCH   3   4
ENDBRANCH   2   3
ENDBRANCH   1   2
BRANCH   1  12
ATOM     12  C   UNL     1       5.442 -22.084  13.380  1.00  0.00     0.000 C 
BRANCH  12  13
ATOM     13  C   UNL     1       6.352 -23.086  12.641  1.00  0.00    -0.000 C 
BRANCH  13  14
ATOM     14  C   UNL     1       6.208 -23.086  11.107  1.00  0.00    -0.000 C 
BRANCH  14  15
ATOM     15  C   UNL     1       7.501 -22.760  10.334  1.00  0.00    -0.000 C 
BRANCH  15  16
ATOM     16  C   UNL     1       8.680 -22.289  11.207  1.00  0.00    -0.000 C 
BRANCH  16  17
ATOM     17  C   UNL     1       8.930 -20.768  11.199  1.00  0.00    -0.000 C 
BRANCH  17  18
ATOM     18  C   UNL     1       8.330 -20.014   9.995  1.00  0.00    -0.000 C 
BRANCH  18  19
ATOM     19  C   UNL     1       6.840 -19.656  10.133  1.00  0.00    -0.003 C 
ATOM     20  C   UNL     1       6.334 -18.766   8.999  1.00  0.00     0.004 C 
ENDBRANCH  18  19
ENDBRANCH  17  18
ENDBRANCH  16  17
ENDBRANCH  15  16
ENDBRANCH  14  15
ENDBRANCH  13  14
ENDBRANCH  12  13
ENDBRANCH   1  12
TORSDOF 16
ENDMDL
MODEL 7
REMARK VINA RESULT:    -1.591      1.898      3.819
REMARK INTER + INTRA:          -3.486
REMARK INTER:                  -2.834
REMARK INTRA:                  -0.652
REMARK UNBOUND:                -0.408
REMARK SMILES CCCCCCCCCCCCCCCCCC(=O)[O-]
REMARK SMILES IDX 10 1 11 2 12 3 13 4 14 5 15 6 16 7 17 8 18 9 19 10 20 11
REMARK SMILES IDX 9 12 8 13 7 14 6 15 5 16 4 17 3 18 2 19 1 20
REMARK H PARENT
REMARK Flexibility Score: inf
ROOT
ATOM      1  C   UNL     1       5.768 -22.433  17.070  1.00  0.00     0.000 C 
ENDROOT
BRANCH   1   2
ATOM      2  C   UNL     1       4.290 -22.002  17.122  1.00  0.00     0.000 C 
BRANCH   2   3
ATOM      3  C   UNL     1       3.400 -22.818  16.169  1.00  0.00     0.000 C 
BRANCH   3   4
ATOM      4  C   UNL     1       2.179 -22.024  15.671  1.00  0.00     0.000 C 
BRANCH   4   5
ATOM      5  C   UNL     1       0.863 -22.323  16.416  1.00  0.00     0.000 C 
BRANCH   5   6
ATOM      6  C   UNL     1      -0.348 -22.629  15.511  1.00  0.00     0.000 C 
BRANCH   6   7
ATOM      7  C   UNL     1      -1.643 -23.002  16.261  1.00  0.00     0.006 C 
BRANCH   7   8
ATOM      8  C   UNL     1      -2.913 -22.349  15.694  1.00  0.00     0.053 C 
BRANCH   8   9
ATOM      9  C   UNL     1      -4.106 -22.595  16.566  1.00  0.00     0.041 C 
ATOM     10  O   UNL     1      -3.965 -23.124  17.699  1.00  0.00    -0.550 OA
ATOM     11  O   UNL     1      -5.378 -22.271  16.111  1.00  0.00    -0.550 OA
ENDBRANCH   8   9
ENDBRANCH   7   8
ENDBRANCH   6   7
ENDBRANCH   5   6
ENDBRANCH   4   5
ENDBRANCH   3   4
ENDBRANCH   2   3
ENDBRANCH   1   2
BRANCH   1  12
ATOM     12  C   UNL     1       6.783 -21.271  17.087  1.00  0.00     0.000 C 
BRANCH  12  13
ATOM     13  C   UNL     1       8.101 -21.545  16.335  1.00  0.00    -0.000 C 
BRANCH  13  14
ATOM     14  C   UNL     1       8.160 -22.897  15.598  1.00  0.00    -0.000 C 
BRANCH  14  15
ATOM     15  C   UNL     1       7.835 -22.832  14.093  1.00  0.00    -0.000 C 
BRANCH  15  16
ATOM     16  C   UNL     1       9.010 -22.408  13.191  1.00  0.00    -0.000 C 
BRANCH  16  17
ATOM     17  C   UNL     1       8.607 -21.900  11.792  1.00  0.00    -0.000 C 
BRANCH  17  18
ATOM     18  C   UNL     1       7.351 -21.007  11.759  1.00  0.00    -0.000 C 
BRANCH  18  19
ATOM     19  C   UNL     1       7.551 -19.633  11.097  1.00  0.00    -0.003 C 
ATOM     20  C   UNL     1       7.081 -19.598   9.643  1.00  0.00     0.004 C 
ENDBRANCH  18  19
ENDBRANCH  17  18
ENDBRANCH  16  17
ENDBRANCH  15  16
ENDBRANCH  14  15
ENDBRANCH  13  14
ENDBRANCH  12  13
ENDBRANCH   1  12
TORSDOF 16
ENDMDL
MODEL 8
REMARK VINA RESULT:    -1.427      5.596     12.984
REMARK INTER + INTRA:          -3.170
REMARK INTER:                  -2.779
REMARK INTRA:                  -0.391
REMARK UNBOUND:                -0.408
REMARK SMILES CCCCCCCCCCCCCCCCCC(=O)[O-]
REMARK SMILES IDX 10 1 11 2 12 3 13 4 14 5 15 6 16 7 17 8 18 9 19 10 20 11
REMARK SMILES IDX 9 12 8 13 7 14 6 15 5 16 4 17 3 18 2 19 1 20
REMARK H PARENT
REMARK Flexibility Score: inf
ROOT
ATOM      1  C   UNL     1      -1.896 -22.010  15.958  1.00  0.00     0.000 C 
ENDROOT
BRANCH   1   2
ATOM      2  C   UNL     1      -0.621 -22.848  16.165  1.00  0.00     0.000 C 
BRANCH   2   3
ATOM      3  C   UNL     1       0.660 -21.995  16.149  1.00  0.00     0.000 C 
BRANCH   3   4
ATOM      4  C   UNL     1       1.941 -22.847  16.153  1.00  0.00     0.000 C 
BRANCH   4   5
ATOM      5  C   UNL     1       2.591 -23.047  14.770  1.00  0.00     0.000 C 
BRANCH   5   6
ATOM      6  C   UNL     1       4.131 -23.123  14.773  1.00  0.00     0.000 C 
BRANCH   6   7
ATOM      7  C   UNL     1       4.794 -22.991  13.386  1.00  0.00     0.006 C 
BRANCH   7   8
ATOM      8  C   UNL     1       6.328 -23.074  13.408  1.00  0.00     0.053 C 
BRANCH   8   9
ATOM      9  C   UNL     1       6.938 -22.479  12.175  1.00  0.00     0.041 C 
ATOM     10  O   UNL     1       8.033 -21.862  12.244  1.00  0.00    -0.550 OA
ATOM     11  O   UNL     1       6.278 -22.577  10.957  1.00  0.00    -0.550 OA
ENDBRANCH   8   9
ENDBRANCH   7   8
ENDBRANCH   6   7
ENDBRANCH   5   6
ENDBRANCH   4   5
ENDBRANCH   3   4
ENDBRANCH   2   3
ENDBRANCH   1   2
BRANCH   1  12
ATOM     12  C   UNL     1      -3.200 -22.828  15.850  1.00  0.00     0.000 C 
BRANCH  12  13
ATOM     13  C   UNL     1      -4.354 -22.339  16.747  1.00  0.00    -0.000 C 
BRANCH  13  14
ATOM     14  C   UNL     1      -5.580 -21.793  15.991  1.00  0.00    -0.000 C 
BRANCH  14  15
ATOM     15  C   UNL     1      -6.941 -22.132  16.629  1.00  0.00    -0.000 C 
BRANCH  15  16
ATOM     16  C   UNL     1      -8.131 -22.155  15.650  1.00  0.00    -0.000 C 
BRANCH  16  17
ATOM     17  C   UNL     1      -8.596 -20.770  15.158  1.00  0.00    -0.000 C 
BRANCH  17  18
ATOM     18  C   UNL     1     -10.121 -20.545  15.188  1.00  0.00    -0.000 C 
BRANCH  18  19
ATOM     19  C   UNL     1     -10.663 -19.955  16.502  1.00  0.00    -0.003 C 
ATOM     20  C   UNL     1     -10.804 -20.998  17.610  1.00  0.00     0.004 C 
ENDBRANCH  18  19
ENDBRANCH  17  18
ENDBRANCH  16  17
ENDBRANCH  15  16
ENDBRANCH  14  15
ENDBRANCH  13  14
ENDBRANCH  12  13
ENDBRANCH   1  12
TORSDOF 16
ENDMDL
MODEL 9
REMARK VINA RESULT:    -0.670      4.279      6.430
REMARK INTER + INTRA:          -1.705
REMARK INTER:                  -2.471
REMARK INTRA:                   0.766
REMARK UNBOUND:                -0.408
REMARK SMILES CCCCCCCCCCCCCCCCCC(=O)[O-]
REMARK SMILES IDX 10 1 11 2 12 3 13 4 14 5 15 6 16 7 17 8 18 9 19 10 20 11
REMARK SMILES IDX 9 12 8 13 7 14 6 15 5 16 4 17 3 18 2 19 1 20
REMARK H PARENT
REMARK Flexibility Score: inf
ROOT
ATOM      1  C   UNL     1       7.102 -22.863  16.648  1.00  0.00     0.000 C 
ENDROOT
BRANCH   1   2
ATOM      2  C   UNL     1       6.302 -21.621  17.079  1.00  0.00     0.000 C 
BRANCH   2   3
ATOM      3  C   UNL     1       4.780 -21.838  17.004  1.00  0.00     0.000 C 
BRANCH   3   4
ATOM      4  C   UNL     1       4.396 -23.059  16.148  1.00  0.00     0.000 C 
BRANCH   4   5
ATOM      5  C   UNL     1       4.540 -22.855  14.627  1.00  0.00     0.000 C 
BRANCH   5   6
ATOM      6  C   UNL     1       3.251 -23.077  13.810  1.00  0.00     0.000 C 
BRANCH   6   7
ATOM      7  C   UNL     1       1.953 -23.125  14.642  1.00  0.00     0.006 C 
BRANCH   7   8
ATOM      8  C   UNL     1       2.000 -22.300  15.937  1.00  0.00     0.053 C 
BRANCH   8   9
ATOM      9  C   UNL     1       0.630 -22.039  16.484  1.00  0.00     0.041 C 
ATOM     10  O   UNL     1       0.451 -21.135  17.341  1.00  0.00    -0.550 OA
ATOM     11  O   UNL     1      -0.443 -22.818  16.072  1.00  0.00    -0.550 OA
ENDBRANCH   8   9
ENDBRANCH   7   8
ENDBRANCH   6   7
ENDBRANCH   5   6
ENDBRANCH   4   5
ENDBRANCH   3   4
ENDBRANCH   2   3
ENDBRANCH   1   2
BRANCH   1  12
ATOM     12  C   UNL     1       8.625 -22.646  16.533  1.00  0.00     0.000 C 
BRANCH  12  13
ATOM     13  C   UNL     1       9.074 -21.792  15.331  1.00  0.00    -0.000 C 
BRANCH  13  14
ATOM     14  C   UNL     1       8.696 -22.362  13.950  1.00  0.00    -0.000 C 
BRANCH  14  15
ATOM     15  C   UNL     1       7.719 -21.493  13.133  1.00  0.00    -0.000 C 
BRANCH  15  16
ATOM     16  C   UNL     1       8.342 -20.233  12.502  1.00  0.00    -0.000 C 
BRANCH  16  17
ATOM     17  C   UNL     1       8.143 -20.102  10.978  1.00  0.00    -0.000 C 
BRANCH  17  18
ATOM     18  C   UNL     1       8.820 -21.201  10.135  1.00  0.00    -0.000 C 
BRANCH  18  19
ATOM     19  C   UNL     1       8.072 -21.580   8.845  1.00  0.00    -0.003 C 
ATOM     20  C   UNL     1       8.626 -22.841   8.184  1.00  0.00     0.004 C 
ENDBRANCH  18  19
ENDBRANCH  17  18
ENDBRANCH  16  17
ENDBRANCH  15  16
ENDBRANCH  14  15
ENDBRANCH  13  14
ENDBRANCH  12  13
ENDBRANCH   1  12
TORSDOF 16
ENDMDL
