MODEL 1
REMARK VINA RESULT:    -2.178      0.000      0.000
REMARK INTER + INTRA:          -2.674
REMARK INTER:                  -2.560
REMARK INTRA:                  -0.115
REMARK UNBOUND:                -0.115
REMARK SMILES O=c1c(O)c(-c2ccc(O)cc2)oc2cc(O)cc(O)c12
REMARK SMILES IDX 5 1 3 2 2 3 1 4 21 5 19 6 18 7 16 8 15 9 14 10 13 11 6 12
REMARK SMILES IDX 7 13 8 14 9 15 12 16 11 17 10 18 4 20 20 22 17 24
REMARK H PARENT 10 19 4 21 20 23 17 25
REMARK Flexibility Score: inf
ROOT
ATOM      1  C   UNL     1      16.319  -0.288  26.929  1.00  0.00     0.180 A 
ATOM      2  C   UNL     1      15.697  -0.643  28.139  1.00  0.00     0.208 A 
ATOM      3  C   UNL     1      16.352  -1.532  29.007  1.00  0.00     0.238 A 
ATOM      4  O   UNL     1      15.815  -1.802  30.112  1.00  0.00    -0.285 OA
ATOM      5  C   UNL     1      17.612  -2.068  28.646  1.00  0.00     0.111 A 
ATOM      6  C   UNL     1      18.347  -3.007  29.430  1.00  0.00     0.134 A 
ATOM      7  C   UNL     1      19.642  -3.370  29.040  1.00  0.00     0.093 A 
ATOM      8  C   UNL     1      20.203  -2.876  27.859  1.00  0.00     0.123 A 
ATOM      9  C   UNL     1      19.471  -2.004  27.057  1.00  0.00     0.094 A 
ATOM     10  C   UNL     1      18.190  -1.596  27.438  1.00  0.00     0.146 A 
ATOM     11  O   UNL     1      17.531  -0.756  26.651  1.00  0.00    -0.452 OA
ENDROOT
BRANCH   1  12
ATOM     12  C   UNL     1      15.680   0.623  25.952  1.00  0.00     0.021 A 
ATOM     13  C   UNL     1      15.401   1.964  26.275  1.00  0.00     0.016 A 
ATOM     14  C   UNL     1      14.775   2.799  25.344  1.00  0.00     0.047 A 
ATOM     15  C   UNL     1      14.408   2.302  24.087  1.00  0.00     0.115 A 
ATOM     16  C   UNL     1      15.289   0.128  24.697  1.00  0.00     0.016 A 
ATOM     17  C   UNL     1      14.663   0.965  23.769  1.00  0.00     0.047 A 
BRANCH  15  18
ATOM     18  O   UNL     1      13.784   3.125  23.152  1.00  0.00    -0.508 OA
ATOM     19  H   UNL     1      13.244   2.740  22.385  1.00  0.00     0.293 HD
ENDBRANCH  15  18
ENDBRANCH   1  12
BRANCH   2  20
ATOM     20  O   UNL     1      14.464  -0.085  28.485  1.00  0.00    -0.502 OA
ATOM     21  H   UNL     1      14.165   0.824  28.152  1.00  0.00     0.293 HD
ENDBRANCH   2  20
BRANCH   6  22
ATOM     22  O   UNL     1      17.844  -3.630  30.576  1.00  0.00    -0.507 OA
ATOM     23  H   UNL     1      17.538  -3.145  31.406  1.00  0.00     0.293 HD
ENDBRANCH   6  22
BRANCH   8  24
ATOM     24  O   UNL     1      21.486  -3.253  27.470  1.00  0.00    -0.508 OA
ATOM     25  H   UNL     1      22.112  -2.604  27.008  1.00  0.00     0.293 HD
ENDBRANCH   8  24
TORSDOF 5
ENDMDL
MODEL 2
REMARK VINA RESULT:    -0.570      1.195      2.903
REMARK INTER + INTRA:          -0.784
REMARK INTER:                  -0.744
REMARK INTRA:                  -0.040
REMARK UNBOUND:                -0.115
REMARK SMILES O=c1c(O)c(-c2ccc(O)cc2)oc2cc(O)cc(O)c12
REMARK SMILES IDX 5 1 3 2 2 3 1 4 21 5 19 6 18 7 16 8 15 9 14 10 13 11 6 12
REMARK SMILES IDX 7 13 8 14 9 15 12 16 11 17 10 18 4 20 20 22 17 24
REMARK H PARENT 10 19 4 21 20 23 17 25
REMARK Flexibility Score: inf
ROOT
ATOM      1  C   UNL     1      16.768  -0.443  26.514  1.00  0.00     0.180 A 
ATOM      2  C   UNL     1      17.976  -0.965  26.017  1.00  0.00     0.208 A 
ATOM      3  C   UNL     1      18.719  -1.846  26.820  1.00  0.00     0.238 A 
ATOM      4  O   UNL     1      19.770  -2.352  26.348  1.00  0.00    -0.285 OA
ATOM      5  C   UNL     1      18.254  -2.180  28.115  1.00  0.00     0.111 A 
ATOM      6  C   UNL     1      18.946  -3.030  29.029  1.00  0.00     0.134 A 
ATOM      7  C   UNL     1      18.330  -3.396  30.233  1.00  0.00     0.093 A 
ATOM      8  C   UNL     1      17.076  -2.891  30.583  1.00  0.00     0.123 A 
ATOM      9  C   UNL     1      16.418  -2.013  29.724  1.00  0.00     0.094 A 
ATOM     10  C   UNL     1      16.991  -1.658  28.500  1.00  0.00     0.146 A 
ATOM     11  O   UNL     1      16.327  -0.828  27.706  1.00  0.00    -0.452 OA
ENDROOT
BRANCH   1  12
ATOM     12  C   UNL     1      15.943   0.510  25.737  1.00  0.00     0.021 A 
ATOM     13  C   UNL     1      15.598   1.772  26.253  1.00  0.00     0.016 A 
ATOM     14  C   UNL     1      14.797   2.645  25.511  1.00  0.00     0.047 A 
ATOM     15  C   UNL     1      14.321   2.263  24.250  1.00  0.00     0.115 A 
ATOM     16  C   UNL     1      15.443   0.127  24.480  1.00  0.00     0.016 A 
ATOM     17  C   UNL     1      14.643   1.002  23.740  1.00  0.00     0.047 A 
BRANCH  15  18
ATOM     18  O   UNL     1      13.522   3.124  23.500  1.00  0.00    -0.508 OA
ATOM     19  H   UNL     1      12.510   3.067  23.528  1.00  0.00     0.293 HD
ENDBRANCH  15  18
ENDBRANCH   1  12
BRANCH   2  20
ATOM     20  O   UNL     1      18.404  -0.640  24.727  1.00  0.00    -0.502 OA
ATOM     21  H   UNL     1      18.354   0.302  24.359  1.00  0.00     0.293 HD
ENDBRANCH   2  20
BRANCH   6  22
ATOM     22  O   UNL     1      20.240  -3.515  28.818  1.00  0.00    -0.507 OA
ATOM     23  H   UNL     1      20.791  -4.000  29.511  1.00  0.00     0.293 HD
ENDBRANCH   6  22
BRANCH   8  24
ATOM     24  O   UNL     1      16.477  -3.248  31.789  1.00  0.00    -0.508 OA
ATOM     25  H   UNL     1      16.014  -2.563  32.375  1.00  0.00     0.293 HD
ENDBRANCH   8  24
TORSDOF 5
ENDMDL
MODEL 3
REMARK VINA RESULT:    -0.529     11.348     13.899
REMARK INTER + INTRA:          -0.737
REMARK INTER:                  -0.501
REMARK INTRA:                  -0.236
REMARK UNBOUND:                -0.115
REMARK SMILES O=c1c(O)c(-c2ccc(O)cc2)oc2cc(O)cc(O)c12
REMARK SMILES IDX 5 1 3 2 2 3 1 4 21 5 19 6 18 7 16 8 15 9 14 10 13 11 6 12
REMARK SMILES IDX 7 13 8 14 9 15 12 16 11 17 10 18 4 20 20 22 17 24
REMARK H PARENT 10 19 4 21 20 23 17 25
REMARK Flexibility Score: inf
ROOT
ATOM      1  C   UNL     1      13.912 -13.032  28.797  1.00  0.00     0.180 A 
ATOM      2  C   UNL     1      14.573 -12.348  29.833  1.00  0.00     0.208 A 
ATOM      3  C   UNL     1      13.900 -11.312  30.501  1.00  0.00     0.238 A 
ATOM      4  O   UNL     1      14.477 -10.740  31.463  1.00  0.00    -0.285 OA
ATOM      5  C   UNL     1      12.584 -10.962  30.116  1.00  0.00     0.111 A 
ATOM      6  C   UNL     1      11.823  -9.903  30.697  1.00  0.00     0.134 A 
ATOM      7  C   UNL     1      10.484  -9.732  30.327  1.00  0.00     0.093 A 
ATOM      8  C   UNL     1       9.897 -10.540  29.350  1.00  0.00     0.123 A 
ATOM      9  C   UNL     1      10.648 -11.538  28.734  1.00  0.00     0.094 A 
ATOM     10  C   UNL     1      11.977 -11.757  29.107  1.00  0.00     0.146 A 
ATOM     11  O   UNL     1      12.654 -12.726  28.504  1.00  0.00    -0.452 OA
ENDROOT
BRANCH   1  12
ATOM     12  C   UNL     1      14.564 -14.118  28.030  1.00  0.00     0.021 A 
ATOM     13  C   UNL     1      14.730 -15.404  28.576  1.00  0.00     0.016 A 
ATOM     14  C   UNL     1      15.371 -16.407  27.842  1.00  0.00     0.047 A 
ATOM     15  C   UNL     1      15.865 -16.134  26.560  1.00  0.00     0.115 A 
ATOM     16  C   UNL     1      15.082 -13.848  26.752  1.00  0.00     0.016 A 
ATOM     17  C   UNL     1      15.722 -14.852  26.020  1.00  0.00     0.047 A 
BRANCH  15  18
ATOM     18  O   UNL     1      16.505 -17.125  25.819  1.00  0.00    -0.508 OA
ATOM     19  H   UNL     1      16.125 -18.063  25.749  1.00  0.00     0.293 HD
ENDBRANCH  15  18
ENDBRANCH   1  12
BRANCH   2  20
ATOM     20  O   UNL     1      15.864 -12.723  30.212  1.00  0.00    -0.502 OA
ATOM     21  H   UNL     1      16.616 -12.054  30.319  1.00  0.00     0.293 HD
ENDBRANCH   2  20
BRANCH   6  22
ATOM     22  O   UNL     1      12.340  -8.983  31.613  1.00  0.00    -0.507 OA
ATOM     23  H   UNL     1      12.039  -8.898  32.572  1.00  0.00     0.293 HD
ENDBRANCH   6  22
BRANCH   8  24
ATOM     24  O   UNL     1       8.568 -10.353  28.977  1.00  0.00    -0.508 OA
ATOM     25  H   UNL     1       7.881  -9.984  29.625  1.00  0.00     0.293 HD
ENDBRANCH   8  24
TORSDOF 5
ENDMDL
MODEL 4
REMARK VINA RESULT:    -0.106     11.383     13.920
REMARK INTER + INTRA:          -0.239
REMARK INTER:                  -0.006
REMARK INTRA:                  -0.233
REMARK UNBOUND:                -0.115
REMARK SMILES O=c1c(O)c(-c2ccc(O)cc2)oc2cc(O)cc(O)c12
REMARK SMILES IDX 5 1 3 2 2 3 1 4 21 5 19 6 18 7 16 8 15 9 14 10 13 11 6 12
REMARK SMILES IDX 7 13 8 14 9 15 12 16 11 17 10 18 4 20 20 22 17 24
REMARK H PARENT 10 19 4 21 20 23 17 25
REMARK Flexibility Score: inf
ROOT
ATOM      1  C   UNL     1      13.226 -13.195  28.268  1.00  0.00     0.180 A 
ATOM      2  C   UNL     1      11.920 -13.056  27.766  1.00  0.00     0.208 A 
ATOM      3  C   UNL     1      11.089 -12.056  28.297  1.00  0.00     0.238 A 
ATOM      4  O   UNL     1       9.941 -11.902  27.807  1.00  0.00    -0.285 OA
ATOM      5  C   UNL     1      11.569 -11.219  29.334  1.00  0.00     0.111 A 
ATOM      6  C   UNL     1      10.800 -10.200  29.973  1.00  0.00     0.134 A 
ATOM      7  C   UNL     1      11.418  -9.346  30.895  1.00  0.00     0.093 A 
ATOM      8  C   UNL     1      12.759  -9.515  31.248  1.00  0.00     0.123 A 
ATOM      9  C   UNL     1      13.501 -10.544  30.674  1.00  0.00     0.094 A 
ATOM     10  C   UNL     1      12.923 -11.391  29.724  1.00  0.00     0.146 A 
ATOM     11  O   UNL     1      13.669 -12.351  29.193  1.00  0.00    -0.452 OA
ENDROOT
BRANCH   1  12
ATOM     12  C   UNL     1      14.152 -14.241  27.776  1.00  0.00     0.021 A 
ATOM     13  C   UNL     1      14.442 -15.383  28.544  1.00  0.00     0.016 A 
ATOM     14  C   UNL     1      15.338 -16.346  28.068  1.00  0.00     0.047 A 
ATOM     15  C   UNL     1      15.965 -16.172  26.828  1.00  0.00     0.115 A 
ATOM     16  C   UNL     1      14.802 -14.065  26.542  1.00  0.00     0.016 A 
ATOM     17  C   UNL     1      15.697 -15.029  26.069  1.00  0.00     0.047 A 
BRANCH  15  18
ATOM     18  O   UNL     1      16.859 -17.125  26.344  1.00  0.00    -0.508 OA
ATOM     19  H   UNL     1      17.318 -17.783  26.964  1.00  0.00     0.293 HD
ENDBRANCH  15  18
ENDBRANCH   1  12
BRANCH   2  20
ATOM     20  O   UNL     1      11.475 -13.878  26.728  1.00  0.00    -0.502 OA
ATOM     21  H   UNL     1      10.648 -13.667  26.183  1.00  0.00     0.293 HD
ENDBRANCH   2  20
BRANCH   6  22
ATOM     22  O   UNL     1       9.433 -10.004  29.761  1.00  0.00    -0.507 OA
ATOM     23  H   UNL     1       8.874  -9.307  30.229  1.00  0.00     0.293 HD
ENDBRANCH   6  22
BRANCH   8  24
ATOM     24  O   UNL     1      13.362  -8.670  32.178  1.00  0.00    -0.508 OA
ATOM     25  H   UNL     1      14.364  -8.676  32.328  1.00  0.00     0.293 HD
ENDBRANCH   8  24
TORSDOF 5
ENDMDL
MODEL 5
REMARK VINA RESULT:    -0.071      4.576      5.759
REMARK INTER + INTRA:          -0.198
REMARK INTER:                   0.070
REMARK INTRA:                  -0.267
REMARK UNBOUND:                -0.115
REMARK SMILES O=c1c(O)c(-c2ccc(O)cc2)oc2cc(O)cc(O)c12
REMARK SMILES IDX 5 1 3 2 2 3 1 4 21 5 19 6 18 7 16 8 15 9 14 10 13 11 6 12
REMARK SMILES IDX 7 13 8 14 9 15 12 16 11 17 10 18 4 20 20 22 17 24
REMARK H PARENT 10 19 4 21 20 23 17 25
REMARK Flexibility Score: inf
ROOT
ATOM      1  C   UNL     1      16.174  -4.590  26.174  1.00  0.00     0.180 A 
ATOM      2  C   UNL     1      15.310  -3.528  26.494  1.00  0.00     0.208 A 
ATOM      3  C   UNL     1      15.803  -2.456  27.256  1.00  0.00     0.238 A 
ATOM      4  O   UNL     1      15.040  -1.483  27.494  1.00  0.00    -0.285 OA
ATOM      5  C   UNL     1      17.146  -2.468  27.703  1.00  0.00     0.111 A 
ATOM      6  C   UNL     1      17.739  -1.455  28.515  1.00  0.00     0.134 A 
ATOM      7  C   UNL     1      19.112  -1.504  28.788  1.00  0.00     0.093 A 
ATOM      8  C   UNL     1      19.899  -2.565  28.332  1.00  0.00     0.123 A 
ATOM      9  C   UNL     1      19.318  -3.589  27.589  1.00  0.00     0.094 A 
ATOM     10  C   UNL     1      17.958  -3.550  27.270  1.00  0.00     0.146 A 
ATOM     11  O   UNL     1      17.446  -4.540  26.551  1.00  0.00    -0.452 OA
ENDROOT
BRANCH   1  12
ATOM     12  C   UNL     1      15.721  -5.766  25.395  1.00  0.00     0.021 A 
ATOM     13  C   UNL     1      15.374  -6.974  26.027  1.00  0.00     0.016 A 
ATOM     14  C   UNL     1      14.973  -8.078  25.269  1.00  0.00     0.047 A 
ATOM     15  C   UNL     1      14.926  -7.993  23.871  1.00  0.00     0.115 A 
ATOM     16  C   UNL     1      15.692  -5.697  23.992  1.00  0.00     0.016 A 
ATOM     17  C   UNL     1      15.289  -6.802  23.236  1.00  0.00     0.047 A 
BRANCH  15  18
ATOM     18  O   UNL     1      14.527  -9.087  23.105  1.00  0.00    -0.508 OA
ATOM     19  H   UNL     1      15.199  -9.758  22.751  1.00  0.00     0.293 HD
ENDBRANCH  15  18
ENDBRANCH   1  12
BRANCH   2  20
ATOM     20  O   UNL     1      13.994  -3.525  26.024  1.00  0.00    -0.502 OA
ATOM     21  H   UNL     1      13.619  -4.273  25.454  1.00  0.00     0.293 HD
ENDBRANCH   2  20
BRANCH   6  22
ATOM     22  O   UNL     1      17.026  -0.403  29.096  1.00  0.00    -0.507 OA
ATOM     23  H   UNL     1      16.330   0.150  28.619  1.00  0.00     0.293 HD
ENDBRANCH   6  22
BRANCH   8  24
ATOM     24  O   UNL     1      21.261  -2.614  28.621  1.00  0.00    -0.508 OA
ATOM     25  H   UNL     1      21.908  -1.928  28.248  1.00  0.00     0.293 HD
ENDBRANCH   8  24
TORSDOF 5
ENDMDL
MODEL 6
REMARK VINA RESULT:     0.027      2.664      6.239
REMARK INTER + INTRA:          -0.083
REMARK INTER:                   0.115
REMARK INTRA:                  -0.198
REMARK UNBOUND:                -0.115
REMARK SMILES O=c1c(O)c(-c2ccc(O)cc2)oc2cc(O)cc(O)c12
REMARK SMILES IDX 5 1 3 2 2 3 1 4 21 5 19 6 18 7 16 8 15 9 14 10 13 11 6 12
REMARK SMILES IDX 7 13 8 14 9 15 12 16 11 17 10 18 4 20 20 22 17 24
REMARK H PARENT 10 19 4 21 20 23 17 25
REMARK Flexibility Score: inf
ROOT
ATOM      1  C   UNL     1      15.963  -1.748  27.068  1.00  0.00     0.180 A 
ATOM      2  C   UNL     1      16.019  -1.227  28.373  1.00  0.00     0.208 A 
ATOM      3  C   UNL     1      15.750   0.136  28.574  1.00  0.00     0.238 A 
ATOM      4  O   UNL     1      15.749   0.585  29.750  1.00  0.00    -0.285 OA
ATOM      5  C   UNL     1      15.444   0.965  27.467  1.00  0.00     0.111 A 
ATOM      6  C   UNL     1      15.195   2.368  27.550  1.00  0.00     0.134 A 
ATOM      7  C   UNL     1      14.773   3.063  26.409  1.00  0.00     0.093 A 
ATOM      8  C   UNL     1      14.656   2.418  25.176  1.00  0.00     0.123 A 
ATOM      9  C   UNL     1      14.955   1.061  25.072  1.00  0.00     0.094 A 
ATOM     10  C   UNL     1      15.343   0.333  26.200  1.00  0.00     0.146 A 
ATOM     11  O   UNL     1      15.608  -0.960  26.060  1.00  0.00    -0.452 OA
ENDROOT
BRANCH   1  12
ATOM     12  C   UNL     1      16.258  -3.169  26.774  1.00  0.00     0.021 A 
ATOM     13  C   UNL     1      17.558  -3.690  26.906  1.00  0.00     0.016 A 
ATOM     14  C   UNL     1      17.818  -5.029  26.599  1.00  0.00     0.047 A 
ATOM     15  C   UNL     1      16.785  -5.860  26.144  1.00  0.00     0.115 A 
ATOM     16  C   UNL     1      15.234  -4.004  26.297  1.00  0.00     0.016 A 
ATOM     17  C   UNL     1      15.496  -5.343  25.992  1.00  0.00     0.047 A 
BRANCH  15  18
ATOM     18  O   UNL     1      17.032  -7.196  25.836  1.00  0.00    -0.508 OA
ATOM     19  H   UNL     1      17.198  -7.497  24.882  1.00  0.00     0.293 HD
ENDBRANCH  15  18
ENDBRANCH   1  12
BRANCH   2  20
ATOM     20  O   UNL     1      16.301  -2.067  29.454  1.00  0.00    -0.502 OA
ATOM     21  H   UNL     1      16.168  -3.070  29.412  1.00  0.00     0.293 HD
ENDBRANCH   2  20
BRANCH   6  22
ATOM     22  O   UNL     1      15.370   3.125  28.711  1.00  0.00    -0.507 OA
ATOM     23  H   UNL     1      15.399   2.745  29.646  1.00  0.00     0.293 HD
ENDBRANCH   6  22
BRANCH   8  24
ATOM     24  O   UNL     1      14.251   3.119  24.042  1.00  0.00    -0.508 OA
ATOM     25  H   UNL     1      14.711   2.992  23.148  1.00  0.00     0.293 HD
ENDBRANCH   8  24
TORSDOF 5
ENDMDL
MODEL 7
REMARK VINA RESULT:     0.654      8.974     10.485
REMARK INTER + INTRA:           0.654
REMARK INTER:                   0.949
REMARK INTRA:                  -0.295
REMARK UNBOUND:                -0.115
REMARK SMILES O=c1c(O)c(-c2ccc(O)cc2)oc2cc(O)cc(O)c12
REMARK SMILES IDX 5 1 3 2 2 3 1 4 21 5 19 6 18 7 16 8 15 9 14 10 13 11 6 12
REMARK SMILES IDX 7 13 8 14 9 15 12 16 11 17 10 18 4 20 20 22 17 24
REMARK H PARENT 10 19 4 21 20 23 17 25
REMARK Flexibility Score: inf
ROOT
ATOM      1  C   UNL     1      14.181  -9.573  26.925  1.00  0.00     0.180 A 
ATOM      2  C   UNL     1      15.042 -10.492  27.551  1.00  0.00     0.208 A 
ATOM      3  C   UNL     1      14.546 -11.285  28.598  1.00  0.00     0.238 A 
ATOM      4  O   UNL     1      15.305 -12.144  29.118  1.00  0.00    -0.285 OA
ATOM      5  C   UNL     1      13.201 -11.137  29.018  1.00  0.00     0.111 A 
ATOM      6  C   UNL     1      12.605 -11.859  30.095  1.00  0.00     0.134 A 
ATOM      7  C   UNL     1      11.232 -11.728  30.338  1.00  0.00     0.093 A 
ATOM      8  C   UNL     1      10.448 -10.852  29.584  1.00  0.00     0.123 A 
ATOM      9  C   UNL     1      11.033 -10.098  28.569  1.00  0.00     0.094 A 
ATOM     10  C   UNL     1      12.393 -10.234  28.279  1.00  0.00     0.146 A 
ATOM     11  O   UNL     1      12.908  -9.506  27.297  1.00  0.00    -0.452 OA
ENDROOT
BRANCH   1  12
ATOM     12  C   UNL     1      14.637  -8.686  25.830  1.00  0.00     0.021 A 
ATOM     13  C   UNL     1      15.145  -7.400  26.092  1.00  0.00     0.016 A 
ATOM     14  C   UNL     1      15.547  -6.571  25.041  1.00  0.00     0.047 A 
ATOM     15  C   UNL     1      15.434  -7.011  23.715  1.00  0.00     0.115 A 
ATOM     16  C   UNL     1      14.509  -9.110  24.497  1.00  0.00     0.016 A 
ATOM     17  C   UNL     1      14.912  -8.279  23.447  1.00  0.00     0.047 A 
BRANCH  15  18
ATOM     18  O   UNL     1      15.833  -6.194  22.659  1.00  0.00    -0.508 OA
ATOM     19  H   UNL     1      15.577  -5.213  22.623  1.00  0.00     0.293 HD
ENDBRANCH  15  18
ENDBRANCH   1  12
BRANCH   2  20
ATOM     20  O   UNL     1      16.358 -10.638  27.106  1.00  0.00    -0.502 OA
ATOM     21  H   UNL     1      16.984 -11.342  27.478  1.00  0.00     0.293 HD
ENDBRANCH   2  20
BRANCH   6  22
ATOM     22  O   UNL     1      13.316 -12.690  30.966  1.00  0.00    -0.507 OA
ATOM     23  H   UNL     1      13.020 -13.612  31.249  1.00  0.00     0.293 HD
ENDBRANCH   6  22
BRANCH   8  24
ATOM     24  O   UNL     1       9.086 -10.715  29.842  1.00  0.00    -0.508 OA
ATOM     25  H   UNL     1       8.747 -10.194  30.643  1.00  0.00     0.293 HD
ENDBRANCH   8  24
TORSDOF 5
ENDMDL
