MODEL 1
REMARK VINA RESULT:     6.430      0.000      0.000
REMARK INTER + INTRA:          11.162
REMARK INTER:                  11.692
REMARK INTRA:                  -0.530
REMARK UNBOUND:                -0.530
REMARK SMILES CCCCCCCCCCCCCCCC(=O)[O-]
REMARK SMILES IDX 9 1 10 2 11 3 12 4 13 5 14 6 15 7 16 8 17 9 18 10 8 11 7 12
REMARK SMILES IDX 6 13 5 14 4 15 3 16 2 17 1 18
REMARK H PARENT
REMARK Flexibility Score: inf
ROOT
ATOM      1  C   UNL     1      89.026  83.720  19.258  1.00  0.00     0.000 C 
ENDROOT
BRANCH   1   2
ATOM      2  C   UNL     1      89.960  84.898  19.593  1.00  0.00     0.000 C 
BRANCH   2   3
ATOM      3  C   UNL     1      91.091  85.144  18.574  1.00  0.00     0.000 C 
BRANCH   3   4
ATOM      4  C   UNL     1      91.897  86.436  18.794  1.00  0.00     0.000 C 
BRANCH   4   5
ATOM      5  C   UNL     1      93.269  86.408  18.105  1.00  0.00     0.000 C 
BRANCH   5   6
ATOM      6  C   UNL     1      93.261  87.262  16.829  1.00  0.00     0.006 C 
BRANCH   6   7
ATOM      7  C   UNL     1      91.960  88.060  16.671  1.00  0.00     0.053 C 
BRANCH   7   8
ATOM      8  C   UNL     1      91.019  87.405  15.707  1.00  0.00     0.041 C 
ATOM      9  O   UNL     1      91.409  86.440  14.999  1.00  0.00    -0.550 OA
ATOM     10  O   UNL     1      89.721  87.881  15.566  1.00  0.00    -0.550 OA
ENDBRANCH   7   8
ENDBRANCH   6   7
ENDBRANCH   5   6
ENDBRANCH   4   5
ENDBRANCH   3   4
ENDBRANCH   2   3
ENDBRANCH   1   2
BRANCH   1  11
ATOM     11  C   UNL     1      89.645  82.321  19.449  1.00  0.00     0.000 C 
BRANCH  11  12
ATOM     12  C   UNL     1      88.628  81.170  19.558  1.00  0.00    -0.000 C 
BRANCH  12  13
ATOM     13  C   UNL     1      87.180  81.663  19.696  1.00  0.00    -0.000 C 
BRANCH  13  14
ATOM     14  C   UNL     1      86.442  81.580  18.354  1.00  0.00    -0.000 C 
BRANCH  14  15
ATOM     15  C   UNL     1      85.084  80.881  18.516  1.00  0.00    -0.000 C 
BRANCH  15  16
ATOM     16  C   UNL     1      84.278  81.408  19.717  1.00  0.00    -0.000 C 
BRANCH  16  17
ATOM     17  C   UNL     1      82.877  81.943  19.370  1.00  0.00    -0.003 C 
ATOM     18  C   UNL     1      82.895  83.384  18.863  1.00  0.00     0.004 C 
ENDBRANCH  16  17
ENDBRANCH  15  16
ENDBRANCH  14  15
ENDBRANCH  13  14
ENDBRANCH  12  13
ENDBRANCH  11  12
ENDBRANCH   1  11
TORSDOF 14
ENDMDL
MODEL 2
REMARK VINA RESULT:     9.143     15.097     19.026
REMARK INTER + INTRA:          16.095
REMARK INTER:                  16.951
REMARK INTRA:                  -0.856
REMARK UNBOUND:                -0.530
REMARK SMILES CCCCCCCCCCCCCCCC(=O)[O-]
REMARK SMILES IDX 9 1 10 2 11 3 12 4 13 5 14 6 15 7 16 8 17 9 18 10 8 11 7 12
REMARK SMILES IDX 6 13 5 14 4 15 3 16 2 17 1 18
REMARK H PARENT
REMARK Flexibility Score: inf
ROOT
ATOM      1  C   UNL     1      99.158  95.240  10.755  1.00  0.00     0.000 C 
ENDROOT
BRANCH   1   2
ATOM      2  C   UNL     1      98.544  95.263  12.168  1.00  0.00     0.000 C 
BRANCH   2   3
ATOM      3  C   UNL     1      98.680  93.946  12.959  1.00  0.00     0.000 C 
BRANCH   3   4
ATOM      4  C   UNL     1      98.379  94.056  14.464  1.00  0.00     0.000 C 
BRANCH   4   5
ATOM      5  C   UNL     1      98.875  95.373  15.077  1.00  0.00     0.000 C 
BRANCH   5   6
ATOM      6  C   UNL     1      99.844  95.109  16.239  1.00  0.00     0.006 C 
BRANCH   6   7
ATOM      7  C   UNL     1      99.347  95.714  17.559  1.00  0.00     0.053 C 
BRANCH   7   8
ATOM      8  C   UNL     1      99.810  97.128  17.731  1.00  0.00     0.041 C 
ATOM      9  O   UNL     1      98.975  98.047  17.940  1.00  0.00    -0.550 OA
ATOM     10  O   UNL     1     101.161  97.436  17.627  1.00  0.00    -0.550 OA
ENDBRANCH   7   8
ENDBRANCH   6   7
ENDBRANCH   5   6
ENDBRANCH   4   5
ENDBRANCH   3   4
ENDBRANCH   2   3
ENDBRANCH   1   2
BRANCH   1  11
ATOM     11  C   UNL     1     100.525  94.536  10.648  1.00  0.00     0.000 C 
BRANCH  11  12
ATOM     12  C   UNL     1     101.654  95.395  10.051  1.00  0.00    -0.000 C 
BRANCH  12  13
ATOM     13  C   UNL     1     101.897  96.692  10.838  1.00  0.00    -0.000 C 
BRANCH  13  14
ATOM     14  C   UNL     1     101.421  97.914  10.043  1.00  0.00    -0.000 C 
BRANCH  14  15
ATOM     15  C   UNL     1     100.227  98.589  10.735  1.00  0.00    -0.000 C 
BRANCH  15  16
ATOM     16  C   UNL     1     100.383 100.116  10.845  1.00  0.00    -0.000 C 
BRANCH  16  17
ATOM     17  C   UNL     1     101.191 100.766   9.708  1.00  0.00    -0.003 C 
ATOM     18  C   UNL     1     102.619 101.125  10.118  1.00  0.00     0.004 C 
ENDBRANCH  16  17
ENDBRANCH  15  16
ENDBRANCH  14  15
ENDBRANCH  13  14
ENDBRANCH  12  13
ENDBRANCH  11  12
ENDBRANCH   1  11
TORSDOF 14
ENDMDL
