MODEL 1
REMARK VINA RESULT:    58.913      0.000      0.000
REMARK INTER + INTRA:          88.765
REMARK INTER:                  86.465
REMARK INTRA:                   2.299
REMARK UNBOUND:                 2.299
REMARK SMILES O=c1c(O[C@@H]2O[C@H](CO)[C@H](O)[C@@H](O)[C@@H]2O)c(-c2ccc(O)c(O)c2)oc2cc(O)cc(O)c12
REMARK SMILES IDX 4 1 3 2 16 3 25 4 2 5 26 6 1 7 33 8 27 9 31 10 28 11 30 12
REMARK SMILES IDX 17 13 18 14 19 15 20 16 24 17 22 18 21 19 23 21 32 23 29 25
REMARK SMILES IDX 5 27 14 28 6 29 12 30 7 31 10 32 15 33 13 35 8 37 9 38 11 40
REMARK H PARENT 21 20 23 22 32 24 29 26 15 34 13 36 9 39 11 41
REMARK Flexibility Score: inf
ROOT
ATOM      1  O   UNL     1       1.471  -2.046  -0.415  1.00  0.00    -0.454 OA
ENDROOT
BRANCH   1   2
ATOM      2  C   UNL     1       1.322  -1.287   0.753  1.00  0.00     0.214 A 
ATOM      3  C   UNL     1       2.426  -0.955   1.558  1.00  0.00     0.180 A 
ATOM      4  O   UNL     1       2.249  -0.298   2.701  1.00  0.00    -0.452 OA
ATOM      5  C   UNL     1       0.052  -0.853   1.142  1.00  0.00     0.239 A 
ATOM      6  C   UNL     1       1.052   0.086   3.132  1.00  0.00     0.146 A 
ATOM      7  O   UNL     1      -0.935  -1.091   0.393  1.00  0.00    -0.285 OA
ATOM      8  C   UNL     1      -0.110  -0.177   2.365  1.00  0.00     0.111 A 
ATOM      9  C   UNL     1       0.952   0.764   4.351  1.00  0.00     0.094 A 
ATOM     10  C   UNL     1      -1.366   0.248   2.853  1.00  0.00     0.134 A 
ATOM     11  C   UNL     1      -0.295   1.182   4.825  1.00  0.00     0.123 A 
ATOM     12  C   UNL     1      -1.446   0.920   4.080  1.00  0.00     0.093 A 
BRANCH   3  13
ATOM     13  C   UNL     1       3.794  -1.300   1.140  1.00  0.00     0.025 A 
ATOM     14  C   UNL     1       4.696  -1.860   2.058  1.00  0.00     0.016 A 
ATOM     15  C   UNL     1       6.000  -2.166   1.663  1.00  0.00     0.051 A 
ATOM     16  C   UNL     1       6.424  -1.895   0.358  1.00  0.00     0.157 A 
ATOM     17  C   UNL     1       4.203  -1.066  -0.180  1.00  0.00     0.062 A 
ATOM     18  C   UNL     1       5.522  -1.346  -0.571  1.00  0.00     0.158 A 
BRANCH  16  19
ATOM     19  O   UNL     1       7.745  -2.168   0.003  1.00  0.00    -0.504 OA
ATOM     20  H   UNL     1       7.985  -2.872  -0.680  1.00  0.00     0.293 HD
ENDBRANCH  16  19
BRANCH  18  21
ATOM     21  O   UNL     1       5.938  -1.075  -1.872  1.00  0.00    -0.504 OA
ATOM     22  H   UNL     1       6.580  -1.689  -2.358  1.00  0.00     0.293 HD
ENDBRANCH  18  21
ENDBRANCH   3  13
BRANCH  10  23
ATOM     23  O   UNL     1      -2.531   0.014   2.128  1.00  0.00    -0.507 OA
ATOM     24  H   UNL     1      -2.794  -0.914   1.828  1.00  0.00     0.293 HD
ENDBRANCH  10  23
BRANCH  11  25
ATOM     25  O   UNL     1      -0.403   1.869   6.033  1.00  0.00    -0.508 OA
ATOM     26  H   UNL     1      -1.231   1.798   6.611  1.00  0.00     0.293 HD
ENDBRANCH  11  25
ENDBRANCH   1   2
BRANCH   1  27
ATOM     27  C   UNL     1       1.414  -3.475  -0.422  1.00  0.00     0.339 C 
ATOM     28  C   UNL     1       0.241  -3.987   0.430  1.00  0.00     0.214 C 
ATOM     29  O   UNL     1       1.384  -3.983  -1.747  1.00  0.00    -0.332 OA
ATOM     30  C   UNL     1      -1.084  -3.600  -0.232  1.00  0.00     0.180 C 
ATOM     31  C   UNL     1       0.178  -3.735  -2.457  1.00  0.00     0.179 C 
ATOM     32  C   UNL     1      -1.106  -4.125  -1.676  1.00  0.00     0.177 C 
BRANCH  28  33
ATOM     33  O   UNL     1       0.302  -3.438   1.722  1.00  0.00    -0.384 OA
ATOM     34  H   UNL     1       0.246  -4.196   2.349  1.00  0.00     0.211 HD
ENDBRANCH  28  33
BRANCH  30  35
ATOM     35  O   UNL     1      -2.176  -4.098   0.501  1.00  0.00    -0.387 OA
ATOM     36  H   UNL     1      -1.903  -4.167   1.454  1.00  0.00     0.211 HD
ENDBRANCH  30  35
BRANCH  31  37
ATOM     37  C   UNL     1       0.172  -2.343  -3.125  1.00  0.00     0.191 C 
BRANCH  37  38
ATOM     38  O   UNL     1      -1.092  -1.737  -3.088  1.00  0.00    -0.394 OA
ATOM     39  H   UNL     1      -0.941  -0.773  -3.281  1.00  0.00     0.210 HD
ENDBRANCH  37  38
ENDBRANCH  31  37
BRANCH  32  40
ATOM     40  O   UNL     1      -2.245  -3.662  -2.359  1.00  0.00    -0.387 OA
ATOM     41  H   UNL     1      -2.845  -4.442  -2.490  1.00  0.00     0.211 HD
ENDBRANCH  32  40
ENDBRANCH   1  27
TORSDOF 12
ENDMDL
