MODEL 1
REMARK VINA RESULT:    -4.815      0.000      0.000
REMARK INTER + INTRA:          -7.955
REMARK INTER:                  -7.630
REMARK INTRA:                  -0.325
REMARK UNBOUND:                -0.325
REMARK SMILES CCCCCCCCCCCC(=O)[O-]
REMARK SMILES IDX 7 1 8 2 9 3 10 4 11 5 12 6 13 7 14 8 6 9 5 10 4 11 3 12 2 13
REMARK SMILES IDX 1 14
REMARK H PARENT
REMARK Flexibility Score: inf
ROOT
ATOM      1  C   UNL     1      41.089  55.853  17.159  1.00  0.00     0.000 C 
ENDROOT
BRANCH   1   2
ATOM      2  C   UNL     1      42.502  55.502  17.642  1.00  0.00     0.000 C 
BRANCH   2   3
ATOM      3  C   UNL     1      43.050  54.276  16.897  1.00  0.00     0.000 C 
BRANCH   3   4
ATOM      4  C   UNL     1      44.248  54.617  15.996  1.00  0.00     0.006 C 
BRANCH   4   5
ATOM      5  C   UNL     1      44.977  55.891  16.441  1.00  0.00     0.053 C 
BRANCH   5   6
ATOM      6  C   UNL     1      46.458  55.681  16.414  1.00  0.00     0.041 C 
ATOM      7  O   UNL     1      47.198  56.271  17.245  1.00  0.00    -0.550 OA
ATOM      8  O   UNL     1      47.019  54.795  15.503  1.00  0.00    -0.550 OA
ENDBRANCH   5   6
ENDBRANCH   4   5
ENDBRANCH   3   4
ENDBRANCH   2   3
ENDBRANCH   1   2
BRANCH   1   9
ATOM      9  C   UNL     1      40.128  56.022  18.345  1.00  0.00     0.000 C 
BRANCH   9  10
ATOM     10  C   UNL     1      39.044  57.079  18.084  1.00  0.00    -0.000 C 
BRANCH  10  11
ATOM     11  C   UNL     1      38.088  56.680  16.949  1.00  0.00    -0.000 C 
BRANCH  11  12
ATOM     12  C   UNL     1      36.721  57.360  17.119  1.00  0.00    -0.000 C 
BRANCH  12  13
ATOM     13  C   UNL     1      35.753  57.036  15.970  1.00  0.00    -0.003 C 
ATOM     14  C   UNL     1      36.080  57.803  14.689  1.00  0.00     0.004 C 
ENDBRANCH  12  13
ENDBRANCH  11  12
ENDBRANCH  10  11
ENDBRANCH   9  10
ENDBRANCH   1   9
TORSDOF 10
ENDMDL
MODEL 2
REMARK VINA RESULT:    -4.811      6.287      9.660
REMARK INTER + INTRA:          -7.948
REMARK INTER:                  -7.637
REMARK INTRA:                  -0.312
REMARK UNBOUND:                -0.325
REMARK SMILES CCCCCCCCCCCC(=O)[O-]
REMARK SMILES IDX 7 1 8 2 9 3 10 4 11 5 12 6 13 7 14 8 6 9 5 10 4 11 3 12 2 13
REMARK SMILES IDX 1 14
REMARK H PARENT
REMARK Flexibility Score: inf
ROOT
ATOM      1  C   UNL     1      36.582  57.193  17.039  1.00  0.00     0.000 C 
ENDROOT
BRANCH   1   2
ATOM      2  C   UNL     1      36.070  57.821  15.738  1.00  0.00     0.000 C 
BRANCH   2   3
ATOM      3  C   UNL     1      34.887  57.023  15.169  1.00  0.00     0.000 C 
BRANCH   3   4
ATOM      4  C   UNL     1      33.961  56.472  16.266  1.00  0.00     0.006 C 
BRANCH   4   5
ATOM      5  C   UNL     1      32.509  56.326  15.794  1.00  0.00     0.053 C 
BRANCH   5   6
ATOM      6  C   UNL     1      31.576  56.345  16.963  1.00  0.00     0.041 C 
ATOM      7  O   UNL     1      31.513  55.356  17.740  1.00  0.00    -0.550 OA
ATOM      8  O   UNL     1      30.811  57.475  17.225  1.00  0.00    -0.550 OA
ENDBRANCH   5   6
ENDBRANCH   4   5
ENDBRANCH   3   4
ENDBRANCH   2   3
ENDBRANCH   1   2
BRANCH   1   9
ATOM      9  C   UNL     1      38.017  56.670  16.871  1.00  0.00     0.000 C 
BRANCH   9  10
ATOM     10  C   UNL     1      38.949  57.122  18.006  1.00  0.00    -0.000 C 
BRANCH  10  11
ATOM     11  C   UNL     1      40.009  56.066  18.358  1.00  0.00    -0.000 C 
BRANCH  11  12
ATOM     12  C   UNL     1      41.042  55.927  17.230  1.00  0.00    -0.000 C 
BRANCH  12  13
ATOM     13  C   UNL     1      42.294  55.153  17.669  1.00  0.00    -0.003 C 
ATOM     14  C   UNL     1      43.570  55.663  16.998  1.00  0.00     0.004 C 
ENDBRANCH  12  13
ENDBRANCH  11  12
ENDBRANCH  10  11
ENDBRANCH   9  10
ENDBRANCH   1   9
TORSDOF 10
ENDMDL
MODEL 3
REMARK VINA RESULT:    -4.808      4.980      8.032
REMARK INTER + INTRA:          -7.943
REMARK INTER:                  -7.492
REMARK INTRA:                  -0.452
REMARK UNBOUND:                -0.325
REMARK SMILES CCCCCCCCCCCC(=O)[O-]
REMARK SMILES IDX 7 1 8 2 9 3 10 4 11 5 12 6 13 7 14 8 6 9 5 10 4 11 3 12 2 13
REMARK SMILES IDX 1 14
REMARK H PARENT
REMARK Flexibility Score: inf
ROOT
ATOM      1  C   UNL     1      40.063  56.018  18.324  1.00  0.00     0.000 C 
ENDROOT
BRANCH   1   2
ATOM      2  C   UNL     1      39.012  57.100  18.050  1.00  0.00     0.000 C 
BRANCH   2   3
ATOM      3  C   UNL     1      38.047  56.661  16.938  1.00  0.00     0.000 C 
BRANCH   3   4
ATOM      4  C   UNL     1      36.624  57.205  17.140  1.00  0.00     0.006 C 
BRANCH   4   5
ATOM      5  C   UNL     1      35.980  57.675  15.828  1.00  0.00     0.053 C 
BRANCH   5   6
ATOM      6  C   UNL     1      34.825  56.795  15.470  1.00  0.00     0.041 C 
ATOM      7  O   UNL     1      34.868  56.082  14.432  1.00  0.00    -0.550 OA
ATOM      8  O   UNL     1      33.718  56.724  16.307  1.00  0.00    -0.550 OA
ENDBRANCH   5   6
ENDBRANCH   4   5
ENDBRANCH   3   4
ENDBRANCH   2   3
ENDBRANCH   1   2
BRANCH   1   9
ATOM      9  C   UNL     1      41.074  55.927  17.171  1.00  0.00     0.000 C 
BRANCH   9  10
ATOM     10  C   UNL     1      42.495  55.598  17.652  1.00  0.00    -0.000 C 
BRANCH  10  11
ATOM     11  C   UNL     1      42.967  54.207  17.201  1.00  0.00    -0.000 C 
BRANCH  11  12
ATOM     12  C   UNL     1      43.691  54.285  15.848  1.00  0.00    -0.000 C 
BRANCH  12  13
ATOM     13  C   UNL     1      43.140  53.280  14.825  1.00  0.00    -0.003 C 
ATOM     14  C   UNL     1      41.778  53.691  14.266  1.00  0.00     0.004 C 
ENDBRANCH  12  13
ENDBRANCH  11  12
ENDBRANCH  10  11
ENDBRANCH   9  10
ENDBRANCH   1   9
TORSDOF 10
ENDMDL
MODEL 4
REMARK VINA RESULT:    -4.806      1.850      3.168
REMARK INTER + INTRA:          -7.940
REMARK INTER:                  -7.540
REMARK INTRA:                  -0.400
REMARK UNBOUND:                -0.325
REMARK SMILES CCCCCCCCCCCC(=O)[O-]
REMARK SMILES IDX 7 1 8 2 9 3 10 4 11 5 12 6 13 7 14 8 6 9 5 10 4 11 3 12 2 13
REMARK SMILES IDX 1 14
REMARK H PARENT
REMARK Flexibility Score: inf
ROOT
ATOM      1  C   UNL     1      38.955  57.096  18.056  1.00  0.00     0.000 C 
ENDROOT
BRANCH   1   2
ATOM      2  C   UNL     1      40.060  56.077  18.360  1.00  0.00     0.000 C 
BRANCH   2   3
ATOM      3  C   UNL     1      41.000  55.911  17.157  1.00  0.00     0.000 C 
BRANCH   3   4
ATOM      4  C   UNL     1      42.432  55.534  17.571  1.00  0.00     0.006 C 
BRANCH   4   5
ATOM      5  C   UNL     1      42.804  54.100  17.171  1.00  0.00     0.053 C 
BRANCH   5   6
ATOM      6  C   UNL     1      43.210  54.048  15.732  1.00  0.00     0.041 C 
ATOM      7  O   UNL     1      42.692  53.201  14.957  1.00  0.00    -0.550 OA
ATOM      8  O   UNL     1      44.124  54.967  15.234  1.00  0.00    -0.550 OA
ENDBRANCH   5   6
ENDBRANCH   4   5
ENDBRANCH   3   4
ENDBRANCH   2   3
ENDBRANCH   1   2
BRANCH   1   9
ATOM      9  C   UNL     1      38.072  56.619  16.893  1.00  0.00     0.000 C 
BRANCH   9  10
ATOM     10  C   UNL     1      36.620  57.110  17.011  1.00  0.00    -0.000 C 
BRANCH  10  11
ATOM     11  C   UNL     1      36.106  57.756  15.715  1.00  0.00    -0.000 C 
BRANCH  11  12
ATOM     12  C   UNL     1      34.818  57.072  15.233  1.00  0.00    -0.000 C 
BRANCH  12  13
ATOM     13  C   UNL     1      34.157  56.220  16.328  1.00  0.00    -0.003 C 
ATOM     14  C   UNL     1      32.632  56.327  16.320  1.00  0.00     0.004 C 
ENDBRANCH  12  13
ENDBRANCH  11  12
ENDBRANCH  10  11
ENDBRANCH   9  10
ENDBRANCH   1   9
TORSDOF 10
ENDMDL
MODEL 5
REMARK VINA RESULT:    -4.774      5.918      9.087
REMARK INTER + INTRA:          -7.891
REMARK INTER:                  -7.514
REMARK INTRA:                  -0.377
REMARK UNBOUND:                -0.325
REMARK SMILES CCCCCCCCCCCC(=O)[O-]
REMARK SMILES IDX 7 1 8 2 9 3 10 4 11 5 12 6 13 7 14 8 6 9 5 10 4 11 3 12 2 13
REMARK SMILES IDX 1 14
REMARK H PARENT
REMARK Flexibility Score: inf
ROOT
ATOM      1  C   UNL     1      37.965  56.706  16.851  1.00  0.00     0.000 C 
ENDROOT
BRANCH   1   2
ATOM      2  C   UNL     1      36.505  57.164  16.955  1.00  0.00     0.000 C 
BRANCH   2   3
ATOM      3  C   UNL     1      35.983  57.650  15.596  1.00  0.00     0.000 C 
BRANCH   3   4
ATOM      4  C   UNL     1      34.740  56.876  15.127  1.00  0.00     0.006 C 
BRANCH   4   5
ATOM      5  C   UNL     1      33.982  56.218  16.287  1.00  0.00     0.053 C 
BRANCH   5   6
ATOM      6  C   UNL     1      32.507  56.386  16.107  1.00  0.00     0.041 C 
ATOM      7  O   UNL     1      32.021  56.531  14.954  1.00  0.00    -0.550 OA
ATOM      8  O   UNL     1      31.661  56.332  17.207  1.00  0.00    -0.550 OA
ENDBRANCH   5   6
ENDBRANCH   4   5
ENDBRANCH   3   4
ENDBRANCH   2   3
ENDBRANCH   1   2
BRANCH   1   9
ATOM      9  C   UNL     1      38.766  57.132  18.092  1.00  0.00     0.000 C 
BRANCH   9  10
ATOM     10  C   UNL     1      39.932  56.181  18.401  1.00  0.00    -0.000 C 
BRANCH  10  11
ATOM     11  C   UNL     1      40.859  55.968  17.194  1.00  0.00    -0.000 C 
BRANCH  11  12
ATOM     12  C   UNL     1      42.247  55.490  17.646  1.00  0.00    -0.000 C 
BRANCH  12  13
ATOM     13  C   UNL     1      42.848  54.440  16.698  1.00  0.00    -0.003 C 
ATOM     14  C   UNL     1      42.170  54.423  15.329  1.00  0.00     0.004 C 
ENDBRANCH  12  13
ENDBRANCH  11  12
ENDBRANCH  10  11
ENDBRANCH   9  10
ENDBRANCH   1   9
TORSDOF 10
ENDMDL
MODEL 6
REMARK VINA RESULT:    -4.715      4.416      8.211
REMARK INTER + INTRA:          -7.796
REMARK INTER:                  -7.479
REMARK INTRA:                  -0.317
REMARK UNBOUND:                -0.325
REMARK SMILES CCCCCCCCCCCC(=O)[O-]
REMARK SMILES IDX 7 1 8 2 9 3 10 4 11 5 12 6 13 7 14 8 6 9 5 10 4 11 3 12 2 13
REMARK SMILES IDX 1 14
REMARK H PARENT
REMARK Flexibility Score: inf
ROOT
ATOM      1  C   UNL     1      41.076  55.939  17.193  1.00  0.00     0.000 C 
ENDROOT
BRANCH   1   2
ATOM      2  C   UNL     1      40.111  56.118  18.371  1.00  0.00     0.000 C 
BRANCH   2   3
ATOM      3  C   UNL     1      39.007  57.130  18.030  1.00  0.00     0.000 C 
BRANCH   3   4
ATOM      4  C   UNL     1      38.077  56.638  16.910  1.00  0.00     0.006 C 
BRANCH   4   5
ATOM      5  C   UNL     1      36.663  57.222  17.018  1.00  0.00     0.053 C 
BRANCH   5   6
ATOM      6  C   UNL     1      35.975  57.171  15.690  1.00  0.00     0.041 C 
ATOM      7  O   UNL     1      34.728  57.006  15.628  1.00  0.00    -0.550 OA
ATOM      8  O   UNL     1      36.704  57.353  14.521  1.00  0.00    -0.550 OA
ENDBRANCH   5   6
ENDBRANCH   4   5
ENDBRANCH   3   4
ENDBRANCH   2   3
ENDBRANCH   1   2
BRANCH   1   9
ATOM      9  C   UNL     1      42.372  55.248  17.642  1.00  0.00     0.000 C 
BRANCH   9  10
ATOM     10  C   UNL     1      42.958  54.325  16.562  1.00  0.00    -0.000 C 
BRANCH  10  11
ATOM     11  C   UNL     1      44.138  54.964  15.814  1.00  0.00    -0.000 C 
BRANCH  11  12
ATOM     12  C   UNL     1      45.168  55.535  16.799  1.00  0.00    -0.000 C 
BRANCH  12  13
ATOM     13  C   UNL     1      46.589  55.569  16.215  1.00  0.00    -0.003 C 
ATOM     14  C   UNL     1      47.668  55.688  17.290  1.00  0.00     0.004 C 
ENDBRANCH  12  13
ENDBRANCH  11  12
ENDBRANCH  10  11
ENDBRANCH   9  10
ENDBRANCH   1   9
TORSDOF 10
ENDMDL
MODEL 7
REMARK VINA RESULT:    -4.529      6.420      9.837
REMARK INTER + INTRA:          -7.501
REMARK INTER:                  -6.913
REMARK INTRA:                  -0.588
REMARK UNBOUND:                -0.325
REMARK SMILES CCCCCCCCCCCC(=O)[O-]
REMARK SMILES IDX 7 1 8 2 9 3 10 4 11 5 12 6 13 7 14 8 6 9 5 10 4 11 3 12 2 13
REMARK SMILES IDX 1 14
REMARK H PARENT
REMARK Flexibility Score: inf
ROOT
ATOM      1  C   UNL     1      35.855  57.071  14.534  1.00  0.00     0.000 C 
ENDROOT
BRANCH   1   2
ATOM      2  C   UNL     1      34.406  57.100  14.033  1.00  0.00     0.000 C 
BRANCH   2   3
ATOM      3  C   UNL     1      33.677  55.793  14.381  1.00  0.00     0.000 C 
BRANCH   3   4
ATOM      4  C   UNL     1      32.300  56.033  15.020  1.00  0.00     0.006 C 
BRANCH   4   5
ATOM      5  C   UNL     1      32.395  56.411  16.504  1.00  0.00     0.053 C 
BRANCH   5   6
ATOM      6  C   UNL     1      31.514  55.523  17.325  1.00  0.00     0.041 C 
ATOM      7  O   UNL     1      30.642  56.023  18.083  1.00  0.00    -0.550 OA
ATOM      8  O   UNL     1      31.622  54.143  17.217  1.00  0.00    -0.550 OA
ENDBRANCH   5   6
ENDBRANCH   4   5
ENDBRANCH   3   4
ENDBRANCH   2   3
ENDBRANCH   1   2
BRANCH   1   9
ATOM      9  C   UNL     1      36.024  57.953  15.781  1.00  0.00     0.000 C 
BRANCH   9  10
ATOM     10  C   UNL     1      36.537  57.167  16.998  1.00  0.00    -0.000 C 
BRANCH  10  11
ATOM     11  C   UNL     1      37.983  56.680  16.822  1.00  0.00    -0.000 C 
BRANCH  11  12
ATOM     12  C   UNL     1      38.862  57.132  17.997  1.00  0.00    -0.000 C 
BRANCH  12  13
ATOM     13  C   UNL     1      39.972  56.122  18.328  1.00  0.00    -0.003 C 
ATOM     14  C   UNL     1      40.959  55.930  17.178  1.00  0.00     0.004 C 
ENDBRANCH  12  13
ENDBRANCH  11  12
ENDBRANCH  10  11
ENDBRANCH   9  10
ENDBRANCH   1   9
TORSDOF 10
ENDMDL
MODEL 8
REMARK VINA RESULT:    -4.512      2.784      4.615
REMARK INTER + INTRA:          -7.474
REMARK INTER:                  -7.115
REMARK INTRA:                  -0.359
REMARK UNBOUND:                -0.325
REMARK SMILES CCCCCCCCCCCC(=O)[O-]
REMARK SMILES IDX 7 1 8 2 9 3 10 4 11 5 12 6 13 7 14 8 6 9 5 10 4 11 3 12 2 13
REMARK SMILES IDX 1 14
REMARK H PARENT
REMARK Flexibility Score: inf
ROOT
ATOM      1  C   UNL     1      37.571  56.696  16.402  1.00  0.00     0.000 C 
ENDROOT
BRANCH   1   2
ATOM      2  C   UNL     1      37.844  57.429  17.721  1.00  0.00     0.000 C 
BRANCH   2   3
ATOM      3  C   UNL     1      39.116  56.894  18.395  1.00  0.00     0.000 C 
BRANCH   3   4
ATOM      4  C   UNL     1      40.118  56.306  17.389  1.00  0.00     0.006 C 
BRANCH   4   5
ATOM      5  C   UNL     1      41.351  55.697  18.070  1.00  0.00     0.053 C 
BRANCH   5   6
ATOM      6  C   UNL     1      42.335  55.231  17.045  1.00  0.00     0.041 C 
ATOM      7  O   UNL     1      43.557  55.137  17.336  1.00  0.00    -0.550 OA
ATOM      8  O   UNL     1      41.899  54.853  15.781  1.00  0.00    -0.550 OA
ENDBRANCH   5   6
ENDBRANCH   4   5
ENDBRANCH   3   4
ENDBRANCH   2   3
ENDBRANCH   1   2
BRANCH   1   9
ATOM      9  C   UNL     1      36.324  57.261  15.706  1.00  0.00     0.000 C 
BRANCH   9  10
ATOM     10  C   UNL     1      35.038  57.031  16.514  1.00  0.00    -0.000 C 
BRANCH  10  11
ATOM     11  C   UNL     1      33.915  56.400  15.675  1.00  0.00    -0.000 C 
BRANCH  11  12
ATOM     12  C   UNL     1      33.048  55.467  16.533  1.00  0.00    -0.000 C 
BRANCH  12  13
ATOM     13  C   UNL     1      31.556  55.832  16.480  1.00  0.00    -0.003 C 
ATOM     14  C   UNL     1      30.886  55.783  17.853  1.00  0.00     0.004 C 
ENDBRANCH  12  13
ENDBRANCH  11  12
ENDBRANCH  10  11
ENDBRANCH   9  10
ENDBRANCH   1   9
TORSDOF 10
ENDMDL
MODEL 9
REMARK VINA RESULT:    -4.459      1.797      3.537
REMARK INTER + INTRA:          -7.390
REMARK INTER:                  -6.736
REMARK INTRA:                  -0.654
REMARK UNBOUND:                -0.325
REMARK SMILES CCCCCCCCCCCC(=O)[O-]
REMARK SMILES IDX 7 1 8 2 9 3 10 4 11 5 12 6 13 7 14 8 6 9 5 10 4 11 3 12 2 13
REMARK SMILES IDX 1 14
REMARK H PARENT
REMARK Flexibility Score: inf
ROOT
ATOM      1  C   UNL     1      43.700  53.653  15.181  1.00  0.00     0.000 C 
ENDROOT
BRANCH   1   2
ATOM      2  C   UNL     1      44.722  54.796  15.140  1.00  0.00     0.000 C 
BRANCH   2   3
ATOM      3  C   UNL     1      46.150  54.251  14.990  1.00  0.00     0.000 C 
BRANCH   3   4
ATOM      4  C   UNL     1      47.221  55.283  15.377  1.00  0.00     0.006 C 
BRANCH   4   5
ATOM      5  C   UNL     1      47.071  55.777  16.822  1.00  0.00     0.053 C 
BRANCH   5   6
ATOM      6  C   UNL     1      47.022  57.272  16.859  1.00  0.00     0.041 C 
ATOM      7  O   UNL     1      47.842  57.916  17.567  1.00  0.00    -0.550 OA
ATOM      8  O   UNL     1      46.104  57.959  16.075  1.00  0.00    -0.550 OA
ENDBRANCH   5   6
ENDBRANCH   4   5
ENDBRANCH   3   4
ENDBRANCH   2   3
ENDBRANCH   1   2
BRANCH   1   9
ATOM      9  C   UNL     1      42.782  53.780  16.407  1.00  0.00     0.000 C 
BRANCH   9  10
ATOM     10  C   UNL     1      43.048  55.057  17.218  1.00  0.00    -0.000 C 
BRANCH  10  11
ATOM     11  C   UNL     1      41.847  55.473  18.081  1.00  0.00    -0.000 C 
BRANCH  11  12
ATOM     12  C   UNL     1      40.699  55.999  17.207  1.00  0.00    -0.000 C 
BRANCH  12  13
ATOM     13  C   UNL     1      39.578  56.650  18.033  1.00  0.00    -0.003 C 
ATOM     14  C   UNL     1      38.242  56.687  17.292  1.00  0.00     0.004 C 
ENDBRANCH  12  13
ENDBRANCH  11  12
ENDBRANCH  10  11
ENDBRANCH   9  10
ENDBRANCH   1   9
TORSDOF 10
ENDMDL
