MODEL 1
REMARK VINA RESULT:     0.122      0.000      0.000
REMARK INTER + INTRA:           0.683
REMARK INTER:                   0.147
REMARK INTRA:                   0.536
REMARK UNBOUND:                 0.536
REMARK SMILES O=c1c(O)c(-c2ccc(O)cc2O)oc2cc(O)cc(O)c12
REMARK SMILES IDX 5 1 3 2 2 3 1 4 22 5 20 6 19 7 17 8 16 9 15 10 14 11 6 12
REMARK SMILES IDX 8 13 7 14 9 15 11 16 12 17 10 18 13 20 4 22 21 24 18 26
REMARK H PARENT 10 19 13 21 4 23 21 25 18 27
REMARK Flexibility Score: inf
ROOT
ATOM      1  C   UNL     1     188.734 192.034 174.766  1.00  0.00     0.184 A 
ATOM      2  C   UNL     1     188.790 193.124 175.652  1.00  0.00     0.208 A 
ATOM      3  C   UNL     1     188.899 194.421 175.125  1.00  0.00     0.238 A 
ATOM      4  O   UNL     1     188.946 195.407 175.910  1.00  0.00    -0.285 OA
ATOM      5  C   UNL     1     188.956 194.602 173.728  1.00  0.00     0.111 A 
ATOM      6  C   UNL     1     189.068 195.873 173.116  1.00  0.00     0.134 A 
ATOM      7  C   UNL     1     189.123 195.970 171.718  1.00  0.00     0.093 A 
ATOM      8  C   UNL     1     189.068 194.821 170.921  1.00  0.00     0.123 A 
ATOM      9  C   UNL     1     188.957 193.566 171.520  1.00  0.00     0.094 A 
ATOM     10  C   UNL     1     188.900 193.447 172.911  1.00  0.00     0.146 A 
ATOM     11  O   UNL     1     188.793 192.240 173.454  1.00  0.00    -0.451 OA
ENDROOT
BRANCH   1  12
ATOM     12  C   UNL     1     188.602 190.648 175.261  1.00  0.00     0.063 A 
ATOM     13  C   UNL     1     188.231 189.126 177.124  1.00  0.00     0.047 A 
ATOM     14  C   UNL     1     188.413 190.422 176.636  1.00  0.00     0.020 A 
ATOM     15  C   UNL     1     188.226 188.038 176.244  1.00  0.00     0.119 A 
ATOM     16  C   UNL     1     188.410 188.251 174.875  1.00  0.00     0.093 A 
ATOM     17  C   UNL     1     188.604 189.545 174.375  1.00  0.00     0.130 A 
BRANCH  15  18
ATOM     18  O   UNL     1     188.039 186.741 176.718  1.00  0.00    -0.508 OA
ATOM     19  H   UNL     1     188.272 185.932 176.153  1.00  0.00     0.293 HD
ENDBRANCH  15  18
BRANCH  17  20
ATOM     20  O   UNL     1     188.820 189.696 173.003  1.00  0.00    -0.507 OA
ATOM     21  H   UNL     1     188.916 188.912 172.370  1.00  0.00     0.293 HD
ENDBRANCH  17  20
ENDBRANCH   1  12
BRANCH   2  22
ATOM     22  O   UNL     1     188.754 192.908 177.031  1.00  0.00    -0.502 OA
ATOM     23  H   UNL     1     189.251 193.501 177.686  1.00  0.00     0.293 HD
ENDBRANCH   2  22
BRANCH   6  24
ATOM     24  O   UNL     1     189.125 197.037 173.884  1.00  0.00    -0.507 OA
ATOM     25  H   UNL     1     190.006 197.483 174.112  1.00  0.00     0.293 HD
ENDBRANCH   6  24
BRANCH   8  26
ATOM     26  O   UNL     1     189.124 194.917 169.532  1.00  0.00    -0.508 OA
ATOM     27  H   UNL     1     188.754 194.188 168.935  1.00  0.00     0.293 HD
ENDBRANCH   8  26
TORSDOF 6
ENDMDL
MODEL 2
REMARK VINA RESULT:     0.544      1.534      3.173
REMARK INTER + INTRA:           1.192
REMARK INTER:                   1.418
REMARK INTRA:                  -0.226
REMARK UNBOUND:                 0.536
REMARK SMILES O=c1c(O)c(-c2ccc(O)cc2O)oc2cc(O)cc(O)c12
REMARK SMILES IDX 5 1 3 2 2 3 1 4 22 5 20 6 19 7 17 8 16 9 15 10 14 11 6 12
REMARK SMILES IDX 8 13 7 14 9 15 11 16 12 17 10 18 13 20 4 22 21 24 18 26
REMARK H PARENT 10 19 13 21 4 23 21 25 18 27
REMARK Flexibility Score: inf
ROOT
ATOM      1  C   UNL     1     188.267 191.446 174.961  1.00  0.00     0.184 A 
ATOM      2  C   UNL     1     188.461 191.692 173.591  1.00  0.00     0.208 A 
ATOM      3  C   UNL     1     188.682 193.011 173.164  1.00  0.00     0.238 A 
ATOM      4  O   UNL     1     188.861 193.244 171.937  1.00  0.00    -0.285 OA
ATOM      5  C   UNL     1     188.697 194.056 174.111  1.00  0.00     0.111 A 
ATOM      6  C   UNL     1     188.909 195.412 173.765  1.00  0.00     0.134 A 
ATOM      7  C   UNL     1     188.906 196.394 174.766  1.00  0.00     0.093 A 
ATOM      8  C   UNL     1     188.694 196.047 176.105  1.00  0.00     0.123 A 
ATOM      9  C   UNL     1     188.484 194.712 176.451  1.00  0.00     0.094 A 
ATOM     10  C   UNL     1     188.484 193.717 175.469  1.00  0.00     0.146 A 
ATOM     11  O   UNL     1     188.283 192.454 175.828  1.00  0.00    -0.451 OA
ENDROOT
BRANCH   1  12
ATOM     12  C   UNL     1     188.047 190.076 175.472  1.00  0.00     0.063 A 
ATOM     13  C   UNL     1     188.735 188.266 176.947  1.00  0.00     0.047 A 
ATOM     14  C   UNL     1     188.948 189.536 176.406  1.00  0.00     0.020 A 
ATOM     15  C   UNL     1     187.613 187.521 176.568  1.00  0.00     0.119 A 
ATOM     16  C   UNL     1     186.709 188.049 175.643  1.00  0.00     0.093 A 
ATOM     17  C   UNL     1     186.918 189.317 175.085  1.00  0.00     0.130 A 
BRANCH  15  18
ATOM     18  O   UNL     1     187.386 186.256 177.105  1.00  0.00    -0.508 OA
ATOM     19  H   UNL     1     188.009 185.854 177.797  1.00  0.00     0.293 HD
ENDBRANCH  15  18
BRANCH  17  20
ATOM     20  O   UNL     1     186.002 189.779 174.138  1.00  0.00    -0.507 OA
ATOM     21  H   UNL     1     185.102 190.172 174.385  1.00  0.00     0.293 HD
ENDBRANCH  17  20
ENDBRANCH   1  12
BRANCH   2  22
ATOM     22  O   UNL     1     188.417 190.637 172.677  1.00  0.00    -0.502 OA
ATOM     23  H   UNL     1     189.007 190.609 171.853  1.00  0.00     0.293 HD
ENDBRANCH   2  22
BRANCH   6  24
ATOM     24  O   UNL     1     189.124 195.788 172.438  1.00  0.00    -0.507 OA
ATOM     25  H   UNL     1     189.417 196.726 172.191  1.00  0.00     0.293 HD
ENDBRANCH   6  24
BRANCH   8  26
ATOM     26  O   UNL     1     188.689 197.023 177.099  1.00  0.00    -0.508 OA
ATOM     27  H   UNL     1     189.484 197.159 177.712  1.00  0.00     0.293 HD
ENDBRANCH   8  26
TORSDOF 6
ENDMDL
