MODEL 1
REMARK VINA RESULT:    -4.666      0.000      0.000
REMARK INTER + INTRA:          -8.580
REMARK INTER:                  -7.394
REMARK INTRA:                  -1.185
REMARK UNBOUND:                -1.185
REMARK SMILES CCCCCCCCCCCC(=O)[O-]
REMARK SMILES IDX 7 1 8 2 9 3 10 4 11 5 12 6 13 7 14 8 6 9 5 10 4 11 3 12 2 13
REMARK SMILES IDX 1 14
REMARK H PARENT
REMARK Flexibility Score: inf
ROOT
ATOM      1  C   UNL     1      -3.842 -48.630  16.750  1.00  0.00     0.000 C 
ENDROOT
BRANCH   1   2
ATOM      2  C   UNL     1      -5.000 -48.805  17.749  1.00  0.00     0.000 C 
BRANCH   2   3
ATOM      3  C   UNL     1      -4.522 -48.819  19.210  1.00  0.00     0.000 C 
BRANCH   3   4
ATOM      4  C   UNL     1      -4.623 -47.439  19.878  1.00  0.00     0.006 C 
BRANCH   4   5
ATOM      5  C   UNL     1      -5.391 -46.455  18.989  1.00  0.00     0.053 C 
BRANCH   5   6
ATOM      6  C   UNL     1      -5.853 -45.278  19.788  1.00  0.00     0.041 C 
ATOM      7  O   UNL     1      -5.893 -44.134  19.266  1.00  0.00    -0.550 OA
ATOM      8  O   UNL     1      -6.194 -45.437  21.125  1.00  0.00    -0.550 OA
ENDBRANCH   5   6
ENDBRANCH   4   5
ENDBRANCH   3   4
ENDBRANCH   2   3
ENDBRANCH   1   2
BRANCH   1   9
ATOM      9  C   UNL     1      -2.478 -48.981  17.364  1.00  0.00     0.000 C 
BRANCH   9  10
ATOM     10  C   UNL     1      -1.459 -47.835  17.231  1.00  0.00    -0.000 C 
BRANCH  10  11
ATOM     11  C   UNL     1      -1.623 -46.769  18.324  1.00  0.00    -0.000 C 
BRANCH  11  12
ATOM     12  C   UNL     1      -2.000 -45.392  17.756  1.00  0.00    -0.000 C 
BRANCH  12  13
ATOM     13  C   UNL     1      -1.722 -45.326  16.249  1.00  0.00    -0.003 C 
ATOM     14  C   UNL     1      -2.956 -44.861  15.481  1.00  0.00     0.004 C 
ENDBRANCH  12  13
ENDBRANCH  11  12
ENDBRANCH  10  11
ENDBRANCH   9  10
ENDBRANCH   1   9
TORSDOF 10
ENDMDL
MODEL 2
REMARK VINA RESULT:    -4.628      0.714      1.521
REMARK INTER + INTRA:          -8.519
REMARK INTER:                  -7.194
REMARK INTRA:                  -1.325
REMARK UNBOUND:                -1.185
REMARK SMILES CCCCCCCCCCCC(=O)[O-]
REMARK SMILES IDX 7 1 8 2 9 3 10 4 11 5 12 6 13 7 14 8 6 9 5 10 4 11 3 12 2 13
REMARK SMILES IDX 1 14
REMARK H PARENT
REMARK Flexibility Score: inf
ROOT
ATOM      1  C   UNL     1      -4.987 -48.591  17.789  1.00  0.00     0.000 C 
ENDROOT
BRANCH   1   2
ATOM      2  C   UNL     1      -4.565 -48.751  19.260  1.00  0.00     0.000 C 
BRANCH   2   3
ATOM      3  C   UNL     1      -4.629 -47.427  20.040  1.00  0.00     0.000 C 
BRANCH   3   4
ATOM      4  C   UNL     1      -5.459 -46.355  19.317  1.00  0.00     0.006 C 
BRANCH   4   5
ATOM      5  C   UNL     1      -5.175 -44.964  19.890  1.00  0.00     0.053 C 
BRANCH   5   6
ATOM      6  C   UNL     1      -6.453 -44.273  20.247  1.00  0.00     0.041 C 
ATOM      7  O   UNL     1      -6.640 -43.074  19.912  1.00  0.00    -0.550 OA
ATOM      8  O   UNL     1      -7.418 -44.939  20.992  1.00  0.00    -0.550 OA
ENDBRANCH   5   6
ENDBRANCH   4   5
ENDBRANCH   3   4
ENDBRANCH   2   3
ENDBRANCH   1   2
BRANCH   1   9
ATOM      9  C   UNL     1      -3.818 -48.807  16.815  1.00  0.00     0.000 C 
BRANCH   9  10
ATOM     10  C   UNL     1      -2.475 -49.004  17.540  1.00  0.00    -0.000 C 
BRANCH  10  11
ATOM     11  C   UNL     1      -1.494 -47.850  17.290  1.00  0.00    -0.000 C 
BRANCH  11  12
ATOM     12  C   UNL     1      -1.589 -46.751  18.359  1.00  0.00    -0.000 C 
BRANCH  12  13
ATOM     13  C   UNL     1      -2.169 -45.460  17.768  1.00  0.00    -0.003 C 
ATOM     14  C   UNL     1      -1.726 -45.269  16.321  1.00  0.00     0.004 C 
ENDBRANCH  12  13
ENDBRANCH  11  12
ENDBRANCH  10  11
ENDBRANCH   9  10
ENDBRANCH   1   9
TORSDOF 10
ENDMDL
MODEL 3
REMARK VINA RESULT:    -4.581      1.100      2.443
REMARK INTER + INTRA:          -8.445
REMARK INTER:                  -7.081
REMARK INTRA:                  -1.364
REMARK UNBOUND:                -1.185
REMARK SMILES CCCCCCCCCCCC(=O)[O-]
REMARK SMILES IDX 7 1 8 2 9 3 10 4 11 5 12 6 13 7 14 8 6 9 5 10 4 11 3 12 2 13
REMARK SMILES IDX 1 14
REMARK H PARENT
REMARK Flexibility Score: inf
ROOT
ATOM      1  C   UNL     1      -1.537 -47.802  17.340  1.00  0.00     0.000 C 
ENDROOT
BRANCH   1   2
ATOM      2  C   UNL     1      -2.448 -48.993  17.684  1.00  0.00     0.000 C 
BRANCH   2   3
ATOM      3  C   UNL     1      -3.743 -49.005  16.854  1.00  0.00     0.000 C 
BRANCH   3   4
ATOM      4  C   UNL     1      -5.002 -48.876  17.724  1.00  0.00     0.006 C 
BRANCH   4   5
ATOM      5  C   UNL     1      -4.637 -48.517  19.167  1.00  0.00     0.053 C 
BRANCH   5   6
ATOM      6  C   UNL     1      -5.024 -47.104  19.469  1.00  0.00     0.041 C 
ATOM      7  O   UNL     1      -5.408 -46.340  18.544  1.00  0.00    -0.550 OA
ATOM      8  O   UNL     1      -4.915 -46.615  20.764  1.00  0.00    -0.550 OA
ENDBRANCH   5   6
ENDBRANCH   4   5
ENDBRANCH   3   4
ENDBRANCH   2   3
ENDBRANCH   1   2
BRANCH   1   9
ATOM      9  C   UNL     1      -1.622 -46.676  18.383  1.00  0.00     0.000 C 
BRANCH   9  10
ATOM     10  C   UNL     1      -2.055 -45.334  17.769  1.00  0.00    -0.000 C 
BRANCH  10  11
ATOM     11  C   UNL     1      -1.968 -45.330  16.235  1.00  0.00    -0.000 C 
BRANCH  11  12
ATOM     12  C   UNL     1      -3.086 -44.506  15.581  1.00  0.00    -0.000 C 
BRANCH  12  13
ATOM     13  C   UNL     1      -4.264 -45.403  15.179  1.00  0.00    -0.003 C 
ATOM     14  C   UNL     1      -3.805 -46.540  14.270  1.00  0.00     0.004 C 
ENDBRANCH  12  13
ENDBRANCH  11  12
ENDBRANCH  10  11
ENDBRANCH   9  10
ENDBRANCH   1   9
TORSDOF 10
ENDMDL
MODEL 4
REMARK VINA RESULT:    -4.554      2.109      4.388
REMARK INTER + INTRA:          -8.401
REMARK INTER:                  -6.825
REMARK INTRA:                  -1.576
REMARK UNBOUND:                -1.185
REMARK SMILES CCCCCCCCCCCC(=O)[O-]
REMARK SMILES IDX 7 1 8 2 9 3 10 4 11 5 12 6 13 7 14 8 6 9 5 10 4 11 3 12 2 13
REMARK SMILES IDX 1 14
REMARK H PARENT
REMARK Flexibility Score: inf
ROOT
ATOM      1  C   UNL     1      -1.509 -47.797  17.181  1.00  0.00     0.000 C 
ENDROOT
BRANCH   1   2
ATOM      2  C   UNL     1      -1.562 -46.745  18.303  1.00  0.00     0.000 C 
BRANCH   2   3
ATOM      3  C   UNL     1      -2.001 -45.362  17.796  1.00  0.00     0.000 C 
BRANCH   3   4
ATOM      4  C   UNL     1      -2.019 -45.273  16.262  1.00  0.00     0.006 C 
BRANCH   4   5
ATOM      5  C   UNL     1      -3.326 -44.648  15.765  1.00  0.00     0.053 C 
BRANCH   5   6
ATOM      6  C   UNL     1      -4.144 -45.660  15.027  1.00  0.00     0.041 C 
ATOM      7  O   UNL     1      -3.582 -46.617  14.432  1.00  0.00    -0.550 OA
ATOM      8  O   UNL     1      -5.523 -45.519  14.955  1.00  0.00    -0.550 OA
ENDBRANCH   5   6
ENDBRANCH   4   5
ENDBRANCH   3   4
ENDBRANCH   2   3
ENDBRANCH   1   2
BRANCH   1   9
ATOM      9  C   UNL     1      -2.318 -49.059  17.519  1.00  0.00     0.000 C 
BRANCH   9  10
ATOM     10  C   UNL     1      -3.658 -49.121  16.766  1.00  0.00    -0.000 C 
BRANCH  10  11
ATOM     11  C   UNL     1      -4.834 -48.608  17.610  1.00  0.00    -0.000 C 
BRANCH  11  12
ATOM     12  C   UNL     1      -4.560 -48.691  19.119  1.00  0.00    -0.000 C 
BRANCH  12  13
ATOM     13  C   UNL     1      -4.725 -47.318  19.782  1.00  0.00    -0.003 C 
ATOM     14  C   UNL     1      -5.388 -46.324  18.832  1.00  0.00     0.004 C 
ENDBRANCH  12  13
ENDBRANCH  11  12
ENDBRANCH  10  11
ENDBRANCH   9  10
ENDBRANCH   1   9
TORSDOF 10
ENDMDL
MODEL 5
REMARK VINA RESULT:    -4.552      1.671      4.402
REMARK INTER + INTRA:          -8.398
REMARK INTER:                  -7.003
REMARK INTRA:                  -1.395
REMARK UNBOUND:                -1.185
REMARK SMILES CCCCCCCCCCCC(=O)[O-]
REMARK SMILES IDX 7 1 8 2 9 3 10 4 11 5 12 6 13 7 14 8 6 9 5 10 4 11 3 12 2 13
REMARK SMILES IDX 1 14
REMARK H PARENT
REMARK Flexibility Score: inf
ROOT
ATOM      1  C   UNL     1      -1.608 -46.642  18.400  1.00  0.00     0.000 C 
ENDROOT
BRANCH   1   2
ATOM      2  C   UNL     1      -2.142 -45.345  17.768  1.00  0.00     0.000 C 
BRANCH   2   3
ATOM      3  C   UNL     1      -1.701 -45.176  16.305  1.00  0.00     0.000 C 
BRANCH   3   4
ATOM      4  C   UNL     1      -2.828 -44.644  15.406  1.00  0.00     0.006 C 
BRANCH   4   5
ATOM      5  C   UNL     1      -3.881 -45.726  15.149  1.00  0.00     0.053 C 
BRANCH   5   6
ATOM      6  C   UNL     1      -5.246 -45.221  15.492  1.00  0.00     0.041 C 
ATOM      7  O   UNL     1      -5.650 -45.249  16.684  1.00  0.00    -0.550 OA
ATOM      8  O   UNL     1      -6.091 -44.766  14.489  1.00  0.00    -0.550 OA
ENDBRANCH   5   6
ENDBRANCH   4   5
ENDBRANCH   3   4
ENDBRANCH   2   3
ENDBRANCH   1   2
BRANCH   1   9
ATOM      9  C   UNL     1      -1.477 -47.783  17.379  1.00  0.00     0.000 C 
BRANCH   9  10
ATOM     10  C   UNL     1      -2.379 -48.983  17.715  1.00  0.00    -0.000 C 
BRANCH  10  11
ATOM     11  C   UNL     1      -3.705 -48.960  16.940  1.00  0.00    -0.000 C 
BRANCH  11  12
ATOM     12  C   UNL     1      -4.883 -48.471  17.796  1.00  0.00    -0.000 C 
BRANCH  12  13
ATOM     13  C   UNL     1      -4.540 -48.536  19.289  1.00  0.00    -0.003 C 
ATOM     14  C   UNL     1      -4.758 -47.185  19.964  1.00  0.00     0.004 C 
ENDBRANCH  12  13
ENDBRANCH  11  12
ENDBRANCH  10  11
ENDBRANCH   9  10
ENDBRANCH   1   9
TORSDOF 10
ENDMDL
MODEL 6
REMARK VINA RESULT:    -4.432      2.995      4.219
REMARK INTER + INTRA:          -8.208
REMARK INTER:                  -6.869
REMARK INTRA:                  -1.339
REMARK UNBOUND:                -1.185
REMARK SMILES CCCCCCCCCCCC(=O)[O-]
REMARK SMILES IDX 7 1 8 2 9 3 10 4 11 5 12 6 13 7 14 8 6 9 5 10 4 11 3 12 2 13
REMARK SMILES IDX 1 14
REMARK H PARENT
REMARK Flexibility Score: inf
ROOT
ATOM      1  C   UNL     1      -4.677 -47.138  20.011  1.00  0.00     0.000 C 
ENDROOT
BRANCH   1   2
ATOM      2  C   UNL     1      -4.312 -48.403  19.215  1.00  0.00     0.000 C 
BRANCH   2   3
ATOM      3  C   UNL     1      -5.021 -48.468  17.852  1.00  0.00     0.000 C 
BRANCH   3   4
ATOM      4  C   UNL     1      -4.088 -48.934  16.723  1.00  0.00     0.006 C 
BRANCH   4   5
ATOM      5  C   UNL     1      -2.625 -48.902  17.174  1.00  0.00     0.053 C 
BRANCH   5   6
ATOM      6  C   UNL     1      -1.731 -48.555  16.026  1.00  0.00     0.041 C 
ATOM      7  O   UNL     1      -0.489 -48.445  16.200  1.00  0.00    -0.550 OA
ATOM      8  O   UNL     1      -2.275 -48.305  14.773  1.00  0.00    -0.550 OA
ENDBRANCH   5   6
ENDBRANCH   4   5
ENDBRANCH   3   4
ENDBRANCH   2   3
ENDBRANCH   1   2
BRANCH   1   9
ATOM      9  C   UNL     1      -4.472 -45.851  19.196  1.00  0.00     0.000 C 
BRANCH   9  10
ATOM     10  C   UNL     1      -3.100 -45.203  19.452  1.00  0.00    -0.000 C 
BRANCH  10  11
ATOM     11  C   UNL     1      -2.177 -45.269  18.226  1.00  0.00    -0.000 C 
BRANCH  11  12
ATOM     12  C   UNL     1      -2.949 -45.193  16.900  1.00  0.00    -0.000 C 
BRANCH  12  13
ATOM     13  C   UNL     1      -2.015 -44.814  15.744  1.00  0.00    -0.003 C 
ATOM     14  C   UNL     1      -2.644 -43.745  14.856  1.00  0.00     0.004 C 
ENDBRANCH  12  13
ENDBRANCH  11  12
ENDBRANCH  10  11
ENDBRANCH   9  10
ENDBRANCH   1   9
TORSDOF 10
ENDMDL
MODEL 7
REMARK VINA RESULT:    -4.399      3.467      5.360
REMARK INTER + INTRA:          -8.156
REMARK INTER:                  -6.570
REMARK INTRA:                  -1.586
REMARK UNBOUND:                -1.185
REMARK SMILES CCCCCCCCCCCC(=O)[O-]
REMARK SMILES IDX 7 1 8 2 9 3 10 4 11 5 12 6 13 7 14 8 6 9 5 10 4 11 3 12 2 13
REMARK SMILES IDX 1 14
REMARK H PARENT
REMARK Flexibility Score: inf
ROOT
ATOM      1  C   UNL     1      -2.350 -45.230  17.854  1.00  0.00     0.000 C 
ENDROOT
BRANCH   1   2
ATOM      2  C   UNL     1      -2.149 -45.549  16.363  1.00  0.00     0.000 C 
BRANCH   2   3
ATOM      3  C   UNL     1      -3.296 -45.020  15.486  1.00  0.00     0.000 C 
BRANCH   3   4
ATOM      4  C   UNL     1      -3.765 -46.048  14.444  1.00  0.00     0.006 C 
BRANCH   4   5
ATOM      5  C   UNL     1      -3.157 -47.426  14.722  1.00  0.00     0.053 C 
BRANCH   5   6
ATOM      6  C   UNL     1      -3.351 -48.330  13.547  1.00  0.00     0.041 C 
ATOM      7  O   UNL     1      -2.926 -49.515  13.582  1.00  0.00    -0.550 OA
ATOM      8  O   UNL     1      -3.956 -47.850  12.393  1.00  0.00    -0.550 OA
ENDBRANCH   5   6
ENDBRANCH   4   5
ENDBRANCH   3   4
ENDBRANCH   2   3
ENDBRANCH   1   2
BRANCH   1   9
ATOM      9  C   UNL     1      -2.091 -46.447  18.757  1.00  0.00     0.000 C 
BRANCH   9  10
ATOM     10  C   UNL     1      -1.601 -47.673  17.967  1.00  0.00    -0.000 C 
BRANCH  10  11
ATOM     11  C   UNL     1      -2.541 -48.880  18.107  1.00  0.00    -0.000 C 
BRANCH  11  12
ATOM     12  C   UNL     1      -3.879 -48.514  18.765  1.00  0.00    -0.000 C 
BRANCH  12  13
ATOM     13  C   UNL     1      -5.018 -48.532  17.739  1.00  0.00    -0.003 C 
ATOM     14  C   UNL     1      -5.627 -47.143  17.567  1.00  0.00     0.004 C 
ENDBRANCH  12  13
ENDBRANCH  11  12
ENDBRANCH  10  11
ENDBRANCH   9  10
ENDBRANCH   1   9
TORSDOF 10
ENDMDL
MODEL 8
REMARK VINA RESULT:    -4.346      2.095      4.232
REMARK INTER + INTRA:          -8.071
REMARK INTER:                  -6.659
REMARK INTRA:                  -1.412
REMARK UNBOUND:                -1.185
REMARK SMILES CCCCCCCCCCCC(=O)[O-]
REMARK SMILES IDX 7 1 8 2 9 3 10 4 11 5 12 6 13 7 14 8 6 9 5 10 4 11 3 12 2 13
REMARK SMILES IDX 1 14
REMARK H PARENT
REMARK Flexibility Score: inf
ROOT
ATOM      1  C   UNL     1      -4.536 -46.500  19.590  1.00  0.00     0.000 C 
ENDROOT
BRANCH   1   2
ATOM      2  C   UNL     1      -3.146 -45.861  19.758  1.00  0.00     0.000 C 
BRANCH   2   3
ATOM      3  C   UNL     1      -2.829 -44.839  18.654  1.00  0.00     0.000 C 
BRANCH   3   4
ATOM      4  C   UNL     1      -2.039 -45.454  17.489  1.00  0.00     0.006 C 
BRANCH   4   5
ATOM      5  C   UNL     1      -2.503 -44.879  16.147  1.00  0.00     0.053 C 
BRANCH   5   6
ATOM      6  C   UNL     1      -3.618 -45.700  15.583  1.00  0.00     0.041 C 
ATOM      7  O   UNL     1      -3.384 -46.565  14.699  1.00  0.00    -0.550 OA
ATOM      8  O   UNL     1      -4.924 -45.475  15.998  1.00  0.00    -0.550 OA
ENDBRANCH   5   6
ENDBRANCH   4   5
ENDBRANCH   3   4
ENDBRANCH   2   3
ENDBRANCH   1   2
BRANCH   1   9
ATOM      9  C   UNL     1      -4.461 -48.017  19.359  1.00  0.00     0.000 C 
BRANCH   9  10
ATOM     10  C   UNL     1      -4.939 -48.423  17.954  1.00  0.00    -0.000 C 
BRANCH  10  11
ATOM     11  C   UNL     1      -3.824 -49.065  17.113  1.00  0.00    -0.000 C 
BRANCH  11  12
ATOM     12  C   UNL     1      -2.448 -48.978  17.790  1.00  0.00    -0.000 C 
BRANCH  12  13
ATOM     13  C   UNL     1      -1.356 -49.570  16.891  1.00  0.00    -0.003 C 
ATOM     14  C   UNL     1      -0.727 -48.495  16.009  1.00  0.00     0.004 C 
ENDBRANCH  12  13
ENDBRANCH  11  12
ENDBRANCH  10  11
ENDBRANCH   9  10
ENDBRANCH   1   9
TORSDOF 10
ENDMDL
MODEL 9
REMARK VINA RESULT:    -1.917      1.051      3.332
REMARK INTER + INTRA:          -4.224
REMARK INTER:                  -2.735
REMARK INTRA:                  -1.488
REMARK UNBOUND:                -1.185
REMARK SMILES CCCCCCCCCCCC(=O)[O-]
REMARK SMILES IDX 7 1 8 2 9 3 10 4 11 5 12 6 13 7 14 8 6 9 5 10 4 11 3 12 2 13
REMARK SMILES IDX 1 14
REMARK H PARENT
REMARK Flexibility Score: inf
ROOT
ATOM      1  C   UNL     1      -2.043 -45.489  17.007  1.00  0.00     0.000 C 
ENDROOT
BRANCH   1   2
ATOM      2  C   UNL     1      -1.979 -45.643  18.537  1.00  0.00     0.000 C 
BRANCH   2   3
ATOM      3  C   UNL     1      -3.216 -45.063  19.241  1.00  0.00     0.000 C 
BRANCH   3   4
ATOM      4  C   UNL     1      -4.353 -44.732  18.262  1.00  0.00     0.006 C 
BRANCH   4   5
ATOM      5  C   UNL     1      -5.697 -45.241  18.791  1.00  0.00     0.053 C 
BRANCH   5   6
ATOM      6  C   UNL     1      -5.903 -44.802  20.206  1.00  0.00     0.041 C 
ATOM      7  O   UNL     1      -6.012 -45.655  21.125  1.00  0.00    -0.550 OA
ATOM      8  O   UNL     1      -6.025 -43.451  20.503  1.00  0.00    -0.550 OA
ENDBRANCH   5   6
ENDBRANCH   4   5
ENDBRANCH   3   4
ENDBRANCH   2   3
ENDBRANCH   1   2
BRANCH   1   9
ATOM      9  C   UNL     1      -2.042 -46.842  16.279  1.00  0.00     0.000 C 
BRANCH   9  10
ATOM     10  C   UNL     1      -1.469 -47.977  17.146  1.00  0.00    -0.000 C 
BRANCH  10  11
ATOM     11  C   UNL     1      -2.505 -49.071  17.447  1.00  0.00    -0.000 C 
BRANCH  11  12
ATOM     12  C   UNL     1      -3.855 -48.812  16.762  1.00  0.00    -0.000 C 
BRANCH  12  13
ATOM     13  C   UNL     1      -4.977 -48.671  17.797  1.00  0.00    -0.003 C 
ATOM     14  C   UNL     1      -4.431 -48.771  19.219  1.00  0.00     0.004 C 
ENDBRANCH  12  13
ENDBRANCH  11  12
ENDBRANCH  10  11
ENDBRANCH   9  10
ENDBRANCH   1   9
TORSDOF 10
ENDMDL
