MODEL 1
REMARK VINA RESULT:    -3.611      0.000      0.000
REMARK INTER + INTRA:          -6.573
REMARK INTER:                  -6.143
REMARK INTRA:                  -0.429
REMARK UNBOUND:                -0.429
REMARK SMILES CCCCCCCCCCCCCC(=O)[O-]
REMARK SMILES IDX 8 1 9 2 10 3 11 4 12 5 13 6 14 7 15 8 16 9 7 10 6 11 5 12
REMARK SMILES IDX 4 13 3 14 2 15 1 16
REMARK H PARENT
REMARK Flexibility Score: inf
ROOT
ATOM      1  C   UNL     1      42.568  11.896 -35.052  1.00  0.00     0.000 C 
ENDROOT
BRANCH   1   2
ATOM      2  C   UNL     1      41.681  12.300 -36.239  1.00  0.00     0.000 C 
BRANCH   2   3
ATOM      3  C   UNL     1      41.310  13.792 -36.224  1.00  0.00     0.000 C 
BRANCH   3   4
ATOM      4  C   UNL     1      39.926  14.051 -35.603  1.00  0.00     0.000 C 
BRANCH   4   5
ATOM      5  C   UNL     1      38.779  13.798 -36.594  1.00  0.00     0.006 C 
BRANCH   5   6
ATOM      6  C   UNL     1      37.470  13.402 -35.897  1.00  0.00     0.053 C 
BRANCH   6   7
ATOM      7  C   UNL     1      37.404  14.003 -34.529  1.00  0.00     0.041 C 
ATOM      8  O   UNL     1      37.252  13.266 -33.519  1.00  0.00    -0.550 OA
ATOM      9  O   UNL     1      37.461  15.381 -34.372  1.00  0.00    -0.550 OA
ENDBRANCH   6   7
ENDBRANCH   5   6
ENDBRANCH   4   5
ENDBRANCH   3   4
ENDBRANCH   2   3
ENDBRANCH   1   2
BRANCH   1  10
ATOM     10  C   UNL     1      44.053  11.931 -35.441  1.00  0.00     0.000 C 
BRANCH  10  11
ATOM     11  C   UNL     1      44.976  12.196 -34.241  1.00  0.00    -0.000 C 
BRANCH  11  12
ATOM     12  C   UNL     1      44.196  12.477 -32.944  1.00  0.00    -0.000 C 
BRANCH  12  13
ATOM     13  C   UNL     1      45.133  12.669 -31.732  1.00  0.00    -0.000 C 
BRANCH  13  14
ATOM     14  C   UNL     1      46.516  12.022 -31.915  1.00  0.00    -0.000 C 
BRANCH  14  15
ATOM     15  C   UNL     1      46.816  10.944 -30.865  1.00  0.00    -0.003 C 
ATOM     16  C   UNL     1      46.279  11.349 -29.494  1.00  0.00     0.004 C 
ENDBRANCH  14  15
ENDBRANCH  13  14
ENDBRANCH  12  13
ENDBRANCH  11  12
ENDBRANCH  10  11
ENDBRANCH   1  10
TORSDOF 12
ENDMDL
MODEL 2
REMARK VINA RESULT:    -3.545      1.579      2.505
REMARK INTER + INTRA:          -6.461
REMARK INTER:                  -6.088
REMARK INTRA:                  -0.373
REMARK UNBOUND:                -0.429
REMARK SMILES CCCCCCCCCCCCCC(=O)[O-]
REMARK SMILES IDX 8 1 9 2 10 3 11 4 12 5 13 6 14 7 15 8 16 9 7 10 6 11 5 12
REMARK SMILES IDX 4 13 3 14 2 15 1 16
REMARK H PARENT
REMARK Flexibility Score: inf
ROOT
ATOM      1  C   UNL     1      41.538  13.451 -36.154  1.00  0.00     0.000 C 
ENDROOT
BRANCH   1   2
ATOM      2  C   UNL     1      40.008  13.457 -36.302  1.00  0.00     0.000 C 
BRANCH   2   3
ATOM      3  C   UNL     1      39.320  14.437 -35.337  1.00  0.00     0.000 C 
BRANCH   3   4
ATOM      4  C   UNL     1      37.865  14.040 -35.031  1.00  0.00     0.000 C 
BRANCH   4   5
ATOM      5  C   UNL     1      37.452  14.380 -33.591  1.00  0.00     0.006 C 
BRANCH   5   6
ATOM      6  C   UNL     1      36.876  13.173 -32.838  1.00  0.00     0.053 C 
BRANCH   6   7
ATOM      7  C   UNL     1      36.922  13.408 -31.362  1.00  0.00     0.041 C 
ATOM      8  O   UNL     1      36.918  14.581 -30.906  1.00  0.00    -0.550 OA
ATOM      9  O   UNL     1      37.020  12.331 -30.490  1.00  0.00    -0.550 OA
ENDBRANCH   6   7
ENDBRANCH   5   6
ENDBRANCH   4   5
ENDBRANCH   3   4
ENDBRANCH   2   3
ENDBRANCH   1   2
BRANCH   1  10
ATOM     10  C   UNL     1      42.060  12.025 -35.927  1.00  0.00     0.000 C 
BRANCH  10  11
ATOM     11  C   UNL     1      43.519  11.997 -35.443  1.00  0.00    -0.000 C 
BRANCH  11  12
ATOM     12  C   UNL     1      43.642  12.169 -33.919  1.00  0.00    -0.000 C 
BRANCH  12  13
ATOM     13  C   UNL     1      45.106  12.365 -33.472  1.00  0.00    -0.000 C 
BRANCH  13  14
ATOM     14  C   UNL     1      45.252  12.751 -31.990  1.00  0.00    -0.000 C 
BRANCH  14  15
ATOM     15  C   UNL     1      46.576  12.276 -31.376  1.00  0.00    -0.003 C 
ATOM     16  C   UNL     1      46.331  11.295 -30.233  1.00  0.00     0.004 C 
ENDBRANCH  14  15
ENDBRANCH  13  14
ENDBRANCH  12  13
ENDBRANCH  11  12
ENDBRANCH  10  11
ENDBRANCH   1  10
TORSDOF 12
ENDMDL
MODEL 3
REMARK VINA RESULT:    -3.433      3.629      7.663
REMARK INTER + INTRA:          -6.270
REMARK INTER:                  -5.959
REMARK INTRA:                  -0.311
REMARK UNBOUND:                -0.429
REMARK SMILES CCCCCCCCCCCCCC(=O)[O-]
REMARK SMILES IDX 8 1 9 2 10 3 11 4 12 5 13 6 14 7 15 8 16 9 7 10 6 11 5 12
REMARK SMILES IDX 4 13 3 14 2 15 1 16
REMARK H PARENT
REMARK Flexibility Score: inf
ROOT
ATOM      1  C   UNL     1      41.843  12.734 -36.269  1.00  0.00     0.000 C 
ENDROOT
BRANCH   1   2
ATOM      2  C   UNL     1      42.449  11.944 -35.098  1.00  0.00     0.000 C 
BRANCH   2   3
ATOM      3  C   UNL     1      43.895  12.361 -34.784  1.00  0.00     0.000 C 
BRANCH   3   4
ATOM      4  C   UNL     1      44.249  12.193 -33.296  1.00  0.00     0.000 C 
BRANCH   4   5
ATOM      5  C   UNL     1      45.578  12.869 -32.926  1.00  0.00     0.006 C 
BRANCH   5   6
ATOM      6  C   UNL     1      46.451  12.000 -32.011  1.00  0.00     0.053 C 
BRANCH   6   7
ATOM      7  C   UNL     1      46.025  12.150 -30.585  1.00  0.00     0.041 C 
ATOM      8  O   UNL     1      45.218  13.060 -30.257  1.00  0.00    -0.550 OA
ATOM      9  O   UNL     1      46.556  11.317 -29.609  1.00  0.00    -0.550 OA
ENDBRANCH   6   7
ENDBRANCH   5   6
ENDBRANCH   4   5
ENDBRANCH   3   4
ENDBRANCH   2   3
ENDBRANCH   1   2
BRANCH   1  10
ATOM     10  C   UNL     1      40.912  13.843 -35.758  1.00  0.00     0.000 C 
BRANCH  10  11
ATOM     11  C   UNL     1      39.435  13.580 -36.093  1.00  0.00    -0.000 C 
BRANCH  11  12
ATOM     12  C   UNL     1      38.478  14.502 -35.316  1.00  0.00    -0.000 C 
BRANCH  12  13
ATOM     13  C   UNL     1      37.314  13.719 -34.670  1.00  0.00    -0.000 C 
BRANCH  13  14
ATOM     14  C   UNL     1      37.088  14.064 -33.188  1.00  0.00    -0.000 C 
BRANCH  14  15
ATOM     15  C   UNL     1      37.053  12.824 -32.285  1.00  0.00    -0.003 C 
ATOM     16  C   UNL     1      37.049  13.218 -30.810  1.00  0.00     0.004 C 
ENDBRANCH  14  15
ENDBRANCH  13  14
ENDBRANCH  12  13
ENDBRANCH  11  12
ENDBRANCH  10  11
ENDBRANCH   1  10
TORSDOF 12
ENDMDL
MODEL 4
REMARK VINA RESULT:    -3.229     19.814     21.206
REMARK INTER + INTRA:          -5.923
REMARK INTER:                  -5.222
REMARK INTRA:                  -0.701
REMARK UNBOUND:                -0.429
REMARK SMILES CCCCCCCCCCCCCC(=O)[O-]
REMARK SMILES IDX 8 1 9 2 10 3 11 4 12 5 13 6 14 7 15 8 16 9 7 10 6 11 5 12
REMARK SMILES IDX 4 13 3 14 2 15 1 16
REMARK H PARENT
REMARK Flexibility Score: inf
ROOT
ATOM      1  C   UNL     1      55.375  26.348 -34.994  1.00  0.00     0.000 C 
ENDROOT
BRANCH   1   2
ATOM      2  C   UNL     1      55.153  25.371 -36.159  1.00  0.00     0.000 C 
BRANCH   2   3
ATOM      3  C   UNL     1      54.870  26.086 -37.491  1.00  0.00     0.000 C 
BRANCH   3   4
ATOM      4  C   UNL     1      54.918  27.619 -37.360  1.00  0.00     0.000 C 
BRANCH   4   5
ATOM      5  C   UNL     1      54.538  28.334 -38.665  1.00  0.00     0.006 C 
BRANCH   5   6
ATOM      6  C   UNL     1      55.135  29.744 -38.765  1.00  0.00     0.053 C 
BRANCH   6   7
ATOM      7  C   UNL     1      54.638  30.602 -37.645  1.00  0.00     0.041 C 
ATOM      8  O   UNL     1      53.427  30.945 -37.598  1.00  0.00    -0.550 OA
ATOM      9  O   UNL     1      55.522  31.065 -36.679  1.00  0.00    -0.550 OA
ENDBRANCH   6   7
ENDBRANCH   5   6
ENDBRANCH   4   5
ENDBRANCH   3   4
ENDBRANCH   2   3
ENDBRANCH   1   2
BRANCH   1  10
ATOM     10  C   UNL     1      56.855  26.385 -34.586  1.00  0.00     0.000 C 
BRANCH  10  11
ATOM     11  C   UNL     1      57.125  27.352 -33.422  1.00  0.00    -0.000 C 
BRANCH  11  12
ATOM     12  C   UNL     1      56.479  28.733 -33.636  1.00  0.00    -0.000 C 
BRANCH  12  13
ATOM     13  C   UNL     1      56.928  29.756 -32.570  1.00  0.00    -0.000 C 
BRANCH  13  14
ATOM     14  C   UNL     1      56.917  29.197 -31.138  1.00  0.00    -0.000 C 
BRANCH  14  15
ATOM     15  C   UNL     1      56.317  30.175 -30.119  1.00  0.00    -0.003 C 
ATOM     16  C   UNL     1      56.837  29.891 -28.712  1.00  0.00     0.004 C 
ENDBRANCH  14  15
ENDBRANCH  13  14
ENDBRANCH  12  13
ENDBRANCH  11  12
ENDBRANCH  10  11
ENDBRANCH   1  10
TORSDOF 12
ENDMDL
MODEL 5
REMARK VINA RESULT:    -3.197      3.762      8.125
REMARK INTER + INTRA:          -5.869
REMARK INTER:                  -5.296
REMARK INTRA:                  -0.573
REMARK UNBOUND:                -0.429
REMARK SMILES CCCCCCCCCCCCCC(=O)[O-]
REMARK SMILES IDX 8 1 9 2 10 3 11 4 12 5 13 6 14 7 15 8 16 9 7 10 6 11 5 12
REMARK SMILES IDX 4 13 3 14 2 15 1 16
REMARK H PARENT
REMARK Flexibility Score: inf
ROOT
ATOM      1  C   UNL     1      43.417  11.794 -35.716  1.00  0.00     0.000 C 
ENDROOT
BRANCH   1   2
ATOM      2  C   UNL     1      44.572  12.363 -34.878  1.00  0.00     0.000 C 
BRANCH   2   3
ATOM      3  C   UNL     1      44.261  12.385 -33.372  1.00  0.00     0.000 C 
BRANCH   3   4
ATOM      4  C   UNL     1      45.314  13.162 -32.563  1.00  0.00     0.000 C 
BRANCH   4   5
ATOM      5  C   UNL     1      46.519  12.291 -32.174  1.00  0.00     0.006 C 
BRANCH   5   6
ATOM      6  C   UNL     1      46.134  11.120 -31.260  1.00  0.00     0.053 C 
BRANCH   6   7
ATOM      7  C   UNL     1      46.347  11.486 -29.825  1.00  0.00     0.041 C 
ATOM      8  O   UNL     1      45.642  12.380 -29.288  1.00  0.00    -0.550 OA
ATOM      9  O   UNL     1      47.358  10.875 -29.095  1.00  0.00    -0.550 OA
ENDBRANCH   6   7
ENDBRANCH   5   6
ENDBRANCH   4   5
ENDBRANCH   3   4
ENDBRANCH   2   3
ENDBRANCH   1   2
BRANCH   1  10
ATOM     10  C   UNL     1      42.066  12.334 -35.227  1.00  0.00     0.000 C 
BRANCH  10  11
ATOM     11  C   UNL     1      41.338  13.167 -36.293  1.00  0.00    -0.000 C 
BRANCH  11  12
ATOM     12  C   UNL     1      40.728  14.460 -35.722  1.00  0.00    -0.000 C 
BRANCH  12  13
ATOM     13  C   UNL     1      39.229  14.297 -35.389  1.00  0.00    -0.000 C 
BRANCH  13  14
ATOM     14  C   UNL     1      38.375  13.860 -36.591  1.00  0.00    -0.000 C 
BRANCH  14  15
ATOM     15  C   UNL     1      37.100  13.114 -36.177  1.00  0.00    -0.003 C 
ATOM     16  C   UNL     1      36.924  11.833 -36.990  1.00  0.00     0.004 C 
ENDBRANCH  14  15
ENDBRANCH  13  14
ENDBRANCH  12  13
ENDBRANCH  11  12
ENDBRANCH  10  11
ENDBRANCH   1  10
TORSDOF 12
ENDMDL
MODEL 6
REMARK VINA RESULT:    -2.986     19.966     21.910
REMARK INTER + INTRA:          -5.511
REMARK INTER:                  -4.639
REMARK INTRA:                  -0.871
REMARK UNBOUND:                -0.429
REMARK SMILES CCCCCCCCCCCCCC(=O)[O-]
REMARK SMILES IDX 8 1 9 2 10 3 11 4 12 5 13 6 14 7 15 8 16 9 7 10 6 11 5 12
REMARK SMILES IDX 4 13 3 14 2 15 1 16
REMARK H PARENT
REMARK Flexibility Score: inf
ROOT
ATOM      1  C   UNL     1      56.506  26.573 -34.612  1.00  0.00     0.000 C 
ENDROOT
BRANCH   1   2
ATOM      2  C   UNL     1      56.434  27.514 -33.400  1.00  0.00     0.000 C 
BRANCH   2   3
ATOM      3  C   UNL     1      56.509  28.999 -33.794  1.00  0.00     0.000 C 
BRANCH   3   4
ATOM      4  C   UNL     1      56.935  29.900 -32.622  1.00  0.00     0.000 C 
BRANCH   4   5
ATOM      5  C   UNL     1      56.104  29.652 -31.354  1.00  0.00     0.006 C 
BRANCH   5   6
ATOM      6  C   UNL     1      56.400  30.666 -30.241  1.00  0.00     0.053 C 
BRANCH   6   7
ATOM      7  C   UNL     1      56.751  29.960 -28.970  1.00  0.00     0.041 C 
ATOM      8  O   UNL     1      57.022  28.730 -28.982  1.00  0.00    -0.550 OA
ATOM      9  O   UNL     1      56.729  30.648 -27.764  1.00  0.00    -0.550 OA
ENDBRANCH   6   7
ENDBRANCH   5   6
ENDBRANCH   4   5
ENDBRANCH   3   4
ENDBRANCH   2   3
ENDBRANCH   1   2
BRANCH   1  10
ATOM     10  C   UNL     1      55.121  26.393 -35.249  1.00  0.00     0.000 C 
BRANCH  10  11
ATOM     11  C   UNL     1      55.069  25.214 -36.234  1.00  0.00    -0.000 C 
BRANCH  11  12
ATOM     12  C   UNL     1      54.914  25.669 -37.696  1.00  0.00    -0.000 C 
BRANCH  12  13
ATOM     13  C   UNL     1      54.369  27.110 -37.802  1.00  0.00    -0.000 C 
BRANCH  13  14
ATOM     14  C   UNL     1      54.916  27.888 -39.010  1.00  0.00    -0.000 C 
BRANCH  14  15
ATOM     15  C   UNL     1      55.065  29.390 -38.736  1.00  0.00    -0.003 C 
ATOM     16  C   UNL     1      55.388  29.652 -37.267  1.00  0.00     0.004 C 
ENDBRANCH  14  15
ENDBRANCH  13  14
ENDBRANCH  12  13
ENDBRANCH  11  12
ENDBRANCH  10  11
ENDBRANCH   1  10
TORSDOF 12
ENDMDL
MODEL 7
REMARK VINA RESULT:    -2.973      3.680      7.342
REMARK INTER + INTRA:          -5.488
REMARK INTER:                  -4.976
REMARK INTRA:                  -0.512
REMARK UNBOUND:                -0.429
REMARK SMILES CCCCCCCCCCCCCC(=O)[O-]
REMARK SMILES IDX 8 1 9 2 10 3 11 4 12 5 13 6 14 7 15 8 16 9 7 10 6 11 5 12
REMARK SMILES IDX 4 13 3 14 2 15 1 16
REMARK H PARENT
REMARK Flexibility Score: inf
ROOT
ATOM      1  C   UNL     1      40.074  13.543 -35.542  1.00  0.00     0.000 C 
ENDROOT
BRANCH   1   2
ATOM      2  C   UNL     1      41.451  13.747 -36.194  1.00  0.00     0.000 C 
BRANCH   2   3
ATOM      3  C   UNL     1      42.281  12.454 -36.249  1.00  0.00     0.000 C 
BRANCH   3   4
ATOM      4  C   UNL     1      42.602  11.898 -34.851  1.00  0.00     0.000 C 
BRANCH   4   5
ATOM      5  C   UNL     1      44.034  12.225 -34.400  1.00  0.00     0.006 C 
BRANCH   5   6
ATOM      6  C   UNL     1      44.163  12.343 -32.875  1.00  0.00     0.053 C 
BRANCH   6   7
ATOM      7  C   UNL     1      45.583  12.622 -32.493  1.00  0.00     0.041 C 
ATOM      8  O   UNL     1      46.475  12.693 -33.378  1.00  0.00    -0.550 OA
ATOM      9  O   UNL     1      45.928  12.752 -31.154  1.00  0.00    -0.550 OA
ENDBRANCH   6   7
ENDBRANCH   5   6
ENDBRANCH   4   5
ENDBRANCH   3   4
ENDBRANCH   2   3
ENDBRANCH   1   2
BRANCH   1  10
ATOM     10  C   UNL     1      38.951  13.687 -36.578  1.00  0.00     0.000 C 
BRANCH  10  11
ATOM     11  C   UNL     1      37.551  13.669 -35.943  1.00  0.00    -0.000 C 
BRANCH  11  12
ATOM     12  C   UNL     1      37.527  14.308 -34.542  1.00  0.00    -0.000 C 
BRANCH  12  13
ATOM     13  C   UNL     1      37.006  13.331 -33.467  1.00  0.00    -0.000 C 
BRANCH  13  14
ATOM     14  C   UNL     1      36.936  13.946 -32.059  1.00  0.00    -0.000 C 
BRANCH  14  15
ATOM     15  C   UNL     1      37.024  12.896 -30.943  1.00  0.00    -0.003 C 
ATOM     16  C   UNL     1      36.875  13.541 -29.567  1.00  0.00     0.004 C 
ENDBRANCH  14  15
ENDBRANCH  13  14
ENDBRANCH  12  13
ENDBRANCH  11  12
ENDBRANCH  10  11
ENDBRANCH   1  10
TORSDOF 12
ENDMDL
MODEL 8
REMARK VINA RESULT:    -2.838     20.199     21.799
REMARK INTER + INTRA:          -5.258
REMARK INTER:                  -4.515
REMARK INTRA:                  -0.743
REMARK UNBOUND:                -0.429
REMARK SMILES CCCCCCCCCCCCCC(=O)[O-]
REMARK SMILES IDX 8 1 9 2 10 3 11 4 12 5 13 6 14 7 15 8 16 9 7 10 6 11 5 12
REMARK SMILES IDX 4 13 3 14 2 15 1 16
REMARK H PARENT
REMARK Flexibility Score: inf
ROOT
ATOM      1  C   UNL     1      54.761  29.955 -37.993  1.00  0.00     0.000 C 
ENDROOT
BRANCH   1   2
ATOM      2  C   UNL     1      56.047  29.985 -37.152  1.00  0.00     0.000 C 
BRANCH   2   3
ATOM      3  C   UNL     1      55.806  30.465 -35.711  1.00  0.00     0.000 C 
BRANCH   3   4
ATOM      4  C   UNL     1      57.116  30.692 -34.937  1.00  0.00     0.000 C 
BRANCH   4   5
ATOM      5  C   UNL     1      56.874  31.048 -33.462  1.00  0.00     0.006 C 
BRANCH   5   6
ATOM      6  C   UNL     1      56.042  29.991 -32.724  1.00  0.00     0.053 C 
BRANCH   6   7
ATOM      7  C   UNL     1      56.624  29.716 -31.374  1.00  0.00     0.041 C 
ATOM      8  O   UNL     1      56.954  30.670 -30.620  1.00  0.00    -0.550 OA
ATOM      9  O   UNL     1      56.850  28.408 -30.967  1.00  0.00    -0.550 OA
ENDBRANCH   6   7
ENDBRANCH   5   6
ENDBRANCH   4   5
ENDBRANCH   3   4
ENDBRANCH   2   3
ENDBRANCH   1   2
BRANCH   1  10
ATOM     10  C   UNL     1      54.856  28.896 -39.100  1.00  0.00     0.000 C 
BRANCH  10  11
ATOM     11  C   UNL     1      54.431  27.498 -38.623  1.00  0.00    -0.000 C 
BRANCH  11  12
ATOM     12  C   UNL     1      54.832  27.223 -37.163  1.00  0.00    -0.000 C 
BRANCH  12  13
ATOM     13  C   UNL     1      55.058  25.719 -36.896  1.00  0.00    -0.000 C 
BRANCH  13  14
ATOM     14  C   UNL     1      55.297  25.387 -35.413  1.00  0.00    -0.000 C 
BRANCH  14  15
ATOM     15  C   UNL     1      55.609  26.627 -34.565  1.00  0.00    -0.003 C 
ATOM     16  C   UNL     1      57.115  26.819 -34.404  1.00  0.00     0.004 C 
ENDBRANCH  14  15
ENDBRANCH  13  14
ENDBRANCH  12  13
ENDBRANCH  11  12
ENDBRANCH  10  11
ENDBRANCH   1  10
TORSDOF 12
ENDMDL
MODEL 9
REMARK VINA RESULT:    -2.749      1.142      1.583
REMARK INTER + INTRA:          -5.106
REMARK INTER:                  -4.404
REMARK INTRA:                  -0.702
REMARK UNBOUND:                -0.429
REMARK SMILES CCCCCCCCCCCCCC(=O)[O-]
REMARK SMILES IDX 8 1 9 2 10 3 11 4 12 5 13 6 14 7 15 8 16 9 7 10 6 11 5 12
REMARK SMILES IDX 4 13 3 14 2 15 1 16
REMARK H PARENT
REMARK Flexibility Score: inf
ROOT
ATOM      1  C   UNL     1      43.616  12.379 -36.011  1.00  0.00     0.000 C 
ENDROOT
BRANCH   1   2
ATOM      2  C   UNL     1      42.344  11.878 -35.310  1.00  0.00     0.000 C 
BRANCH   2   3
ATOM      3  C   UNL     1      41.082  12.051 -36.171  1.00  0.00     0.000 C 
BRANCH   3   4
ATOM      4  C   UNL     1      40.859  13.510 -36.606  1.00  0.00     0.000 C 
BRANCH   4   5
ATOM      5  C   UNL     1      40.257  14.374 -35.487  1.00  0.00     0.006 C 
BRANCH   5   6
ATOM      6  C   UNL     1      38.836  14.855 -35.808  1.00  0.00     0.053 C 
BRANCH   6   7
ATOM      7  C   UNL     1      37.835  13.802 -35.449  1.00  0.00     0.041 C 
ATOM      8  O   UNL     1      37.570  13.565 -34.241  1.00  0.00    -0.550 OA
ATOM      9  O   UNL     1      37.233  13.048 -36.447  1.00  0.00    -0.550 OA
ENDBRANCH   6   7
ENDBRANCH   5   6
ENDBRANCH   4   5
ENDBRANCH   3   4
ENDBRANCH   2   3
ENDBRANCH   1   2
BRANCH   1  10
ATOM     10  C   UNL     1      44.856  12.128 -35.141  1.00  0.00     0.000 C 
BRANCH  10  11
ATOM     11  C   UNL     1      44.598  12.395 -33.649  1.00  0.00    -0.000 C 
BRANCH  11  12
ATOM     12  C   UNL     1      45.872  12.262 -32.794  1.00  0.00    -0.000 C 
BRANCH  12  13
ATOM     13  C   UNL     1      45.936  13.327 -31.678  1.00  0.00    -0.000 C 
BRANCH  13  14
ATOM     14  C   UNL     1      45.577  12.782 -30.286  1.00  0.00    -0.000 C 
BRANCH  14  15
ATOM     15  C   UNL     1      45.770  11.264 -30.170  1.00  0.00    -0.003 C 
ATOM     16  C   UNL     1      47.013  10.929 -29.349  1.00  0.00     0.004 C 
ENDBRANCH  14  15
ENDBRANCH  13  14
ENDBRANCH  12  13
ENDBRANCH  11  12
ENDBRANCH  10  11
ENDBRANCH   1  10
TORSDOF 12
ENDMDL
