MODEL 1
REMARK VINA RESULT:    -5.482      0.000      0.000
REMARK INTER + INTRA:          -9.190
REMARK INTER:                  -8.687
REMARK INTRA:                  -0.503
REMARK UNBOUND:                -0.503
REMARK SMILES CCCCCCCCCCCC(=O)[O-]
REMARK SMILES IDX 7 1 8 2 9 3 10 4 11 5 12 6 13 7 14 8 6 9 5 10 4 11 3 12 2 13
REMARK SMILES IDX 1 14
REMARK H PARENT
REMARK Flexibility Score: inf
ROOT
ATOM      1  C   UNL     1     103.479 312.060 194.721  1.00  0.00     0.000 C 
ENDROOT
BRANCH   1   2
ATOM      2  C   UNL     1     104.577 312.195 195.791  1.00  0.00     0.000 C 
BRANCH   2   3
ATOM      3  C   UNL     1     104.260 311.412 197.073  1.00  0.00     0.000 C 
BRANCH   3   4
ATOM      4  C   UNL     1     103.646 312.332 198.140  1.00  0.00     0.006 C 
BRANCH   4   5
ATOM      5  C   UNL     1     103.173 311.554 199.375  1.00  0.00     0.053 C 
BRANCH   5   6
ATOM      6  C   UNL     1     104.003 311.869 200.582  1.00  0.00     0.041 C 
ATOM      7  O   UNL     1     104.999 312.632 200.485  1.00  0.00    -0.550 OA
ATOM      8  O   UNL     1     103.693 311.292 201.808  1.00  0.00    -0.550 OA
ENDBRANCH   5   6
ENDBRANCH   4   5
ENDBRANCH   3   4
ENDBRANCH   2   3
ENDBRANCH   1   2
BRANCH   1   9
ATOM      9  C   UNL     1     103.949 311.487 193.367  1.00  0.00     0.000 C 
BRANCH   9  10
ATOM     10  C   UNL     1     105.380 311.876 192.951  1.00  0.00    -0.000 C 
BRANCH  10  11
ATOM     11  C   UNL     1     105.433 313.196 192.165  1.00  0.00    -0.000 C 
BRANCH  11  12
ATOM     12  C   UNL     1     104.135 313.474 191.391  1.00  0.00    -0.000 C 
BRANCH  12  13
ATOM     13  C   UNL     1     104.319 314.517 190.278  1.00  0.00    -0.003 C 
ATOM     14  C   UNL     1     105.766 315.000 190.212  1.00  0.00     0.004 C 
ENDBRANCH  12  13
ENDBRANCH  11  12
ENDBRANCH  10  11
ENDBRANCH   9  10
ENDBRANCH   1   9
TORSDOF 10
ENDMDL
MODEL 2
REMARK VINA RESULT:    -5.447      0.790      1.051
REMARK INTER + INTRA:          -9.135
REMARK INTER:                  -8.457
REMARK INTRA:                  -0.677
REMARK UNBOUND:                -0.503
REMARK SMILES CCCCCCCCCCCC(=O)[O-]
REMARK SMILES IDX 7 1 8 2 9 3 10 4 11 5 12 6 13 7 14 8 6 9 5 10 4 11 3 12 2 13
REMARK SMILES IDX 1 14
REMARK H PARENT
REMARK Flexibility Score: inf
ROOT
ATOM      1  C   UNL     1     103.499 312.011 194.776  1.00  0.00     0.000 C 
ENDROOT
BRANCH   1   2
ATOM      2  C   UNL     1     104.481 311.930 195.958  1.00  0.00     0.000 C 
BRANCH   2   3
ATOM      3  C   UNL     1     103.876 311.235 197.188  1.00  0.00     0.000 C 
BRANCH   3   4
ATOM      4  C   UNL     1     103.729 312.221 198.357  1.00  0.00     0.006 C 
BRANCH   4   5
ATOM      5  C   UNL     1     103.217 311.536 199.631  1.00  0.00     0.053 C 
BRANCH   5   6
ATOM      6  C   UNL     1     104.061 311.873 200.822  1.00  0.00     0.041 C 
ATOM      7  O   UNL     1     104.987 312.721 200.724  1.00  0.00    -0.550 OA
ATOM      8  O   UNL     1     103.847 311.226 202.033  1.00  0.00    -0.550 OA
ENDBRANCH   5   6
ENDBRANCH   4   5
ENDBRANCH   3   4
ENDBRANCH   2   3
ENDBRANCH   1   2
BRANCH   1   9
ATOM      9  C   UNL     1     104.047 311.492 193.431  1.00  0.00     0.000 C 
BRANCH   9  10
ATOM     10  C   UNL     1     105.502 311.888 193.118  1.00  0.00    -0.000 C 
BRANCH  10  11
ATOM     11  C   UNL     1     105.600 313.059 192.126  1.00  0.00    -0.000 C 
BRANCH  11  12
ATOM     12  C   UNL     1     104.255 313.375 191.453  1.00  0.00    -0.000 C 
BRANCH  12  13
ATOM     13  C   UNL     1     103.881 314.863 191.545  1.00  0.00    -0.003 C 
ATOM     14  C   UNL     1     103.511 315.248 192.975  1.00  0.00     0.004 C 
ENDBRANCH  12  13
ENDBRANCH  11  12
ENDBRANCH  10  11
ENDBRANCH   9  10
ENDBRANCH   1   9
TORSDOF 10
ENDMDL
MODEL 3
REMARK VINA RESULT:    -5.420     20.100     20.737
REMARK INTER + INTRA:          -9.092
REMARK INTER:                  -8.688
REMARK INTRA:                  -0.405
REMARK UNBOUND:                -0.503
REMARK SMILES CCCCCCCCCCCC(=O)[O-]
REMARK SMILES IDX 7 1 8 2 9 3 10 4 11 5 12 6 13 7 14 8 6 9 5 10 4 11 3 12 2 13
REMARK SMILES IDX 1 14
REMARK H PARENT
REMARK Flexibility Score: inf
ROOT
ATOM      1  C   UNL     1      88.086 326.137 196.625  1.00  0.00     0.000 C 
ENDROOT
BRANCH   1   2
ATOM      2  C   UNL     1      88.577 326.812 197.918  1.00  0.00     0.000 C 
BRANCH   2   3
ATOM      3  C   UNL     1      89.164 325.811 198.925  1.00  0.00     0.000 C 
BRANCH   3   4
ATOM      4  C   UNL     1      89.420 326.486 200.282  1.00  0.00     0.006 C 
BRANCH   4   5
ATOM      5  C   UNL     1      90.736 326.024 200.921  1.00  0.00     0.053 C 
BRANCH   5   6
ATOM      6  C   UNL     1      91.073 326.824 202.142  1.00  0.00     0.041 C 
ATOM      7  O   UNL     1      90.180 327.098 202.986  1.00  0.00    -0.550 OA
ATOM      8  O   UNL     1      92.367 327.294 202.330  1.00  0.00    -0.550 OA
ENDBRANCH   5   6
ENDBRANCH   4   5
ENDBRANCH   3   4
ENDBRANCH   2   3
ENDBRANCH   1   2
BRANCH   1   9
ATOM      9  C   UNL     1      88.975 326.370 195.385  1.00  0.00     0.000 C 
BRANCH   9  10
ATOM     10  C   UNL     1      88.214 326.599 194.065  1.00  0.00    -0.000 C 
BRANCH  10  11
ATOM     11  C   UNL     1      86.798 326.001 194.083  1.00  0.00    -0.000 C 
BRANCH  11  12
ATOM     12  C   UNL     1      86.632 324.849 193.079  1.00  0.00    -0.000 C 
BRANCH  12  13
ATOM     13  C   UNL     1      87.977 324.288 192.594  1.00  0.00    -0.003 C 
ATOM     14  C   UNL     1      87.876 323.786 191.156  1.00  0.00     0.004 C 
ENDBRANCH  12  13
ENDBRANCH  11  12
ENDBRANCH  10  11
ENDBRANCH   9  10
ENDBRANCH   1   9
TORSDOF 10
ENDMDL
MODEL 4
REMARK VINA RESULT:    -5.407     20.325     20.980
REMARK INTER + INTRA:          -9.071
REMARK INTER:                  -8.679
REMARK INTRA:                  -0.392
REMARK UNBOUND:                -0.503
REMARK SMILES CCCCCCCCCCCC(=O)[O-]
REMARK SMILES IDX 7 1 8 2 9 3 10 4 11 5 12 6 13 7 14 8 6 9 5 10 4 11 3 12 2 13
REMARK SMILES IDX 1 14
REMARK H PARENT
REMARK Flexibility Score: inf
ROOT
ATOM      1  C   UNL     1      88.915 326.206 195.615  1.00  0.00     0.000 C 
ENDROOT
BRANCH   1   2
ATOM      2  C   UNL     1      88.076 326.268 196.904  1.00  0.00     0.000 C 
BRANCH   2   3
ATOM      3  C   UNL     1      88.846 326.871 198.088  1.00  0.00     0.000 C 
BRANCH   3   4
ATOM      4  C   UNL     1      88.952 325.864 199.243  1.00  0.00     0.006 C 
BRANCH   4   5
ATOM      5  C   UNL     1      89.620 326.471 200.483  1.00  0.00     0.053 C 
BRANCH   5   6
ATOM      6  C   UNL     1      88.882 326.126 201.740  1.00  0.00     0.041 C 
ATOM      7  O   UNL     1      88.083 325.153 201.759  1.00  0.00    -0.550 OA
ATOM      8  O   UNL     1      89.050 326.901 202.881  1.00  0.00    -0.550 OA
ENDBRANCH   5   6
ENDBRANCH   4   5
ENDBRANCH   3   4
ENDBRANCH   2   3
ENDBRANCH   1   2
BRANCH   1   9
ATOM      9  C   UNL     1      88.142 326.508 194.314  1.00  0.00     0.000 C 
BRANCH   9  10
ATOM     10  C   UNL     1      86.689 326.000 194.280  1.00  0.00    -0.000 C 
BRANCH  10  11
ATOM     11  C   UNL     1      86.446 324.960 193.174  1.00  0.00    -0.000 C 
BRANCH  11  12
ATOM     12  C   UNL     1      87.741 324.557 192.451  1.00  0.00    -0.000 C 
BRANCH  12  13
ATOM     13  C   UNL     1      87.518 323.451 191.408  1.00  0.00    -0.003 C 
ATOM     14  C   UNL     1      88.491 323.593 190.240  1.00  0.00     0.004 C 
ENDBRANCH  12  13
ENDBRANCH  11  12
ENDBRANCH  10  11
ENDBRANCH   9  10
ENDBRANCH   1   9
TORSDOF 10
ENDMDL
MODEL 5
REMARK VINA RESULT:    -5.404      1.121      1.883
REMARK INTER + INTRA:          -9.066
REMARK INTER:                  -8.720
REMARK INTRA:                  -0.346
REMARK UNBOUND:                -0.503
REMARK SMILES CCCCCCCCCCCC(=O)[O-]
REMARK SMILES IDX 7 1 8 2 9 3 10 4 11 5 12 6 13 7 14 8 6 9 5 10 4 11 3 12 2 13
REMARK SMILES IDX 1 14
REMARK H PARENT
REMARK Flexibility Score: inf
ROOT
ATOM      1  C   UNL     1     104.510 311.881 196.067  1.00  0.00     0.000 C 
ENDROOT
BRANCH   1   2
ATOM      2  C   UNL     1     103.766 311.314 197.290  1.00  0.00     0.000 C 
BRANCH   2   3
ATOM      3  C   UNL     1     103.835 312.242 198.512  1.00  0.00     0.000 C 
BRANCH   3   4
ATOM      4  C   UNL     1     103.198 311.577 199.742  1.00  0.00     0.006 C 
BRANCH   4   5
ATOM      5  C   UNL     1     104.098 311.667 200.981  1.00  0.00     0.053 C 
BRANCH   5   6
ATOM      6  C   UNL     1     103.398 311.185 202.214  1.00  0.00     0.041 C 
ATOM      7  O   UNL     1     104.017 311.110 203.307  1.00  0.00    -0.550 OA
ATOM      8  O   UNL     1     102.068 310.786 202.148  1.00  0.00    -0.550 OA
ENDBRANCH   5   6
ENDBRANCH   4   5
ENDBRANCH   3   4
ENDBRANCH   2   3
ENDBRANCH   1   2
BRANCH   1   9
ATOM      9  C   UNL     1     103.614 312.242 194.864  1.00  0.00     0.000 C 
BRANCH   9  10
ATOM     10  C   UNL     1     103.920 311.476 193.564  1.00  0.00    -0.000 C 
BRANCH  10  11
ATOM     11  C   UNL     1     105.290 311.840 192.967  1.00  0.00    -0.000 C 
BRANCH  11  12
ATOM     12  C   UNL     1     105.272 313.189 192.231  1.00  0.00    -0.000 C 
BRANCH  12  13
ATOM     13  C   UNL     1     103.991 313.398 191.408  1.00  0.00    -0.003 C 
ATOM     14  C   UNL     1     104.213 314.421 190.297  1.00  0.00     0.004 C 
ENDBRANCH  12  13
ENDBRANCH  11  12
ENDBRANCH  10  11
ENDBRANCH   9  10
ENDBRANCH   1   9
TORSDOF 10
ENDMDL
MODEL 6
REMARK VINA RESULT:    -5.358      1.024      1.694
REMARK INTER + INTRA:          -8.994
REMARK INTER:                  -8.572
REMARK INTRA:                  -0.423
REMARK UNBOUND:                -0.503
REMARK SMILES CCCCCCCCCCCC(=O)[O-]
REMARK SMILES IDX 7 1 8 2 9 3 10 4 11 5 12 6 13 7 14 8 6 9 5 10 4 11 3 12 2 13
REMARK SMILES IDX 1 14
REMARK H PARENT
REMARK Flexibility Score: inf
ROOT
ATOM      1  C   UNL     1     104.218 311.324 193.320  1.00  0.00     0.000 C 
ENDROOT
BRANCH   1   2
ATOM      2  C   UNL     1     103.521 311.747 194.626  1.00  0.00     0.000 C 
BRANCH   2   3
ATOM      3  C   UNL     1     104.513 312.062 195.756  1.00  0.00     0.000 C 
BRANCH   3   4
ATOM      4  C   UNL     1     104.032 311.468 197.089  1.00  0.00     0.006 C 
BRANCH   4   5
ATOM      5  C   UNL     1     103.584 312.552 198.078  1.00  0.00     0.053 C 
BRANCH   5   6
ATOM      6  C   UNL     1     103.486 312.022 199.476  1.00  0.00     0.041 C 
ATOM      7  O   UNL     1     104.526 311.854 200.165  1.00  0.00    -0.550 OA
ATOM      8  O   UNL     1     102.246 311.682 200.006  1.00  0.00    -0.550 OA
ENDBRANCH   5   6
ENDBRANCH   4   5
ENDBRANCH   3   4
ENDBRANCH   2   3
ENDBRANCH   1   2
BRANCH   1   9
ATOM      9  C   UNL     1     105.546 312.049 193.021  1.00  0.00     0.000 C 
BRANCH   9  10
ATOM     10  C   UNL     1     105.416 313.347 192.203  1.00  0.00    -0.000 C 
BRANCH  10  11
ATOM     11  C   UNL     1     104.117 313.407 191.383  1.00  0.00    -0.000 C 
BRANCH  11  12
ATOM     12  C   UNL     1     103.913 314.769 190.700  1.00  0.00    -0.000 C 
BRANCH  12  13
ATOM     13  C   UNL     1     103.262 314.646 189.314  1.00  0.00    -0.003 C 
ATOM     14  C   UNL     1     104.006 315.487 188.281  1.00  0.00     0.004 C 
ENDBRANCH  12  13
ENDBRANCH  11  12
ENDBRANCH  10  11
ENDBRANCH   9  10
ENDBRANCH   1   9
TORSDOF 10
ENDMDL
MODEL 7
REMARK VINA RESULT:    -5.351     20.249     21.552
REMARK INTER + INTRA:          -8.982
REMARK INTER:                  -7.744
REMARK INTRA:                  -1.238
REMARK UNBOUND:                -0.503
REMARK SMILES CCCCCCCCCCCC(=O)[O-]
REMARK SMILES IDX 7 1 8 2 9 3 10 4 11 5 12 6 13 7 14 8 6 9 5 10 4 11 3 12 2 13
REMARK SMILES IDX 1 14
REMARK H PARENT
REMARK Flexibility Score: inf
ROOT
ATOM      1  C   UNL     1      88.061 326.517 193.816  1.00  0.00     0.000 C 
ENDROOT
BRANCH   1   2
ATOM      2  C   UNL     1      88.081 325.286 192.892  1.00  0.00     0.000 C 
BRANCH   2   3
ATOM      3  C   UNL     1      86.721 324.575 192.817  1.00  0.00     0.000 C 
BRANCH   3   4
ATOM      4  C   UNL     1      86.703 323.547 191.675  1.00  0.00     0.006 C 
BRANCH   4   5
ATOM      5  C   UNL     1      88.115 323.178 191.203  1.00  0.00     0.053 C 
BRANCH   5   6
ATOM      6  C   UNL     1      88.212 323.144 189.709  1.00  0.00     0.041 C 
ATOM      7  O   UNL     1      87.359 322.512 189.032  1.00  0.00    -0.550 OA
ATOM      8  O   UNL     1      89.266 323.782 189.064  1.00  0.00    -0.550 OA
ENDBRANCH   5   6
ENDBRANCH   4   5
ENDBRANCH   3   4
ENDBRANCH   2   3
ENDBRANCH   1   2
BRANCH   1   9
ATOM      9  C   UNL     1      86.856 326.596 194.776  1.00  0.00     0.000 C 
BRANCH   9  10
ATOM     10  C   UNL     1      87.146 326.179 196.230  1.00  0.00    -0.000 C 
BRANCH  10  11
ATOM     11  C   UNL     1      88.651 326.088 196.534  1.00  0.00    -0.000 C 
BRANCH  11  12
ATOM     12  C   UNL     1      89.072 324.687 197.006  1.00  0.00    -0.000 C 
BRANCH  12  13
ATOM     13  C   UNL     1      88.281 323.565 196.315  1.00  0.00    -0.003 C 
ATOM     14  C   UNL     1      89.159 322.800 195.329  1.00  0.00     0.004 C 
ENDBRANCH  12  13
ENDBRANCH  11  12
ENDBRANCH  10  11
ENDBRANCH   9  10
ENDBRANCH   1   9
TORSDOF 10
ENDMDL
MODEL 8
REMARK VINA RESULT:    -5.306     19.618     21.239
REMARK INTER + INTRA:          -8.912
REMARK INTER:                  -8.364
REMARK INTRA:                  -0.548
REMARK UNBOUND:                -0.503
REMARK SMILES CCCCCCCCCCCC(=O)[O-]
REMARK SMILES IDX 7 1 8 2 9 3 10 4 11 5 12 6 13 7 14 8 6 9 5 10 4 11 3 12 2 13
REMARK SMILES IDX 1 14
REMARK H PARENT
REMARK Flexibility Score: inf
ROOT
ATOM      1  C   UNL     1      87.759 324.130 192.862  1.00  0.00     0.000 C 
ENDROOT
BRANCH   1   2
ATOM      2  C   UNL     1      88.070 324.202 191.356  1.00  0.00     0.000 C 
BRANCH   2   3
ATOM      3  C   UNL     1      88.048 322.824 190.677  1.00  0.00     0.000 C 
BRANCH   3   4
ATOM      4  C   UNL     1      88.215 322.960 189.156  1.00  0.00     0.006 C 
BRANCH   4   5
ATOM      5  C   UNL     1      89.593 323.514 188.771  1.00  0.00     0.053 C 
BRANCH   5   6
ATOM      6  C   UNL     1      90.562 322.419 188.445  1.00  0.00     0.041 C 
ATOM      7  O   UNL     1      91.769 322.516 188.790  1.00  0.00    -0.550 OA
ATOM      8  O   UNL     1      90.138 321.305 187.730  1.00  0.00    -0.550 OA
ENDBRANCH   5   6
ENDBRANCH   4   5
ENDBRANCH   3   4
ENDBRANCH   2   3
ENDBRANCH   1   2
BRANCH   1   9
ATOM      9  C   UNL     1      86.516 324.926 193.313  1.00  0.00     0.000 C 
BRANCH   9  10
ATOM     10  C   UNL     1      86.807 326.148 194.204  1.00  0.00    -0.000 C 
BRANCH  10  11
ATOM     11  C   UNL     1      88.284 326.574 194.167  1.00  0.00    -0.000 C 
BRANCH  11  12
ATOM     12  C   UNL     1      88.975 326.421 195.531  1.00  0.00    -0.000 C 
BRANCH  12  13
ATOM     13  C   UNL     1      88.007 325.981 196.640  1.00  0.00    -0.003 C 
ATOM     14  C   UNL     1      88.604 326.233 198.022  1.00  0.00     0.004 C 
ENDBRANCH  12  13
ENDBRANCH  11  12
ENDBRANCH  10  11
ENDBRANCH   9  10
ENDBRANCH   1   9
TORSDOF 10
ENDMDL
MODEL 9
REMARK VINA RESULT:    -5.238      5.052      8.261
REMARK INTER + INTRA:          -8.804
REMARK INTER:                  -8.130
REMARK INTRA:                  -0.674
REMARK UNBOUND:                -0.503
REMARK SMILES CCCCCCCCCCCC(=O)[O-]
REMARK SMILES IDX 7 1 8 2 9 3 10 4 11 5 12 6 13 7 14 8 6 9 5 10 4 11 3 12 2 13
REMARK SMILES IDX 1 14
REMARK H PARENT
REMARK Flexibility Score: inf
ROOT
ATOM      1  C   UNL     1     105.578 312.246 193.201  1.00  0.00     0.000 C 
ENDROOT
BRANCH   1   2
ATOM      2  C   UNL     1     105.557 313.338 192.116  1.00  0.00     0.000 C 
BRANCH   2   3
ATOM      3  C   UNL     1     104.214 313.415 191.375  1.00  0.00     0.000 C 
BRANCH   3   4
ATOM      4  C   UNL     1     103.915 314.856 190.930  1.00  0.00     0.006 C 
BRANCH   4   5
ATOM      5  C   UNL     1     104.736 315.265 189.701  1.00  0.00     0.053 C 
BRANCH   5   6
ATOM      6  C   UNL     1     103.894 315.326 188.464  1.00  0.00     0.041 C 
ATOM      7  O   UNL     1     104.233 316.062 187.501  1.00  0.00    -0.550 OA
ATOM      8  O   UNL     1     102.714 314.594 188.388  1.00  0.00    -0.550 OA
ENDBRANCH   5   6
ENDBRANCH   4   5
ENDBRANCH   3   4
ENDBRANCH   2   3
ENDBRANCH   1   2
BRANCH   1   9
ATOM      9  C   UNL     1     104.293 311.399 193.305  1.00  0.00     0.000 C 
BRANCH   9  10
ATOM     10  C   UNL     1     103.456 311.628 194.577  1.00  0.00    -0.000 C 
BRANCH  10  11
ATOM     11  C   UNL     1     103.665 313.025 195.184  1.00  0.00    -0.000 C 
BRANCH  11  12
ATOM     12  C   UNL     1     103.547 313.025 196.717  1.00  0.00    -0.000 C 
BRANCH  12  13
ATOM     13  C   UNL     1     103.930 311.674 197.341  1.00  0.00    -0.003 C 
ATOM     14  C   UNL     1     103.423 311.569 198.776  1.00  0.00     0.004 C 
ENDBRANCH  12  13
ENDBRANCH  11  12
ENDBRANCH  10  11
ENDBRANCH   9  10
ENDBRANCH   1   9
TORSDOF 10
ENDMDL
