MODEL 1
REMARK VINA RESULT:    -7.223      0.000      0.000
REMARK INTER + INTRA:          -8.784
REMARK INTER:                  -8.490
REMARK INTRA:                  -0.294
REMARK UNBOUND:                -0.294
REMARK SMILES O=c1cc(-c2ccc(O)c(O)c2)oc2cc(O)cc(O)c12
REMARK SMILES IDX 4 1 3 2 2 3 1 4 21 5 19 6 18 7 16 8 15 9 14 10 13 11 5 12
REMARK SMILES IDX 6 13 7 14 8 15 12 16 10 17 9 18 11 20 20 22 17 24
REMARK H PARENT 9 19 11 21 20 23 17 25
REMARK Flexibility Score: inf
ROOT
ATOM      1  C   UNL     1      29.191  23.415  48.766  1.00  0.00     0.138 A 
ATOM      2  C   UNL     1      30.504  22.941  48.890  1.00  0.00     0.100 A 
ATOM      3  C   UNL     1      30.960  22.487  50.128  1.00  0.00     0.197 A 
ATOM      4  O   UNL     1      32.125  22.016  50.194  1.00  0.00    -0.289 OA
ATOM      5  C   UNL     1      30.106  22.541  51.257  1.00  0.00     0.107 A 
ATOM      6  C   UNL     1      30.473  22.137  52.576  1.00  0.00     0.134 A 
ATOM      7  C   UNL     1      29.509  22.145  53.593  1.00  0.00     0.093 A 
ATOM      8  C   UNL     1      28.209  22.596  53.351  1.00  0.00     0.123 A 
ATOM      9  C   UNL     1      27.856  23.038  52.079  1.00  0.00     0.094 A 
ATOM     10  C   UNL     1      28.783  23.011  51.035  1.00  0.00     0.146 A 
ATOM     11  O   UNL     1      28.399  23.425  49.833  1.00  0.00    -0.456 OA
ENDROOT
BRANCH   1  12
ATOM     12  C   UNL     1      28.655  23.912  47.474  1.00  0.00     0.021 A 
ATOM     13  C   UNL     1      29.447  24.759  46.679  1.00  0.00     0.016 A 
ATOM     14  C   UNL     1      28.965  25.248  45.462  1.00  0.00     0.051 A 
ATOM     15  C   UNL     1      27.682  24.909  45.022  1.00  0.00     0.157 A 
ATOM     16  C   UNL     1      27.358  23.584  47.033  1.00  0.00     0.062 A 
ATOM     17  C   UNL     1      26.873  24.076  45.812  1.00  0.00     0.158 A 
BRANCH  15  18
ATOM     18  O   UNL     1      27.229  25.409  43.802  1.00  0.00    -0.504 OA
ATOM     19  H   UNL     1      27.862  25.792  43.110  1.00  0.00     0.293 HD
ENDBRANCH  15  18
BRANCH  17  20
ATOM     20  O   UNL     1      25.588  23.744  45.385  1.00  0.00    -0.504 OA
ATOM     21  H   UNL     1      24.764  24.150  45.814  1.00  0.00     0.293 HD
ENDBRANCH  17  20
ENDBRANCH   1  12
BRANCH   6  22
ATOM     22  O   UNL     1      31.763  21.745  52.945  1.00  0.00    -0.507 OA
ATOM     23  H   UNL     1      32.286  20.996  52.517  1.00  0.00     0.293 HD
ENDBRANCH   6  22
BRANCH   8  24
ATOM     24  O   UNL     1      27.263  22.614  54.373  1.00  0.00    -0.508 OA
ATOM     25  H   UNL     1      27.495  22.936  55.306  1.00  0.00     0.293 HD
ENDBRANCH   8  24
TORSDOF 5
ENDMDL
MODEL 2
REMARK VINA RESULT:    -7.161      1.863      3.023
REMARK INTER + INTRA:          -8.711
REMARK INTER:                  -8.400
REMARK INTRA:                  -0.311
REMARK UNBOUND:                -0.294
REMARK SMILES O=c1cc(-c2ccc(O)c(O)c2)oc2cc(O)cc(O)c12
REMARK SMILES IDX 4 1 3 2 2 3 1 4 21 5 19 6 18 7 16 8 15 9 14 10 13 11 5 12
REMARK SMILES IDX 6 13 7 14 8 15 12 16 10 17 9 18 11 20 20 22 17 24
REMARK H PARENT 9 19 11 21 20 23 17 25
REMARK Flexibility Score: inf
ROOT
ATOM      1  C   UNL     1      27.820  23.455  49.320  1.00  0.00     0.138 A 
ATOM      2  C   UNL     1      26.832  22.521  49.659  1.00  0.00     0.100 A 
ATOM      3  C   UNL     1      26.735  22.066  50.975  1.00  0.00     0.197 A 
ATOM      4  O   UNL     1      25.802  21.270  51.259  1.00  0.00    -0.289 OA
ATOM      5  C   UNL     1      27.656  22.522  51.948  1.00  0.00     0.107 A 
ATOM      6  C   UNL     1      27.675  22.102  53.312  1.00  0.00     0.134 A 
ATOM      7  C   UNL     1      28.574  22.699  54.206  1.00  0.00     0.093 A 
ATOM      8  C   UNL     1      29.493  23.658  53.771  1.00  0.00     0.123 A 
ATOM      9  C   UNL     1      29.514  24.039  52.432  1.00  0.00     0.094 A 
ATOM     10  C   UNL     1      28.608  23.488  51.523  1.00  0.00     0.146 A 
ATOM     11  O   UNL     1      28.652  23.892  50.258  1.00  0.00    -0.456 OA
ENDROOT
BRANCH   1  12
ATOM     12  C   UNL     1      27.970  23.971  47.935  1.00  0.00     0.021 A 
ATOM     13  C   UNL     1      26.881  23.897  47.050  1.00  0.00     0.016 A 
ATOM     14  C   UNL     1      26.996  24.368  45.740  1.00  0.00     0.051 A 
ATOM     15  C   UNL     1      28.202  24.912  45.288  1.00  0.00     0.157 A 
ATOM     16  C   UNL     1      29.187  24.507  47.471  1.00  0.00     0.062 A 
ATOM     17  C   UNL     1      29.304  24.979  46.156  1.00  0.00     0.158 A 
BRANCH  15  18
ATOM     18  O   UNL     1      28.287  25.376  43.976  1.00  0.00    -0.504 OA
ATOM     19  H   UNL     1      28.060  26.331  43.727  1.00  0.00     0.293 HD
ENDBRANCH  15  18
BRANCH  17  20
ATOM     20  O   UNL     1      30.513  25.508  45.707  1.00  0.00    -0.504 OA
ATOM     21  H   UNL     1      31.321  25.578  46.316  1.00  0.00     0.293 HD
ENDBRANCH  17  20
ENDBRANCH   1  12
BRANCH   6  22
ATOM     22  O   UNL     1      26.857  21.096  53.834  1.00  0.00    -0.507 OA
ATOM     23  H   UNL     1      25.990  20.783  53.424  1.00  0.00     0.293 HD
ENDBRANCH   6  22
BRANCH   8  24
ATOM     24  O   UNL     1      30.392  24.235  54.665  1.00  0.00    -0.508 OA
ATOM     25  H   UNL     1      31.295  24.582  54.360  1.00  0.00     0.293 HD
ENDBRANCH   8  24
TORSDOF 5
ENDMDL
MODEL 3
REMARK VINA RESULT:    -6.901      1.437      2.019
REMARK INTER + INTRA:          -8.406
REMARK INTER:                  -8.110
REMARK INTRA:                  -0.296
REMARK UNBOUND:                -0.294
REMARK SMILES O=c1cc(-c2ccc(O)c(O)c2)oc2cc(O)cc(O)c12
REMARK SMILES IDX 4 1 3 2 2 3 1 4 21 5 19 6 18 7 16 8 15 9 14 10 13 11 5 12
REMARK SMILES IDX 6 13 7 14 8 15 12 16 10 17 9 18 11 20 20 22 17 24
REMARK H PARENT 9 19 11 21 20 23 17 25
REMARK Flexibility Score: inf
ROOT
ATOM      1  C   UNL     1      28.936  23.817  49.782  1.00  0.00     0.138 A 
ATOM      2  C   UNL     1      30.200  24.144  50.292  1.00  0.00     0.100 A 
ATOM      3  C   UNL     1      30.512  23.832  51.616  1.00  0.00     0.197 A 
ATOM      4  O   UNL     1      31.673  24.088  52.027  1.00  0.00    -0.289 OA
ATOM      5  C   UNL     1      29.539  23.222  52.444  1.00  0.00     0.107 A 
ATOM      6  C   UNL     1      29.733  22.889  53.818  1.00  0.00     0.134 A 
ATOM      7  C   UNL     1      28.729  22.197  54.509  1.00  0.00     0.093 A 
ATOM      8  C   UNL     1      27.517  21.878  53.891  1.00  0.00     0.123 A 
ATOM      9  C   UNL     1      27.300  22.242  52.565  1.00  0.00     0.094 A 
ATOM     10  C   UNL     1      28.294  22.902  51.838  1.00  0.00     0.146 A 
ATOM     11  O   UNL     1      28.051  23.216  50.570  1.00  0.00    -0.456 OA
ENDROOT
BRANCH   1  12
ATOM     12  C   UNL     1      28.550  24.128  48.382  1.00  0.00     0.021 A 
ATOM     13  C   UNL     1      27.222  23.919  47.970  1.00  0.00     0.016 A 
ATOM     14  C   UNL     1      26.833  24.197  46.658  1.00  0.00     0.051 A 
ATOM     15  C   UNL     1      27.762  24.678  45.731  1.00  0.00     0.157 A 
ATOM     16  C   UNL     1      29.486  24.600  47.442  1.00  0.00     0.062 A 
ATOM     17  C   UNL     1      29.096  24.878  46.124  1.00  0.00     0.158 A 
BRANCH  15  18
ATOM     18  O   UNL     1      27.344  24.948  44.429  1.00  0.00    -0.504 OA
ATOM     19  H   UNL     1      27.645  25.775  43.928  1.00  0.00     0.293 HD
ENDBRANCH  15  18
BRANCH  17  20
ATOM     20  O   UNL     1      30.031  25.345  45.201  1.00  0.00    -0.504 OA
ATOM     21  H   UNL     1      30.716  24.728  44.778  1.00  0.00     0.293 HD
ENDBRANCH  17  20
ENDBRANCH   1  12
BRANCH   6  22
ATOM     22  O   UNL     1      30.871  23.230  54.555  1.00  0.00    -0.507 OA
ATOM     23  H   UNL     1      31.748  23.533  54.159  1.00  0.00     0.293 HD
ENDBRANCH   6  22
BRANCH   8  24
ATOM     24  O   UNL     1      26.520  21.203  54.591  1.00  0.00    -0.508 OA
ATOM     25  H   UNL     1      25.622  20.997  54.168  1.00  0.00     0.293 HD
ENDBRANCH   8  24
TORSDOF 5
ENDMDL
MODEL 4
REMARK VINA RESULT:    -6.465      1.596      7.287
REMARK INTER + INTRA:          -7.893
REMARK INTER:                  -7.629
REMARK INTRA:                  -0.264
REMARK UNBOUND:                -0.294
REMARK SMILES O=c1cc(-c2ccc(O)c(O)c2)oc2cc(O)cc(O)c12
REMARK SMILES IDX 4 1 3 2 2 3 1 4 21 5 19 6 18 7 16 8 15 9 14 10 13 11 5 12
REMARK SMILES IDX 6 13 7 14 8 15 12 16 10 17 9 18 11 20 20 22 17 24
REMARK H PARENT 9 19 11 21 20 23 17 25
REMARK Flexibility Score: inf
ROOT
ATOM      1  C   UNL     1      28.886  23.399  50.015  1.00  0.00     0.138 A 
ATOM      2  C   UNL     1      27.573  23.019  49.704  1.00  0.00     0.100 A 
ATOM      3  C   UNL     1      27.067  23.266  48.427  1.00  0.00     0.197 A 
ATOM      4  O   UNL     1      25.905  22.863  48.163  1.00  0.00    -0.289 OA
ATOM      5  C   UNL     1      27.869  23.930  47.468  1.00  0.00     0.107 A 
ATOM      6  C   UNL     1      27.448  24.265  46.146  1.00  0.00     0.134 A 
ATOM      7  C   UNL     1      28.364  24.834  45.253  1.00  0.00     0.093 A 
ATOM      8  C   UNL     1      29.669  25.134  45.652  1.00  0.00     0.123 A 
ATOM      9  C   UNL     1      30.075  24.855  46.955  1.00  0.00     0.094 A 
ATOM     10  C   UNL     1      29.195  24.256  47.859  1.00  0.00     0.146 A 
ATOM     11  O   UNL     1      29.629  23.992  49.087  1.00  0.00    -0.456 OA
ENDROOT
BRANCH   1  12
ATOM     12  C   UNL     1      29.475  23.163  51.358  1.00  0.00     0.021 A 
ATOM     13  C   UNL     1      30.450  22.164  51.518  1.00  0.00     0.016 A 
ATOM     14  C   UNL     1      31.015  21.916  52.771  1.00  0.00     0.051 A 
ATOM     15  C   UNL     1      30.611  22.653  53.887  1.00  0.00     0.157 A 
ATOM     16  C   UNL     1      29.060  23.894  52.488  1.00  0.00     0.062 A 
ATOM     17  C   UNL     1      29.626  23.645  53.747  1.00  0.00     0.158 A 
BRANCH  15  18
ATOM     18  O   UNL     1      31.194  22.385  55.125  1.00  0.00    -0.504 OA
ATOM     19  H   UNL     1      31.027  22.968  55.936  1.00  0.00     0.293 HD
ENDBRANCH  15  18
BRANCH  17  20
ATOM     20  O   UNL     1      29.210  24.375  54.859  1.00  0.00    -0.504 OA
ATOM     21  H   UNL     1      28.531  25.124  54.779  1.00  0.00     0.293 HD
ENDBRANCH  17  20
ENDBRANCH   1  12
BRANCH   6  22
ATOM     22  O   UNL     1      26.146  24.084  45.668  1.00  0.00    -0.507 OA
ATOM     23  H   UNL     1      25.495  24.826  45.463  1.00  0.00     0.293 HD
ENDBRANCH   6  22
BRANCH   8  24
ATOM     24  O   UNL     1      30.569  25.714  44.761  1.00  0.00    -0.508 OA
ATOM     25  H   UNL     1      31.004  26.609  44.953  1.00  0.00     0.293 HD
ENDBRANCH   8  24
TORSDOF 5
ENDMDL
MODEL 5
REMARK VINA RESULT:    -6.352     12.134     13.773
REMARK INTER + INTRA:          -7.760
REMARK INTER:                  -7.484
REMARK INTRA:                  -0.276
REMARK UNBOUND:                -0.294
REMARK SMILES O=c1cc(-c2ccc(O)c(O)c2)oc2cc(O)cc(O)c12
REMARK SMILES IDX 4 1 3 2 2 3 1 4 21 5 19 6 18 7 16 8 15 9 14 10 13 11 5 12
REMARK SMILES IDX 6 13 7 14 8 15 12 16 10 17 9 18 11 20 20 22 17 24
REMARK H PARENT 9 19 11 21 20 23 17 25
REMARK Flexibility Score: inf
ROOT
ATOM      1  C   UNL     1      16.153  28.429  51.258  1.00  0.00     0.138 A 
ATOM      2  C   UNL     1      16.289  29.752  51.700  1.00  0.00     0.100 A 
ATOM      3  C   UNL     1      17.172  30.045  52.740  1.00  0.00     0.197 A 
ATOM      4  O   UNL     1      17.312  31.250  53.076  1.00  0.00    -0.289 OA
ATOM      5  C   UNL     1      17.896  29.001  53.365  1.00  0.00     0.107 A 
ATOM      6  C   UNL     1      18.800  29.177  54.456  1.00  0.00     0.134 A 
ATOM      7  C   UNL     1      19.534  28.080  54.927  1.00  0.00     0.093 A 
ATOM      8  C   UNL     1      19.355  26.806  54.384  1.00  0.00     0.123 A 
ATOM      9  C   UNL     1      18.441  26.616  53.351  1.00  0.00     0.094 A 
ATOM     10  C   UNL     1      17.718  27.694  52.836  1.00  0.00     0.146 A 
ATOM     11  O   UNL     1      16.868  27.472  51.839  1.00  0.00    -0.456 OA
ENDROOT
BRANCH   1  12
ATOM     12  C   UNL     1      15.227  28.060  50.158  1.00  0.00     0.021 A 
ATOM     13  C   UNL     1      13.847  28.275  50.317  1.00  0.00     0.016 A 
ATOM     14  C   UNL     1      12.952  27.931  49.301  1.00  0.00     0.051 A 
ATOM     15  C   UNL     1      13.416  27.358  48.114  1.00  0.00     0.157 A 
ATOM     16  C   UNL     1      15.689  27.470  48.965  1.00  0.00     0.062 A 
ATOM     17  C   UNL     1      14.791  27.123  47.946  1.00  0.00     0.158 A 
BRANCH  15  18
ATOM     18  O   UNL     1      12.500  27.026  47.117  1.00  0.00    -0.504 OA
ATOM     19  H   UNL     1      11.733  27.639  46.866  1.00  0.00     0.293 HD
ENDBRANCH  15  18
BRANCH  17  20
ATOM     20  O   UNL     1      15.259  26.540  46.769  1.00  0.00    -0.504 OA
ATOM     21  H   UNL     1      15.761  25.659  46.775  1.00  0.00     0.293 HD
ENDBRANCH  17  20
ENDBRANCH   1  12
BRANCH   6  22
ATOM     22  O   UNL     1      18.995  30.388  55.125  1.00  0.00    -0.507 OA
ATOM     23  H   UNL     1      19.354  31.232  54.704  1.00  0.00     0.293 HD
ENDBRANCH   6  22
BRANCH   8  24
ATOM     24  O   UNL     1      20.080  25.720  54.869  1.00  0.00    -0.508 OA
ATOM     25  H   UNL     1      20.774  25.828  55.600  1.00  0.00     0.293 HD
ENDBRANCH   8  24
TORSDOF 5
ENDMDL
MODEL 6
REMARK VINA RESULT:    -6.143     13.668     16.380
REMARK INTER + INTRA:          -7.514
REMARK INTER:                  -7.219
REMARK INTRA:                  -0.296
REMARK UNBOUND:                -0.294
REMARK SMILES O=c1cc(-c2ccc(O)c(O)c2)oc2cc(O)cc(O)c12
REMARK SMILES IDX 4 1 3 2 2 3 1 4 21 5 19 6 18 7 16 8 15 9 14 10 13 11 5 12
REMARK SMILES IDX 6 13 7 14 8 15 12 16 10 17 9 18 11 20 20 22 17 24
REMARK H PARENT 9 19 11 21 20 23 17 25
REMARK Flexibility Score: inf
ROOT
ATOM      1  C   UNL     1      15.835  22.074  42.766  1.00  0.00     0.138 A 
ATOM      2  C   UNL     1      17.083  22.553  42.344  1.00  0.00     0.100 A 
ATOM      3  C   UNL     1      17.148  23.679  41.522  1.00  0.00     0.197 A 
ATOM      4  O   UNL     1      18.284  24.117  41.207  1.00  0.00    -0.289 OA
ATOM      5  C   UNL     1      15.954  24.307  41.092  1.00  0.00     0.107 A 
ATOM      6  C   UNL     1      15.896  25.441  40.227  1.00  0.00     0.134 A 
ATOM      7  C   UNL     1      14.658  26.035  39.949  1.00  0.00     0.093 A 
ATOM      8  C   UNL     1      13.472  25.502  40.460  1.00  0.00     0.123 A 
ATOM      9  C   UNL     1      13.514  24.367  41.265  1.00  0.00     0.094 A 
ATOM     10  C   UNL     1      14.735  23.771  41.588  1.00  0.00     0.146 A 
ATOM     11  O   UNL     1      14.731  22.700  42.375  1.00  0.00    -0.456 OA
ENDROOT
BRANCH   1  12
ATOM     12  C   UNL     1      15.707  20.879  43.638  1.00  0.00     0.021 A 
ATOM     13  C   UNL     1      14.462  20.576  44.215  1.00  0.00     0.016 A 
ATOM     14  C   UNL     1      14.314  19.461  45.045  1.00  0.00     0.051 A 
ATOM     15  C   UNL     1      15.409  18.637  45.322  1.00  0.00     0.157 A 
ATOM     16  C   UNL     1      16.810  20.053  43.931  1.00  0.00     0.062 A 
ATOM     17  C   UNL     1      16.663  18.935  44.765  1.00  0.00     0.158 A 
BRANCH  15  18
ATOM     18  O   UNL     1      15.231  17.531  46.152  1.00  0.00    -0.504 OA
ATOM     19  H   UNL     1      15.637  16.627  45.938  1.00  0.00     0.293 HD
ENDBRANCH  15  18
BRANCH  17  20
ATOM     20  O   UNL     1      17.761  18.123  45.048  1.00  0.00    -0.504 OA
ATOM     21  H   UNL     1      18.227  17.589  44.323  1.00  0.00     0.293 HD
ENDBRANCH  17  20
ENDBRANCH   1  12
BRANCH   6  22
ATOM     22  O   UNL     1      17.011  26.005  39.599  1.00  0.00    -0.507 OA
ATOM     23  H   UNL     1      17.188  25.985  38.606  1.00  0.00     0.293 HD
ENDBRANCH   6  22
BRANCH   8  24
ATOM     24  O   UNL     1      12.245  26.092  40.166  1.00  0.00    -0.508 OA
ATOM     25  H   UNL     1      11.379  25.567  40.216  1.00  0.00     0.293 HD
ENDBRANCH   8  24
TORSDOF 5
ENDMDL
MODEL 7
REMARK VINA RESULT:    -5.817     13.201     15.569
REMARK INTER + INTRA:          -7.131
REMARK INTER:                  -6.835
REMARK INTRA:                  -0.297
REMARK UNBOUND:                -0.294
REMARK SMILES O=c1cc(-c2ccc(O)c(O)c2)oc2cc(O)cc(O)c12
REMARK SMILES IDX 4 1 3 2 2 3 1 4 21 5 19 6 18 7 16 8 15 9 14 10 13 11 5 12
REMARK SMILES IDX 6 13 7 14 8 15 12 16 10 17 9 18 11 20 20 22 17 24
REMARK H PARENT 9 19 11 21 20 23 17 25
REMARK Flexibility Score: inf
ROOT
ATOM      1  C   UNL     1      15.922  27.891  51.323  1.00  0.00     0.138 A 
ATOM      2  C   UNL     1      16.041  26.495  51.370  1.00  0.00     0.100 A 
ATOM      3  C   UNL     1      15.273  25.707  50.513  1.00  0.00     0.197 A 
ATOM      4  O   UNL     1      15.443  24.461  50.541  1.00  0.00    -0.289 OA
ATOM      5  C   UNL     1      14.353  26.320  49.628  1.00  0.00     0.107 A 
ATOM      6  C   UNL     1      13.493  25.617  48.731  1.00  0.00     0.134 A 
ATOM      7  C   UNL     1      12.696  26.337  47.832  1.00  0.00     0.093 A 
ATOM      8  C   UNL     1      12.685  27.734  47.837  1.00  0.00     0.123 A 
ATOM      9  C   UNL     1      13.484  28.429  48.741  1.00  0.00     0.094 A 
ATOM     10  C   UNL     1      14.316  27.741  49.627  1.00  0.00     0.146 A 
ATOM     11  O   UNL     1      15.076  28.444  50.461  1.00  0.00    -0.456 OA
ENDROOT
BRANCH   1  12
ATOM     12  C   UNL     1      16.713  28.777  52.214  1.00  0.00     0.021 A 
ATOM     13  C   UNL     1      16.632  30.171  52.050  1.00  0.00     0.016 A 
ATOM     14  C   UNL     1      17.370  31.028  52.870  1.00  0.00     0.051 A 
ATOM     15  C   UNL     1      18.210  30.509  53.860  1.00  0.00     0.157 A 
ATOM     16  C   UNL     1      17.571  28.259  53.204  1.00  0.00     0.062 A 
ATOM     17  C   UNL     1      18.314  29.119  54.026  1.00  0.00     0.158 A 
BRANCH  15  18
ATOM     18  O   UNL     1      18.933  31.389  54.665  1.00  0.00    -0.504 OA
ATOM     19  H   UNL     1      18.490  31.947  55.385  1.00  0.00     0.293 HD
ENDBRANCH  15  18
BRANCH  17  20
ATOM     20  O   UNL     1      19.159  28.596  55.004  1.00  0.00    -0.504 OA
ATOM     21  H   UNL     1      19.958  29.116  55.350  1.00  0.00     0.293 HD
ENDBRANCH  17  20
ENDBRANCH   1  12
BRANCH   6  22
ATOM     22  O   UNL     1      13.366  24.225  48.697  1.00  0.00    -0.507 OA
ATOM     23  H   UNL     1      12.633  23.722  48.221  1.00  0.00     0.293 HD
ENDBRANCH   6  22
BRANCH   8  24
ATOM     24  O   UNL     1      11.877  28.441  46.950  1.00  0.00    -0.508 OA
ATOM     25  H   UNL     1      10.932  28.713  47.194  1.00  0.00     0.293 HD
ENDBRANCH   8  24
TORSDOF 5
ENDMDL
MODEL 8
REMARK VINA RESULT:    -5.809     11.335     13.515
REMARK INTER + INTRA:          -7.122
REMARK INTER:                  -6.842
REMARK INTRA:                  -0.280
REMARK UNBOUND:                -0.294
REMARK SMILES O=c1cc(-c2ccc(O)c(O)c2)oc2cc(O)cc(O)c12
REMARK SMILES IDX 4 1 3 2 2 3 1 4 21 5 19 6 18 7 16 8 15 9 14 10 13 11 5 12
REMARK SMILES IDX 6 13 7 14 8 15 12 16 10 17 9 18 11 20 20 22 17 24
REMARK H PARENT 9 19 11 21 20 23 17 25
REMARK Flexibility Score: inf
ROOT
ATOM      1  C   UNL     1      17.401  25.997  53.125  1.00  0.00     0.138 A 
ATOM      2  C   UNL     1      16.073  26.375  53.365  1.00  0.00     0.100 A 
ATOM      3  C   UNL     1      15.785  27.689  53.739  1.00  0.00     0.197 A 
ATOM      4  O   UNL     1      14.578  28.010  53.892  1.00  0.00    -0.289 OA
ATOM      5  C   UNL     1      16.839  28.619  53.909  1.00  0.00     0.107 A 
ATOM      6  C   UNL     1      16.669  29.975  54.321  1.00  0.00     0.134 A 
ATOM      7  C   UNL     1      17.779  30.829  54.359  1.00  0.00     0.093 A 
ATOM      8  C   UNL     1      19.060  30.360  54.057  1.00  0.00     0.123 A 
ATOM      9  C   UNL     1      19.242  29.026  53.702  1.00  0.00     0.094 A 
ATOM     10  C   UNL     1      18.151  28.158  53.621  1.00  0.00     0.146 A 
ATOM     11  O   UNL     1      18.368  26.898  53.261  1.00  0.00    -0.456 OA
ENDROOT
BRANCH   1  12
ATOM     12  C   UNL     1      17.763  24.613  52.728  1.00  0.00     0.021 A 
ATOM     13  C   UNL     1      18.910  24.015  53.279  1.00  0.00     0.016 A 
ATOM     14  C   UNL     1      19.279  22.717  52.918  1.00  0.00     0.051 A 
ATOM     15  C   UNL     1      18.516  21.998  51.993  1.00  0.00     0.157 A 
ATOM     16  C   UNL     1      17.006  23.889  51.786  1.00  0.00     0.062 A 
ATOM     17  C   UNL     1      17.377  22.587  51.422  1.00  0.00     0.158 A 
BRANCH  15  18
ATOM     18  O   UNL     1      18.908  20.703  51.653  1.00  0.00    -0.504 OA
ATOM     19  H   UNL     1      18.260  20.031  51.261  1.00  0.00     0.293 HD
ENDBRANCH  15  18
BRANCH  17  20
ATOM     20  O   UNL     1      16.620  21.879  50.490  1.00  0.00    -0.504 OA
ATOM     21  H   UNL     1      17.017  21.561  49.613  1.00  0.00     0.293 HD
ENDBRANCH  17  20
ENDBRANCH   1  12
BRANCH   6  22
ATOM     22  O   UNL     1      15.448  30.526  54.722  1.00  0.00    -0.507 OA
ATOM     23  H   UNL     1      15.344  31.349  55.295  1.00  0.00     0.293 HD
ENDBRANCH   6  22
BRANCH   8  24
ATOM     24  O   UNL     1      20.159  31.214  54.112  1.00  0.00    -0.508 OA
ATOM     25  H   UNL     1      20.049  32.216  54.221  1.00  0.00     0.293 HD
ENDBRANCH   8  24
TORSDOF 5
ENDMDL
MODEL 9
REMARK VINA RESULT:    -5.751     12.516     13.902
REMARK INTER + INTRA:          -7.053
REMARK INTER:                  -6.778
REMARK INTRA:                  -0.275
REMARK UNBOUND:                -0.294
REMARK SMILES O=c1cc(-c2ccc(O)c(O)c2)oc2cc(O)cc(O)c12
REMARK SMILES IDX 4 1 3 2 2 3 1 4 21 5 19 6 18 7 16 8 15 9 14 10 13 11 5 12
REMARK SMILES IDX 6 13 7 14 8 15 12 16 10 17 9 18 11 20 20 22 17 24
REMARK H PARENT 9 19 11 21 20 23 17 25
REMARK Flexibility Score: inf
ROOT
ATOM      1  C   UNL     1      15.981  27.633  51.177  1.00  0.00     0.138 A 
ATOM      2  C   UNL     1      16.588  26.454  51.633  1.00  0.00     0.100 A 
ATOM      3  C   UNL     1      17.450  26.501  52.729  1.00  0.00     0.197 A 
ATOM      4  O   UNL     1      17.935  25.418  53.148  1.00  0.00    -0.289 OA
ATOM      5  C   UNL     1      17.735  27.741  53.349  1.00  0.00     0.107 A 
ATOM      6  C   UNL     1      18.624  27.916  54.452  1.00  0.00     0.134 A 
ATOM      7  C   UNL     1      18.750  29.179  55.044  1.00  0.00     0.093 A 
ATOM      8  C   UNL     1      18.063  30.285  54.538  1.00  0.00     0.123 A 
ATOM      9  C   UNL     1      17.230  30.134  53.432  1.00  0.00     0.094 A 
ATOM     10  C   UNL     1      17.057  28.881  52.839  1.00  0.00     0.146 A 
ATOM     11  O   UNL     1      16.239  28.780  51.797  1.00  0.00    -0.456 OA
ENDROOT
BRANCH   1  12
ATOM     12  C   UNL     1      15.057  27.641  50.015  1.00  0.00     0.021 A 
ATOM     13  C   UNL     1      13.814  28.288  50.126  1.00  0.00     0.016 A 
ATOM     14  C   UNL     1      12.923  28.306  49.050  1.00  0.00     0.051 A 
ATOM     15  C   UNL     1      13.252  27.671  47.850  1.00  0.00     0.157 A 
ATOM     16  C   UNL     1      15.378  26.991  48.807  1.00  0.00     0.062 A 
ATOM     17  C   UNL     1      14.483  27.007  47.728  1.00  0.00     0.158 A 
BRANCH  15  18
ATOM     18  O   UNL     1      12.343  27.707  46.793  1.00  0.00    -0.504 OA
ATOM     19  H   UNL     1      11.776  28.523  46.598  1.00  0.00     0.293 HD
ENDBRANCH  15  18
BRANCH  17  20
ATOM     20  O   UNL     1      14.812  26.361  46.537  1.00  0.00    -0.504 OA
ATOM     21  H   UNL     1      15.654  25.803  46.449  1.00  0.00     0.293 HD
ENDBRANCH  17  20
ENDBRANCH   1  12
BRANCH   6  22
ATOM     22  O   UNL     1      19.419  26.897  54.986  1.00  0.00    -0.507 OA
ATOM     23  H   UNL     1      19.070  26.060  55.427  1.00  0.00     0.293 HD
ENDBRANCH   6  22
BRANCH   8  24
ATOM     24  O   UNL     1      18.206  31.539  55.125  1.00  0.00    -0.508 OA
ATOM     25  H   UNL     1      18.281  32.382  54.566  1.00  0.00     0.293 HD
ENDBRANCH   8  24
TORSDOF 5
ENDMDL
