MODEL 1
REMARK VINA RESULT:    -3.251      0.000      0.000
REMARK INTER + INTRA:          -8.716
REMARK INTER:                  -6.292
REMARK INTRA:                  -2.423
REMARK UNBOUND:                -2.423
REMARK SMILES CCCCCCCCCCCCCCCCCC(=O)[O-]
REMARK SMILES IDX 10 1 11 2 12 3 13 4 14 5 15 6 16 7 17 8 18 9 19 10 20 11
REMARK SMILES IDX 9 12 8 13 7 14 6 15 5 16 4 17 3 18 2 19 1 20
REMARK H PARENT
REMARK Flexibility Score: inf
ROOT
ATOM      1  C   UNL     1      19.708   6.861  35.390  1.00  0.00     0.000 C 
ENDROOT
BRANCH   1   2
ATOM      2  C   UNL     1      20.425   6.165  36.567  1.00  0.00     0.000 C 
BRANCH   2   3
ATOM      3  C   UNL     1      21.841   5.664  36.229  1.00  0.00     0.000 C 
BRANCH   3   4
ATOM      4  C   UNL     1      21.947   4.134  36.203  1.00  0.00     0.000 C 
BRANCH   4   5
ATOM      5  C   UNL     1      22.038   3.606  34.765  1.00  0.00     0.000 C 
BRANCH   5   6
ATOM      6  C   UNL     1      22.333   4.718  33.746  1.00  0.00     0.000 C 
BRANCH   6   7
ATOM      7  C   UNL     1      21.271   4.804  32.636  1.00  0.00     0.006 C 
BRANCH   7   8
ATOM      8  C   UNL     1      21.829   4.399  31.265  1.00  0.00     0.053 C 
BRANCH   8   9
ATOM      9  C   UNL     1      21.817   2.913  31.077  1.00  0.00     0.041 C 
ATOM     10  O   UNL     1      22.769   2.341  30.485  1.00  0.00    -0.550 OA
ATOM     11  O   UNL     1      20.734   2.165  31.521  1.00  0.00    -0.550 OA
ENDBRANCH   8   9
ENDBRANCH   7   8
ENDBRANCH   6   7
ENDBRANCH   5   6
ENDBRANCH   4   5
ENDBRANCH   3   4
ENDBRANCH   2   3
ENDBRANCH   1   2
BRANCH   1  12
ATOM     12  C   UNL     1      19.365   8.330  35.700  1.00  0.00     0.000 C 
BRANCH  12  13
ATOM     13  C   UNL     1      20.424   9.318  35.177  1.00  0.00    -0.000 C 
BRANCH  13  14
ATOM     14  C   UNL     1      21.216  10.074  36.263  1.00  0.00    -0.000 C 
BRANCH  14  15
ATOM     15  C   UNL     1      22.414   9.314  36.861  1.00  0.00    -0.000 C 
BRANCH  15  16
ATOM     16  C   UNL     1      22.578   9.536  38.374  1.00  0.00    -0.000 C 
BRANCH  16  17
ATOM     17  C   UNL     1      22.127   8.318  39.196  1.00  0.00    -0.000 C 
BRANCH  17  18
ATOM     18  C   UNL     1      20.918   8.623  40.093  1.00  0.00    -0.000 C 
BRANCH  18  19
ATOM     19  C   UNL     1      19.606   8.468  39.315  1.00  0.00    -0.003 C 
ATOM     20  C   UNL     1      18.897   9.809  39.153  1.00  0.00     0.004 C 
ENDBRANCH  18  19
ENDBRANCH  17  18
ENDBRANCH  16  17
ENDBRANCH  15  16
ENDBRANCH  14  15
ENDBRANCH  13  14
ENDBRANCH  12  13
ENDBRANCH   1  12
TORSDOF 16
ENDMDL
MODEL 2
REMARK VINA RESULT:    -3.197      9.354     11.293
REMARK INTER + INTRA:          -8.611
REMARK INTER:                  -5.435
REMARK INTRA:                  -3.176
REMARK UNBOUND:                -2.423
REMARK SMILES CCCCCCCCCCCCCCCCCC(=O)[O-]
REMARK SMILES IDX 10 1 11 2 12 3 13 4 14 5 15 6 16 7 17 8 18 9 19 10 20 11
REMARK SMILES IDX 9 12 8 13 7 14 6 15 5 16 4 17 3 18 2 19 1 20
REMARK H PARENT
REMARK Flexibility Score: inf
ROOT
ATOM      1  C   UNL     1       9.991   6.210  34.263  1.00  0.00     0.000 C 
ENDROOT
BRANCH   1   2
ATOM      2  C   UNL     1      10.941   5.291  35.060  1.00  0.00     0.000 C 
BRANCH   2   3
ATOM      3  C   UNL     1      10.981   3.839  34.550  1.00  0.00     0.000 C 
BRANCH   3   4
ATOM      4  C   UNL     1      12.305   3.478  33.865  1.00  0.00     0.000 C 
BRANCH   4   5
ATOM      5  C   UNL     1      13.176   4.722  33.643  1.00  0.00     0.000 C 
BRANCH   5   6
ATOM      6  C   UNL     1      13.402   5.024  32.152  1.00  0.00     0.000 C 
BRANCH   6   7
ATOM      7  C   UNL     1      13.459   3.752  31.290  1.00  0.00     0.006 C 
BRANCH   7   8
ATOM      8  C   UNL     1      13.712   4.065  29.809  1.00  0.00     0.053 C 
BRANCH   8   9
ATOM      9  C   UNL     1      15.112   4.539  29.572  1.00  0.00     0.041 C 
ATOM     10  O   UNL     1      15.323   5.573  28.885  1.00  0.00    -0.550 OA
ATOM     11  O   UNL     1      16.185   3.818  30.078  1.00  0.00    -0.550 OA
ENDBRANCH   8   9
ENDBRANCH   7   8
ENDBRANCH   6   7
ENDBRANCH   5   6
ENDBRANCH   4   5
ENDBRANCH   3   4
ENDBRANCH   2   3
ENDBRANCH   1   2
BRANCH   1  12
ATOM     12  C   UNL     1      10.685   7.502  33.791  1.00  0.00     0.000 C 
BRANCH  12  13
ATOM     13  C   UNL     1      10.637   7.687  32.263  1.00  0.00    -0.000 C 
BRANCH  13  14
ATOM     14  C   UNL     1       9.799   6.643  31.497  1.00  0.00    -0.000 C 
BRANCH  14  15
ATOM     15  C   UNL     1      10.430   6.108  30.198  1.00  0.00    -0.000 C 
BRANCH  15  16
ATOM     16  C   UNL     1       9.960   4.690  29.836  1.00  0.00    -0.000 C 
BRANCH  16  17
ATOM     17  C   UNL     1       9.745   3.809  31.077  1.00  0.00    -0.000 C 
BRANCH  17  18
ATOM     18  C   UNL     1       9.962   2.316  30.790  1.00  0.00    -0.000 C 
BRANCH  18  19
ATOM     19  C   UNL     1       9.466   1.456  31.958  1.00  0.00    -0.003 C 
ATOM     20  C   UNL     1      10.546   0.490  32.433  1.00  0.00     0.004 C 
ENDBRANCH  18  19
ENDBRANCH  17  18
ENDBRANCH  16  17
ENDBRANCH  15  16
ENDBRANCH  14  15
ENDBRANCH  13  14
ENDBRANCH  12  13
ENDBRANCH   1  12
TORSDOF 16
ENDMDL
MODEL 3
REMARK VINA RESULT:    -3.178      3.299      7.303
REMARK INTER + INTRA:          -8.574
REMARK INTER:                  -6.054
REMARK INTRA:                  -2.519
REMARK UNBOUND:                -2.423
REMARK SMILES CCCCCCCCCCCCCCCCCC(=O)[O-]
REMARK SMILES IDX 10 1 11 2 12 3 13 4 14 5 15 6 16 7 17 8 18 9 19 10 20 11
REMARK SMILES IDX 9 12 8 13 7 14 6 15 5 16 4 17 3 18 2 19 1 20
REMARK H PARENT
REMARK Flexibility Score: inf
ROOT
ATOM      1  C   UNL     1      20.195   6.815  36.379  1.00  0.00     0.000 C 
ENDROOT
BRANCH   1   2
ATOM      2  C   UNL     1      19.682   7.920  35.431  1.00  0.00     0.000 C 
BRANCH   2   3
ATOM      3  C   UNL     1      20.661   9.095  35.251  1.00  0.00     0.000 C 
BRANCH   3   4
ATOM      4  C   UNL     1      20.948   9.844  36.558  1.00  0.00     0.000 C 
BRANCH   4   5
ATOM      5  C   UNL     1      22.425   9.721  36.959  1.00  0.00     0.000 C 
BRANCH   5   6
ATOM      6  C   UNL     1      22.622   9.695  38.484  1.00  0.00     0.000 C 
BRANCH   6   7
ATOM      7  C   UNL     1      22.235   8.345  39.110  1.00  0.00     0.006 C 
BRANCH   7   8
ATOM      8  C   UNL     1      20.950   8.438  39.944  1.00  0.00     0.053 C 
BRANCH   8   9
ATOM      9  C   UNL     1      20.333   7.091  40.168  1.00  0.00     0.041 C 
ATOM     10  O   UNL     1      20.925   6.051  39.780  1.00  0.00    -0.550 OA
ATOM     11  O   UNL     1      19.087   6.990  40.771  1.00  0.00    -0.550 OA
ENDBRANCH   8   9
ENDBRANCH   7   8
ENDBRANCH   6   7
ENDBRANCH   5   6
ENDBRANCH   4   5
ENDBRANCH   3   4
ENDBRANCH   2   3
ENDBRANCH   1   2
BRANCH   1  12
ATOM     12  C   UNL     1      21.624   6.358  36.026  1.00  0.00     0.000 C 
BRANCH  12  13
ATOM     13  C   UNL     1      21.965   4.964  36.585  1.00  0.00    -0.000 C 
BRANCH  13  14
ATOM     14  C   UNL     1      21.893   3.808  35.567  1.00  0.00    -0.000 C 
BRANCH  14  15
ATOM     15  C   UNL     1      20.510   3.153  35.402  1.00  0.00    -0.000 C 
BRANCH  15  16
ATOM     16  C   UNL     1      19.781   3.589  34.121  1.00  0.00    -0.000 C 
BRANCH  16  17
ATOM     17  C   UNL     1      20.566   3.230  32.849  1.00  0.00    -0.000 C 
BRANCH  17  18
ATOM     18  C   UNL     1      20.601   4.377  31.828  1.00  0.00    -0.000 C 
BRANCH  18  19
ATOM     19  C   UNL     1      20.811   5.724  32.528  1.00  0.00    -0.003 C 
ATOM     20  C   UNL     1      22.249   6.210  32.374  1.00  0.00     0.004 C 
ENDBRANCH  18  19
ENDBRANCH  17  18
ENDBRANCH  16  17
ENDBRANCH  15  16
ENDBRANCH  14  15
ENDBRANCH  13  14
ENDBRANCH  12  13
ENDBRANCH   1  12
TORSDOF 16
ENDMDL
MODEL 4
REMARK VINA RESULT:    -3.177      9.879     11.683
REMARK INTER + INTRA:          -8.572
REMARK INTER:                  -5.868
REMARK INTRA:                  -2.704
REMARK UNBOUND:                -2.423
REMARK SMILES CCCCCCCCCCCCCCCCCC(=O)[O-]
REMARK SMILES IDX 10 1 11 2 12 3 13 4 14 5 15 6 16 7 17 8 18 9 19 10 20 11
REMARK SMILES IDX 9 12 8 13 7 14 6 15 5 16 4 17 3 18 2 19 1 20
REMARK H PARENT
REMARK Flexibility Score: inf
ROOT
ATOM      1  C   UNL     1      11.134   2.470  33.245  1.00  0.00     0.000 C 
ENDROOT
BRANCH   1   2
ATOM      2  C   UNL     1      10.494   1.512  32.217  1.00  0.00     0.000 C 
BRANCH   2   3
ATOM      3  C   UNL     1      11.205   1.494  30.851  1.00  0.00     0.000 C 
BRANCH   3   4
ATOM      4  C   UNL     1      10.343   2.062  29.717  1.00  0.00     0.000 C 
BRANCH   4   5
ATOM      5  C   UNL     1      10.433   3.594  29.662  1.00  0.00     0.000 C 
BRANCH   5   6
ATOM      6  C   UNL     1      11.530   4.085  28.704  1.00  0.00     0.000 C 
BRANCH   6   7
ATOM      7  C   UNL     1      12.430   5.162  29.334  1.00  0.00     0.006 C 
BRANCH   7   8
ATOM      8  C   UNL     1      12.595   4.967  30.848  1.00  0.00     0.053 C 
BRANCH   8   9
ATOM      9  C   UNL     1      14.006   4.622  31.214  1.00  0.00     0.041 C 
ATOM     10  O   UNL     1      14.280   4.227  32.377  1.00  0.00    -0.550 OA
ATOM     11  O   UNL     1      15.023   4.774  30.281  1.00  0.00    -0.550 OA
ENDBRANCH   8   9
ENDBRANCH   7   8
ENDBRANCH   6   7
ENDBRANCH   5   6
ENDBRANCH   4   5
ENDBRANCH   3   4
ENDBRANCH   2   3
ENDBRANCH   1   2
BRANCH   1  12
ATOM     12  C   UNL     1      10.239   3.686  33.550  1.00  0.00     0.000 C 
BRANCH  12  13
ATOM     13  C   UNL     1      11.002   4.843  34.220  1.00  0.00    -0.000 C 
BRANCH  13  14
ATOM     14  C   UNL     1      10.128   6.014  34.713  1.00  0.00    -0.000 C 
BRANCH  14  15
ATOM     15  C   UNL     1      10.535   7.407  34.200  1.00  0.00    -0.000 C 
BRANCH  15  16
ATOM     16  C   UNL     1      11.109   7.384  32.774  1.00  0.00    -0.000 C 
BRANCH  16  17
ATOM     17  C   UNL     1      10.108   7.909  31.731  1.00  0.00    -0.000 C 
BRANCH  17  18
ATOM     18  C   UNL     1       9.298   6.784  31.069  1.00  0.00    -0.000 C 
BRANCH  18  19
ATOM     19  C   UNL     1       9.091   7.066  29.576  1.00  0.00    -0.003 C 
ATOM     20  C   UNL     1      10.042   8.152  29.081  1.00  0.00     0.004 C 
ENDBRANCH  18  19
ENDBRANCH  17  18
ENDBRANCH  16  17
ENDBRANCH  15  16
ENDBRANCH  14  15
ENDBRANCH  13  14
ENDBRANCH  12  13
ENDBRANCH   1  12
TORSDOF 16
ENDMDL
MODEL 5
REMARK VINA RESULT:    -3.131      9.411     11.859
REMARK INTER + INTRA:          -8.483
REMARK INTER:                  -5.360
REMARK INTRA:                  -3.123
REMARK UNBOUND:                -2.423
REMARK SMILES CCCCCCCCCCCCCCCCCC(=O)[O-]
REMARK SMILES IDX 10 1 11 2 12 3 13 4 14 5 15 6 16 7 17 8 18 9 19 10 20 11
REMARK SMILES IDX 9 12 8 13 7 14 6 15 5 16 4 17 3 18 2 19 1 20
REMARK H PARENT
REMARK Flexibility Score: inf
ROOT
ATOM      1  C   UNL     1      10.317   7.759  31.389  1.00  0.00     0.000 C 
ENDROOT
BRANCH   1   2
ATOM      2  C   UNL     1      10.550   7.780  32.915  1.00  0.00     0.000 C 
BRANCH   2   3
ATOM      3  C   UNL     1      11.668   6.833  33.391  1.00  0.00     0.000 C 
BRANCH   3   4
ATOM      4  C   UNL     1      11.141   5.633  34.187  1.00  0.00     0.000 C 
BRANCH   4   5
ATOM      5  C   UNL     1      12.035   4.400  33.997  1.00  0.00     0.000 C 
BRANCH   5   6
ATOM      6  C   UNL     1      13.328   4.723  33.229  1.00  0.00     0.000 C 
BRANCH   6   7
ATOM      7  C   UNL     1      13.443   3.946  31.907  1.00  0.00     0.006 C 
BRANCH   7   8
ATOM      8  C   UNL     1      13.428   4.874  30.685  1.00  0.00     0.053 C 
BRANCH   8   9
ATOM      9  C   UNL     1      14.726   4.834  29.939  1.00  0.00     0.041 C 
ATOM     10  O   UNL     1      15.818   4.846  30.566  1.00  0.00    -0.550 OA
ATOM     11  O   UNL     1      14.730   4.822  28.550  1.00  0.00    -0.550 OA
ENDBRANCH   8   9
ENDBRANCH   7   8
ENDBRANCH   6   7
ENDBRANCH   5   6
ENDBRANCH   4   5
ENDBRANCH   3   4
ENDBRANCH   2   3
ENDBRANCH   1   2
BRANCH   1  12
ATOM     12  C   UNL     1       9.269   6.709  30.972  1.00  0.00     0.000 C 
BRANCH  12  13
ATOM     13  C   UNL     1       9.646   5.964  29.678  1.00  0.00    -0.000 C 
BRANCH  13  14
ATOM     14  C   UNL     1       9.803   4.436  29.817  1.00  0.00    -0.000 C 
BRANCH  14  15
ATOM     15  C   UNL     1       9.673   3.883  31.248  1.00  0.00    -0.000 C 
BRANCH  15  16
ATOM     16  C   UNL     1      10.149   2.427  31.380  1.00  0.00    -0.000 C 
BRANCH  16  17
ATOM     17  C   UNL     1      10.620   1.840  30.039  1.00  0.00    -0.000 C 
BRANCH  17  18
ATOM     18  C   UNL     1      11.939   1.063  30.162  1.00  0.00    -0.000 C 
BRANCH  18  19
ATOM     19  C   UNL     1      12.934   1.501  29.081  1.00  0.00    -0.003 C 
ATOM     20  C   UNL     1      12.265   2.396  28.043  1.00  0.00     0.004 C 
ENDBRANCH  18  19
ENDBRANCH  17  18
ENDBRANCH  16  17
ENDBRANCH  15  16
ENDBRANCH  14  15
ENDBRANCH  13  14
ENDBRANCH  12  13
ENDBRANCH   1  12
TORSDOF 16
ENDMDL
MODEL 6
REMARK VINA RESULT:    -3.118      3.240      4.495
REMARK INTER + INTRA:          -8.459
REMARK INTER:                  -6.232
REMARK INTRA:                  -2.227
REMARK UNBOUND:                -2.423
REMARK SMILES CCCCCCCCCCCCCCCCCC(=O)[O-]
REMARK SMILES IDX 10 1 11 2 12 3 13 4 14 5 15 6 16 7 17 8 18 9 19 10 20 11
REMARK SMILES IDX 9 12 8 13 7 14 6 15 5 16 4 17 3 18 2 19 1 20
REMARK H PARENT
REMARK Flexibility Score: inf
ROOT
ATOM      1  C   UNL     1      20.471   9.272  35.252  1.00  0.00     0.000 C 
ENDROOT
BRANCH   1   2
ATOM      2  C   UNL     1      19.350   8.352  35.783  1.00  0.00     0.000 C 
BRANCH   2   3
ATOM      3  C   UNL     1      19.375   6.931  35.191  1.00  0.00     0.000 C 
BRANCH   3   4
ATOM      4  C   UNL     1      20.657   6.628  34.406  1.00  0.00     0.000 C 
BRANCH   4   5
ATOM      5  C   UNL     1      21.410   5.432  35.005  1.00  0.00     0.000 C 
BRANCH   5   6
ATOM      6  C   UNL     1      21.833   5.673  36.464  1.00  0.00     0.000 C 
BRANCH   6   7
ATOM      7  C   UNL     1      21.225   4.647  37.436  1.00  0.00     0.006 C 
BRANCH   7   8
ATOM      8  C   UNL     1      22.159   3.453  37.678  1.00  0.00     0.053 C 
BRANCH   8   9
ATOM      9  C   UNL     1      22.756   3.483  39.051  1.00  0.00     0.041 C 
ATOM     10  O   UNL     1      23.445   2.514  39.464  1.00  0.00    -0.550 OA
ATOM     11  O   UNL     1      22.519   4.566  39.888  1.00  0.00    -0.550 OA
ENDBRANCH   8   9
ENDBRANCH   7   8
ENDBRANCH   6   7
ENDBRANCH   5   6
ENDBRANCH   4   5
ENDBRANCH   3   4
ENDBRANCH   2   3
ENDBRANCH   1   2
BRANCH   1  12
ATOM     12  C   UNL     1      21.107  10.123  36.367  1.00  0.00     0.000 C 
BRANCH  12  13
ATOM     13  C   UNL     1      22.369   9.479  36.969  1.00  0.00    -0.000 C 
BRANCH  13  14
ATOM     14  C   UNL     1      22.389   9.377  38.508  1.00  0.00    -0.000 C 
BRANCH  14  15
ATOM     15  C   UNL     1      22.016   7.999  39.086  1.00  0.00    -0.000 C 
BRANCH  15  16
ATOM     16  C   UNL     1      20.514   7.852  39.380  1.00  0.00    -0.000 C 
BRANCH  16  17
ATOM     17  C   UNL     1      19.824   9.209  39.597  1.00  0.00    -0.000 C 
BRANCH  17  18
ATOM     18  C   UNL     1      18.321   9.072  39.879  1.00  0.00    -0.000 C 
BRANCH  18  19
ATOM     19  C   UNL     1      17.865  10.093  40.927  1.00  0.00    -0.003 C 
ATOM     20  C   UNL     1      17.190   9.407  42.111  1.00  0.00     0.004 C 
ENDBRANCH  18  19
ENDBRANCH  17  18
ENDBRANCH  16  17
ENDBRANCH  15  16
ENDBRANCH  14  15
ENDBRANCH  13  14
ENDBRANCH  12  13
ENDBRANCH   1  12
TORSDOF 16
ENDMDL
MODEL 7
REMARK VINA RESULT:    -3.090      9.812     11.693
REMARK INTER + INTRA:          -8.403
REMARK INTER:                  -5.423
REMARK INTRA:                  -2.980
REMARK UNBOUND:                -2.423
REMARK SMILES CCCCCCCCCCCCCCCCCC(=O)[O-]
REMARK SMILES IDX 10 1 11 2 12 3 13 4 14 5 15 6 16 7 17 8 18 9 19 10 20 11
REMARK SMILES IDX 9 12 8 13 7 14 6 15 5 16 4 17 3 18 2 19 1 20
REMARK H PARENT
REMARK Flexibility Score: inf
ROOT
ATOM      1  C   UNL     1       9.324   6.465  31.501  1.00  0.00     0.000 C 
ENDROOT
BRANCH   1   2
ATOM      2  C   UNL     1       9.727   6.006  30.083  1.00  0.00     0.000 C 
BRANCH   2   3
ATOM      3  C   UNL     1       9.743   4.477  29.901  1.00  0.00     0.000 C 
BRANCH   3   4
ATOM      4  C   UNL     1       9.834   3.714  31.229  1.00  0.00     0.000 C 
BRANCH   4   5
ATOM      5  C   UNL     1      10.568   2.377  31.055  1.00  0.00     0.000 C 
BRANCH   5   6
ATOM      6  C   UNL     1      10.522   1.864  29.607  1.00  0.00     0.000 C 
BRANCH   6   7
ATOM      7  C   UNL     1      11.883   1.335  29.120  1.00  0.00     0.006 C 
BRANCH   7   8
ATOM      8  C   UNL     1      12.256   1.880  27.735  1.00  0.00     0.053 C 
BRANCH   8   9
ATOM      9  C   UNL     1      12.183   0.819  26.681  1.00  0.00     0.041 C 
ATOM     10  O   UNL     1      11.250  -0.026  26.696  1.00  0.00    -0.550 OA
ATOM     11  O   UNL     1      13.168   0.740  25.705  1.00  0.00    -0.550 OA
ENDBRANCH   8   9
ENDBRANCH   7   8
ENDBRANCH   6   7
ENDBRANCH   5   6
ENDBRANCH   4   5
ENDBRANCH   3   4
ENDBRANCH   2   3
ENDBRANCH   1   2
BRANCH   1  12
ATOM     12  C   UNL     1      10.048   7.755  31.927  1.00  0.00     0.000 C 
BRANCH  12  13
ATOM     13  C   UNL     1      11.100   7.520  33.027  1.00  0.00    -0.000 C 
BRANCH  13  14
ATOM     14  C   UNL     1      10.958   6.196  33.804  1.00  0.00    -0.000 C 
BRANCH  14  15
ATOM     15  C   UNL     1      12.149   5.226  33.686  1.00  0.00    -0.000 C 
BRANCH  15  16
ATOM     16  C   UNL     1      12.890   5.337  32.343  1.00  0.00    -0.000 C 
BRANCH  16  17
ATOM     17  C   UNL     1      13.817   4.139  32.086  1.00  0.00    -0.000 C 
BRANCH  17  18
ATOM     18  C   UNL     1      14.056   3.884  30.590  1.00  0.00    -0.000 C 
BRANCH  18  19
ATOM     19  C   UNL     1      13.327   4.926  29.735  1.00  0.00    -0.003 C 
ATOM     20  C   UNL     1      14.162   5.332  28.524  1.00  0.00     0.004 C 
ENDBRANCH  18  19
ENDBRANCH  17  18
ENDBRANCH  16  17
ENDBRANCH  15  16
ENDBRANCH  14  15
ENDBRANCH  13  14
ENDBRANCH  12  13
ENDBRANCH   1  12
TORSDOF 16
ENDMDL
MODEL 8
REMARK VINA RESULT:    -3.075      9.444     11.427
REMARK INTER + INTRA:          -8.374
REMARK INTER:                  -5.147
REMARK INTRA:                  -3.227
REMARK UNBOUND:                -2.423
REMARK SMILES CCCCCCCCCCCCCCCCCC(=O)[O-]
REMARK SMILES IDX 10 1 11 2 12 3 13 4 14 5 15 6 16 7 17 8 18 9 19 10 20 11
REMARK SMILES IDX 9 12 8 13 7 14 6 15 5 16 4 17 3 18 2 19 1 20
REMARK H PARENT
REMARK Flexibility Score: inf
ROOT
ATOM      1  C   UNL     1       9.437   4.741  36.450  1.00  0.00     0.000 C 
ENDROOT
BRANCH   1   2
ATOM      2  C   UNL     1       9.622   6.117  35.774  1.00  0.00     0.000 C 
BRANCH   2   3
ATOM      3  C   UNL     1      10.064   6.036  34.301  1.00  0.00     0.000 C 
BRANCH   3   4
ATOM      4  C   UNL     1      10.649   7.352  33.775  1.00  0.00     0.000 C 
BRANCH   4   5
ATOM      5  C   UNL     1      10.487   7.466  32.253  1.00  0.00     0.000 C 
BRANCH   5   6
ATOM      6  C   UNL     1       9.317   6.621  31.720  1.00  0.00     0.000 C 
BRANCH   6   7
ATOM      7  C   UNL     1       9.624   5.973  30.359  1.00  0.00     0.006 C 
BRANCH   7   8
ATOM      8  C   UNL     1      11.000   6.385  29.817  1.00  0.00     0.053 C 
BRANCH   8   9
ATOM      9  C   UNL     1      11.705   5.239  29.160  1.00  0.00     0.041 C 
ATOM     10  O   UNL     1      11.053   4.241  28.755  1.00  0.00    -0.550 OA
ATOM     11  O   UNL     1      13.088   5.256  29.030  1.00  0.00    -0.550 OA
ENDBRANCH   8   9
ENDBRANCH   7   8
ENDBRANCH   6   7
ENDBRANCH   5   6
ENDBRANCH   4   5
ENDBRANCH   3   4
ENDBRANCH   2   3
ENDBRANCH   1   2
BRANCH   1  12
ATOM     12  C   UNL     1       9.681   3.573  35.477  1.00  0.00     0.000 C 
BRANCH  12  13
ATOM     13  C   UNL     1      10.884   2.698  35.877  1.00  0.00    -0.000 C 
BRANCH  13  14
ATOM     14  C   UNL     1      11.840   3.324  36.913  1.00  0.00    -0.000 C 
BRANCH  14  15
ATOM     15  C   UNL     1      13.030   4.108  36.330  1.00  0.00    -0.000 C 
BRANCH  15  16
ATOM     16  C   UNL     1      13.390   3.685  34.896  1.00  0.00    -0.000 C 
BRANCH  16  17
ATOM     17  C   UNL     1      13.427   4.877  33.926  1.00  0.00    -0.000 C 
BRANCH  17  18
ATOM     18  C   UNL     1      13.011   4.494  32.498  1.00  0.00    -0.000 C 
BRANCH  18  19
ATOM     19  C   UNL     1      12.414   3.083  32.463  1.00  0.00    -0.003 C 
ATOM     20  C   UNL     1      10.928   3.119  32.115  1.00  0.00     0.004 C 
ENDBRANCH  18  19
ENDBRANCH  17  18
ENDBRANCH  16  17
ENDBRANCH  15  16
ENDBRANCH  14  15
ENDBRANCH  13  14
ENDBRANCH  12  13
ENDBRANCH   1  12
TORSDOF 16
ENDMDL
MODEL 9
REMARK VINA RESULT:    -3.065      9.948     12.208
REMARK INTER + INTRA:          -8.355
REMARK INTER:                  -5.263
REMARK INTRA:                  -3.092
REMARK UNBOUND:                -2.423
REMARK SMILES CCCCCCCCCCCCCCCCCC(=O)[O-]
REMARK SMILES IDX 10 1 11 2 12 3 13 4 14 5 15 6 16 7 17 8 18 9 19 10 20 11
REMARK SMILES IDX 9 12 8 13 7 14 6 15 5 16 4 17 3 18 2 19 1 20
REMARK H PARENT
REMARK Flexibility Score: inf
ROOT
ATOM      1  C   UNL     1      13.847   2.966  33.457  1.00  0.00     0.000 C 
ENDROOT
BRANCH   1   2
ATOM      2  C   UNL     1      12.426   3.322  33.946  1.00  0.00     0.000 C 
BRANCH   2   3
ATOM      3  C   UNL     1      12.230   4.816  34.265  1.00  0.00     0.000 C 
BRANCH   3   4
ATOM      4  C   UNL     1      10.817   5.144  34.763  1.00  0.00     0.000 C 
BRANCH   4   5
ATOM      5  C   UNL     1      10.126   6.166  33.848  1.00  0.00     0.000 C 
BRANCH   5   6
ATOM      6  C   UNL     1      11.123   7.128  33.182  1.00  0.00     0.000 C 
BRANCH   6   7
ATOM      7  C   UNL     1      10.609   7.681  31.842  1.00  0.00     0.006 C 
BRANCH   7   8
ATOM      8  C   UNL     1       9.660   6.703  31.135  1.00  0.00     0.053 C 
BRANCH   8   9
ATOM      9  C   UNL     1       9.483   7.046  29.688  1.00  0.00     0.041 C 
ATOM     10  O   UNL     1       8.879   6.254  28.918  1.00  0.00    -0.550 OA
ATOM     11  O   UNL     1      10.019   8.223  29.183  1.00  0.00    -0.550 OA
ENDBRANCH   8   9
ENDBRANCH   7   8
ENDBRANCH   6   7
ENDBRANCH   5   6
ENDBRANCH   4   5
ENDBRANCH   3   4
ENDBRANCH   2   3
ENDBRANCH   1   2
BRANCH   1  12
ATOM     12  C   UNL     1      14.537   4.149  32.753  1.00  0.00     0.000 C 
BRANCH  12  13
ATOM     13  C   UNL     1      14.299   4.165  31.231  1.00  0.00    -0.000 C 
BRANCH  13  14
ATOM     14  C   UNL     1      13.082   4.988  30.761  1.00  0.00    -0.000 C 
BRANCH  14  15
ATOM     15  C   UNL     1      12.103   4.252  29.829  1.00  0.00    -0.000 C 
BRANCH  15  16
ATOM     16  C   UNL     1      12.216   2.721  29.918  1.00  0.00    -0.000 C 
BRANCH  16  17
ATOM     17  C   UNL     1      11.063   2.094  30.718  1.00  0.00    -0.000 C 
BRANCH  17  18
ATOM     18  C   UNL     1       9.891   3.064  30.930  1.00  0.00    -0.000 C 
BRANCH  18  19
ATOM     19  C   UNL     1       9.181   2.782  32.258  1.00  0.00    -0.003 C 
ATOM     20  C   UNL     1       9.181   1.291  32.581  1.00  0.00     0.004 C 
ENDBRANCH  18  19
ENDBRANCH  17  18
ENDBRANCH  16  17
ENDBRANCH  15  16
ENDBRANCH  14  15
ENDBRANCH  13  14
ENDBRANCH  12  13
ENDBRANCH   1  12
TORSDOF 16
ENDMDL
