MODEL 1
REMARK VINA RESULT:    -4.712      0.000      0.000
REMARK INTER + INTRA:         -10.121
REMARK INTER:                  -8.844
REMARK INTRA:                  -1.277
REMARK UNBOUND:                -1.277
REMARK SMILES CCCCCCCCC=CCCCCCCCC(=O)[O-]
REMARK SMILES IDX 10 1 9 2 11 3 12 4 13 5 14 6 15 7 16 8 17 9 18 10 19 11
REMARK SMILES IDX 20 12 8 13 7 14 6 15 5 16 4 17 3 18 2 19 1 20
REMARK H PARENT
REMARK Flexibility Score: inf
ROOT
ATOM      1  C   UNL     1      44.019  27.529   1.363  1.00  0.00    -0.031 C 
ATOM      2  C   UNL     1      44.979  26.774   1.929  1.00  0.00    -0.031 C 
ENDROOT
BRANCH   1   3
ATOM      3  C   UNL     1      42.593  27.633   1.852  1.00  0.00     0.027 C 
BRANCH   3   4
ATOM      4  C   UNL     1      42.052  29.060   1.698  1.00  0.00     0.004 C 
BRANCH   4   5
ATOM      5  C   UNL     1      42.924  29.911   0.758  1.00  0.00     0.000 C 
BRANCH   5   6
ATOM      6  C   UNL     1      42.295  30.087  -0.633  1.00  0.00     0.000 C 
BRANCH   6   7
ATOM      7  C   UNL     1      43.274  29.763  -1.772  1.00  0.00     0.000 C 
BRANCH   7   8
ATOM      8  C   UNL     1      42.738  28.617  -2.645  1.00  0.00     0.006 C 
BRANCH   8   9
ATOM      9  C   UNL     1      43.867  27.796  -3.283  1.00  0.00     0.053 C 
BRANCH   9  10
ATOM     10  C   UNL     1      44.568  26.937  -2.276  1.00  0.00     0.041 C 
ATOM     11  O   UNL     1      45.796  27.103  -2.047  1.00  0.00    -0.550 OA
ATOM     12  O   UNL     1      43.878  25.924  -1.623  1.00  0.00    -0.550 OA
ENDBRANCH   9  10
ENDBRANCH   8   9
ENDBRANCH   7   8
ENDBRANCH   6   7
ENDBRANCH   5   6
ENDBRANCH   4   5
ENDBRANCH   3   4
ENDBRANCH   1   3
BRANCH   2  13
ATOM     13  C   UNL     1      44.802  25.946   3.176  1.00  0.00     0.027 C 
BRANCH  13  14
ATOM     14  C   UNL     1      46.083  25.170   3.508  1.00  0.00     0.004 C 
BRANCH  14  15
ATOM     15  C   UNL     1      46.936  25.934   4.531  1.00  0.00     0.000 C 
BRANCH  15  16
ATOM     16  C   UNL     1      46.093  26.549   5.662  1.00  0.00     0.000 C 
BRANCH  16  17
ATOM     17  C   UNL     1      46.477  25.999   7.046  1.00  0.00    -0.000 C 
BRANCH  17  18
ATOM     18  C   UNL     1      45.417  26.298   8.123  1.00  0.00    -0.000 C 
BRANCH  18  19
ATOM     19  C   UNL     1      45.726  27.512   9.017  1.00  0.00    -0.003 C 
ATOM     20  C   UNL     1      45.056  28.797   8.534  1.00  0.00     0.004 C 
ENDBRANCH  18  19
ENDBRANCH  17  18
ENDBRANCH  16  17
ENDBRANCH  15  16
ENDBRANCH  14  15
ENDBRANCH  13  14
ENDBRANCH   2  13
TORSDOF 15
ENDMDL
MODEL 2
REMARK VINA RESULT:    -4.564      0.915      1.515
REMARK INTER + INTRA:          -9.844
REMARK INTER:                  -8.430
REMARK INTRA:                  -1.414
REMARK UNBOUND:                -1.277
REMARK SMILES CCCCCCCCC=CCCCCCCCC(=O)[O-]
REMARK SMILES IDX 10 1 9 2 11 3 12 4 13 5 14 6 15 7 16 8 17 9 18 10 19 11
REMARK SMILES IDX 20 12 8 13 7 14 6 15 5 16 4 17 3 18 2 19 1 20
REMARK H PARENT
REMARK Flexibility Score: inf
ROOT
ATOM      1  C   UNL     1      42.557  27.515   1.024  1.00  0.00    -0.031 C 
ATOM      2  C   UNL     1      43.560  26.721   1.446  1.00  0.00    -0.031 C 
ENDROOT
BRANCH   1   3
ATOM      3  C   UNL     1      42.156  28.825   1.662  1.00  0.00     0.027 C 
BRANCH   3   4
ATOM      4  C   UNL     1      42.265  29.987   0.668  1.00  0.00     0.004 C 
BRANCH   4   5
ATOM      5  C   UNL     1      43.672  30.092   0.053  1.00  0.00     0.000 C 
BRANCH   5   6
ATOM      6  C   UNL     1      43.644  30.125  -1.484  1.00  0.00     0.000 C 
BRANCH   6   7
ATOM      7  C   UNL     1      42.539  29.237  -2.076  1.00  0.00     0.000 C 
BRANCH   7   8
ATOM      8  C   UNL     1      43.085  28.374  -3.224  1.00  0.00     0.006 C 
BRANCH   8   9
ATOM      9  C   UNL     1      44.583  28.079  -3.068  1.00  0.00     0.053 C 
BRANCH   9  10
ATOM     10  C   UNL     1      44.843  27.072  -1.991  1.00  0.00     0.041 C 
ATOM     11  O   UNL     1      44.120  26.045  -1.895  1.00  0.00    -0.550 OA
ATOM     12  O   UNL     1      45.856  27.288  -1.064  1.00  0.00    -0.550 OA
ENDBRANCH   9  10
ENDBRANCH   8   9
ENDBRANCH   7   8
ENDBRANCH   6   7
ENDBRANCH   5   6
ENDBRANCH   4   5
ENDBRANCH   3   4
ENDBRANCH   1   3
BRANCH   2  13
ATOM     13  C   UNL     1      44.482  27.036   2.596  1.00  0.00     0.027 C 
BRANCH  13  14
ATOM     14  C   UNL     1      44.874  25.760   3.353  1.00  0.00     0.004 C 
BRANCH  14  15
ATOM     15  C   UNL     1      46.002  26.043   4.354  1.00  0.00     0.000 C 
BRANCH  15  16
ATOM     16  C   UNL     1      46.037  27.513   4.806  1.00  0.00     0.000 C 
BRANCH  16  17
ATOM     17  C   UNL     1      46.477  27.667   6.272  1.00  0.00    -0.000 C 
BRANCH  17  18
ATOM     18  C   UNL     1      45.536  28.574   7.087  1.00  0.00    -0.000 C 
BRANCH  18  19
ATOM     19  C   UNL     1      45.142  28.025   8.470  1.00  0.00    -0.003 C 
ATOM     20  C   UNL     1      45.483  26.546   8.647  1.00  0.00     0.004 C 
ENDBRANCH  18  19
ENDBRANCH  17  18
ENDBRANCH  16  17
ENDBRANCH  15  16
ENDBRANCH  14  15
ENDBRANCH  13  14
ENDBRANCH   2  13
TORSDOF 15
ENDMDL
MODEL 3
REMARK VINA RESULT:    -4.526      1.214      1.537
REMARK INTER + INTRA:          -9.772
REMARK INTER:                  -8.338
REMARK INTRA:                  -1.434
REMARK UNBOUND:                -1.277
REMARK SMILES CCCCCCCCC=CCCCCCCCC(=O)[O-]
REMARK SMILES IDX 10 1 9 2 11 3 12 4 13 5 14 6 15 7 16 8 17 9 18 10 19 11
REMARK SMILES IDX 20 12 8 13 7 14 6 15 5 16 4 17 3 18 2 19 1 20
REMARK H PARENT
REMARK Flexibility Score: inf
ROOT
ATOM      1  C   UNL     1      42.656  27.542   1.098  1.00  0.00    -0.031 C 
ATOM      2  C   UNL     1      43.718  26.774   1.405  1.00  0.00    -0.031 C 
ENDROOT
BRANCH   1   3
ATOM      3  C   UNL     1      42.206  28.756   1.877  1.00  0.00     0.027 C 
BRANCH   3   4
ATOM      4  C   UNL     1      41.967  29.957   0.953  1.00  0.00     0.004 C 
BRANCH   4   5
ATOM      5  C   UNL     1      42.943  29.974  -0.237  1.00  0.00     0.000 C 
BRANCH   5   6
ATOM      6  C   UNL     1      42.221  30.030  -1.593  1.00  0.00     0.000 C 
BRANCH   6   7
ATOM      7  C   UNL     1      42.990  29.300  -2.705  1.00  0.00     0.000 C 
BRANCH   7   8
ATOM      8  C   UNL     1      44.160  28.492  -2.122  1.00  0.00     0.006 C 
BRANCH   8   9
ATOM      9  C   UNL     1      44.102  27.012  -2.526  1.00  0.00     0.053 C 
BRANCH   9  10
ATOM     10  C   UNL     1      44.256  26.831  -4.004  1.00  0.00     0.041 C 
ATOM     11  O   UNL     1      45.363  27.062  -4.559  1.00  0.00    -0.550 OA
ATOM     12  O   UNL     1      43.165  26.451  -4.777  1.00  0.00    -0.550 OA
ENDBRANCH   9  10
ENDBRANCH   8   9
ENDBRANCH   7   8
ENDBRANCH   6   7
ENDBRANCH   5   6
ENDBRANCH   4   5
ENDBRANCH   3   4
ENDBRANCH   1   3
BRANCH   2  13
ATOM     13  C   UNL     1      44.665  27.031   2.549  1.00  0.00     0.027 C 
BRANCH  13  14
ATOM     14  C   UNL     1      44.975  25.734   3.309  1.00  0.00     0.004 C 
BRANCH  14  15
ATOM     15  C   UNL     1      46.490  25.517   3.425  1.00  0.00     0.000 C 
BRANCH  15  16
ATOM     16  C   UNL     1      47.063  26.049   4.750  1.00  0.00     0.000 C 
BRANCH  16  17
ATOM     17  C   UNL     1      45.987  26.192   5.840  1.00  0.00    -0.000 C 
BRANCH  17  18
ATOM     18  C   UNL     1      46.110  27.506   6.634  1.00  0.00    -0.000 C 
BRANCH  18  19
ATOM     19  C   UNL     1      45.501  27.471   8.046  1.00  0.00    -0.003 C 
ATOM     20  C   UNL     1      45.055  28.846   8.541  1.00  0.00     0.004 C 
ENDBRANCH  18  19
ENDBRANCH  17  18
ENDBRANCH  16  17
ENDBRANCH  15  16
ENDBRANCH  14  15
ENDBRANCH  13  14
ENDBRANCH   2  13
TORSDOF 15
ENDMDL
MODEL 4
REMARK VINA RESULT:    -4.509      1.820      2.260
REMARK INTER + INTRA:          -9.740
REMARK INTER:                  -8.698
REMARK INTRA:                  -1.042
REMARK UNBOUND:                -1.277
REMARK SMILES CCCCCCCCC=CCCCCCCCC(=O)[O-]
REMARK SMILES IDX 10 1 9 2 11 3 12 4 13 5 14 6 15 7 16 8 17 9 18 10 19 11
REMARK SMILES IDX 20 12 8 13 7 14 6 15 5 16 4 17 3 18 2 19 1 20
REMARK H PARENT
REMARK Flexibility Score: inf
ROOT
ATOM      1  C   UNL     1      44.776  27.095   1.682  1.00  0.00    -0.031 C 
ATOM      2  C   UNL     1      45.629  26.419   2.475  1.00  0.00    -0.031 C 
ENDROOT
BRANCH   1   3
ATOM      3  C   UNL     1      43.275  27.133   1.852  1.00  0.00     0.027 C 
BRANCH   3   4
ATOM      4  C   UNL     1      42.581  27.648   0.584  1.00  0.00     0.004 C 
BRANCH   4   5
ATOM      5  C   UNL     1      42.622  29.183   0.486  1.00  0.00     0.000 C 
BRANCH   5   6
ATOM      6  C   UNL     1      43.089  29.674  -0.894  1.00  0.00     0.000 C 
BRANCH   6   7
ATOM      7  C   UNL     1      42.645  28.745  -2.035  1.00  0.00     0.000 C 
BRANCH   7   8
ATOM      8  C   UNL     1      43.741  28.630  -3.106  1.00  0.00     0.006 C 
BRANCH   8   9
ATOM      9  C   UNL     1      43.668  27.302  -3.872  1.00  0.00     0.053 C 
BRANCH   9  10
ATOM     10  C   UNL     1      42.954  27.453  -5.181  1.00  0.00     0.041 C 
ATOM     11  O   UNL     1      43.546  27.186  -6.260  1.00  0.00    -0.550 OA
ATOM     12  O   UNL     1      41.650  27.932  -5.212  1.00  0.00    -0.550 OA
ENDBRANCH   9  10
ENDBRANCH   8   9
ENDBRANCH   7   8
ENDBRANCH   6   7
ENDBRANCH   5   6
ENDBRANCH   4   5
ENDBRANCH   3   4
ENDBRANCH   1   3
BRANCH   2  13
ATOM     13  C   UNL     1      45.229  25.631   3.696  1.00  0.00     0.027 C 
BRANCH  13  14
ATOM     14  C   UNL     1      46.041  26.067   4.923  1.00  0.00     0.004 C 
BRANCH  14  15
ATOM     15  C   UNL     1      45.969  27.588   5.114  1.00  0.00     0.000 C 
BRANCH  15  16
ATOM     16  C   UNL     1      46.523  28.039   6.477  1.00  0.00     0.000 C 
BRANCH  16  17
ATOM     17  C   UNL     1      45.440  28.665   7.373  1.00  0.00    -0.000 C 
BRANCH  17  18
ATOM     18  C   UNL     1      45.289  27.941   8.724  1.00  0.00    -0.000 C 
BRANCH  18  19
ATOM     19  C   UNL     1      45.184  26.409   8.631  1.00  0.00    -0.003 C 
ATOM     20  C   UNL     1      46.487  25.696   8.988  1.00  0.00     0.004 C 
ENDBRANCH  18  19
ENDBRANCH  17  18
ENDBRANCH  16  17
ENDBRANCH  15  16
ENDBRANCH  14  15
ENDBRANCH  13  14
ENDBRANCH   2  13
TORSDOF 15
ENDMDL
MODEL 5
REMARK VINA RESULT:    -4.502      3.616      8.956
REMARK INTER + INTRA:          -9.727
REMARK INTER:                  -8.268
REMARK INTRA:                  -1.459
REMARK UNBOUND:                -1.277
REMARK SMILES CCCCCCCCC=CCCCCCCCC(=O)[O-]
REMARK SMILES IDX 10 1 9 2 11 3 12 4 13 5 14 6 15 7 16 8 17 9 18 10 19 11
REMARK SMILES IDX 20 12 8 13 7 14 6 15 5 16 4 17 3 18 2 19 1 20
REMARK H PARENT
REMARK Flexibility Score: inf
ROOT
ATOM      1  C   UNL     1      42.508  27.514   1.612  1.00  0.00    -0.031 C 
ATOM      2  C   UNL     1      42.226  28.779   1.248  1.00  0.00    -0.031 C 
ENDROOT
BRANCH   1   3
ATOM      3  C   UNL     1      43.747  26.749   1.209  1.00  0.00     0.027 C 
BRANCH   3   4
ATOM      4  C   UNL     1      44.869  26.919   2.242  1.00  0.00     0.004 C 
BRANCH   4   5
ATOM      5  C   UNL     1      44.907  25.756   3.250  1.00  0.00     0.000 C 
BRANCH   5   6
ATOM      6  C   UNL     1      45.889  26.009   4.405  1.00  0.00     0.000 C 
BRANCH   6   7
ATOM      7  C   UNL     1      46.029  27.500   4.749  1.00  0.00     0.000 C 
BRANCH   7   8
ATOM      8  C   UNL     1      46.049  27.712   6.271  1.00  0.00     0.006 C 
BRANCH   8   9
ATOM      9  C   UNL     1      45.845  26.401   7.043  1.00  0.00     0.053 C 
BRANCH   9  10
ATOM     10  C   UNL     1      45.507  26.648   8.481  1.00  0.00     0.041 C 
ATOM     11  O   UNL     1      45.149  27.795   8.860  1.00  0.00    -0.550 OA
ATOM     12  O   UNL     1      45.632  25.624   9.412  1.00  0.00    -0.550 OA
ENDBRANCH   9  10
ENDBRANCH   8   9
ENDBRANCH   7   8
ENDBRANCH   6   7
ENDBRANCH   5   6
ENDBRANCH   4   5
ENDBRANCH   3   4
ENDBRANCH   1   3
BRANCH   2  13
ATOM     13  C   UNL     1      43.127  29.659   0.421  1.00  0.00     0.027 C 
BRANCH  13  14
ATOM     14  C   UNL     1      42.464  30.027  -0.913  1.00  0.00     0.004 C 
BRANCH  14  15
ATOM     15  C   UNL     1      42.656  28.907  -1.945  1.00  0.00     0.000 C 
BRANCH  15  16
ATOM     16  C   UNL     1      44.138  28.616  -2.235  1.00  0.00     0.000 C 
BRANCH  16  17
ATOM     17  C   UNL     1      44.401  27.127  -2.517  1.00  0.00    -0.000 C 
BRANCH  17  18
ATOM     18  C   UNL     1      43.753  26.643  -3.828  1.00  0.00    -0.000 C 
BRANCH  18  19
ATOM     19  C   UNL     1      43.936  27.585  -5.029  1.00  0.00    -0.003 C 
ATOM     20  C   UNL     1      42.614  28.000  -5.673  1.00  0.00     0.004 C 
ENDBRANCH  18  19
ENDBRANCH  17  18
ENDBRANCH  16  17
ENDBRANCH  15  16
ENDBRANCH  14  15
ENDBRANCH  13  14
ENDBRANCH   2  13
TORSDOF 15
ENDMDL
MODEL 6
REMARK VINA RESULT:    -4.462      1.809      3.023
REMARK INTER + INTRA:          -9.652
REMARK INTER:                  -8.202
REMARK INTRA:                  -1.450
REMARK UNBOUND:                -1.277
REMARK SMILES CCCCCCCCC=CCCCCCCCC(=O)[O-]
REMARK SMILES IDX 10 1 9 2 11 3 12 4 13 5 14 6 15 7 16 8 17 9 18 10 19 11
REMARK SMILES IDX 20 12 8 13 7 14 6 15 5 16 4 17 3 18 2 19 1 20
REMARK H PARENT
REMARK Flexibility Score: inf
ROOT
ATOM      1  C   UNL     1      42.350  27.504   0.555  1.00  0.00    -0.031 C 
ATOM      2  C   UNL     1      42.794  27.593   1.823  1.00  0.00    -0.031 C 
ENDROOT
BRANCH   1   3
ATOM      3  C   UNL     1      43.017  28.134  -0.646  1.00  0.00     0.027 C 
BRANCH   3   4
ATOM      4  C   UNL     1      44.012  27.168  -1.303  1.00  0.00     0.004 C 
BRANCH   4   5
ATOM      5  C   UNL     1      45.433  27.754  -1.363  1.00  0.00     0.000 C 
BRANCH   5   6
ATOM      6  C   UNL     1      45.708  28.503  -2.677  1.00  0.00     0.000 C 
BRANCH   6   7
ATOM      7  C   UNL     1      46.522  27.665  -3.677  1.00  0.00     0.000 C 
BRANCH   7   8
ATOM      8  C   UNL     1      45.640  27.197  -4.845  1.00  0.00     0.006 C 
BRANCH   8   9
ATOM      9  C   UNL     1      44.409  28.094  -5.039  1.00  0.00     0.053 C 
BRANCH   9  10
ATOM     10  C   UNL     1      43.132  27.330  -4.870  1.00  0.00     0.041 C 
ATOM     11  O   UNL     1      42.023  27.910  -5.015  1.00  0.00    -0.550 OA
ATOM     12  O   UNL     1      43.164  25.989  -4.508  1.00  0.00    -0.550 OA
ENDBRANCH   9  10
ENDBRANCH   8   9
ENDBRANCH   7   8
ENDBRANCH   6   7
ENDBRANCH   5   6
ENDBRANCH   4   5
ENDBRANCH   3   4
ENDBRANCH   1   3
BRANCH   2  13
ATOM     13  C   UNL     1      44.059  28.292   2.246  1.00  0.00     0.027 C 
BRANCH  13  14
ATOM     14  C   UNL     1      45.244  27.317   2.276  1.00  0.00     0.004 C 
BRANCH  14  15
ATOM     15  C   UNL     1      44.855  26.004   2.969  1.00  0.00     0.000 C 
BRANCH  15  16
ATOM     16  C   UNL     1      45.819  25.628   4.107  1.00  0.00     0.000 C 
BRANCH  16  17
ATOM     17  C   UNL     1      46.009  26.772   5.118  1.00  0.00    -0.000 C 
BRANCH  17  18
ATOM     18  C   UNL     1      46.088  26.277   6.574  1.00  0.00    -0.000 C 
BRANCH  18  19
ATOM     19  C   UNL     1      45.596  27.283   7.629  1.00  0.00    -0.003 C 
ATOM     20  C   UNL     1      45.300  26.636   8.981  1.00  0.00     0.004 C 
ENDBRANCH  18  19
ENDBRANCH  17  18
ENDBRANCH  16  17
ENDBRANCH  15  16
ENDBRANCH  14  15
ENDBRANCH  13  14
ENDBRANCH   2  13
TORSDOF 15
ENDMDL
MODEL 7
REMARK VINA RESULT:    -4.410      2.964      4.862
REMARK INTER + INTRA:          -9.554
REMARK INTER:                  -6.784
REMARK INTRA:                  -2.770
REMARK UNBOUND:                -1.277
REMARK SMILES CCCCCCCCC=CCCCCCCCC(=O)[O-]
REMARK SMILES IDX 10 1 9 2 11 3 12 4 13 5 14 6 15 7 16 8 17 9 18 10 19 11
REMARK SMILES IDX 20 12 8 13 7 14 6 15 5 16 4 17 3 18 2 19 1 20
REMARK H PARENT
REMARK Flexibility Score: inf
ROOT
ATOM      1  C   UNL     1      43.760  27.118  -1.010  1.00  0.00    -0.031 C 
ATOM      2  C   UNL     1      43.027  26.744   0.056  1.00  0.00    -0.031 C 
ENDROOT
BRANCH   1   3
ATOM      3  C   UNL     1      43.526  28.365  -1.831  1.00  0.00     0.027 C 
BRANCH   3   4
ATOM      4  C   UNL     1      44.844  28.936  -2.369  1.00  0.00     0.004 C 
BRANCH   4   5
ATOM      5  C   UNL     1      45.969  27.886  -2.377  1.00  0.00     0.000 C 
BRANCH   5   6
ATOM      6  C   UNL     1      46.824  27.946  -3.652  1.00  0.00     0.000 C 
BRANCH   6   7
ATOM      7  C   UNL     1      46.035  28.448  -4.872  1.00  0.00     0.000 C 
BRANCH   7   8
ATOM      8  C   UNL     1      45.543  27.272  -5.729  1.00  0.00     0.006 C 
BRANCH   8   9
ATOM      9  C   UNL     1      44.122  27.498  -6.265  1.00  0.00     0.053 C 
BRANCH   9  10
ATOM     10  C   UNL     1      43.080  27.127  -5.255  1.00  0.00     0.041 C 
ATOM     11  O   UNL     1      43.266  26.150  -4.482  1.00  0.00    -0.550 OA
ATOM     12  O   UNL     1      41.884  27.832  -5.197  1.00  0.00    -0.550 OA
ENDBRANCH   9  10
ENDBRANCH   8   9
ENDBRANCH   7   8
ENDBRANCH   6   7
ENDBRANCH   5   6
ENDBRANCH   4   5
ENDBRANCH   3   4
ENDBRANCH   1   3
BRANCH   2  13
ATOM     13  C   UNL     1      41.884  27.535   0.637  1.00  0.00     0.027 C 
BRANCH  13  14
ATOM     14  C   UNL     1      42.327  28.309   1.886  1.00  0.00     0.004 C 
BRANCH  14  15
ATOM     15  C   UNL     1      42.831  29.710   1.511  1.00  0.00     0.000 C 
BRANCH  15  16
ATOM     16  C   UNL     1      44.343  29.874   1.738  1.00  0.00     0.000 C 
BRANCH  16  17
ATOM     17  C   UNL     1      44.933  28.749   2.605  1.00  0.00    -0.000 C 
BRANCH  17  18
ATOM     18  C   UNL     1      46.063  27.978   1.897  1.00  0.00    -0.000 C 
BRANCH  18  19
ATOM     19  C   UNL     1      46.106  26.469   2.198  1.00  0.00    -0.003 C 
ATOM     20  C   UNL     1      44.944  25.999   3.071  1.00  0.00     0.004 C 
ENDBRANCH  18  19
ENDBRANCH  17  18
ENDBRANCH  16  17
ENDBRANCH  15  16
ENDBRANCH  14  15
ENDBRANCH  13  14
ENDBRANCH   2  13
TORSDOF 15
ENDMDL
MODEL 8
REMARK VINA RESULT:    -4.397      4.070      8.910
REMARK INTER + INTRA:          -9.530
REMARK INTER:                  -8.039
REMARK INTRA:                  -1.492
REMARK UNBOUND:                -1.277
REMARK SMILES CCCCCCCCC=CCCCCCCCC(=O)[O-]
REMARK SMILES IDX 10 1 9 2 11 3 12 4 13 5 14 6 15 7 16 8 17 9 18 10 19 11
REMARK SMILES IDX 20 12 8 13 7 14 6 15 5 16 4 17 3 18 2 19 1 20
REMARK H PARENT
REMARK Flexibility Score: inf
ROOT
ATOM      1  C   UNL     1      44.912  25.805   3.132  1.00  0.00    -0.031 C 
ATOM      2  C   UNL     1      44.217  26.732   2.446  1.00  0.00    -0.031 C 
ENDROOT
BRANCH   1   3
ATOM      3  C   UNL     1      46.406  25.596   3.043  1.00  0.00     0.027 C 
BRANCH   3   4
ATOM      4  C   UNL     1      47.068  25.698   4.422  1.00  0.00     0.004 C 
BRANCH   4   5
ATOM      5  C   UNL     1      46.756  27.036   5.116  1.00  0.00     0.000 C 
BRANCH   5   6
ATOM      6  C   UNL     1      46.000  26.851   6.442  1.00  0.00     0.000 C 
BRANCH   6   7
ATOM      7  C   UNL     1      45.618  28.187   7.097  1.00  0.00     0.000 C 
BRANCH   7   8
ATOM      8  C   UNL     1      45.227  27.984   8.569  1.00  0.00     0.006 C 
BRANCH   8   9
ATOM      9  C   UNL     1      45.218  26.502   8.969  1.00  0.00     0.053 C 
BRANCH   9  10
ATOM     10  C   UNL     1      46.206  26.212  10.056  1.00  0.00     0.041 C 
ATOM     11  O   UNL     1      46.769  27.158  10.669  1.00  0.00    -0.550 OA
ATOM     12  O   UNL     1      46.539  24.899  10.363  1.00  0.00    -0.550 OA
ENDBRANCH   9  10
ENDBRANCH   8   9
ENDBRANCH   7   8
ENDBRANCH   6   7
ENDBRANCH   5   6
ENDBRANCH   4   5
ENDBRANCH   3   4
ENDBRANCH   1   3
BRANCH   2  13
ATOM     13  C   UNL     1      44.824  27.749   1.513  1.00  0.00     0.027 C 
BRANCH  13  14
ATOM     14  C   UNL     1      44.200  29.134   1.728  1.00  0.00     0.004 C 
BRANCH  14  15
ATOM     15  C   UNL     1      42.667  29.055   1.699  1.00  0.00     0.000 C 
BRANCH  15  16
ATOM     16  C   UNL     1      42.050  29.944   0.607  1.00  0.00     0.000 C 
BRANCH  16  17
ATOM     17  C   UNL     1      42.944  30.049  -0.640  1.00  0.00    -0.000 C 
BRANCH  17  18
ATOM     18  C   UNL     1      42.656  28.948  -1.678  1.00  0.00    -0.000 C 
BRANCH  18  19
ATOM     19  C   UNL     1      43.900  28.215  -2.210  1.00  0.00    -0.003 C 
ATOM     20  C   UNL     1      43.977  26.759  -1.754  1.00  0.00     0.004 C 
ENDBRANCH  18  19
ENDBRANCH  17  18
ENDBRANCH  16  17
ENDBRANCH  15  16
ENDBRANCH  14  15
ENDBRANCH  13  14
ENDBRANCH   2  13
TORSDOF 15
ENDMDL
MODEL 9
REMARK VINA RESULT:    -4.291      3.205      7.626
REMARK INTER + INTRA:          -9.330
REMARK INTER:                  -6.441
REMARK INTRA:                  -2.889
REMARK UNBOUND:                -1.277
REMARK SMILES CCCCCCCCC=CCCCCCCCC(=O)[O-]
REMARK SMILES IDX 10 1 9 2 11 3 12 4 13 5 14 6 15 7 16 8 17 9 18 10 19 11
REMARK SMILES IDX 20 12 8 13 7 14 6 15 5 16 4 17 3 18 2 19 1 20
REMARK H PARENT
REMARK Flexibility Score: inf
ROOT
ATOM      1  C   UNL     1      43.210  26.697  -0.104  1.00  0.00    -0.031 C 
ATOM      2  C   UNL     1      43.993  27.171  -1.092  1.00  0.00    -0.031 C 
ENDROOT
BRANCH   1   3
ATOM      3  C   UNL     1      42.167  27.499   0.640  1.00  0.00     0.027 C 
BRANCH   3   4
ATOM      4  C   UNL     1      42.700  27.990   1.992  1.00  0.00     0.004 C 
BRANCH   4   5
ATOM      5  C   UNL     1      43.175  29.453   1.929  1.00  0.00     0.000 C 
BRANCH   5   6
ATOM      6  C   UNL     1      44.588  29.641   2.504  1.00  0.00     0.000 C 
BRANCH   6   7
ATOM      7  C   UNL     1      45.689  29.216   1.520  1.00  0.00     0.000 C 
BRANCH   7   8
ATOM      8  C   UNL     1      46.646  28.205   2.170  1.00  0.00     0.006 C 
BRANCH   8   9
ATOM      9  C   UNL     1      46.227  26.753   1.900  1.00  0.00     0.053 C 
BRANCH   9  10
ATOM     10  C   UNL     1      45.707  26.084   3.135  1.00  0.00     0.041 C 
ATOM     11  O   UNL     1      45.253  24.910   3.076  1.00  0.00    -0.550 OA
ATOM     12  O   UNL     1      45.683  26.771   4.342  1.00  0.00    -0.550 OA
ENDBRANCH   9  10
ENDBRANCH   8   9
ENDBRANCH   7   8
ENDBRANCH   6   7
ENDBRANCH   5   6
ENDBRANCH   4   5
ENDBRANCH   3   4
ENDBRANCH   1   3
BRANCH   2  13
ATOM     13  C   UNL     1      43.921  28.568  -1.653  1.00  0.00     0.027 C 
BRANCH  13  14
ATOM     14  C   UNL     1      45.281  29.008  -2.210  1.00  0.00     0.004 C 
BRANCH  14  15
ATOM     15  C   UNL     1      46.284  27.845  -2.190  1.00  0.00     0.000 C 
BRANCH  15  16
ATOM     16  C   UNL     1      46.598  27.312  -3.598  1.00  0.00     0.000 C 
BRANCH  16  17
ATOM     17  C   UNL     1      45.862  28.093  -4.700  1.00  0.00    -0.000 C 
BRANCH  17  18
ATOM     18  C   UNL     1      44.953  27.198  -5.563  1.00  0.00    -0.000 C 
BRANCH  18  19
ATOM     19  C   UNL     1      43.638  26.768  -4.890  1.00  0.00    -0.003 C 
ATOM     20  C   UNL     1      42.501  27.765  -5.105  1.00  0.00     0.004 C 
ENDBRANCH  18  19
ENDBRANCH  17  18
ENDBRANCH  16  17
ENDBRANCH  15  16
ENDBRANCH  14  15
ENDBRANCH  13  14
ENDBRANCH   2  13
TORSDOF 15
ENDMDL
