MODEL 1
REMARK VINA RESULT:    16.316      0.000      0.000
REMARK INTER + INTRA:          18.859
REMARK INTER:                  19.177
REMARK INTRA:                  -0.318
REMARK UNBOUND:                -0.318
REMARK SMILES O=c1cc(-c2ccc(O)c(O)c2)oc2cc(O)cc(O)c12
REMARK SMILES IDX 4 1 3 2 2 3 1 4 21 5 19 6 18 7 16 8 15 9 14 10 13 11 5 12
REMARK SMILES IDX 6 13 7 14 8 15 12 16 10 17 9 18 11 20 20 22 17 24
REMARK H PARENT 9 19 11 21 20 23 17 25
REMARK Flexibility Score: inf
ROOT
ATOM      1  C   UNL     1       5.016   9.391 -11.306  1.00  0.00     0.138 A 
ATOM      2  C   UNL     1       6.165   8.836 -11.886  1.00  0.00     0.100 A 
ATOM      3  C   UNL     1       6.502   9.165 -13.199  1.00  0.00     0.197 A 
ATOM      4  O   UNL     1       7.504   8.603 -13.712  1.00  0.00    -0.289 OA
ATOM      5  C   UNL     1       5.701  10.079 -13.924  1.00  0.00     0.107 A 
ATOM      6  C   UNL     1       5.971  10.519 -15.254  1.00  0.00     0.134 A 
ATOM      7  C   UNL     1       5.043  11.336 -15.912  1.00  0.00     0.093 A 
ATOM      8  C   UNL     1       3.886  11.777 -15.267  1.00  0.00     0.123 A 
ATOM      9  C   UNL     1       3.641  11.398 -13.949  1.00  0.00     0.094 A 
ATOM     10  C   UNL     1       4.530  10.555 -13.278  1.00  0.00     0.146 A 
ATOM     11  O   UNL     1       4.250  10.204 -12.026  1.00  0.00    -0.456 OA
ENDROOT
BRANCH   1  12
ATOM     12  C   UNL     1       4.610   9.077  -9.912  1.00  0.00     0.021 A 
ATOM     13  C   UNL     1       5.396   8.201  -9.144  1.00  0.00     0.016 A 
ATOM     14  C   UNL     1       5.032   7.884  -7.833  1.00  0.00     0.051 A 
ATOM     15  C   UNL     1       3.875   8.426  -7.270  1.00  0.00     0.157 A 
ATOM     16  C   UNL     1       3.437   9.611  -9.345  1.00  0.00     0.062 A 
ATOM     17  C   UNL     1       3.071   9.291  -8.028  1.00  0.00     0.158 A 
BRANCH  15  18
ATOM     18  O   UNL     1       3.538   8.091  -5.958  1.00  0.00    -0.504 OA
ATOM     19  H   UNL     1       2.699   8.443  -5.511  1.00  0.00     0.293 HD
ENDBRANCH  15  18
BRANCH  17  20
ATOM     20  O   UNL     1       1.908   9.826  -7.476  1.00  0.00    -0.504 OA
ATOM     21  H   UNL     1       1.926  10.371  -6.622  1.00  0.00     0.293 HD
ENDBRANCH  17  20
ENDBRANCH   1  12
BRANCH   6  22
ATOM     22  O   UNL     1       7.138  10.205 -15.958  1.00  0.00    -0.507 OA
ATOM     23  H   UNL     1       8.075  10.361 -15.620  1.00  0.00     0.293 HD
ENDBRANCH   6  22
BRANCH   8  24
ATOM     24  O   UNL     1       2.977  12.602 -15.924  1.00  0.00    -0.508 OA
ATOM     25  H   UNL     1       3.159  13.590 -16.063  1.00  0.00     0.293 HD
ENDBRANCH   8  24
TORSDOF 5
ENDMDL
MODEL 2
REMARK VINA RESULT:    16.702     12.943     14.615
REMARK INTER + INTRA:          19.313
REMARK INTER:                  19.579
REMARK INTRA:                  -0.266
REMARK UNBOUND:                -0.318
REMARK SMILES O=c1cc(-c2ccc(O)c(O)c2)oc2cc(O)cc(O)c12
REMARK SMILES IDX 4 1 3 2 2 3 1 4 21 5 19 6 18 7 16 8 15 9 14 10 13 11 5 12
REMARK SMILES IDX 6 13 7 14 8 15 12 16 10 17 9 18 11 20 20 22 17 24
REMARK H PARENT 9 19 11 21 20 23 17 25
REMARK Flexibility Score: inf
ROOT
ATOM      1  C   UNL     1      18.467  11.532 -12.713  1.00  0.00     0.138 A 
ATOM      2  C   UNL     1      18.797  10.260 -13.202  1.00  0.00     0.100 A 
ATOM      3  C   UNL     1      19.780  10.132 -14.182  1.00  0.00     0.197 A 
ATOM      4  O   UNL     1      20.010   8.985 -14.646  1.00  0.00    -0.289 OA
ATOM      5  C   UNL     1      20.460  11.281 -14.653  1.00  0.00     0.107 A 
ATOM      6  C   UNL     1      21.507  11.266 -15.621  1.00  0.00     0.134 A 
ATOM      7  C   UNL     1      22.025  12.477 -16.097  1.00  0.00     0.093 A 
ATOM      8  C   UNL     1      21.574  13.700 -15.595  1.00  0.00     0.123 A 
ATOM      9  C   UNL     1      20.589  13.723 -14.610  1.00  0.00     0.094 A 
ATOM     10  C   UNL     1      20.029  12.533 -14.141  1.00  0.00     0.146 A 
ATOM     11  O   UNL     1      19.080  12.600 -13.212  1.00  0.00    -0.456 OA
ENDROOT
BRANCH   1  12
ATOM     12  C   UNL     1      17.429  11.727 -11.669  1.00  0.00     0.021 A 
ATOM     13  C   UNL     1      16.267  12.455 -11.977  1.00  0.00     0.016 A 
ATOM     14  C   UNL     1      15.279  12.658 -11.010  1.00  0.00     0.051 A 
ATOM     15  C   UNL     1      15.437  12.147  -9.719  1.00  0.00     0.157 A 
ATOM     16  C   UNL     1      17.591  11.226 -10.363  1.00  0.00     0.062 A 
ATOM     17  C   UNL     1      16.599  11.431  -9.391  1.00  0.00     0.158 A 
BRANCH  15  18
ATOM     18  O   UNL     1      14.433  12.366  -8.776  1.00  0.00    -0.504 OA
ATOM     19  H   UNL     1      14.449  11.928  -7.862  1.00  0.00     0.293 HD
ENDBRANCH  15  18
BRANCH  17  20
ATOM     20  O   UNL     1      16.769  10.929  -8.101  1.00  0.00    -0.504 OA
ATOM     21  H   UNL     1      17.078   9.979  -7.937  1.00  0.00     0.293 HD
ENDBRANCH  17  20
ENDBRANCH   1  12
BRANCH   6  22
ATOM     22  O   UNL     1      22.089  10.098 -16.125  1.00  0.00    -0.507 OA
ATOM     23  H   UNL     1      22.190   9.236 -15.611  1.00  0.00     0.293 HD
ENDBRANCH   6  22
BRANCH   8  24
ATOM     24  O   UNL     1      22.106  14.900 -16.063  1.00  0.00    -0.508 OA
ATOM     25  H   UNL     1      23.101  15.087 -16.031  1.00  0.00     0.293 HD
ENDBRANCH   8  24
TORSDOF 5
ENDMDL
MODEL 3
REMARK VINA RESULT:    17.540     11.686     13.872
REMARK INTER + INTRA:          20.298
REMARK INTER:                  20.593
REMARK INTRA:                  -0.295
REMARK UNBOUND:                -0.318
REMARK SMILES O=c1cc(-c2ccc(O)c(O)c2)oc2cc(O)cc(O)c12
REMARK SMILES IDX 4 1 3 2 2 3 1 4 21 5 19 6 18 7 16 8 15 9 14 10 13 11 5 12
REMARK SMILES IDX 6 13 7 14 8 15 12 16 10 17 9 18 11 20 20 22 17 24
REMARK H PARENT 9 19 11 21 20 23 17 25
REMARK Flexibility Score: inf
ROOT
ATOM      1  C   UNL     1      17.202  10.813 -14.066  1.00  0.00     0.138 A 
ATOM      2  C   UNL     1      17.748   9.617 -14.552  1.00  0.00     0.100 A 
ATOM      3  C   UNL     1      19.118   9.536 -14.805  1.00  0.00     0.197 A 
ATOM      4  O   UNL     1      19.569   8.470 -15.299  1.00  0.00    -0.289 OA
ATOM      5  C   UNL     1      19.950  10.650 -14.540  1.00  0.00     0.107 A 
ATOM      6  C   UNL     1      21.364  10.669 -14.721  1.00  0.00     0.134 A 
ATOM      7  C   UNL     1      22.068  11.867 -14.536  1.00  0.00     0.093 A 
ATOM      8  C   UNL     1      21.415  13.029 -14.119  1.00  0.00     0.123 A 
ATOM      9  C   UNL     1      20.042  13.006 -13.888  1.00  0.00     0.094 A 
ATOM     10  C   UNL     1      19.307  11.837 -14.096  1.00  0.00     0.146 A 
ATOM     11  O   UNL     1      17.996  11.862 -13.878  1.00  0.00    -0.456 OA
ENDROOT
BRANCH   1  12
ATOM     12  C   UNL     1      15.753  10.954 -13.779  1.00  0.00     0.021 A 
ATOM     13  C   UNL     1      15.298  12.059 -13.039  1.00  0.00     0.016 A 
ATOM     14  C   UNL     1      13.940  12.210 -12.750  1.00  0.00     0.051 A 
ATOM     15  C   UNL     1      13.014  11.258 -13.184  1.00  0.00     0.157 A 
ATOM     16  C   UNL     1      14.817   9.990 -14.204  1.00  0.00     0.062 A 
ATOM     17  C   UNL     1      13.453  10.141 -13.911  1.00  0.00     0.158 A 
BRANCH  15  18
ATOM     18  O   UNL     1      11.664  11.437 -12.880  1.00  0.00    -0.504 OA
ATOM     19  H   UNL     1      11.249  11.062 -12.035  1.00  0.00     0.293 HD
ENDBRANCH  15  18
BRANCH  17  20
ATOM     20  O   UNL     1      12.536   9.181 -14.337  1.00  0.00    -0.504 OA
ATOM     21  H   UNL     1      12.814   8.225 -14.523  1.00  0.00     0.293 HD
ENDBRANCH  17  20
ENDBRANCH   1  12
BRANCH   6  22
ATOM     22  O   UNL     1      22.125   9.544 -15.053  1.00  0.00    -0.507 OA
ATOM     23  H   UNL     1      22.990   9.280 -14.608  1.00  0.00     0.293 HD
ENDBRANCH   6  22
BRANCH   8  24
ATOM     24  O   UNL     1      22.125  14.211 -13.924  1.00  0.00    -0.508 OA
ATOM     25  H   UNL     1      21.726  15.114 -14.154  1.00  0.00     0.293 HD
ENDBRANCH   8  24
TORSDOF 5
ENDMDL
MODEL 4
REMARK VINA RESULT:    18.329     11.437     14.162
REMARK INTER + INTRA:          21.225
REMARK INTER:                  21.489
REMARK INTRA:                  -0.264
REMARK UNBOUND:                -0.318
REMARK SMILES O=c1cc(-c2ccc(O)c(O)c2)oc2cc(O)cc(O)c12
REMARK SMILES IDX 4 1 3 2 2 3 1 4 21 5 19 6 18 7 16 8 15 9 14 10 13 11 5 12
REMARK SMILES IDX 6 13 7 14 8 15 12 16 10 17 9 18 11 20 20 22 17 24
REMARK H PARENT 9 19 11 21 20 23 17 25
REMARK Flexibility Score: inf
ROOT
ATOM      1  C   UNL     1      17.773  11.670 -14.289  1.00  0.00     0.138 A 
ATOM      2  C   UNL     1      17.920  10.287 -14.469  1.00  0.00     0.100 A 
ATOM      3  C   UNL     1      16.815   9.450 -14.315  1.00  0.00     0.197 A 
ATOM      4  O   UNL     1      16.990   8.209 -14.421  1.00  0.00    -0.289 OA
ATOM      5  C   UNL     1      15.549  10.005 -14.009  1.00  0.00     0.107 A 
ATOM      6  C   UNL     1      14.345   9.253 -13.869  1.00  0.00     0.134 A 
ATOM      7  C   UNL     1      13.173   9.897 -13.450  1.00  0.00     0.093 A 
ATOM      8  C   UNL     1      13.151  11.276 -13.225  1.00  0.00     0.123 A 
ATOM      9  C   UNL     1      14.308  12.027 -13.412  1.00  0.00     0.094 A 
ATOM     10  C   UNL     1      15.500  11.408 -13.796  1.00  0.00     0.146 A 
ATOM     11  O   UNL     1      16.586  12.159 -13.949  1.00  0.00    -0.456 OA
ENDROOT
BRANCH   1  12
ATOM     12  C   UNL     1      18.915  12.606 -14.442  1.00  0.00     0.021 A 
ATOM     13  C   UNL     1      18.960  13.466 -15.553  1.00  0.00     0.016 A 
ATOM     14  C   UNL     1      20.028  14.351 -15.724  1.00  0.00     0.051 A 
ATOM     15  C   UNL     1      21.072  14.387 -14.796  1.00  0.00     0.157 A 
ATOM     16  C   UNL     1      19.977  12.636 -13.517  1.00  0.00     0.062 A 
ATOM     17  C   UNL     1      21.050  13.524 -13.689  1.00  0.00     0.158 A 
BRANCH  15  18
ATOM     18  O   UNL     1      22.124  15.282 -14.993  1.00  0.00    -0.504 OA
ATOM     19  H   UNL     1      22.654  15.307 -15.856  1.00  0.00     0.293 HD
ENDBRANCH  15  18
BRANCH  17  20
ATOM     20  O   UNL     1      22.095  13.546 -12.766  1.00  0.00    -0.504 OA
ATOM     21  H   UNL     1      22.129  14.226 -12.017  1.00  0.00     0.293 HD
ENDBRANCH  17  20
ENDBRANCH   1  12
BRANCH   6  22
ATOM     22  O   UNL     1      14.239   7.888 -14.150  1.00  0.00    -0.507 OA
ATOM     23  H   UNL     1      13.796   7.500 -14.969  1.00  0.00     0.293 HD
ENDBRANCH   6  22
BRANCH   8  24
ATOM     24  O   UNL     1      11.977  11.911 -12.823  1.00  0.00    -0.508 OA
ATOM     25  H   UNL     1      11.082  11.686 -13.243  1.00  0.00     0.293 HD
ENDBRANCH   8  24
TORSDOF 5
ENDMDL
MODEL 5
REMARK VINA RESULT:    18.438      1.319      1.879
REMARK INTER + INTRA:          21.354
REMARK INTER:                  21.650
REMARK INTRA:                  -0.296
REMARK UNBOUND:                -0.318
REMARK SMILES O=c1cc(-c2ccc(O)c(O)c2)oc2cc(O)cc(O)c12
REMARK SMILES IDX 4 1 3 2 2 3 1 4 21 5 19 6 18 7 16 8 15 9 14 10 13 11 5 12
REMARK SMILES IDX 6 13 7 14 8 15 12 16 10 17 9 18 11 20 20 22 17 24
REMARK H PARENT 9 19 11 21 20 23 17 25
REMARK Flexibility Score: inf
ROOT
ATOM      1  C   UNL     1       5.316   9.464 -11.320  1.00  0.00     0.138 A 
ATOM      2  C   UNL     1       6.586   9.690 -11.867  1.00  0.00     0.100 A 
ATOM      3  C   UNL     1       6.702  10.089 -13.199  1.00  0.00     0.197 A 
ATOM      4  O   UNL     1       7.857  10.223 -13.680  1.00  0.00    -0.289 OA
ATOM      5  C   UNL     1       5.538  10.294 -13.977  1.00  0.00     0.107 A 
ATOM      6  C   UNL     1       5.533  10.740 -15.332  1.00  0.00     0.134 A 
ATOM      7  C   UNL     1       4.324  10.794 -16.037  1.00  0.00     0.093 A 
ATOM      8  C   UNL     1       3.114  10.477 -15.416  1.00  0.00     0.123 A 
ATOM      9  C   UNL     1       3.102  10.093 -14.078  1.00  0.00     0.094 A 
ATOM     10  C   UNL     1       4.295   9.995 -13.358  1.00  0.00     0.146 A 
ATOM     11  O   UNL     1       4.241   9.610 -12.087  1.00  0.00    -0.456 OA
ENDROOT
BRANCH   1  12
ATOM     12  C   UNL     1       5.134   9.039  -9.909  1.00  0.00     0.021 A 
ATOM     13  C   UNL     1       3.839   8.974  -9.367  1.00  0.00     0.016 A 
ATOM     14  C   UNL     1       3.642   8.584  -8.040  1.00  0.00     0.051 A 
ATOM     15  C   UNL     1       4.733   8.262  -7.229  1.00  0.00     0.157 A 
ATOM     16  C   UNL     1       6.232   8.727  -9.083  1.00  0.00     0.062 A 
ATOM     17  C   UNL     1       6.034   8.337  -7.749  1.00  0.00     0.158 A 
BRANCH  15  18
ATOM     18  O   UNL     1       4.505   7.875  -5.908  1.00  0.00    -0.504 OA
ATOM     19  H   UNL     1       3.985   7.037  -5.674  1.00  0.00     0.293 HD
ENDBRANCH  15  18
BRANCH  17  20
ATOM     20  O   UNL     1       7.128   8.029  -6.941  1.00  0.00    -0.504 OA
ATOM     21  H   UNL     1       7.735   7.243  -7.144  1.00  0.00     0.293 HD
ENDBRANCH  17  20
ENDBRANCH   1  12
BRANCH   6  22
ATOM     22  O   UNL     1       6.676  11.162 -16.019  1.00  0.00    -0.507 OA
ATOM     23  H   UNL     1       7.525  11.485 -15.582  1.00  0.00     0.293 HD
ENDBRANCH   6  22
BRANCH   8  24
ATOM     24  O   UNL     1       1.914  10.548 -16.121  1.00  0.00    -0.508 OA
ATOM     25  H   UNL     1       1.861  10.306 -17.104  1.00  0.00     0.293 HD
ENDBRANCH   8  24
TORSDOF 5
ENDMDL
