MODEL 1
REMARK VINA RESULT:    -4.692      0.000      0.000
REMARK INTER + INTRA:          -5.634
REMARK INTER:                  -5.514
REMARK INTRA:                  -0.120
REMARK UNBOUND:                -0.120
REMARK SMILES O=C([O-])C=Cc1ccc(O)c(O)c1
REMARK SMILES IDX 6 1 13 2 7 3 11 4 8 5 9 6 5 7 4 8 2 9 1 10 3 11 12 12 10 14
REMARK H PARENT 12 13 10 15
REMARK Flexibility Score: inf
ROOT
ATOM      1  C   UNL     1     -11.391  82.540 -10.218  1.00  0.00    -0.022 A 
ATOM      2  C   UNL     1     -12.569  83.286 -10.018  1.00  0.00     0.058 A 
ATOM      3  C   UNL     1     -11.271  81.764 -11.380  1.00  0.00     0.012 A 
ATOM      4  C   UNL     1     -13.597  83.279 -10.970  1.00  0.00     0.157 A 
ATOM      5  C   UNL     1     -12.290  81.754 -12.334  1.00  0.00     0.051 A 
ATOM      6  C   UNL     1     -13.453  82.507 -12.146  1.00  0.00     0.157 A 
ENDROOT
BRANCH   1   7
ATOM      7  C   UNL     1     -10.285  82.512  -9.229  1.00  0.00     0.010 C 
ATOM      8  C   UNL     1      -9.420  83.522  -9.050  1.00  0.00     0.025 C 
BRANCH   8   9
ATOM      9  C   UNL     1      -8.326  83.453  -8.067  1.00  0.00     0.064 C 
ATOM     10  O   UNL     1      -8.541  83.104  -6.875  1.00  0.00    -0.545 OA
ATOM     11  O   UNL     1      -7.036  83.781  -8.460  1.00  0.00    -0.545 OA
ENDBRANCH   8   9
ENDBRANCH   1   7
BRANCH   4  12
ATOM     12  O   UNL     1     -14.736  84.041 -10.704  1.00  0.00    -0.504 OA
ATOM     13  H   UNL     1     -15.662  83.811 -11.038  1.00  0.00     0.293 HD
ENDBRANCH   4  12
BRANCH   6  14
ATOM     14  O   UNL     1     -14.431  82.457 -13.142  1.00  0.00    -0.504 OA
ATOM     15  H   UNL     1     -14.551  83.165 -13.852  1.00  0.00     0.293 HD
ENDBRANCH   6  14
TORSDOF 4
ENDMDL
MODEL 2
REMARK VINA RESULT:    -4.098      6.501      8.529
REMARK INTER + INTRA:          -4.937
REMARK INTER:                  -4.813
REMARK INTRA:                  -0.123
REMARK UNBOUND:                -0.120
REMARK SMILES O=C([O-])C=Cc1ccc(O)c(O)c1
REMARK SMILES IDX 6 1 13 2 7 3 11 4 8 5 9 6 5 7 4 8 2 9 1 10 3 11 12 12 10 14
REMARK H PARENT 12 13 10 15
REMARK Flexibility Score: inf
ROOT
ATOM      1  C   UNL     1      -5.405  85.092  -9.791  1.00  0.00    -0.022 A 
ATOM      2  C   UNL     1      -4.267  85.544  -9.094  1.00  0.00     0.058 A 
ATOM      3  C   UNL     1      -5.499  83.732 -10.121  1.00  0.00     0.012 A 
ATOM      4  C   UNL     1      -3.255  84.654  -8.711  1.00  0.00     0.157 A 
ATOM      5  C   UNL     1      -4.497  82.839  -9.740  1.00  0.00     0.051 A 
ATOM      6  C   UNL     1      -3.375  83.282  -9.034  1.00  0.00     0.157 A 
ENDROOT
BRANCH   1   7
ATOM      7  C   UNL     1      -6.491  86.005 -10.225  1.00  0.00     0.010 C 
ATOM      8  C   UNL     1      -6.291  87.279 -10.594  1.00  0.00     0.025 C 
BRANCH   8   9
ATOM      9  C   UNL     1      -7.396  88.159 -11.007  1.00  0.00     0.064 C 
ATOM     10  O   UNL     1      -8.421  88.300 -10.288  1.00  0.00    -0.545 OA
ATOM     11  O   UNL     1      -7.307  88.845 -12.211  1.00  0.00    -0.545 OA
ENDBRANCH   8   9
ENDBRANCH   1   7
BRANCH   4  12
ATOM     12  O   UNL     1      -2.156  85.173  -8.024  1.00  0.00    -0.504 OA
ATOM     13  H   UNL     1      -1.971  86.160  -7.917  1.00  0.00     0.293 HD
ENDBRANCH   4  12
BRANCH   6  14
ATOM     14  O   UNL     1      -2.411  82.335  -8.678  1.00  0.00    -0.504 OA
ATOM     15  H   UNL     1      -2.589  81.550  -8.068  1.00  0.00     0.293 HD
ENDBRANCH   6  14
TORSDOF 4
ENDMDL
MODEL 3
REMARK VINA RESULT:    -4.068      4.676      6.379
REMARK INTER + INTRA:          -4.901
REMARK INTER:                  -4.779
REMARK INTRA:                  -0.121
REMARK UNBOUND:                -0.120
REMARK SMILES O=C([O-])C=Cc1ccc(O)c(O)c1
REMARK SMILES IDX 6 1 13 2 7 3 11 4 8 5 9 6 5 7 4 8 2 9 1 10 3 11 12 12 10 14
REMARK H PARENT 12 13 10 15
REMARK Flexibility Score: inf
ROOT
ATOM      1  C   UNL     1      -5.499  84.198  -9.581  1.00  0.00    -0.022 A 
ATOM      2  C   UNL     1      -6.834  83.778  -9.423  1.00  0.00     0.058 A 
ATOM      3  C   UNL     1      -5.249  85.503 -10.028  1.00  0.00     0.012 A 
ATOM      4  C   UNL     1      -7.899  84.650  -9.683  1.00  0.00     0.157 A 
ATOM      5  C   UNL     1      -6.304  86.379 -10.285  1.00  0.00     0.051 A 
ATOM      6  C   UNL     1      -7.630  85.971 -10.114  1.00  0.00     0.157 A 
ENDROOT
BRANCH   1   7
ATOM      7  C   UNL     1      -4.344  83.300  -9.328  1.00  0.00     0.010 C 
ATOM      8  C   UNL     1      -4.148  82.645  -8.174  1.00  0.00     0.025 C 
BRANCH   8   9
ATOM      9  C   UNL     1      -2.983  81.772  -7.955  1.00  0.00     0.064 C 
ATOM     10  O   UNL     1      -2.335  81.809  -6.875  1.00  0.00    -0.545 OA
ATOM     11  O   UNL     1      -2.590  80.896  -8.958  1.00  0.00    -0.545 OA
ENDBRANCH   8   9
ENDBRANCH   1   7
BRANCH   4  12
ATOM     12  O   UNL     1      -9.197  84.165  -9.507  1.00  0.00    -0.504 OA
ATOM     13  H   UNL     1      -9.474  83.212  -9.692  1.00  0.00     0.293 HD
ENDBRANCH   4  12
BRANCH   6  14
ATOM     14  O   UNL     1      -8.640  86.898 -10.383  1.00  0.00    -0.504 OA
ATOM     15  H   UNL     1      -9.057  87.030 -11.293  1.00  0.00     0.293 HD
ENDBRANCH   6  14
TORSDOF 4
ENDMDL
MODEL 4
REMARK VINA RESULT:    -4.035      1.293      2.279
REMARK INTER + INTRA:          -4.863
REMARK INTER:                  -4.730
REMARK INTRA:                  -0.132
REMARK UNBOUND:                -0.120
REMARK SMILES O=C([O-])C=Cc1ccc(O)c(O)c1
REMARK SMILES IDX 6 1 13 2 7 3 11 4 8 5 9 6 5 7 4 8 2 9 1 10 3 11 12 12 10 14
REMARK H PARENT 12 13 10 15
REMARK Flexibility Score: inf
ROOT
ATOM      1  C   UNL     1     -10.665  83.131  -9.518  1.00  0.00    -0.022 A 
ATOM      2  C   UNL     1     -11.230  82.160 -10.366  1.00  0.00     0.058 A 
ATOM      3  C   UNL     1     -11.424  84.263  -9.185  1.00  0.00     0.012 A 
ATOM      4  C   UNL     1     -12.536  82.302 -10.855  1.00  0.00     0.157 A 
ATOM      5  C   UNL     1     -12.726  84.409  -9.665  1.00  0.00     0.051 A 
ATOM      6  C   UNL     1     -13.296  83.439 -10.494  1.00  0.00     0.157 A 
ENDROOT
BRANCH   1   7
ATOM      7  C   UNL     1      -9.282  83.024  -8.990  1.00  0.00     0.010 C 
ATOM      8  C   UNL     1      -8.244  83.723  -9.474  1.00  0.00     0.025 C 
BRANCH   8   9
ATOM      9  C   UNL     1      -6.882  83.581  -8.933  1.00  0.00     0.064 C 
ATOM     10  O   UNL     1      -6.638  83.797  -7.716  1.00  0.00    -0.545 OA
ATOM     11  O   UNL     1      -5.848  83.204  -9.780  1.00  0.00    -0.545 OA
ENDBRANCH   8   9
ENDBRANCH   1   7
BRANCH   4  12
ATOM     12  O   UNL     1     -13.030  81.300 -11.693  1.00  0.00    -0.504 OA
ATOM     13  H   UNL     1     -12.449  80.699 -12.259  1.00  0.00     0.293 HD
ENDBRANCH   4  12
BRANCH   6  14
ATOM     14  O   UNL     1     -14.605  83.643 -10.935  1.00  0.00    -0.504 OA
ATOM     15  H   UNL     1     -15.115  84.506 -10.812  1.00  0.00     0.293 HD
ENDBRANCH   6  14
TORSDOF 4
ENDMDL
MODEL 5
REMARK VINA RESULT:    -4.024      6.778      9.018
REMARK INTER + INTRA:          -4.849
REMARK INTER:                  -4.702
REMARK INTRA:                  -0.147
REMARK UNBOUND:                -0.120
REMARK SMILES O=C([O-])C=Cc1ccc(O)c(O)c1
REMARK SMILES IDX 6 1 13 2 7 3 11 4 8 5 9 6 5 7 4 8 2 9 1 10 3 11 12 12 10 14
REMARK H PARENT 12 13 10 15
REMARK Flexibility Score: inf
ROOT
ATOM      1  C   UNL     1      -4.297  86.722  -8.660  1.00  0.00    -0.022 A 
ATOM      2  C   UNL     1      -3.384  85.652  -8.584  1.00  0.00     0.058 A 
ATOM      3  C   UNL     1      -5.517  86.524  -9.323  1.00  0.00     0.012 A 
ATOM      4  C   UNL     1      -3.691  84.402  -9.137  1.00  0.00     0.157 A 
ATOM      5  C   UNL     1      -5.831  85.281  -9.874  1.00  0.00     0.051 A 
ATOM      6  C   UNL     1      -4.934  84.212  -9.785  1.00  0.00     0.157 A 
ENDROOT
BRANCH   1   7
ATOM      7  C   UNL     1      -4.004  88.064  -8.098  1.00  0.00     0.010 C 
ATOM      8  C   UNL     1      -4.376  89.213  -8.682  1.00  0.00     0.025 C 
BRANCH   8   9
ATOM      9  C   UNL     1      -4.056  90.528  -8.102  1.00  0.00     0.064 C 
ATOM     10  O   UNL     1      -4.406  91.595  -8.673  1.00  0.00    -0.545 OA
ATOM     11  O   UNL     1      -3.356  90.592  -6.905  1.00  0.00    -0.545 OA
ENDBRANCH   8   9
ENDBRANCH   1   7
BRANCH   4  12
ATOM     12  O   UNL     1      -2.738  83.388  -9.025  1.00  0.00    -0.504 OA
ATOM     13  H   UNL     1      -2.102  83.293  -8.247  1.00  0.00     0.293 HD
ENDBRANCH   4  12
BRANCH   6  14
ATOM     14  O   UNL     1      -5.313  82.993 -10.352  1.00  0.00    -0.504 OA
ATOM     15  H   UNL     1      -5.495  82.155  -9.818  1.00  0.00     0.293 HD
ENDBRANCH   6  14
TORSDOF 4
ENDMDL
MODEL 6
REMARK VINA RESULT:    -4.023     16.541     17.750
REMARK INTER + INTRA:          -4.848
REMARK INTER:                  -4.718
REMARK INTRA:                  -0.130
REMARK UNBOUND:                -0.120
REMARK SMILES O=C([O-])C=Cc1ccc(O)c(O)c1
REMARK SMILES IDX 6 1 13 2 7 3 11 4 8 5 9 6 5 7 4 8 2 9 1 10 3 11 12 12 10 14
REMARK H PARENT 12 13 10 15
REMARK Flexibility Score: inf
ROOT
ATOM      1  C   UNL     1      -2.304  91.905 -21.537  1.00  0.00    -0.022 A 
ATOM      2  C   UNL     1      -2.235  90.542 -21.188  1.00  0.00     0.058 A 
ATOM      3  C   UNL     1      -2.253  92.867 -20.518  1.00  0.00     0.012 A 
ATOM      4  C   UNL     1      -2.094  90.147 -19.851  1.00  0.00     0.157 A 
ATOM      5  C   UNL     1      -2.110  92.482 -19.185  1.00  0.00     0.051 A 
ATOM      6  C   UNL     1      -2.024  91.130 -18.837  1.00  0.00     0.157 A 
ENDROOT
BRANCH   1   7
ATOM      7  C   UNL     1      -2.466  92.363 -22.939  1.00  0.00     0.010 C 
ATOM      8  C   UNL     1      -3.638  92.746 -23.467  1.00  0.00     0.025 C 
BRANCH   8   9
ATOM      9  C   UNL     1      -3.763  93.183 -24.867  1.00  0.00     0.064 C 
ATOM     10  O   UNL     1      -3.248  92.520 -25.806  1.00  0.00    -0.545 OA
ATOM     11  O   UNL     1      -4.460  94.348 -25.157  1.00  0.00    -0.545 OA
ENDBRANCH   8   9
ENDBRANCH   1   7
BRANCH   4  12
ATOM     12  O   UNL     1      -2.034  88.779 -19.579  1.00  0.00    -0.504 OA
ATOM     13  H   UNL     1      -1.498  88.375 -18.824  1.00  0.00     0.293 HD
ENDBRANCH   4  12
BRANCH   6  14
ATOM     14  O   UNL     1      -1.875  90.812 -17.485  1.00  0.00    -0.504 OA
ATOM     15  H   UNL     1      -0.999  90.540 -17.062  1.00  0.00     0.293 HD
ENDBRANCH   6  14
TORSDOF 4
ENDMDL
MODEL 7
REMARK VINA RESULT:    -4.016      3.173      7.323
REMARK INTER + INTRA:          -4.841
REMARK INTER:                  -4.717
REMARK INTRA:                  -0.124
REMARK UNBOUND:                -0.120
REMARK SMILES O=C([O-])C=Cc1ccc(O)c(O)c1
REMARK SMILES IDX 6 1 13 2 7 3 11 4 8 5 9 6 5 7 4 8 2 9 1 10 3 11 12 12 10 14
REMARK H PARENT 12 13 10 15
REMARK Flexibility Score: inf
ROOT
ATOM      1  C   UNL     1      -6.983  84.172  -9.062  1.00  0.00    -0.022 A 
ATOM      2  C   UNL     1      -6.138  83.326  -9.806  1.00  0.00     0.058 A 
ATOM      3  C   UNL     1      -6.409  85.202  -8.303  1.00  0.00     0.012 A 
ATOM      4  C   UNL     1      -4.750  83.519  -9.815  1.00  0.00     0.157 A 
ATOM      5  C   UNL     1      -5.028  85.403  -8.309  1.00  0.00     0.051 A 
ATOM      6  C   UNL     1      -4.188  84.576  -9.060  1.00  0.00     0.157 A 
ENDROOT
BRANCH   1   7
ATOM      7  C   UNL     1      -8.455  83.992  -9.017  1.00  0.00     0.010 C 
ATOM      8  C   UNL     1      -9.080  82.869  -9.400  1.00  0.00     0.025 C 
BRANCH   8   9
ATOM      9  C   UNL     1     -10.546  82.732  -9.353  1.00  0.00     0.064 C 
ATOM     10  O   UNL     1     -11.163  82.036 -10.203  1.00  0.00    -0.545 OA
ATOM     11  O   UNL     1     -11.259  83.383  -8.356  1.00  0.00    -0.545 OA
ENDBRANCH   8   9
ENDBRANCH   1   7
BRANCH   4  12
ATOM     12  O   UNL     1      -3.974  82.641 -10.574  1.00  0.00    -0.504 OA
ATOM     13  H   UNL     1      -4.247  82.284 -11.479  1.00  0.00     0.293 HD
ENDBRANCH   4  12
BRANCH   6  14
ATOM     14  O   UNL     1      -2.816  84.834  -9.027  1.00  0.00    -0.504 OA
ATOM     15  H   UNL     1      -2.220  84.625  -8.239  1.00  0.00     0.293 HD
ENDBRANCH   6  14
TORSDOF 4
ENDMDL
MODEL 8
REMARK VINA RESULT:    -3.984      6.458      8.536
REMARK INTER + INTRA:          -4.803
REMARK INTER:                  -4.661
REMARK INTRA:                  -0.142
REMARK UNBOUND:                -0.120
REMARK SMILES O=C([O-])C=Cc1ccc(O)c(O)c1
REMARK SMILES IDX 6 1 13 2 7 3 11 4 8 5 9 6 5 7 4 8 2 9 1 10 3 11 12 12 10 14
REMARK H PARENT 12 13 10 15
REMARK Flexibility Score: inf
ROOT
ATOM      1  C   UNL     1      -5.343  85.201  -9.819  1.00  0.00    -0.022 A 
ATOM      2  C   UNL     1      -5.212  83.864 -10.242  1.00  0.00     0.058 A 
ATOM      3  C   UNL     1      -4.377  85.733  -8.952  1.00  0.00     0.012 A 
ATOM      4  C   UNL     1      -4.127  83.079  -9.829  1.00  0.00     0.157 A 
ATOM      5  C   UNL     1      -3.291  84.959  -8.539  1.00  0.00     0.051 A 
ATOM      6  C   UNL     1      -3.150  83.637  -8.971  1.00  0.00     0.157 A 
ENDROOT
BRANCH   1   7
ATOM      7  C   UNL     1      -6.483  86.060 -10.224  1.00  0.00     0.010 C 
ATOM      8  C   UNL     1      -6.357  87.347 -10.579  1.00  0.00     0.025 C 
BRANCH   8   9
ATOM      9  C   UNL     1      -7.514  88.173 -10.963  1.00  0.00     0.064 C 
ATOM     10  O   UNL     1      -7.491  88.884 -12.002  1.00  0.00    -0.545 OA
ATOM     11  O   UNL     1      -8.649  88.167 -10.164  1.00  0.00    -0.545 OA
ENDBRANCH   8   9
ENDBRANCH   1   7
BRANCH   4  12
ATOM     12  O   UNL     1      -4.064  81.762 -10.287  1.00  0.00    -0.504 OA
ATOM     13  H   UNL     1      -3.341  81.409 -10.898  1.00  0.00     0.293 HD
ENDBRANCH   4  12
BRANCH   6  14
ATOM     14  O   UNL     1      -2.038  82.919  -8.525  1.00  0.00    -0.504 OA
ATOM     15  H   UNL     1      -2.092  82.111  -7.921  1.00  0.00     0.293 HD
ENDBRANCH   6  14
TORSDOF 4
ENDMDL
MODEL 9
REMARK VINA RESULT:    -3.919     11.041     11.867
REMARK INTER + INTRA:          -4.726
REMARK INTER:                  -4.577
REMARK INTRA:                  -0.149
REMARK UNBOUND:                -0.120
REMARK SMILES O=C([O-])C=Cc1ccc(O)c(O)c1
REMARK SMILES IDX 6 1 13 2 7 3 11 4 8 5 9 6 5 7 4 8 2 9 1 10 3 11 12 12 10 14
REMARK H PARENT 12 13 10 15
REMARK Flexibility Score: inf
ROOT
ATOM      1  C   UNL     1      -4.626  91.472 -14.231  1.00  0.00    -0.022 A 
ATOM      2  C   UNL     1      -3.730  91.105 -15.254  1.00  0.00     0.058 A 
ATOM      3  C   UNL     1      -5.933  91.842 -14.578  1.00  0.00     0.012 A 
ATOM      4  C   UNL     1      -4.137  91.082 -16.595  1.00  0.00     0.157 A 
ATOM      5  C   UNL     1      -6.347  91.819 -15.911  1.00  0.00     0.051 A 
ATOM      6  C   UNL     1      -5.465  91.439 -16.927  1.00  0.00     0.157 A 
ENDROOT
BRANCH   1   7
ATOM      7  C   UNL     1      -4.230  91.521 -12.802  1.00  0.00     0.010 C 
ATOM      8  C   UNL     1      -5.105  91.612 -11.790  1.00  0.00     0.025 C 
BRANCH   8   9
ATOM      9  C   UNL     1      -4.675  91.671 -10.383  1.00  0.00     0.064 C 
ATOM     10  O   UNL     1      -4.441  90.620  -9.728  1.00  0.00    -0.545 OA
ATOM     11  O   UNL     1      -4.526  92.906  -9.767  1.00  0.00    -0.545 OA
ENDBRANCH   8   9
ENDBRANCH   1   7
BRANCH   4  12
ATOM     12  O   UNL     1      -3.195  90.709 -17.556  1.00  0.00    -0.504 OA
ATOM     13  H   UNL     1      -2.303  91.167 -17.681  1.00  0.00     0.293 HD
ENDBRANCH   4  12
BRANCH   6  14
ATOM     14  O   UNL     1      -5.944  91.431 -18.239  1.00  0.00    -0.504 OA
ATOM     15  H   UNL     1      -6.245  90.599 -18.726  1.00  0.00     0.293 HD
ENDBRANCH   6  14
TORSDOF 4
ENDMDL
