MODEL 1
REMARK VINA RESULT:    -0.267      0.000      0.000
REMARK INTER + INTRA:          -0.464
REMARK INTER:                  -0.290
REMARK INTRA:                  -0.174
REMARK UNBOUND:                -0.174
REMARK SMILES C[C@H]1[C@@H](C)CC[C@@]2(C(=O)[O-])CC[C@]3(C)C(=CC[C@@H]4[C@]5(C)CC[C@@H](O)C(C)(C)[C@H]5CC[C@@]43C)[C@@H]12
REMARK SMILES IDX 7 1 6 2 11 3 33 4 5 5 12 6 15 7 2 8 3 9 13 10 16 11 1 12
REMARK SMILES IDX 4 13 14 14 31 15 17 16 18 17 30 18 32 19 19 20 29 21 28 22
REMARK SMILES IDX 21 23 20 24 25 25 22 26 23 27 26 28 27 29 8 30 9 31 10 32
REMARK SMILES IDX 24 33
REMARK H PARENT 24 34
REMARK Flexibility Score: inf
ROOT
ATOM      1  C   UNL     1      -7.672  -9.690   6.542  1.00  0.00     0.017 C 
ATOM      2  C   UNL     1      -6.951 -11.074   6.640  1.00  0.00     0.014 C 
ATOM      3  C   UNL     1      -8.603  -9.458   7.775  1.00  0.00     0.014 C 
ATOM      4  C   UNL     1      -6.641  -8.520   6.409  1.00  0.00     0.030 C 
ATOM      5  C   UNL     1      -5.740 -11.119   7.574  1.00  0.00     0.004 C 
ATOM      6  C   UNL     1      -8.934  -7.981   8.146  1.00  0.00     0.013 C 
ATOM      7  C   UNL     1      -7.320  -7.139   6.407  1.00  0.00    -0.063 C 
ATOM      8  C   UNL     1      -5.391  -8.614   7.353  1.00  0.00    -0.003 C 
ATOM      9  C   UNL     1      -4.737 -10.014   7.217  1.00  0.00    -0.011 C 
ATOM     10  C   UNL     1      -8.687  -6.885   7.049  1.00  0.00    -0.006 C 
ATOM     11  C   UNL     1      -6.751  -6.164   5.681  1.00  0.00    -0.027 C 
ATOM     12  C   UNL     1      -5.636  -8.235   8.827  1.00  0.00     0.008 C 
ATOM     13  C   UNL     1      -3.444 -10.164   8.034  1.00  0.00     0.008 C 
ATOM     14  C   UNL     1      -9.784  -7.066   5.940  1.00  0.00     0.017 C 
ATOM     15  C   UNL     1      -8.745  -5.366   7.628  1.00  0.00    -0.020 C 
ATOM     16  C   UNL     1      -7.323  -4.784   5.505  1.00  0.00     0.032 C 
ATOM     17  C   UNL     1      -8.536  -4.351   6.416  1.00  0.00     0.006 C 
ATOM     18  C   UNL     1      -7.617  -5.061   8.668  1.00  0.00     0.008 C 
ATOM     19  C   UNL     1     -10.117  -5.169   8.363  1.00  0.00     0.012 C 
ATOM     20  C   UNL     1      -8.452  -2.801   6.825  1.00  0.00    -0.025 C 
ATOM     21  C   UNL     1      -7.523  -3.583   9.111  1.00  0.00     0.005 C 
ATOM     22  C   UNL     1      -7.319  -2.626   7.908  1.00  0.00     0.003 C 
ATOM     23  C   UNL     1      -8.104  -1.913   5.577  1.00  0.00     0.010 C 
ATOM     24  C   UNL     1      -9.857  -2.314   7.321  1.00  0.00     0.012 C 
ATOM     25  C   UNL     1      -6.942  -1.134   8.280  1.00  0.00    -0.006 C 
ATOM     26  C   UNL     1      -7.775  -0.450   5.927  1.00  0.00     0.033 C 
ATOM     27  C   UNL     1      -6.644  -0.347   6.963  1.00  0.00     0.120 C 
ATOM     28  C   UNL     1      -5.636  -1.123   9.124  1.00  0.00     0.014 C 
ATOM     29  C   UNL     1      -8.026  -0.411   9.123  1.00  0.00     0.014 C 
ENDROOT
BRANCH   1  30
ATOM     30  C   UNL     1      -8.528  -9.812   5.279  1.00  0.00     0.048 C 
ATOM     31  O   UNL     1      -8.041  -9.614   4.133  1.00  0.00    -0.550 OA
ATOM     32  O   UNL     1      -9.847 -10.242   5.371  1.00  0.00    -0.550 OA
ENDBRANCH   1  30
BRANCH  27  33
ATOM     33  O   UNL     1      -6.400   1.008   7.247  1.00  0.00    -0.393 OA
ATOM     34  H   UNL     1      -5.416   1.143   7.201  1.00  0.00     0.210 HD
ENDBRANCH  27  33
TORSDOF 2
ENDMDL
