MODEL 1
REMARK VINA RESULT:    -4.318      0.000      0.000
REMARK INTER + INTRA:          -8.634
REMARK INTER:                  -7.347
REMARK INTRA:                  -1.286
REMARK UNBOUND:                -1.286
REMARK SMILES CCCCCCCCCCCCCC(=O)[O-]
REMARK SMILES IDX 8 1 9 2 10 3 11 4 12 5 13 6 14 7 15 8 16 9 7 10 6 11 5 12
REMARK SMILES IDX 4 13 3 14 2 15 1 16
REMARK H PARENT
REMARK Flexibility Score: inf
ROOT
ATOM      1  C   UNL     1      46.172   8.398  19.084  1.00  0.00     0.000 C 
ENDROOT
BRANCH   1   2
ATOM      2  C   UNL     1      44.701   8.499  19.526  1.00  0.00     0.000 C 
BRANCH   2   3
ATOM      3  C   UNL     1      44.525   9.354  20.791  1.00  0.00     0.000 C 
BRANCH   3   4
ATOM      4  C   UNL     1      44.210   8.504  22.034  1.00  0.00     0.000 C 
BRANCH   4   5
ATOM      5  C   UNL     1      45.294   8.602  23.121  1.00  0.00     0.006 C 
BRANCH   5   6
ATOM      6  C   UNL     1      46.614   9.228  22.634  1.00  0.00     0.053 C 
BRANCH   6   7
ATOM      7  C   UNL     1      47.744   8.243  22.610  1.00  0.00     0.041 C 
ATOM      8  O   UNL     1      47.581   7.107  22.094  1.00  0.00    -0.550 OA
ATOM      9  O   UNL     1      48.965   8.566  23.189  1.00  0.00    -0.550 OA
ENDBRANCH   6   7
ENDBRANCH   5   6
ENDBRANCH   4   5
ENDBRANCH   3   4
ENDBRANCH   2   3
ENDBRANCH   1   2
BRANCH   1  10
ATOM     10  C   UNL     1      46.575   6.974  18.661  1.00  0.00     0.000 C 
BRANCH  10  11
ATOM     11  C   UNL     1      46.707   6.753  17.143  1.00  0.00    -0.000 C 
BRANCH  11  12
ATOM     12  C   UNL     1      46.798   8.071  16.353  1.00  0.00    -0.000 C 
BRANCH  12  13
ATOM     13  C   UNL     1      45.768   8.147  15.214  1.00  0.00    -0.000 C 
BRANCH  13  14
ATOM     14  C   UNL     1      44.376   7.653  15.644  1.00  0.00    -0.000 C 
BRANCH  14  15
ATOM     15  C   UNL     1      43.701   6.788  14.569  1.00  0.00    -0.003 C 
ATOM     16  C   UNL     1      44.493   5.521  14.243  1.00  0.00     0.004 C 
ENDBRANCH  14  15
ENDBRANCH  13  14
ENDBRANCH  12  13
ENDBRANCH  11  12
ENDBRANCH  10  11
ENDBRANCH   1  10
TORSDOF 12
ENDMDL
MODEL 2
REMARK VINA RESULT:    -4.283      1.420      3.182
REMARK INTER + INTRA:          -8.574
REMARK INTER:                  -7.365
REMARK INTRA:                  -1.209
REMARK UNBOUND:                -1.286
REMARK SMILES CCCCCCCCCCCCCC(=O)[O-]
REMARK SMILES IDX 8 1 9 2 10 3 11 4 12 5 13 6 14 7 15 8 16 9 7 10 6 11 5 12
REMARK SMILES IDX 4 13 3 14 2 15 1 16
REMARK H PARENT
REMARK Flexibility Score: inf
ROOT
ATOM      1  C   UNL     1      47.634   5.272  16.417  1.00  0.00     0.000 C 
ENDROOT
BRANCH   1   2
ATOM      2  C   UNL     1      47.103   6.626  16.920  1.00  0.00     0.000 C 
BRANCH   2   3
ATOM      3  C   UNL     1      46.706   6.588  18.405  1.00  0.00     0.000 C 
BRANCH   3   4
ATOM      4  C   UNL     1      46.255   7.962  18.928  1.00  0.00     0.000 C 
BRANCH   4   5
ATOM      5  C   UNL     1      45.981   7.969  20.442  1.00  0.00     0.006 C 
BRANCH   5   6
ATOM      6  C   UNL     1      47.075   7.284  21.280  1.00  0.00     0.053 C 
BRANCH   6   7
ATOM      7  C   UNL     1      47.330   7.986  22.580  1.00  0.00     0.041 C 
ATOM      8  O   UNL     1      46.373   8.257  23.351  1.00  0.00    -0.550 OA
ATOM      9  O   UNL     1      48.619   8.377  22.922  1.00  0.00    -0.550 OA
ENDBRANCH   6   7
ENDBRANCH   5   6
ENDBRANCH   4   5
ENDBRANCH   3   4
ENDBRANCH   2   3
ENDBRANCH   1   2
BRANCH   1  10
ATOM     10  C   UNL     1      47.734   5.200  14.883  1.00  0.00     0.000 C 
BRANCH  10  11
ATOM     11  C   UNL     1      46.585   5.881  14.118  1.00  0.00    -0.000 C 
BRANCH  11  12
ATOM     12  C   UNL     1      45.261   5.103  14.210  1.00  0.00    -0.000 C 
BRANCH  12  13
ATOM     13  C   UNL     1      44.118   5.953  14.791  1.00  0.00    -0.000 C 
BRANCH  13  14
ATOM     14  C   UNL     1      44.289   7.453  14.493  1.00  0.00    -0.000 C 
BRANCH  14  15
ATOM     15  C   UNL     1      44.274   8.311  15.768  1.00  0.00    -0.003 C 
ATOM     16  C   UNL     1      45.271   9.469  15.716  1.00  0.00     0.004 C 
ENDBRANCH  14  15
ENDBRANCH  13  14
ENDBRANCH  12  13
ENDBRANCH  11  12
ENDBRANCH  10  11
ENDBRANCH   1  10
TORSDOF 12
ENDMDL
MODEL 3
REMARK VINA RESULT:    -4.233      3.053      6.712
REMARK INTER + INTRA:          -8.490
REMARK INTER:                  -7.314
REMARK INTRA:                  -1.176
REMARK UNBOUND:                -1.286
REMARK SMILES CCCCCCCCCCCCCC(=O)[O-]
REMARK SMILES IDX 8 1 9 2 10 3 11 4 12 5 13 6 14 7 15 8 16 9 7 10 6 11 5 12
REMARK SMILES IDX 4 13 3 14 2 15 1 16
REMARK H PARENT
REMARK Flexibility Score: inf
ROOT
ATOM      1  C   UNL     1      44.455   8.842  20.431  1.00  0.00     0.000 C 
ENDROOT
BRANCH   1   2
ATOM      2  C   UNL     1      44.910   9.669  19.216  1.00  0.00     0.000 C 
BRANCH   2   3
ATOM      3  C   UNL     1      46.003   8.960  18.398  1.00  0.00     0.000 C 
BRANCH   3   4
ATOM      4  C   UNL     1      46.290   7.539  18.912  1.00  0.00     0.000 C 
BRANCH   4   5
ATOM      5  C   UNL     1      46.717   6.570  17.795  1.00  0.00     0.006 C 
BRANCH   5   6
ATOM      6  C   UNL     1      46.582   7.151  16.377  1.00  0.00     0.053 C 
BRANCH   6   7
ATOM      7  C   UNL     1      45.492   6.494  15.586  1.00  0.00     0.041 C 
ATOM      8  O   UNL     1      45.771   5.827  14.556  1.00  0.00    -0.550 OA
ATOM      9  O   UNL     1      44.164   6.649  15.964  1.00  0.00    -0.550 OA
ENDBRANCH   6   7
ENDBRANCH   5   6
ENDBRANCH   4   5
ENDBRANCH   3   4
ENDBRANCH   2   3
ENDBRANCH   1   2
BRANCH   1  10
ATOM     10  C   UNL     1      44.283   9.691  21.704  1.00  0.00     0.000 C 
BRANCH  10  11
ATOM     11  C   UNL     1      44.157   8.892  23.013  1.00  0.00    -0.000 C 
BRANCH  11  12
ATOM     12  C   UNL     1      45.378   9.057  23.935  1.00  0.00    -0.000 C 
BRANCH  12  13
ATOM     13  C   UNL     1      46.566   9.725  23.224  1.00  0.00    -0.000 C 
BRANCH  13  14
ATOM     14  C   UNL     1      47.773   8.781  23.079  1.00  0.00    -0.000 C 
BRANCH  14  15
ATOM     15  C   UNL     1      47.543   7.692  22.020  1.00  0.00    -0.003 C 
ATOM     16  C   UNL     1      48.179   6.353  22.397  1.00  0.00     0.004 C 
ENDBRANCH  14  15
ENDBRANCH  13  14
ENDBRANCH  12  13
ENDBRANCH  11  12
ENDBRANCH  10  11
ENDBRANCH   1  10
TORSDOF 12
ENDMDL
MODEL 4
REMARK VINA RESULT:    -4.218      3.055      7.163
REMARK INTER + INTRA:          -8.462
REMARK INTER:                  -7.337
REMARK INTRA:                  -1.125
REMARK UNBOUND:                -1.286
REMARK SMILES CCCCCCCCCCCCCC(=O)[O-]
REMARK SMILES IDX 8 1 9 2 10 3 11 4 12 5 13 6 14 7 15 8 16 9 7 10 6 11 5 12
REMARK SMILES IDX 4 13 3 14 2 15 1 16
REMARK H PARENT
REMARK Flexibility Score: inf
ROOT
ATOM      1  C   UNL     1      46.337   7.720  19.278  1.00  0.00     0.000 C 
ENDROOT
BRANCH   1   2
ATOM      2  C   UNL     1      46.382   7.272  17.807  1.00  0.00     0.000 C 
BRANCH   2   3
ATOM      3  C   UNL     1      45.239   7.875  16.974  1.00  0.00     0.000 C 
BRANCH   3   4
ATOM      4  C   UNL     1      44.590   6.843  16.035  1.00  0.00     0.000 C 
BRANCH   4   5
ATOM      5  C   UNL     1      44.848   7.138  14.547  1.00  0.00     0.006 C 
BRANCH   5   6
ATOM      6  C   UNL     1      46.313   6.944  14.116  1.00  0.00     0.053 C 
BRANCH   6   7
ATOM      7  C   UNL     1      46.824   5.567  14.414  1.00  0.00     0.041 C 
ATOM      8  O   UNL     1      47.851   5.413  15.124  1.00  0.00    -0.550 OA
ATOM      9  O   UNL     1      46.189   4.454  13.876  1.00  0.00    -0.550 OA
ENDBRANCH   6   7
ENDBRANCH   5   6
ENDBRANCH   4   5
ENDBRANCH   3   4
ENDBRANCH   2   3
ENDBRANCH   1   2
BRANCH   1  10
ATOM     10  C   UNL     1      45.449   8.958  19.502  1.00  0.00     0.000 C 
BRANCH  10  11
ATOM     11  C   UNL     1      45.626   9.655  20.863  1.00  0.00    -0.000 C 
BRANCH  11  12
ATOM     12  C   UNL     1      44.905   8.922  22.008  1.00  0.00    -0.000 C 
BRANCH  12  13
ATOM     13  C   UNL     1      45.885   8.285  23.008  1.00  0.00    -0.000 C 
BRANCH  13  14
ATOM     14  C   UNL     1      47.206   9.067  23.118  1.00  0.00    -0.000 C 
BRANCH  14  15
ATOM     15  C   UNL     1      48.434   8.189  22.833  1.00  0.00    -0.003 C 
ATOM     16  C   UNL     1      48.062   6.781  22.367  1.00  0.00     0.004 C 
ENDBRANCH  14  15
ENDBRANCH  13  14
ENDBRANCH  12  13
ENDBRANCH  11  12
ENDBRANCH  10  11
ENDBRANCH   1  10
TORSDOF 12
ENDMDL
MODEL 5
REMARK VINA RESULT:    -4.216      2.103      2.930
REMARK INTER + INTRA:          -8.460
REMARK INTER:                  -7.469
REMARK INTRA:                  -0.991
REMARK UNBOUND:                -1.286
REMARK SMILES CCCCCCCCCCCCCC(=O)[O-]
REMARK SMILES IDX 8 1 9 2 10 3 11 4 12 5 13 6 14 7 15 8 16 9 7 10 6 11 5 12
REMARK SMILES IDX 4 13 3 14 2 15 1 16
REMARK H PARENT
REMARK Flexibility Score: inf
ROOT
ATOM      1  C   UNL     1      46.532   7.107  18.538  1.00  0.00     0.000 C 
ENDROOT
BRANCH   1   2
ATOM      2  C   UNL     1      46.382   7.668  19.964  1.00  0.00     0.000 C 
BRANCH   2   3
ATOM      3  C   UNL     1      47.184   6.863  20.999  1.00  0.00     0.000 C 
BRANCH   3   4
ATOM      4  C   UNL     1      47.322   7.604  22.340  1.00  0.00     0.000 C 
BRANCH   4   5
ATOM      5  C   UNL     1      46.564   8.943  22.368  1.00  0.00     0.006 C 
BRANCH   5   6
ATOM      6  C   UNL     1      45.829   9.218  23.693  1.00  0.00     0.053 C 
BRANCH   6   7
ATOM      7  C   UNL     1      44.355   8.962  23.598  1.00  0.00     0.041 C 
ATOM      8  O   UNL     1      43.871   8.424  22.568  1.00  0.00    -0.550 OA
ATOM      9  O   UNL     1      43.511   9.351  24.631  1.00  0.00    -0.550 OA
ENDBRANCH   6   7
ENDBRANCH   5   6
ENDBRANCH   4   5
ENDBRANCH   3   4
ENDBRANCH   2   3
ENDBRANCH   1   2
BRANCH   1  10
ATOM     10  C   UNL     1      46.353   8.181  17.449  1.00  0.00     0.000 C 
BRANCH  10  11
ATOM     11  C   UNL     1      44.924   8.320  16.895  1.00  0.00    -0.000 C 
BRANCH  11  12
ATOM     12  C   UNL     1      44.408   7.027  16.239  1.00  0.00    -0.000 C 
BRANCH  12  13
ATOM     13  C   UNL     1      44.389   7.113  14.704  1.00  0.00    -0.000 C 
BRANCH  13  14
ATOM     14  C   UNL     1      45.768   6.834  14.082  1.00  0.00    -0.000 C 
BRANCH  14  15
ATOM     15  C   UNL     1      46.257   5.402  14.353  1.00  0.00    -0.003 C 
ATOM     16  C   UNL     1      47.545   5.361  15.176  1.00  0.00     0.004 C 
ENDBRANCH  14  15
ENDBRANCH  13  14
ENDBRANCH  12  13
ENDBRANCH  11  12
ENDBRANCH  10  11
ENDBRANCH   1  10
TORSDOF 12
ENDMDL
MODEL 6
REMARK VINA RESULT:    -4.166      2.605      3.323
REMARK INTER + INTRA:          -8.374
REMARK INTER:                  -7.634
REMARK INTRA:                  -0.740
REMARK UNBOUND:                -1.286
REMARK SMILES CCCCCCCCCCCCCC(=O)[O-]
REMARK SMILES IDX 8 1 9 2 10 3 11 4 12 5 13 6 14 7 15 8 16 9 7 10 6 11 5 12
REMARK SMILES IDX 4 13 3 14 2 15 1 16
REMARK H PARENT
REMARK Flexibility Score: inf
ROOT
ATOM      1  C   UNL     1      46.524   7.541  20.391  1.00  0.00     0.000 C 
ENDROOT
BRANCH   1   2
ATOM      2  C   UNL     1      47.449   6.825  21.391  1.00  0.00     0.000 C 
BRANCH   2   3
ATOM      3  C   UNL     1      47.692   7.654  22.664  1.00  0.00     0.000 C 
BRANCH   3   4
ATOM      4  C   UNL     1      46.700   8.822  22.801  1.00  0.00     0.000 C 
BRANCH   4   5
ATOM      5  C   UNL     1      45.655   8.596  23.908  1.00  0.00     0.006 C 
BRANCH   5   6
ATOM      6  C   UNL     1      44.495   9.607  23.889  1.00  0.00     0.053 C 
BRANCH   6   7
ATOM      7  C   UNL     1      43.537   9.407  25.025  1.00  0.00     0.041 C 
ATOM      8  O   UNL     1      42.300   9.543  24.841  1.00  0.00    -0.550 OA
ATOM      9  O   UNL     1      44.014   9.109  26.296  1.00  0.00    -0.550 OA
ENDBRANCH   6   7
ENDBRANCH   5   6
ENDBRANCH   4   5
ENDBRANCH   3   4
ENDBRANCH   2   3
ENDBRANCH   1   2
BRANCH   1  10
ATOM     10  C   UNL     1      46.689   7.029  18.949  1.00  0.00     0.000 C 
BRANCH  10  11
ATOM     11  C   UNL     1      46.223   8.002  17.851  1.00  0.00    -0.000 C 
BRANCH  11  12
ATOM     12  C   UNL     1      44.763   7.767  17.424  1.00  0.00    -0.000 C 
BRANCH  12  13
ATOM     13  C   UNL     1      44.654   6.936  16.134  1.00  0.00    -0.000 C 
BRANCH  13  14
ATOM     14  C   UNL     1      45.581   7.451  15.020  1.00  0.00    -0.000 C 
BRANCH  14  15
ATOM     15  C   UNL     1      46.364   6.320  14.336  1.00  0.00    -0.003 C 
ATOM     16  C   UNL     1      47.252   5.541  15.308  1.00  0.00     0.004 C 
ENDBRANCH  14  15
ENDBRANCH  13  14
ENDBRANCH  12  13
ENDBRANCH  11  12
ENDBRANCH  10  11
ENDBRANCH   1  10
TORSDOF 12
ENDMDL
MODEL 7
REMARK VINA RESULT:    -4.156      1.850      2.973
REMARK INTER + INTRA:          -8.357
REMARK INTER:                  -7.202
REMARK INTRA:                  -1.155
REMARK UNBOUND:                -1.286
REMARK SMILES CCCCCCCCCCCCCC(=O)[O-]
REMARK SMILES IDX 8 1 9 2 10 3 11 4 12 5 13 6 14 7 15 8 16 9 7 10 6 11 5 12
REMARK SMILES IDX 4 13 3 14 2 15 1 16
REMARK H PARENT
REMARK Flexibility Score: inf
ROOT
ATOM      1  C   UNL     1      46.752   6.827  18.076  1.00  0.00     0.000 C 
ENDROOT
BRANCH   1   2
ATOM      2  C   UNL     1      46.384   8.214  18.633  1.00  0.00     0.000 C 
BRANCH   2   3
ATOM      3  C   UNL     1      45.943   8.157  20.104  1.00  0.00     0.000 C 
BRANCH   3   4
ATOM      4  C   UNL     1      46.814   7.206  20.942  1.00  0.00     0.000 C 
BRANCH   4   5
ATOM      5  C   UNL     1      47.209   7.797  22.307  1.00  0.00     0.006 C 
BRANCH   5   6
ATOM      6  C   UNL     1      46.401   9.044  22.707  1.00  0.00     0.053 C 
BRANCH   6   7
ATOM      7  C   UNL     1      45.193   8.709  23.529  1.00  0.00     0.041 C 
ATOM      8  O   UNL     1      44.085   8.501  22.971  1.00  0.00    -0.550 OA
ATOM      9  O   UNL     1      45.282   8.664  24.915  1.00  0.00    -0.550 OA
ENDBRANCH   6   7
ENDBRANCH   5   6
ENDBRANCH   4   5
ENDBRANCH   3   4
ENDBRANCH   2   3
ENDBRANCH   1   2
BRANCH   1  10
ATOM     10  C   UNL     1      46.155   6.562  16.682  1.00  0.00     0.000 C 
BRANCH  10  11
ATOM     11  C   UNL     1      44.721   7.081  16.474  1.00  0.00    -0.000 C 
BRANCH  11  12
ATOM     12  C   UNL     1      44.491   7.657  15.065  1.00  0.00    -0.000 C 
BRANCH  12  13
ATOM     13  C   UNL     1      45.795   7.777  14.258  1.00  0.00    -0.000 C 
BRANCH  13  14
ATOM     14  C   UNL     1      46.120   9.231  13.875  1.00  0.00    -0.000 C 
BRANCH  14  15
ATOM     15  C   UNL     1      45.826  10.219  15.016  1.00  0.00    -0.003 C 
ATOM     16  C   UNL     1      47.054  10.508  15.881  1.00  0.00     0.004 C 
ENDBRANCH  14  15
ENDBRANCH  13  14
ENDBRANCH  12  13
ENDBRANCH  11  12
ENDBRANCH  10  11
ENDBRANCH   1  10
TORSDOF 12
ENDMDL
MODEL 8
REMARK VINA RESULT:    -4.143      1.242      2.210
REMARK INTER + INTRA:          -8.336
REMARK INTER:                  -6.864
REMARK INTRA:                  -1.471
REMARK UNBOUND:                -1.286
REMARK SMILES CCCCCCCCCCCCCC(=O)[O-]
REMARK SMILES IDX 8 1 9 2 10 3 11 4 12 5 13 6 14 7 15 8 16 9 7 10 6 11 5 12
REMARK SMILES IDX 4 13 3 14 2 15 1 16
REMARK H PARENT
REMARK Flexibility Score: inf
ROOT
ATOM      1  C   UNL     1      44.556   8.291  17.821  1.00  0.00     0.000 C 
ENDROOT
BRANCH   1   2
ATOM      2  C   UNL     1      45.833   7.446  17.974  1.00  0.00     0.000 C 
BRANCH   2   3
ATOM      3  C   UNL     1      46.460   7.576  19.372  1.00  0.00     0.000 C 
BRANCH   3   4
ATOM      4  C   UNL     1      45.758   8.641  20.233  1.00  0.00     0.000 C 
BRANCH   4   5
ATOM      5  C   UNL     1      45.575   8.205  21.697  1.00  0.00     0.006 C 
BRANCH   5   6
ATOM      6  C   UNL     1      46.580   8.845  22.671  1.00  0.00     0.053 C 
BRANCH   6   7
ATOM      7  C   UNL     1      47.875   8.093  22.738  1.00  0.00     0.041 C 
ATOM      8  O   UNL     1      48.948   8.701  22.992  1.00  0.00    -0.550 OA
ATOM      9  O   UNL     1      47.905   6.727  22.482  1.00  0.00    -0.550 OA
ENDBRANCH   6   7
ENDBRANCH   5   6
ENDBRANCH   4   5
ENDBRANCH   3   4
ENDBRANCH   2   3
ENDBRANCH   1   2
BRANCH   1  10
ATOM     10  C   UNL     1      44.605   9.239  16.609  1.00  0.00     0.000 C 
BRANCH  10  11
ATOM     11  C   UNL     1      46.016   9.568  16.091  1.00  0.00    -0.000 C 
BRANCH  11  12
ATOM     12  C   UNL     1      46.118   9.510  14.556  1.00  0.00    -0.000 C 
BRANCH  12  13
ATOM     13  C   UNL     1      45.451   8.256  13.968  1.00  0.00    -0.000 C 
BRANCH  13  14
ATOM     14  C   UNL     1      46.325   6.998  14.119  1.00  0.00    -0.000 C 
BRANCH  14  15
ATOM     15  C   UNL     1      45.546   5.807  14.697  1.00  0.00    -0.003 C 
ATOM     16  C   UNL     1      44.037   6.050  14.741  1.00  0.00     0.004 C 
ENDBRANCH  14  15
ENDBRANCH  13  14
ENDBRANCH  12  13
ENDBRANCH  11  12
ENDBRANCH  10  11
ENDBRANCH   1  10
TORSDOF 12
ENDMDL
MODEL 9
REMARK VINA RESULT:    -4.131      2.869      6.818
REMARK INTER + INTRA:          -8.314
REMARK INTER:                  -7.514
REMARK INTRA:                  -0.801
REMARK UNBOUND:                -1.286
REMARK SMILES CCCCCCCCCCCCCC(=O)[O-]
REMARK SMILES IDX 8 1 9 2 10 3 11 4 12 5 13 6 14 7 15 8 16 9 7 10 6 11 5 12
REMARK SMILES IDX 4 13 3 14 2 15 1 16
REMARK H PARENT
REMARK Flexibility Score: inf
ROOT
ATOM      1  C   UNL     1      46.303   7.036  18.747  1.00  0.00     0.000 C 
ENDROOT
BRANCH   1   2
ATOM      2  C   UNL     1      45.882   8.076  17.694  1.00  0.00     0.000 C 
BRANCH   2   3
ATOM      3  C   UNL     1      44.478   7.804  17.128  1.00  0.00     0.000 C 
BRANCH   3   4
ATOM      4  C   UNL     1      44.516   7.353  15.658  1.00  0.00     0.000 C 
BRANCH   4   5
ATOM      5  C   UNL     1      45.941   7.062  15.154  1.00  0.00     0.006 C 
BRANCH   5   6
ATOM      6  C   UNL     1      46.147   5.620  14.656  1.00  0.00     0.053 C 
BRANCH   6   7
ATOM      7  C   UNL     1      47.469   5.050  15.074  1.00  0.00     0.041 C 
ATOM      8  O   UNL     1      48.194   4.455  14.235  1.00  0.00    -0.550 OA
ATOM      9  O   UNL     1      47.883   5.142  16.397  1.00  0.00    -0.550 OA
ENDBRANCH   6   7
ENDBRANCH   5   6
ENDBRANCH   4   5
ENDBRANCH   3   4
ENDBRANCH   2   3
ENDBRANCH   1   2
BRANCH   1  10
ATOM     10  C   UNL     1      46.759   7.674  20.072  1.00  0.00     0.000 C 
BRANCH  10  11
ATOM     11  C   UNL     1      47.270   6.685  21.135  1.00  0.00    -0.000 C 
BRANCH  11  12
ATOM     12  C   UNL     1      47.695   7.378  22.441  1.00  0.00    -0.000 C 
BRANCH  12  13
ATOM     13  C   UNL     1      46.909   8.673  22.704  1.00  0.00    -0.000 C 
BRANCH  13  14
ATOM     14  C   UNL     1      45.915   8.532  23.870  1.00  0.00    -0.000 C 
BRANCH  14  15
ATOM     15  C   UNL     1      44.489   8.951  23.480  1.00  0.00    -0.003 C 
ATOM     16  C   UNL     1      44.129   8.564  22.044  1.00  0.00     0.004 C 
ENDBRANCH  14  15
ENDBRANCH  13  14
ENDBRANCH  12  13
ENDBRANCH  11  12
ENDBRANCH  10  11
ENDBRANCH   1  10
TORSDOF 12
ENDMDL
