MODEL 1
REMARK VINA RESULT:    -4.451      0.000      0.000
REMARK INTER + INTRA:         -16.432
REMARK INTER:                 -11.216
REMARK INTRA:                  -5.216
REMARK UNBOUND:                -5.216
REMARK SMILES CCCCCCCCCCCCCCCCCCCCCCCCCCCC(=O)[O-]
REMARK SMILES IDX 15 1 16 2 17 3 18 4 19 5 20 6 21 7 22 8 23 9 24 10 25 11
REMARK SMILES IDX 26 12 27 13 28 14 29 15 30 16 14 17 13 18 12 19 11 20 10 21
REMARK SMILES IDX 9 22 8 23 7 24 6 25 5 26 4 27 3 28 2 29 1 30
REMARK H PARENT
REMARK Flexibility Score: inf
ROOT
ATOM      1  C   UNL     1       8.855  26.168  26.999  1.00  0.00     0.000 C 
ENDROOT
BRANCH   1   2
ATOM      2  C   UNL     1       7.729  25.801  26.018  1.00  0.00     0.000 C 
BRANCH   2   3
ATOM      3  C   UNL     1       8.139  25.967  24.543  1.00  0.00     0.000 C 
BRANCH   3   4
ATOM      4  C   UNL     1       7.208  26.857  23.698  1.00  0.00     0.000 C 
BRANCH   4   5
ATOM      5  C   UNL     1       7.930  28.062  23.076  1.00  0.00     0.000 C 
BRANCH   5   6
ATOM      6  C   UNL     1       8.704  28.853  24.141  1.00  0.00     0.000 C 
BRANCH   6   7
ATOM      7  C   UNL     1      10.039  29.418  23.622  1.00  0.00     0.000 C 
BRANCH   7   8
ATOM      8  C   UNL     1      10.833  30.260  24.637  1.00  0.00     0.000 C 
BRANCH   8   9
ATOM      9  C   UNL     1      10.052  31.488  25.138  1.00  0.00     0.000 C 
BRANCH   9  10
ATOM     10  C   UNL     1      10.159  31.670  26.661  1.00  0.00     0.000 C 
BRANCH  10  11
ATOM     11  C   UNL     1      11.137  30.676  27.312  1.00  0.00     0.000 C 
BRANCH  11  12
ATOM     12  C   UNL     1      10.848  30.453  28.807  1.00  0.00     0.006 C 
BRANCH  12  13
ATOM     13  C   UNL     1      12.090  30.535  29.709  1.00  0.00     0.053 C 
BRANCH  13  14
ATOM     14  C   UNL     1      12.177  31.848  30.427  1.00  0.00     0.041 C 
ATOM     15  O   UNL     1      11.321  32.746  30.212  1.00  0.00    -0.550 OA
ATOM     16  O   UNL     1      13.223  32.090  31.307  1.00  0.00    -0.550 OA
ENDBRANCH  13  14
ENDBRANCH  12  13
ENDBRANCH  11  12
ENDBRANCH  10  11
ENDBRANCH   9  10
ENDBRANCH   8   9
ENDBRANCH   7   8
ENDBRANCH   6   7
ENDBRANCH   5   6
ENDBRANCH   4   5
ENDBRANCH   3   4
ENDBRANCH   2   3
ENDBRANCH   1   2
BRANCH   1  17
ATOM     17  C   UNL     1       8.816  27.645  27.434  1.00  0.00     0.000 C 
BRANCH  17  18
ATOM     18  C   UNL     1       7.411  28.224  27.680  1.00  0.00     0.000 C 
BRANCH  18  19
ATOM     19  C   UNL     1       7.371  29.759  27.599  1.00  0.00     0.000 C 
BRANCH  19  20
ATOM     20  C   UNL     1       6.301  30.269  26.620  1.00  0.00     0.000 C 
BRANCH  20  21
ATOM     21  C   UNL     1       5.547  29.126  25.916  1.00  0.00     0.000 C 
BRANCH  21  22
ATOM     22  C   UNL     1       4.115  28.947  26.446  1.00  0.00    -0.000 C 
BRANCH  22  23
ATOM     23  C   UNL     1       3.627  30.169  27.245  1.00  0.00    -0.000 C 
BRANCH  23  24
ATOM     24  C   UNL     1       3.143  29.794  28.655  1.00  0.00    -0.000 C 
BRANCH  24  25
ATOM     25  C   UNL     1       4.166  28.943  29.428  1.00  0.00    -0.000 C 
BRANCH  25  26
ATOM     26  C   UNL     1       4.917  29.749  30.500  1.00  0.00    -0.000 C 
BRANCH  26  27
ATOM     27  C   UNL     1       6.150  29.009  31.040  1.00  0.00    -0.000 C 
BRANCH  27  28
ATOM     28  C   UNL     1       5.787  27.581  31.475  1.00  0.00    -0.000 C 
BRANCH  28  29
ATOM     29  C   UNL     1       6.642  26.515  30.771  1.00  0.00    -0.003 C 
ATOM     30  C   UNL     1       5.853  25.715  29.735  1.00  0.00     0.004 C 
ENDBRANCH  28  29
ENDBRANCH  27  28
ENDBRANCH  26  27
ENDBRANCH  25  26
ENDBRANCH  24  25
ENDBRANCH  23  24
ENDBRANCH  22  23
ENDBRANCH  21  22
ENDBRANCH  20  21
ENDBRANCH  19  20
ENDBRANCH  18  19
ENDBRANCH  17  18
ENDBRANCH   1  17
TORSDOF 26
ENDMDL
MODEL 2
REMARK VINA RESULT:    -4.445      2.350      6.469
REMARK INTER + INTRA:         -16.417
REMARK INTER:                 -11.177
REMARK INTRA:                  -5.240
REMARK UNBOUND:                -5.216
REMARK SMILES CCCCCCCCCCCCCCCCCCCCCCCCCCCC(=O)[O-]
REMARK SMILES IDX 15 1 16 2 17 3 18 4 19 5 20 6 21 7 22 8 23 9 24 10 25 11
REMARK SMILES IDX 26 12 27 13 28 14 29 15 30 16 14 17 13 18 12 19 11 20 10 21
REMARK SMILES IDX 9 22 8 23 7 24 6 25 5 26 4 27 3 28 2 29 1 30
REMARK H PARENT
REMARK Flexibility Score: inf
ROOT
ATOM      1  C   UNL     1       6.773  26.605  29.611  1.00  0.00     0.000 C 
ENDROOT
BRANCH   1   2
ATOM      2  C   UNL     1       6.277  27.935  30.203  1.00  0.00     0.000 C 
BRANCH   2   3
ATOM      3  C   UNL     1       7.302  29.077  30.059  1.00  0.00     0.000 C 
BRANCH   3   4
ATOM      4  C   UNL     1       7.313  29.781  28.689  1.00  0.00     0.000 C 
BRANCH   4   5
ATOM      5  C   UNL     1       5.969  30.436  28.338  1.00  0.00     0.000 C 
BRANCH   5   6
ATOM      6  C   UNL     1       5.498  30.016  26.938  1.00  0.00     0.000 C 
BRANCH   6   7
ATOM      7  C   UNL     1       3.992  29.701  26.877  1.00  0.00     0.000 C 
BRANCH   7   8
ATOM      8  C   UNL     1       3.416  29.015  28.130  1.00  0.00     0.000 C 
BRANCH   8   9
ATOM      9  C   UNL     1       2.397  29.891  28.878  1.00  0.00     0.000 C 
BRANCH   9  10
ATOM     10  C   UNL     1       2.417  29.648  30.396  1.00  0.00     0.000 C 
BRANCH  10  11
ATOM     11  C   UNL     1       2.936  30.863  31.186  1.00  0.00     0.000 C 
BRANCH  11  12
ATOM     12  C   UNL     1       4.349  30.642  31.754  1.00  0.00     0.006 C 
BRANCH  12  13
ATOM     13  C   UNL     1       5.268  31.870  31.657  1.00  0.00     0.053 C 
BRANCH  13  14
ATOM     14  C   UNL     1       5.124  32.774  32.844  1.00  0.00     0.041 C 
ATOM     15  O   UNL     1       5.742  32.522  33.911  1.00  0.00    -0.550 OA
ATOM     16  O   UNL     1       4.280  33.875  32.781  1.00  0.00    -0.550 OA
ENDBRANCH  13  14
ENDBRANCH  12  13
ENDBRANCH  11  12
ENDBRANCH  10  11
ENDBRANCH   9  10
ENDBRANCH   8   9
ENDBRANCH   7   8
ENDBRANCH   6   7
ENDBRANCH   5   6
ENDBRANCH   4   5
ENDBRANCH   3   4
ENDBRANCH   2   3
ENDBRANCH   1   2
BRANCH   1  17
ATOM     17  C   UNL     1       5.994  26.180  28.352  1.00  0.00     0.000 C 
BRANCH  17  18
ATOM     18  C   UNL     1       6.853  25.633  27.197  1.00  0.00     0.000 C 
BRANCH  18  19
ATOM     19  C   UNL     1       8.324  26.074  27.281  1.00  0.00     0.000 C 
BRANCH  19  20
ATOM     20  C   UNL     1       8.604  27.348  26.468  1.00  0.00     0.000 C 
BRANCH  20  21
ATOM     21  C   UNL     1       7.617  27.536  25.301  1.00  0.00     0.000 C 
BRANCH  21  22
ATOM     22  C   UNL     1       7.970  28.744  24.417  1.00  0.00    -0.000 C 
BRANCH  22  23
ATOM     23  C   UNL     1       9.233  29.478  24.900  1.00  0.00    -0.000 C 
BRANCH  23  24
ATOM     24  C   UNL     1       8.916  30.847  25.525  1.00  0.00    -0.000 C 
BRANCH  24  25
ATOM     25  C   UNL     1       9.936  31.259  26.601  1.00  0.00    -0.000 C 
BRANCH  25  26
ATOM     26  C   UNL     1      11.082  30.245  26.750  1.00  0.00    -0.000 C 
BRANCH  26  27
ATOM     27  C   UNL     1      11.057  29.519  28.104  1.00  0.00    -0.000 C 
BRANCH  27  28
ATOM     28  C   UNL     1      11.796  30.333  29.176  1.00  0.00    -0.000 C 
BRANCH  28  29
ATOM     29  C   UNL     1      10.839  30.977  30.192  1.00  0.00    -0.003 C 
ATOM     30  C   UNL     1      11.367  32.301  30.745  1.00  0.00     0.004 C 
ENDBRANCH  28  29
ENDBRANCH  27  28
ENDBRANCH  26  27
ENDBRANCH  25  26
ENDBRANCH  24  25
ENDBRANCH  23  24
ENDBRANCH  22  23
ENDBRANCH  21  22
ENDBRANCH  20  21
ENDBRANCH  19  20
ENDBRANCH  18  19
ENDBRANCH  17  18
ENDBRANCH   1  17
TORSDOF 26
ENDMDL
MODEL 3
REMARK VINA RESULT:    -4.400      2.395      5.113
REMARK INTER + INTRA:         -16.304
REMARK INTER:                 -11.249
REMARK INTRA:                  -5.055
REMARK UNBOUND:                -5.216
REMARK SMILES CCCCCCCCCCCCCCCCCCCCCCCCCCCC(=O)[O-]
REMARK SMILES IDX 15 1 16 2 17 3 18 4 19 5 20 6 21 7 22 8 23 9 24 10 25 11
REMARK SMILES IDX 26 12 27 13 28 14 29 15 30 16 14 17 13 18 12 19 11 20 10 21
REMARK SMILES IDX 9 22 8 23 7 24 6 25 5 26 4 27 3 28 2 29 1 30
REMARK H PARENT
REMARK Flexibility Score: inf
ROOT
ATOM      1  C   UNL     1       4.408  29.863  30.647  1.00  0.00     0.000 C 
ENDROOT
BRANCH   1   2
ATOM      2  C   UNL     1       5.651  30.767  30.703  1.00  0.00     0.000 C 
BRANCH   2   3
ATOM      3  C   UNL     1       6.972  29.975  30.695  1.00  0.00     0.000 C 
BRANCH   3   4
ATOM      4  C   UNL     1       8.130  30.635  29.923  1.00  0.00     0.000 C 
BRANCH   4   5
ATOM      5  C   UNL     1       9.113  31.381  30.836  1.00  0.00     0.000 C 
BRANCH   5   6
ATOM      6  C   UNL     1       9.886  32.455  30.056  1.00  0.00     0.000 C 
BRANCH   6   7
ATOM      7  C   UNL     1      11.404  32.195  30.015  1.00  0.00     0.000 C 
BRANCH   7   8
ATOM      8  C   UNL     1      11.815  30.711  30.042  1.00  0.00     0.000 C 
BRANCH   8   9
ATOM      9  C   UNL     1      12.195  30.169  28.653  1.00  0.00     0.000 C 
BRANCH   9  10
ATOM     10  C   UNL     1      10.974  29.670  27.863  1.00  0.00     0.000 C 
BRANCH  10  11
ATOM     11  C   UNL     1      10.847  30.337  26.482  1.00  0.00     0.000 C 
BRANCH  11  12
ATOM     12  C   UNL     1      10.212  31.738  26.556  1.00  0.00     0.006 C 
BRANCH  12  13
ATOM     13  C   UNL     1      11.163  32.883  26.173  1.00  0.00     0.053 C 
BRANCH  13  14
ATOM     14  C   UNL     1      10.673  33.645  24.979  1.00  0.00     0.041 C 
ATOM     15  O   UNL     1      11.373  34.567  24.484  1.00  0.00    -0.550 OA
ATOM     16  O   UNL     1       9.427  33.359  24.436  1.00  0.00    -0.550 OA
ENDBRANCH  13  14
ENDBRANCH  12  13
ENDBRANCH  11  12
ENDBRANCH  10  11
ENDBRANCH   9  10
ENDBRANCH   8   9
ENDBRANCH   7   8
ENDBRANCH   6   7
ENDBRANCH   5   6
ENDBRANCH   4   5
ENDBRANCH   3   4
ENDBRANCH   2   3
ENDBRANCH   1   2
BRANCH   1  17
ATOM     17  C   UNL     1       3.593  30.042  29.352  1.00  0.00     0.000 C 
BRANCH  17  18
ATOM     18  C   UNL     1       3.878  29.012  28.244  1.00  0.00     0.000 C 
BRANCH  18  19
ATOM     19  C   UNL     1       4.310  29.660  26.918  1.00  0.00     0.000 C 
BRANCH  19  20
ATOM     20  C   UNL     1       5.597  30.489  27.060  1.00  0.00     0.000 C 
BRANCH  20  21
ATOM     21  C   UNL     1       6.766  29.915  26.239  1.00  0.00     0.000 C 
BRANCH  21  22
ATOM     22  C   UNL     1       7.483  28.761  26.958  1.00  0.00    -0.000 C 
BRANCH  22  23
ATOM     23  C   UNL     1       7.077  27.382  26.407  1.00  0.00    -0.000 C 
BRANCH  23  24
ATOM     24  C   UNL     1       6.778  26.367  27.521  1.00  0.00    -0.000 C 
BRANCH  24  25
ATOM     25  C   UNL     1       7.008  26.945  28.929  1.00  0.00    -0.000 C 
BRANCH  25  26
ATOM     26  C   UNL     1       6.026  26.378  29.968  1.00  0.00    -0.000 C 
BRANCH  26  27
ATOM     27  C   UNL     1       6.736  25.631  31.107  1.00  0.00    -0.000 C 
BRANCH  27  28
ATOM     28  C   UNL     1       5.865  25.602  32.371  1.00  0.00    -0.000 C 
BRANCH  28  29
ATOM     29  C   UNL     1       5.362  26.997  32.774  1.00  0.00    -0.003 C 
ATOM     30  C   UNL     1       6.375  27.770  33.618  1.00  0.00     0.004 C 
ENDBRANCH  28  29
ENDBRANCH  27  28
ENDBRANCH  26  27
ENDBRANCH  25  26
ENDBRANCH  24  25
ENDBRANCH  23  24
ENDBRANCH  22  23
ENDBRANCH  21  22
ENDBRANCH  20  21
ENDBRANCH  19  20
ENDBRANCH  18  19
ENDBRANCH  17  18
ENDBRANCH   1  17
TORSDOF 26
ENDMDL
MODEL 4
REMARK VINA RESULT:    -4.396      2.246      4.281
REMARK INTER + INTRA:         -16.295
REMARK INTER:                 -11.466
REMARK INTRA:                  -4.829
REMARK UNBOUND:                -5.216
REMARK SMILES CCCCCCCCCCCCCCCCCCCCCCCCCCCC(=O)[O-]
REMARK SMILES IDX 15 1 16 2 17 3 18 4 19 5 20 6 21 7 22 8 23 9 24 10 25 11
REMARK SMILES IDX 26 12 27 13 28 14 29 15 30 16 14 17 13 18 12 19 11 20 10 21
REMARK SMILES IDX 9 22 8 23 7 24 6 25 5 26 4 27 3 28 2 29 1 30
REMARK H PARENT
REMARK Flexibility Score: inf
ROOT
ATOM      1  C   UNL     1       8.877  27.276  27.317  1.00  0.00     0.000 C 
ENDROOT
BRANCH   1   2
ATOM      2  C   UNL     1       9.138  28.720  27.779  1.00  0.00     0.000 C 
BRANCH   2   3
ATOM      3  C   UNL     1       7.942  29.658  27.528  1.00  0.00     0.000 C 
BRANCH   3   4
ATOM      4  C   UNL     1       7.596  30.607  28.690  1.00  0.00     0.000 C 
BRANCH   4   5
ATOM      5  C   UNL     1       8.475  30.385  29.930  1.00  0.00     0.000 C 
BRANCH   5   6
ATOM      6  C   UNL     1       9.129  31.697  30.387  1.00  0.00     0.000 C 
BRANCH   6   7
ATOM      7  C   UNL     1      10.635  31.553  30.672  1.00  0.00     0.000 C 
BRANCH   7   8
ATOM      8  C   UNL     1      11.565  32.089  29.568  1.00  0.00     0.000 C 
BRANCH   8   9
ATOM      9  C   UNL     1      11.978  31.007  28.556  1.00  0.00     0.000 C 
BRANCH   9  10
ATOM     10  C   UNL     1      12.236  31.582  27.153  1.00  0.00     0.000 C 
BRANCH  10  11
ATOM     11  C   UNL     1      11.134  31.207  26.146  1.00  0.00     0.000 C 
BRANCH  11  12
ATOM     12  C   UNL     1       9.958  32.200  26.157  1.00  0.00     0.006 C 
BRANCH  12  13
ATOM     13  C   UNL     1       9.690  32.877  24.803  1.00  0.00     0.053 C 
BRANCH  13  14
ATOM     14  C   UNL     1      10.852  33.709  24.352  1.00  0.00     0.041 C 
ATOM     15  O   UNL     1      11.451  33.432  23.279  1.00  0.00    -0.550 OA
ATOM     16  O   UNL     1      11.295  34.768  25.134  1.00  0.00    -0.550 OA
ENDBRANCH  13  14
ENDBRANCH  12  13
ENDBRANCH  11  12
ENDBRANCH  10  11
ENDBRANCH   9  10
ENDBRANCH   8   9
ENDBRANCH   7   8
ENDBRANCH   6   7
ENDBRANCH   5   6
ENDBRANCH   4   5
ENDBRANCH   3   4
ENDBRANCH   2   3
ENDBRANCH   1   2
BRANCH   1  17
ATOM     17  C   UNL     1       7.847  27.187  26.176  1.00  0.00     0.000 C 
BRANCH  17  18
ATOM     18  C   UNL     1       6.676  26.217  26.418  1.00  0.00     0.000 C 
BRANCH  18  19
ATOM     19  C   UNL     1       6.060  25.683  25.114  1.00  0.00     0.000 C 
BRANCH  19  20
ATOM     20  C   UNL     1       4.567  26.028  24.984  1.00  0.00     0.000 C 
BRANCH  20  21
ATOM     21  C   UNL     1       4.128  27.137  25.957  1.00  0.00     0.000 C 
BRANCH  21  22
ATOM     22  C   UNL     1       4.359  28.548  25.390  1.00  0.00    -0.000 C 
BRANCH  22  23
ATOM     23  C   UNL     1       4.347  29.631  26.484  1.00  0.00    -0.000 C 
BRANCH  23  24
ATOM     24  C   UNL     1       3.587  29.187  27.744  1.00  0.00    -0.000 C 
BRANCH  24  25
ATOM     25  C   UNL     1       4.055  29.925  29.011  1.00  0.00    -0.000 C 
BRANCH  25  26
ATOM     26  C   UNL     1       4.624  28.970  30.074  1.00  0.00    -0.000 C 
BRANCH  26  27
ATOM     27  C   UNL     1       5.177  27.672  29.468  1.00  0.00    -0.000 C 
BRANCH  27  28
ATOM     28  C   UNL     1       6.515  27.289  30.118  1.00  0.00    -0.000 C 
BRANCH  28  29
ATOM     29  C   UNL     1       6.673  25.771  30.293  1.00  0.00    -0.003 C 
ATOM     30  C   UNL     1       6.742  25.348  31.760  1.00  0.00     0.004 C 
ENDBRANCH  28  29
ENDBRANCH  27  28
ENDBRANCH  26  27
ENDBRANCH  25  26
ENDBRANCH  24  25
ENDBRANCH  23  24
ENDBRANCH  22  23
ENDBRANCH  21  22
ENDBRANCH  20  21
ENDBRANCH  19  20
ENDBRANCH  18  19
ENDBRANCH  17  18
ENDBRANCH   1  17
TORSDOF 26
ENDMDL
MODEL 5
REMARK VINA RESULT:    -4.380      3.246      7.232
REMARK INTER + INTRA:         -16.252
REMARK INTER:                 -10.910
REMARK INTRA:                  -5.343
REMARK UNBOUND:                -5.216
REMARK SMILES CCCCCCCCCCCCCCCCCCCCCCCCCCCC(=O)[O-]
REMARK SMILES IDX 15 1 16 2 17 3 18 4 19 5 20 6 21 7 22 8 23 9 24 10 25 11
REMARK SMILES IDX 26 12 27 13 28 14 29 15 30 16 14 17 13 18 12 19 11 20 10 21
REMARK SMILES IDX 9 22 8 23 7 24 6 25 5 26 4 27 3 28 2 29 1 30
REMARK H PARENT
REMARK Flexibility Score: inf
ROOT
ATOM      1  C   UNL     1       7.364  28.726  28.921  1.00  0.00     0.000 C 
ENDROOT
BRANCH   1   2
ATOM      2  C   UNL     1       6.675  27.756  29.895  1.00  0.00     0.000 C 
BRANCH   2   3
ATOM      3  C   UNL     1       6.623  26.310  29.368  1.00  0.00     0.000 C 
BRANCH   3   4
ATOM      4  C   UNL     1       6.838  26.155  27.850  1.00  0.00     0.000 C 
BRANCH   4   5
ATOM      5  C   UNL     1       5.529  25.940  27.076  1.00  0.00     0.000 C 
BRANCH   5   6
ATOM      6  C   UNL     1       5.464  26.845  25.838  1.00  0.00     0.000 C 
BRANCH   6   7
ATOM      7  C   UNL     1       4.443  27.989  25.979  1.00  0.00     0.000 C 
BRANCH   7   8
ATOM      8  C   UNL     1       5.033  29.409  25.888  1.00  0.00     0.000 C 
BRANCH   8   9
ATOM      9  C   UNL     1       4.455  30.367  26.943  1.00  0.00     0.000 C 
BRANCH   9  10
ATOM     10  C   UNL     1       3.290  29.743  27.728  1.00  0.00     0.000 C 
BRANCH  10  11
ATOM     11  C   UNL     1       3.375  30.020  29.240  1.00  0.00     0.000 C 
BRANCH  11  12
ATOM     12  C   UNL     1       3.293  28.735  30.084  1.00  0.00     0.006 C 
BRANCH  12  13
ATOM     13  C   UNL     1       2.915  27.478  29.284  1.00  0.00     0.053 C 
BRANCH  13  14
ATOM     14  C   UNL     1       2.965  26.240  30.127  1.00  0.00     0.041 C 
ATOM     15  O   UNL     1       2.564  25.141  29.662  1.00  0.00    -0.550 OA
ATOM     16  O   UNL     1       3.423  26.309  31.437  1.00  0.00    -0.550 OA
ENDBRANCH  13  14
ENDBRANCH  12  13
ENDBRANCH  11  12
ENDBRANCH  10  11
ENDBRANCH   9  10
ENDBRANCH   8   9
ENDBRANCH   7   8
ENDBRANCH   6   7
ENDBRANCH   5   6
ENDBRANCH   4   5
ENDBRANCH   3   4
ENDBRANCH   2   3
ENDBRANCH   1   2
BRANCH   1  17
ATOM     17  C   UNL     1       7.236  30.200  29.349  1.00  0.00     0.000 C 
BRANCH  17  18
ATOM     18  C   UNL     1       7.090  30.437  30.864  1.00  0.00     0.000 C 
BRANCH  18  19
ATOM     19  C   UNL     1       8.262  31.231  31.464  1.00  0.00     0.000 C 
BRANCH  19  20
ATOM     20  C   UNL     1       9.327  31.590  30.415  1.00  0.00     0.000 C 
BRANCH  20  21
ATOM     21  C   UNL     1      10.721  31.803  31.033  1.00  0.00     0.000 C 
BRANCH  21  22
ATOM     22  C   UNL     1      11.801  30.934  30.370  1.00  0.00    -0.000 C 
BRANCH  22  23
ATOM     23  C   UNL     1      12.848  31.771  29.613  1.00  0.00    -0.000 C 
BRANCH  23  24
ATOM     24  C   UNL     1      12.787  31.555  28.093  1.00  0.00    -0.000 C 
BRANCH  24  25
ATOM     25  C   UNL     1      11.836  30.414  27.692  1.00  0.00    -0.000 C 
BRANCH  25  26
ATOM     26  C   UNL     1      11.033  30.733  26.420  1.00  0.00    -0.000 C 
BRANCH  26  27
ATOM     27  C   UNL     1       9.650  31.327  26.728  1.00  0.00    -0.000 C 
BRANCH  27  28
ATOM     28  C   UNL     1       8.568  30.682  25.849  1.00  0.00    -0.000 C 
BRANCH  28  29
ATOM     29  C   UNL     1       8.783  29.172  25.662  1.00  0.00    -0.003 C 
ATOM     30  C   UNL     1       8.386  28.687  24.268  1.00  0.00     0.004 C 
ENDBRANCH  28  29
ENDBRANCH  27  28
ENDBRANCH  26  27
ENDBRANCH  25  26
ENDBRANCH  24  25
ENDBRANCH  23  24
ENDBRANCH  22  23
ENDBRANCH  21  22
ENDBRANCH  20  21
ENDBRANCH  19  20
ENDBRANCH  18  19
ENDBRANCH  17  18
ENDBRANCH   1  17
TORSDOF 26
ENDMDL
MODEL 6
REMARK VINA RESULT:    -4.370      3.090      7.089
REMARK INTER + INTRA:         -16.229
REMARK INTER:                 -11.686
REMARK INTRA:                  -4.543
REMARK UNBOUND:                -5.216
REMARK SMILES CCCCCCCCCCCCCCCCCCCCCCCCCCCC(=O)[O-]
REMARK SMILES IDX 15 1 16 2 17 3 18 4 19 5 20 6 21 7 22 8 23 9 24 10 25 11
REMARK SMILES IDX 26 12 27 13 28 14 29 15 30 16 14 17 13 18 12 19 11 20 10 21
REMARK SMILES IDX 9 22 8 23 7 24 6 25 5 26 4 27 3 28 2 29 1 30
REMARK H PARENT
REMARK Flexibility Score: inf
ROOT
ATOM      1  C   UNL     1       4.170  29.875  28.407  1.00  0.00     0.000 C 
ENDROOT
BRANCH   1   2
ATOM      2  C   UNL     1       4.387  30.607  27.072  1.00  0.00     0.000 C 
BRANCH   2   3
ATOM      3  C   UNL     1       4.895  29.679  25.953  1.00  0.00     0.000 C 
BRANCH   3   4
ATOM      4  C   UNL     1       6.153  28.861  26.298  1.00  0.00     0.000 C 
BRANCH   4   5
ATOM      5  C   UNL     1       7.442  29.696  26.262  1.00  0.00     0.000 C 
BRANCH   5   6
ATOM      6  C   UNL     1       8.674  28.803  26.049  1.00  0.00     0.000 C 
BRANCH   6   7
ATOM      7  C   UNL     1       8.929  27.838  27.222  1.00  0.00     0.000 C 
BRANCH   7   8
ATOM      8  C   UNL     1       8.865  26.342  26.864  1.00  0.00     0.000 C 
BRANCH   8   9
ATOM      9  C   UNL     1       7.603  25.650  27.406  1.00  0.00     0.000 C 
BRANCH   9  10
ATOM     10  C   UNL     1       7.221  26.140  28.812  1.00  0.00     0.000 C 
BRANCH  10  11
ATOM     11  C   UNL     1       5.703  26.332  28.983  1.00  0.00     0.000 C 
BRANCH  11  12
ATOM     12  C   UNL     1       5.201  25.884  30.367  1.00  0.00     0.006 C 
BRANCH  12  13
ATOM     13  C   UNL     1       6.296  25.312  31.281  1.00  0.00     0.053 C 
BRANCH  13  14
ATOM     14  C   UNL     1       5.730  24.732  32.541  1.00  0.00     0.041 C 
ATOM     15  O   UNL     1       5.536  25.467  33.545  1.00  0.00    -0.550 OA
ATOM     16  O   UNL     1       5.451  23.373  32.618  1.00  0.00    -0.550 OA
ENDBRANCH  13  14
ENDBRANCH  12  13
ENDBRANCH  11  12
ENDBRANCH  10  11
ENDBRANCH   9  10
ENDBRANCH   8   9
ENDBRANCH   7   8
ENDBRANCH   6   7
ENDBRANCH   5   6
ENDBRANCH   4   5
ENDBRANCH   3   4
ENDBRANCH   2   3
ENDBRANCH   1   2
BRANCH   1  17
ATOM     17  C   UNL     1       4.918  30.532  29.582  1.00  0.00     0.000 C 
BRANCH  17  18
ATOM     18  C   UNL     1       5.322  29.581  30.723  1.00  0.00     0.000 C 
BRANCH  18  19
ATOM     19  C   UNL     1       6.793  29.739  31.145  1.00  0.00     0.000 C 
BRANCH  19  20
ATOM     20  C   UNL     1       7.743  29.838  29.940  1.00  0.00     0.000 C 
BRANCH  20  21
ATOM     21  C   UNL     1       8.438  31.208  29.844  1.00  0.00     0.000 C 
BRANCH  21  22
ATOM     22  C   UNL     1       9.530  31.394  30.910  1.00  0.00    -0.000 C 
BRANCH  22  23
ATOM     23  C   UNL     1      10.777  32.107  30.358  1.00  0.00    -0.000 C 
BRANCH  23  24
ATOM     24  C   UNL     1      12.048  31.253  30.487  1.00  0.00    -0.000 C 
BRANCH  24  25
ATOM     25  C   UNL     1      12.616  30.823  29.122  1.00  0.00    -0.000 C 
BRANCH  25  26
ATOM     26  C   UNL     1      11.525  30.329  28.157  1.00  0.00    -0.000 C 
BRANCH  26  27
ATOM     27  C   UNL     1      11.597  31.013  26.783  1.00  0.00    -0.000 C 
BRANCH  27  28
ATOM     28  C   UNL     1      10.495  32.074  26.640  1.00  0.00    -0.000 C 
BRANCH  28  29
ATOM     29  C   UNL     1      10.522  32.770  25.270  1.00  0.00    -0.003 C 
ATOM     30  C   UNL     1      11.129  34.172  25.332  1.00  0.00     0.004 C 
ENDBRANCH  28  29
ENDBRANCH  27  28
ENDBRANCH  26  27
ENDBRANCH  25  26
ENDBRANCH  24  25
ENDBRANCH  23  24
ENDBRANCH  22  23
ENDBRANCH  21  22
ENDBRANCH  20  21
ENDBRANCH  19  20
ENDBRANCH  18  19
ENDBRANCH  17  18
ENDBRANCH   1  17
TORSDOF 26
ENDMDL
MODEL 7
REMARK VINA RESULT:    -4.341      3.598      7.607
REMARK INTER + INTRA:         -16.156
REMARK INTER:                 -10.865
REMARK INTRA:                  -5.291
REMARK UNBOUND:                -5.216
REMARK SMILES CCCCCCCCCCCCCCCCCCCCCCCCCCCC(=O)[O-]
REMARK SMILES IDX 15 1 16 2 17 3 18 4 19 5 20 6 21 7 22 8 23 9 24 10 25 11
REMARK SMILES IDX 26 12 27 13 28 14 29 15 30 16 14 17 13 18 12 19 11 20 10 21
REMARK SMILES IDX 9 22 8 23 7 24 6 25 5 26 4 27 3 28 2 29 1 30
REMARK H PARENT
REMARK Flexibility Score: inf
ROOT
ATOM      1  C   UNL     1       7.011  26.318  26.353  1.00  0.00     0.000 C 
ENDROOT
BRANCH   1   2
ATOM      2  C   UNL     1       6.155  26.207  27.627  1.00  0.00     0.000 C 
BRANCH   2   3
ATOM      3  C   UNL     1       6.999  26.088  28.910  1.00  0.00     0.000 C 
BRANCH   3   4
ATOM      4  C   UNL     1       6.758  27.188  29.960  1.00  0.00     0.000 C 
BRANCH   4   5
ATOM      5  C   UNL     1       5.291  27.641  30.030  1.00  0.00     0.000 C 
BRANCH   5   6
ATOM      6  C   UNL     1       5.164  29.147  29.754  1.00  0.00     0.000 C 
BRANCH   6   7
ATOM      7  C   UNL     1       4.359  29.461  28.480  1.00  0.00     0.000 C 
BRANCH   7   8
ATOM      8  C   UNL     1       4.973  30.537  27.566  1.00  0.00     0.000 C 
BRANCH   8   9
ATOM      9  C   UNL     1       5.160  30.057  26.117  1.00  0.00     0.000 C 
BRANCH   9  10
ATOM     10  C   UNL     1       4.335  28.798  25.803  1.00  0.00     0.000 C 
BRANCH  10  11
ATOM     11  C   UNL     1       4.277  28.485  24.297  1.00  0.00     0.000 C 
BRANCH  11  12
ATOM     12  C   UNL     1       5.662  28.537  23.627  1.00  0.00     0.006 C 
BRANCH  12  13
ATOM     13  C   UNL     1       5.711  27.897  22.230  1.00  0.00     0.053 C 
BRANCH  13  14
ATOM     14  C   UNL     1       4.598  28.382  21.351  1.00  0.00     0.041 C 
ATOM     15  O   UNL     1       3.766  27.567  20.874  1.00  0.00    -0.550 OA
ATOM     16  O   UNL     1       4.502  29.731  21.032  1.00  0.00    -0.550 OA
ENDBRANCH  13  14
ENDBRANCH  12  13
ENDBRANCH  11  12
ENDBRANCH  10  11
ENDBRANCH   9  10
ENDBRANCH   8   9
ENDBRANCH   7   8
ENDBRANCH   6   7
ENDBRANCH   5   6
ENDBRANCH   4   5
ENDBRANCH   3   4
ENDBRANCH   2   3
ENDBRANCH   1   2
BRANCH   1  17
ATOM     17  C   UNL     1       8.406  26.914  26.616  1.00  0.00     0.000 C 
BRANCH  17  18
ATOM     18  C   UNL     1       8.504  28.446  26.495  1.00  0.00     0.000 C 
BRANCH  18  19
ATOM     19  C   UNL     1       9.227  29.098  27.685  1.00  0.00     0.000 C 
BRANCH  19  20
ATOM     20  C   UNL     1       8.421  30.254  28.301  1.00  0.00     0.000 C 
BRANCH  20  21
ATOM     21  C   UNL     1       8.754  30.484  29.786  1.00  0.00     0.000 C 
BRANCH  21  22
ATOM     22  C   UNL     1       9.387  31.861  30.044  1.00  0.00    -0.000 C 
BRANCH  22  23
ATOM     23  C   UNL     1      10.630  31.777  30.948  1.00  0.00    -0.000 C 
BRANCH  23  24
ATOM     24  C   UNL     1      11.777  30.987  30.300  1.00  0.00    -0.000 C 
BRANCH  24  25
ATOM     25  C   UNL     1      12.587  31.828  29.297  1.00  0.00    -0.000 C 
BRANCH  25  26
ATOM     26  C   UNL     1      13.041  31.014  28.074  1.00  0.00    -0.000 C 
BRANCH  26  27
ATOM     27  C   UNL     1      12.083  31.154  26.881  1.00  0.00    -0.000 C 
BRANCH  27  28
ATOM     28  C   UNL     1      11.286  32.464  26.969  1.00  0.00    -0.000 C 
BRANCH  28  29
ATOM     29  C   UNL     1      10.152  32.535  25.934  1.00  0.00    -0.003 C 
ATOM     30  C   UNL     1      10.225  31.413  24.899  1.00  0.00     0.004 C 
ENDBRANCH  28  29
ENDBRANCH  27  28
ENDBRANCH  26  27
ENDBRANCH  25  26
ENDBRANCH  24  25
ENDBRANCH  23  24
ENDBRANCH  22  23
ENDBRANCH  21  22
ENDBRANCH  20  21
ENDBRANCH  19  20
ENDBRANCH  18  19
ENDBRANCH  17  18
ENDBRANCH   1  17
TORSDOF 26
ENDMDL
MODEL 8
REMARK VINA RESULT:    -4.335      2.252      5.101
REMARK INTER + INTRA:         -16.141
REMARK INTER:                 -10.692
REMARK INTRA:                  -5.449
REMARK UNBOUND:                -5.216
REMARK SMILES CCCCCCCCCCCCCCCCCCCCCCCCCCCC(=O)[O-]
REMARK SMILES IDX 15 1 16 2 17 3 18 4 19 5 20 6 21 7 22 8 23 9 24 10 25 11
REMARK SMILES IDX 26 12 27 13 28 14 29 15 30 16 14 17 13 18 12 19 11 20 10 21
REMARK SMILES IDX 9 22 8 23 7 24 6 25 5 26 4 27 3 28 2 29 1 30
REMARK H PARENT
REMARK Flexibility Score: inf
ROOT
ATOM      1  C   UNL     1       4.035  29.717  26.811  1.00  0.00     0.000 C 
ENDROOT
BRANCH   1   2
ATOM      2  C   UNL     1       4.639  30.316  28.093  1.00  0.00     0.000 C 
BRANCH   2   3
ATOM      3  C   UNL     1       4.237  29.546  29.365  1.00  0.00     0.000 C 
BRANCH   3   4
ATOM      4  C   UNL     1       5.156  29.761  30.582  1.00  0.00     0.000 C 
BRANCH   4   5
ATOM      5  C   UNL     1       5.982  31.053  30.490  1.00  0.00     0.000 C 
BRANCH   5   6
ATOM      6  C   UNL     1       7.475  30.771  30.711  1.00  0.00     0.000 C 
BRANCH   6   7
ATOM      7  C   UNL     1       8.077  29.837  29.645  1.00  0.00     0.000 C 
BRANCH   7   8
ATOM      8  C   UNL     1       8.911  30.536  28.556  1.00  0.00     0.000 C 
BRANCH   8   9
ATOM      9  C   UNL     1       9.989  29.623  27.948  1.00  0.00     0.000 C 
BRANCH   9  10
ATOM     10  C   UNL     1      11.377  29.861  28.564  1.00  0.00     0.000 C 
BRANCH  10  11
ATOM     11  C   UNL     1      11.868  31.309  28.383  1.00  0.00     0.000 C 
BRANCH  11  12
ATOM     12  C   UNL     1      12.081  31.683  26.905  1.00  0.00     0.006 C 
BRANCH  12  13
ATOM     13  C   UNL     1      11.150  32.793  26.394  1.00  0.00     0.053 C 
BRANCH  13  14
ATOM     14  C   UNL     1      10.404  32.378  25.162  1.00  0.00     0.041 C 
ATOM     15  O   UNL     1      10.353  31.164  24.832  1.00  0.00    -0.550 OA
ATOM     16  O   UNL     1       9.795  33.336  24.362  1.00  0.00    -0.550 OA
ENDBRANCH  13  14
ENDBRANCH  12  13
ENDBRANCH  11  12
ENDBRANCH  10  11
ENDBRANCH   9  10
ENDBRANCH   8   9
ENDBRANCH   7   8
ENDBRANCH   6   7
ENDBRANCH   5   6
ENDBRANCH   4   5
ENDBRANCH   3   4
ENDBRANCH   2   3
ENDBRANCH   1   2
BRANCH   1  17
ATOM     17  C   UNL     1       5.088  29.440  25.723  1.00  0.00     0.000 C 
BRANCH  17  18
ATOM     18  C   UNL     1       6.554  29.586  26.171  1.00  0.00     0.000 C 
BRANCH  18  19
ATOM     19  C   UNL     1       7.549  28.945  25.188  1.00  0.00     0.000 C 
BRANCH  19  20
ATOM     20  C   UNL     1       6.848  28.282  23.990  1.00  0.00     0.000 C 
BRANCH  20  21
ATOM     21  C   UNL     1       7.420  26.890  23.665  1.00  0.00     0.000 C 
BRANCH  21  22
ATOM     22  C   UNL     1       6.435  25.755  23.990  1.00  0.00    -0.000 C 
BRANCH  22  23
ATOM     23  C   UNL     1       5.017  26.038  23.464  1.00  0.00    -0.000 C 
BRANCH  23  24
ATOM     24  C   UNL     1       3.978  26.134  24.592  1.00  0.00    -0.000 C 
BRANCH  24  25
ATOM     25  C   UNL     1       4.429  25.417  25.878  1.00  0.00    -0.000 C 
BRANCH  25  26
ATOM     26  C   UNL     1       4.010  26.169  27.152  1.00  0.00    -0.000 C 
BRANCH  26  27
ATOM     27  C   UNL     1       5.130  26.220  28.202  1.00  0.00    -0.000 C 
BRANCH  27  28
ATOM     28  C   UNL     1       6.422  25.593  27.658  1.00  0.00    -0.000 C 
BRANCH  28  29
ATOM     29  C   UNL     1       7.653  26.483  27.891  1.00  0.00    -0.003 C 
ATOM     30  C   UNL     1       8.849  26.076  27.030  1.00  0.00     0.004 C 
ENDBRANCH  28  29
ENDBRANCH  27  28
ENDBRANCH  26  27
ENDBRANCH  25  26
ENDBRANCH  24  25
ENDBRANCH  23  24
ENDBRANCH  22  23
ENDBRANCH  21  22
ENDBRANCH  20  21
ENDBRANCH  19  20
ENDBRANCH  18  19
ENDBRANCH  17  18
ENDBRANCH   1  17
TORSDOF 26
ENDMDL
MODEL 9
REMARK VINA RESULT:    -4.284      1.984      6.280
REMARK INTER + INTRA:         -16.012
REMARK INTER:                 -10.412
REMARK INTRA:                  -5.600
REMARK UNBOUND:                -5.216
REMARK SMILES CCCCCCCCCCCCCCCCCCCCCCCCCCCC(=O)[O-]
REMARK SMILES IDX 15 1 16 2 17 3 18 4 19 5 20 6 21 7 22 8 23 9 24 10 25 11
REMARK SMILES IDX 26 12 27 13 28 14 29 15 30 16 14 17 13 18 12 19 11 20 10 21
REMARK SMILES IDX 9 22 8 23 7 24 6 25 5 26 4 27 3 28 2 29 1 30
REMARK H PARENT
REMARK Flexibility Score: inf
ROOT
ATOM      1  C   UNL     1       5.103  29.852  28.207  1.00  0.00     0.000 C 
ENDROOT
BRANCH   1   2
ATOM      2  C   UNL     1       6.430  30.232  28.885  1.00  0.00     0.000 C 
BRANCH   2   3
ATOM      3  C   UNL     1       7.064  29.064  29.664  1.00  0.00     0.000 C 
BRANCH   3   4
ATOM      4  C   UNL     1       6.101  27.919  30.030  1.00  0.00     0.000 C 
BRANCH   4   5
ATOM      5  C   UNL     1       6.675  26.528  29.720  1.00  0.00     0.000 C 
BRANCH   5   6
ATOM      6  C   UNL     1       6.336  26.097  28.286  1.00  0.00     0.000 C 
BRANCH   6   7
ATOM      7  C   UNL     1       7.519  25.426  27.562  1.00  0.00     0.000 C 
BRANCH   7   8
ATOM      8  C   UNL     1       8.621  26.387  27.079  1.00  0.00     0.000 C 
BRANCH   8   9
ATOM      9  C   UNL     1       8.061  27.644  26.392  1.00  0.00     0.000 C 
BRANCH   9  10
ATOM     10  C   UNL     1       8.977  28.866  26.565  1.00  0.00     0.000 C 
BRANCH  10  11
ATOM     11  C   UNL     1       8.821  29.892  25.428  1.00  0.00     0.000 C 
BRANCH  11  12
ATOM     12  C   UNL     1       8.498  31.306  25.946  1.00  0.00     0.006 C 
BRANCH  12  13
ATOM     13  C   UNL     1       9.645  32.316  25.780  1.00  0.00     0.053 C 
BRANCH  13  14
ATOM     14  C   UNL     1      10.636  32.230  26.901  1.00  0.00     0.041 C 
ATOM     15  O   UNL     1      11.766  31.710  26.709  1.00  0.00    -0.550 OA
ATOM     16  O   UNL     1      10.296  32.693  28.165  1.00  0.00    -0.550 OA
ENDBRANCH  13  14
ENDBRANCH  12  13
ENDBRANCH  11  12
ENDBRANCH  10  11
ENDBRANCH   9  10
ENDBRANCH   8   9
ENDBRANCH   7   8
ENDBRANCH   6   7
ENDBRANCH   5   6
ENDBRANCH   4   5
ENDBRANCH   3   4
ENDBRANCH   2   3
ENDBRANCH   1   2
BRANCH   1  17
ATOM     17  C   UNL     1       5.119  30.083  26.684  1.00  0.00     0.000 C 
BRANCH  17  18
ATOM     18  C   UNL     1       4.484  28.963  25.840  1.00  0.00     0.000 C 
BRANCH  18  19
ATOM     19  C   UNL     1       5.178  28.768  24.482  1.00  0.00     0.000 C 
BRANCH  19  20
ATOM     20  C   UNL     1       4.439  27.765  23.581  1.00  0.00     0.000 C 
BRANCH  20  21
ATOM     21  C   UNL     1       4.010  26.494  24.337  1.00  0.00     0.000 C 
BRANCH  21  22
ATOM     22  C   UNL     1       5.200  25.589  24.695  1.00  0.00    -0.000 C 
BRANCH  22  23
ATOM     23  C   UNL     1       5.998  25.147  23.456  1.00  0.00    -0.000 C 
BRANCH  23  24
ATOM     24  C   UNL     1       7.468  24.837  23.781  1.00  0.00    -0.000 C 
BRANCH  24  25
ATOM     25  C   UNL     1       8.442  25.405  22.734  1.00  0.00    -0.000 C 
BRANCH  25  26
ATOM     26  C   UNL     1       9.245  26.605  23.262  1.00  0.00    -0.000 C 
BRANCH  26  27
ATOM     27  C   UNL     1       9.151  27.832  22.342  1.00  0.00    -0.000 C 
BRANCH  27  28
ATOM     28  C   UNL     1       7.732  27.982  21.773  1.00  0.00    -0.000 C 
BRANCH  28  29
ATOM     29  C   UNL     1       7.730  28.262  20.262  1.00  0.00    -0.003 C 
ATOM     30  C   UNL     1       8.655  27.325  19.485  1.00  0.00     0.004 C 
ENDBRANCH  28  29
ENDBRANCH  27  28
ENDBRANCH  26  27
ENDBRANCH  25  26
ENDBRANCH  24  25
ENDBRANCH  23  24
ENDBRANCH  22  23
ENDBRANCH  21  22
ENDBRANCH  20  21
ENDBRANCH  19  20
ENDBRANCH  18  19
ENDBRANCH  17  18
ENDBRANCH   1  17
TORSDOF 26
ENDMDL
