MODEL 1
REMARK VINA RESULT:    -5.964      0.000      0.000
REMARK INTER + INTRA:          -7.033
REMARK INTER:                  -7.010
REMARK INTRA:                  -0.023
REMARK UNBOUND:                -0.023
REMARK SMILES O=c1c(O)c(-c2ccc(O)cc2)oc2cc(O)cc(O)c12
REMARK SMILES IDX 5 1 3 2 2 3 1 4 21 5 19 6 18 7 16 8 15 9 14 10 13 11 6 12
REMARK SMILES IDX 7 13 8 14 9 15 12 16 11 17 10 18 4 20 20 22 17 24
REMARK H PARENT 10 19 4 21 20 23 17 25
REMARK Flexibility Score: inf
ROOT
ATOM      1  C   UNL     1     174.535 170.744 171.050  1.00  0.00     0.180 A 
ATOM      2  C   UNL     1     173.423 170.147 171.668  1.00  0.00     0.208 A 
ATOM      3  C   UNL     1     172.338 169.743 170.873  1.00  0.00     0.238 A 
ATOM      4  O   UNL     1     171.322 169.260 171.439  1.00  0.00    -0.285 OA
ATOM      5  C   UNL     1     172.386 169.924 169.470  1.00  0.00     0.111 A 
ATOM      6  C   UNL     1     171.361 169.516 168.565  1.00  0.00     0.134 A 
ATOM      7  C   UNL     1     171.456 169.863 167.212  1.00  0.00     0.093 A 
ATOM      8  C   UNL     1     172.567 170.546 166.720  1.00  0.00     0.123 A 
ATOM      9  C   UNL     1     173.604 170.898 167.586  1.00  0.00     0.094 A 
ATOM     10  C   UNL     1     173.521 170.597 168.948  1.00  0.00     0.146 A 
ATOM     11  O   UNL     1     174.523 170.959 169.740  1.00  0.00    -0.452 OA
ENDROOT
BRANCH   1  12
ATOM     12  C   UNL     1     175.727 171.173 171.817  1.00  0.00     0.021 A 
ATOM     13  C   UNL     1     176.393 170.293 172.690  1.00  0.00     0.016 A 
ATOM     14  C   UNL     1     177.530 170.714 173.385  1.00  0.00     0.047 A 
ATOM     15  C   UNL     1     178.026 172.009 173.209  1.00  0.00     0.115 A 
ATOM     16  C   UNL     1     176.241 172.466 171.629  1.00  0.00     0.016 A 
ATOM     17  C   UNL     1     177.379 172.885 172.326  1.00  0.00     0.047 A 
BRANCH  15  18
ATOM     18  O   UNL     1     179.159 172.415 173.909  1.00  0.00    -0.508 OA
ATOM     19  H   UNL     1     179.613 173.300 173.714  1.00  0.00     0.293 HD
ENDBRANCH  15  18
ENDBRANCH   1  12
BRANCH   2  20
ATOM     20  O   UNL     1     173.387 169.998 173.058  1.00  0.00    -0.502 OA
ATOM     21  H   UNL     1     173.223 170.777 173.684  1.00  0.00     0.293 HD
ENDBRANCH   2  20
BRANCH   6  22
ATOM     22  O   UNL     1     170.251 168.749 168.936  1.00  0.00    -0.507 OA
ATOM     23  H   UNL     1     169.346 169.127 169.169  1.00  0.00     0.293 HD
ENDBRANCH   6  22
BRANCH   8  24
ATOM     24  O   UNL     1     172.636 170.862 165.365  1.00  0.00    -0.508 OA
ATOM     25  H   UNL     1     173.499 170.770 164.842  1.00  0.00     0.293 HD
ENDBRANCH   8  24
TORSDOF 5
ENDMDL
MODEL 2
REMARK VINA RESULT:    -5.905      3.618      4.092
REMARK INTER + INTRA:          -6.964
REMARK INTER:                  -6.945
REMARK INTRA:                  -0.018
REMARK UNBOUND:                -0.023
REMARK SMILES O=c1c(O)c(-c2ccc(O)cc2)oc2cc(O)cc(O)c12
REMARK SMILES IDX 5 1 3 2 2 3 1 4 21 5 19 6 18 7 16 8 15 9 14 10 13 11 6 12
REMARK SMILES IDX 7 13 8 14 9 15 12 16 11 17 10 18 4 20 20 22 17 24
REMARK H PARENT 10 19 4 21 20 23 17 25
REMARK Flexibility Score: inf
ROOT
ATOM      1  C   UNL     1     174.335 169.950 172.932  1.00  0.00     0.180 A 
ATOM      2  C   UNL     1     174.298 168.555 173.096  1.00  0.00     0.208 A 
ATOM      3  C   UNL     1     173.052 167.914 173.192  1.00  0.00     0.238 A 
ATOM      4  O   UNL     1     173.026 166.672 173.394  1.00  0.00    -0.285 OA
ATOM      5  C   UNL     1     171.860 168.673 173.106  1.00  0.00     0.111 A 
ATOM      6  C   UNL     1     170.544 168.123 173.150  1.00  0.00     0.134 A 
ATOM      7  C   UNL     1     169.438 168.981 173.187  1.00  0.00     0.093 A 
ATOM      8  C   UNL     1     169.597 170.364 173.116  1.00  0.00     0.123 A 
ATOM      9  C   UNL     1     170.876 170.910 173.012  1.00  0.00     0.094 A 
ATOM     10  C   UNL     1     172.001 170.082 173.009  1.00  0.00     0.146 A 
ATOM     11  O   UNL     1     173.201 170.642 172.920  1.00  0.00    -0.452 OA
ENDROOT
BRANCH   1  12
ATOM     12  C   UNL     1     175.608 170.693 172.798  1.00  0.00     0.021 A 
ATOM     13  C   UNL     1     176.579 170.320 171.850  1.00  0.00     0.016 A 
ATOM     14  C   UNL     1     177.764 171.052 171.726  1.00  0.00     0.047 A 
ATOM     15  C   UNL     1     177.989 172.172 172.532  1.00  0.00     0.115 A 
ATOM     16  C   UNL     1     175.832 171.831 173.591  1.00  0.00     0.016 A 
ATOM     17  C   UNL     1     177.017 172.562 173.465  1.00  0.00     0.047 A 
BRANCH  15  18
ATOM     18  O   UNL     1     179.173 172.891 172.398  1.00  0.00    -0.508 OA
ATOM     19  H   UNL     1     179.929 172.562 171.809  1.00  0.00     0.293 HD
ENDBRANCH  15  18
ENDBRANCH   1  12
BRANCH   2  20
ATOM     20  O   UNL     1     175.487 167.827 173.201  1.00  0.00    -0.502 OA
ATOM     21  H   UNL     1     175.996 167.741 174.073  1.00  0.00     0.293 HD
ENDBRANCH   2  20
BRANCH   6  22
ATOM     22  O   UNL     1     170.269 166.752 173.132  1.00  0.00    -0.507 OA
ATOM     23  H   UNL     1     169.623 166.304 172.500  1.00  0.00     0.293 HD
ENDBRANCH   6  22
BRANCH   8  24
ATOM     24  O   UNL     1     168.472 171.187 173.140  1.00  0.00    -0.508 OA
ATOM     25  H   UNL     1     167.552 170.834 172.904  1.00  0.00     0.293 HD
ENDBRANCH   8  24
TORSDOF 5
ENDMDL
MODEL 3
REMARK VINA RESULT:    -5.794      2.637      4.729
REMARK INTER + INTRA:          -6.834
REMARK INTER:                  -6.553
REMARK INTRA:                  -0.281
REMARK UNBOUND:                -0.023
REMARK SMILES O=c1c(O)c(-c2ccc(O)cc2)oc2cc(O)cc(O)c12
REMARK SMILES IDX 5 1 3 2 2 3 1 4 21 5 19 6 18 7 16 8 15 9 14 10 13 11 6 12
REMARK SMILES IDX 7 13 8 14 9 15 12 16 11 17 10 18 4 20 20 22 17 24
REMARK H PARENT 10 19 4 21 20 23 17 25
REMARK Flexibility Score: inf
ROOT
ATOM      1  C   UNL     1     174.428 169.863 172.575  1.00  0.00     0.180 A 
ATOM      2  C   UNL     1     173.389 170.065 171.651  1.00  0.00     0.208 A 
ATOM      3  C   UNL     1     172.228 169.280 171.749  1.00  0.00     0.238 A 
ATOM      4  O   UNL     1     171.324 169.428 170.885  1.00  0.00    -0.285 OA
ATOM      5  C   UNL     1     172.114 168.315 172.780  1.00  0.00     0.111 A 
ATOM      6  C   UNL     1     170.968 167.493 172.997  1.00  0.00     0.134 A 
ATOM      7  C   UNL     1     171.017 166.483 173.965  1.00  0.00     0.093 A 
ATOM      8  C   UNL     1     172.144 166.307 174.766  1.00  0.00     0.123 A 
ATOM      9  C   UNL     1     173.248 167.144 174.603  1.00  0.00     0.094 A 
ATOM     10  C   UNL     1     173.243 168.138 173.620  1.00  0.00     0.146 A 
ATOM     11  O   UNL     1     174.318 168.906 173.490  1.00  0.00    -0.452 OA
ENDROOT
BRANCH   1  12
ATOM     12  C   UNL     1     175.670 170.667 172.552  1.00  0.00     0.021 A 
ATOM     13  C   UNL     1     175.830 171.794 173.380  1.00  0.00     0.016 A 
ATOM     14  C   UNL     1     177.022 172.524 173.357  1.00  0.00     0.047 A 
ATOM     15  C   UNL     1     178.073 172.133 172.522  1.00  0.00     0.115 A 
ATOM     16  C   UNL     1     176.738 170.268 171.731  1.00  0.00     0.016 A 
ATOM     17  C   UNL     1     177.929 171.000 171.709  1.00  0.00     0.047 A 
BRANCH  15  18
ATOM     18  O   UNL     1     179.254 172.870 172.509  1.00  0.00    -0.508 OA
ATOM     19  H   UNL     1     179.535 173.434 173.303  1.00  0.00     0.293 HD
ENDBRANCH  15  18
ENDBRANCH   1  12
BRANCH   2  20
ATOM     20  O   UNL     1     173.531 171.007 170.628  1.00  0.00    -0.502 OA
ATOM     21  H   UNL     1     173.354 171.994 170.770  1.00  0.00     0.293 HD
ENDBRANCH   2  20
BRANCH   6  22
ATOM     22  O   UNL     1     169.757 167.645 172.314  1.00  0.00    -0.507 OA
ATOM     23  H   UNL     1     169.348 166.948 171.710  1.00  0.00     0.293 HD
ENDBRANCH   6  22
BRANCH   8  24
ATOM     24  O   UNL     1     172.152 165.301 175.731  1.00  0.00    -0.508 OA
ATOM     25  H   UNL     1     172.326 164.333 175.485  1.00  0.00     0.293 HD
ENDBRANCH   8  24
TORSDOF 5
ENDMDL
MODEL 4
REMARK VINA RESULT:    -5.794      4.096      4.737
REMARK INTER + INTRA:          -6.834
REMARK INTER:                  -6.765
REMARK INTRA:                  -0.069
REMARK UNBOUND:                -0.023
REMARK SMILES O=c1c(O)c(-c2ccc(O)cc2)oc2cc(O)cc(O)c12
REMARK SMILES IDX 5 1 3 2 2 3 1 4 21 5 19 6 18 7 16 8 15 9 14 10 13 11 6 12
REMARK SMILES IDX 7 13 8 14 9 15 12 16 11 17 10 18 4 20 20 22 17 24
REMARK H PARENT 10 19 4 21 20 23 17 25
REMARK Flexibility Score: inf
ROOT
ATOM      1  C   UNL     1     176.271 169.124 170.481  1.00  0.00     0.180 A 
ATOM      2  C   UNL     1     175.152 169.113 169.631  1.00  0.00     0.208 A 
ATOM      3  C   UNL     1     174.959 168.018 168.774  1.00  0.00     0.238 A 
ATOM      4  O   UNL     1     173.985 168.040 167.976  1.00  0.00    -0.285 OA
ATOM      5  C   UNL     1     175.877 166.940 168.789  1.00  0.00     0.111 A 
ATOM      6  C   UNL     1     175.757 165.762 167.992  1.00  0.00     0.134 A 
ATOM      7  C   UNL     1     176.793 164.820 167.993  1.00  0.00     0.093 A 
ATOM      8  C   UNL     1     177.911 164.980 168.809  1.00  0.00     0.123 A 
ATOM      9  C   UNL     1     178.011 166.099 169.637  1.00  0.00     0.094 A 
ATOM     10  C   UNL     1     177.011 167.075 169.631  1.00  0.00     0.146 A 
ATOM     11  O   UNL     1     177.149 168.129 170.426  1.00  0.00    -0.452 OA
ENDROOT
BRANCH   1  12
ATOM     12  C   UNL     1     176.528 170.230 171.430  1.00  0.00     0.021 A 
ATOM     13  C   UNL     1     175.575 170.606 172.395  1.00  0.00     0.016 A 
ATOM     14  C   UNL     1     175.851 171.639 173.296  1.00  0.00     0.047 A 
ATOM     15  C   UNL     1     177.083 172.299 173.257  1.00  0.00     0.115 A 
ATOM     16  C   UNL     1     177.772 170.883 171.410  1.00  0.00     0.016 A 
ATOM     17  C   UNL     1     178.046 171.916 172.312  1.00  0.00     0.047 A 
BRANCH  15  18
ATOM     18  O   UNL     1     177.344 173.326 174.160  1.00  0.00    -0.508 OA
ATOM     19  H   UNL     1     178.162 173.916 174.069  1.00  0.00     0.293 HD
ENDBRANCH  15  18
ENDBRANCH   1  12
BRANCH   2  20
ATOM     20  O   UNL     1     174.270 170.198 169.616  1.00  0.00    -0.502 OA
ATOM     21  H   UNL     1     173.339 170.147 170.011  1.00  0.00     0.293 HD
ENDBRANCH   2  20
BRANCH   6  22
ATOM     22  O   UNL     1     174.638 165.459 167.210  1.00  0.00    -0.507 OA
ATOM     23  H   UNL     1     174.342 165.987 166.403  1.00  0.00     0.293 HD
ENDBRANCH   6  22
BRANCH   8  24
ATOM     24  O   UNL     1     178.916 164.014 168.795  1.00  0.00    -0.508 OA
ATOM     25  H   UNL     1     179.663 164.017 169.480  1.00  0.00     0.293 HD
ENDBRANCH   8  24
TORSDOF 5
ENDMDL
MODEL 5
REMARK VINA RESULT:    -5.727      3.914      5.893
REMARK INTER + INTRA:          -6.755
REMARK INTER:                  -6.661
REMARK INTRA:                  -0.094
REMARK UNBOUND:                -0.023
REMARK SMILES O=c1c(O)c(-c2ccc(O)cc2)oc2cc(O)cc(O)c12
REMARK SMILES IDX 5 1 3 2 2 3 1 4 21 5 19 6 18 7 16 8 15 9 14 10 13 11 6 12
REMARK SMILES IDX 7 13 8 14 9 15 12 16 11 17 10 18 4 20 20 22 17 24
REMARK H PARENT 10 19 4 21 20 23 17 25
REMARK Flexibility Score: inf
ROOT
ATOM      1  C   UNL     1     175.931 168.653 172.461  1.00  0.00     0.180 A 
ATOM      2  C   UNL     1     175.920 167.882 171.286  1.00  0.00     0.208 A 
ATOM      3  C   UNL     1     175.413 166.572 171.336  1.00  0.00     0.238 A 
ATOM      4  O   UNL     1     175.457 165.868 170.293  1.00  0.00    -0.285 OA
ATOM      5  C   UNL     1     174.910 166.057 172.555  1.00  0.00     0.111 A 
ATOM      6  C   UNL     1     174.337 164.759 172.711  1.00  0.00     0.134 A 
ATOM      7  C   UNL     1     173.991 164.307 173.990  1.00  0.00     0.093 A 
ATOM      8  C   UNL     1     174.136 165.127 175.108  1.00  0.00     0.123 A 
ATOM      9  C   UNL     1     174.640 166.420 174.958  1.00  0.00     0.094 A 
ATOM     10  C   UNL     1     175.028 166.887 173.700  1.00  0.00     0.146 A 
ATOM     11  O   UNL     1     175.512 168.119 173.603  1.00  0.00    -0.452 OA
ENDROOT
BRANCH   1  12
ATOM     12  C   UNL     1     176.425 170.048 172.482  1.00  0.00     0.021 A 
ATOM     13  C   UNL     1     175.852 171.042 171.667  1.00  0.00     0.016 A 
ATOM     14  C   UNL     1     176.320 172.358 171.722  1.00  0.00     0.047 A 
ATOM     15  C   UNL     1     177.353 172.703 172.599  1.00  0.00     0.115 A 
ATOM     16  C   UNL     1     177.449 170.406 173.376  1.00  0.00     0.016 A 
ATOM     17  C   UNL     1     177.915 171.723 173.429  1.00  0.00     0.047 A 
BRANCH  15  18
ATOM     18  O   UNL     1     177.809 174.017 172.643  1.00  0.00    -0.508 OA
ATOM     19  H   UNL     1     178.121 174.498 171.808  1.00  0.00     0.293 HD
ENDBRANCH  15  18
ENDBRANCH   1  12
BRANCH   2  20
ATOM     20  O   UNL     1     176.442 168.402 170.098  1.00  0.00    -0.502 OA
ATOM     21  H   UNL     1     175.890 168.963 169.462  1.00  0.00     0.293 HD
ENDBRANCH   2  20
BRANCH   6  22
ATOM     22  O   UNL     1     174.063 163.894 171.647  1.00  0.00    -0.507 OA
ATOM     23  H   UNL     1     173.619 164.168 170.784  1.00  0.00     0.293 HD
ENDBRANCH   6  22
BRANCH   8  24
ATOM     24  O   UNL     1     173.767 164.649 176.364  1.00  0.00    -0.508 OA
ATOM     25  H   UNL     1     173.531 165.278 177.122  1.00  0.00     0.293 HD
ENDBRANCH   8  24
TORSDOF 5
ENDMDL
MODEL 6
REMARK VINA RESULT:    -5.715      2.891      3.014
REMARK INTER + INTRA:          -6.740
REMARK INTER:                  -6.471
REMARK INTRA:                  -0.269
REMARK UNBOUND:                -0.023
REMARK SMILES O=c1c(O)c(-c2ccc(O)cc2)oc2cc(O)cc(O)c12
REMARK SMILES IDX 5 1 3 2 2 3 1 4 21 5 19 6 18 7 16 8 15 9 14 10 13 11 6 12
REMARK SMILES IDX 7 13 8 14 9 15 12 16 11 17 10 18 4 20 20 22 17 24
REMARK H PARENT 10 19 4 21 20 23 17 25
REMARK Flexibility Score: inf
ROOT
ATOM      1  C   UNL     1     175.876 169.398 170.977  1.00  0.00     0.180 A 
ATOM      2  C   UNL     1     175.823 168.057 171.392  1.00  0.00     0.208 A 
ATOM      3  C   UNL     1     175.360 167.083 170.492  1.00  0.00     0.238 A 
ATOM      4  O   UNL     1     175.262 165.892 170.888  1.00  0.00    -0.285 OA
ATOM      5  C   UNL     1     174.972 167.460 169.184  1.00  0.00     0.111 A 
ATOM      6  C   UNL     1     174.525 166.552 168.177  1.00  0.00     0.134 A 
ATOM      7  C   UNL     1     174.044 167.052 166.961  1.00  0.00     0.093 A 
ATOM      8  C   UNL     1     174.052 168.419 166.691  1.00  0.00     0.123 A 
ATOM      9  C   UNL     1     174.542 169.312 167.645  1.00  0.00     0.094 A 
ATOM     10  C   UNL     1     174.996 168.846 168.882  1.00  0.00     0.146 A 
ATOM     11  O   UNL     1     175.444 169.729 169.765  1.00  0.00    -0.452 OA
ENDROOT
BRANCH   1  12
ATOM     12  C   UNL     1     176.376 170.476 171.859  1.00  0.00     0.021 A 
ATOM     13  C   UNL     1     177.692 170.963 171.749  1.00  0.00     0.016 A 
ATOM     14  C   UNL     1     178.134 171.999 172.578  1.00  0.00     0.047 A 
ATOM     15  C   UNL     1     177.268 172.571 173.515  1.00  0.00     0.115 A 
ATOM     16  C   UNL     1     175.505 171.070 172.788  1.00  0.00     0.016 A 
ATOM     17  C   UNL     1     175.949 172.105 173.616  1.00  0.00     0.047 A 
BRANCH  15  18
ATOM     18  O   UNL     1     177.722 173.601 174.334  1.00  0.00    -0.508 OA
ATOM     19  H   UNL     1     177.502 173.627 175.323  1.00  0.00     0.293 HD
ENDBRANCH  15  18
ENDBRANCH   1  12
BRANCH   2  20
ATOM     20  O   UNL     1     176.190 167.708 172.696  1.00  0.00    -0.502 OA
ATOM     21  H   UNL     1     177.076 167.269 172.912  1.00  0.00     0.293 HD
ENDBRANCH   2  20
BRANCH   6  22
ATOM     22  O   UNL     1     174.560 165.161 168.310  1.00  0.00    -0.507 OA
ATOM     23  H   UNL     1     175.401 164.616 168.429  1.00  0.00     0.293 HD
ENDBRANCH   6  22
BRANCH   8  24
ATOM     24  O   UNL     1     173.579 168.880 165.463  1.00  0.00    -0.508 OA
ATOM     25  H   UNL     1     173.034 168.286 164.849  1.00  0.00     0.293 HD
ENDBRANCH   8  24
TORSDOF 5
ENDMDL
MODEL 7
REMARK VINA RESULT:    -5.683      1.670      2.874
REMARK INTER + INTRA:          -6.703
REMARK INTER:                  -6.431
REMARK INTRA:                  -0.272
REMARK UNBOUND:                -0.023
REMARK SMILES O=c1c(O)c(-c2ccc(O)cc2)oc2cc(O)cc(O)c12
REMARK SMILES IDX 5 1 3 2 2 3 1 4 21 5 19 6 18 7 16 8 15 9 14 10 13 11 6 12
REMARK SMILES IDX 7 13 8 14 9 15 12 16 11 17 10 18 4 20 20 22 17 24
REMARK H PARENT 10 19 4 21 20 23 17 25
REMARK Flexibility Score: inf
ROOT
ATOM      1  C   UNL     1     174.545 170.376 171.148  1.00  0.00     0.180 A 
ATOM      2  C   UNL     1     174.678 169.541 170.025  1.00  0.00     0.208 A 
ATOM      3  C   UNL     1     173.520 169.080 169.378  1.00  0.00     0.238 A 
ATOM      4  O   UNL     1     173.645 168.288 168.407  1.00  0.00    -0.285 OA
ATOM      5  C   UNL     1     172.244 169.472 169.852  1.00  0.00     0.111 A 
ATOM      6  C   UNL     1     171.006 169.097 169.250  1.00  0.00     0.134 A 
ATOM      7  C   UNL     1     169.802 169.436 169.880  1.00  0.00     0.093 A 
ATOM      8  C   UNL     1     169.790 170.190 171.052  1.00  0.00     0.123 A 
ATOM      9  C   UNL     1     170.993 170.613 171.617  1.00  0.00     0.094 A 
ATOM     10  C   UNL     1     172.212 170.260 171.032  1.00  0.00     0.146 A 
ATOM     11  O   UNL     1     173.335 170.673 171.607  1.00  0.00    -0.452 OA
ENDROOT
BRANCH   1  12
ATOM     12  C   UNL     1     175.718 170.922 171.866  1.00  0.00     0.021 A 
ATOM     13  C   UNL     1     176.401 170.166 172.837  1.00  0.00     0.016 A 
ATOM     14  C   UNL     1     177.521 170.694 173.485  1.00  0.00     0.047 A 
ATOM     15  C   UNL     1     177.983 171.974 173.165  1.00  0.00     0.115 A 
ATOM     16  C   UNL     1     176.200 172.199 171.534  1.00  0.00     0.016 A 
ATOM     17  C   UNL     1     177.320 172.726 172.184  1.00  0.00     0.047 A 
BRANCH  15  18
ATOM     18  O   UNL     1     179.100 172.488 173.819  1.00  0.00    -0.508 OA
ATOM     19  H   UNL     1     179.094 172.666 174.816  1.00  0.00     0.293 HD
ENDBRANCH  15  18
ENDBRANCH   1  12
BRANCH   2  20
ATOM     20  O   UNL     1     175.946 169.147 169.587  1.00  0.00    -0.502 OA
ATOM     21  H   UNL     1     176.370 168.271 169.867  1.00  0.00     0.293 HD
ENDBRANCH   2  20
BRANCH   6  22
ATOM     22  O   UNL     1     170.903 168.421 168.030  1.00  0.00    -0.507 OA
ATOM     23  H   UNL     1     171.281 167.504 167.849  1.00  0.00     0.293 HD
ENDBRANCH   6  22
BRANCH   8  24
ATOM     24  O   UNL     1     168.572 170.521 171.643  1.00  0.00    -0.508 OA
ATOM     25  H   UNL     1     167.724 170.614 171.095  1.00  0.00     0.293 HD
ENDBRANCH   8  24
TORSDOF 5
ENDMDL
MODEL 8
REMARK VINA RESULT:    -5.592      3.918      4.861
REMARK INTER + INTRA:          -6.596
REMARK INTER:                  -6.320
REMARK INTRA:                  -0.276
REMARK UNBOUND:                -0.023
REMARK SMILES O=c1c(O)c(-c2ccc(O)cc2)oc2cc(O)cc(O)c12
REMARK SMILES IDX 5 1 3 2 2 3 1 4 21 5 19 6 18 7 16 8 15 9 14 10 13 11 6 12
REMARK SMILES IDX 7 13 8 14 9 15 12 16 11 17 10 18 4 20 20 22 17 24
REMARK H PARENT 10 19 4 21 20 23 17 25
REMARK Flexibility Score: inf
ROOT
ATOM      1  C   UNL     1     175.620 168.738 172.311  1.00  0.00     0.180 A 
ATOM      2  C   UNL     1     174.424 168.394 172.963  1.00  0.00     0.208 A 
ATOM      3  C   UNL     1     173.977 167.063 172.908  1.00  0.00     0.238 A 
ATOM      4  O   UNL     1     172.877 166.773 173.448  1.00  0.00    -0.285 OA
ATOM      5  C   UNL     1     174.739 166.092 172.216  1.00  0.00     0.111 A 
ATOM      6  C   UNL     1     174.401 164.708 172.130  1.00  0.00     0.134 A 
ATOM      7  C   UNL     1     175.158 163.863 171.309  1.00  0.00     0.093 A 
ATOM      8  C   UNL     1     176.277 164.335 170.625  1.00  0.00     0.123 A 
ATOM      9  C   UNL     1     176.651 165.674 170.750  1.00  0.00     0.094 A 
ATOM     10  C   UNL     1     175.894 166.550 171.532  1.00  0.00     0.146 A 
ATOM     11  O   UNL     1     176.278 167.818 171.616  1.00  0.00    -0.452 OA
ENDROOT
BRANCH   1  12
ATOM     12  C   UNL     1     176.168 170.113 172.346  1.00  0.00     0.021 A 
ATOM     13  C   UNL     1     177.174 170.478 173.259  1.00  0.00     0.016 A 
ATOM     14  C   UNL     1     177.693 171.776 173.257  1.00  0.00     0.047 A 
ATOM     15  C   UNL     1     177.229 172.720 172.336  1.00  0.00     0.115 A 
ATOM     16  C   UNL     1     175.721 171.060 171.410  1.00  0.00     0.016 A 
ATOM     17  C   UNL     1     176.241 172.357 171.409  1.00  0.00     0.047 A 
BRANCH  15  18
ATOM     18  O   UNL     1     177.754 174.009 172.345  1.00  0.00    -0.508 OA
ATOM     19  H   UNL     1     177.730 174.597 171.521  1.00  0.00     0.293 HD
ENDBRANCH  15  18
ENDBRANCH   1  12
BRANCH   2  20
ATOM     20  O   UNL     1     173.675 169.373 173.622  1.00  0.00    -0.502 OA
ATOM     21  H   UNL     1     173.851 169.637 174.584  1.00  0.00     0.293 HD
ENDBRANCH   2  20
BRANCH   6  22
ATOM     22  O   UNL     1     173.357 164.113 172.845  1.00  0.00    -0.507 OA
ATOM     23  H   UNL     1     172.474 164.557 173.048  1.00  0.00     0.293 HD
ENDBRANCH   6  22
BRANCH   8  24
ATOM     24  O   UNL     1     177.016 163.462 169.829  1.00  0.00    -0.508 OA
ATOM     25  H   UNL     1     177.024 162.463 170.005  1.00  0.00     0.293 HD
ENDBRANCH   8  24
TORSDOF 5
ENDMDL
MODEL 9
REMARK VINA RESULT:    -5.474      1.296      2.183
REMARK INTER + INTRA:          -6.457
REMARK INTER:                  -6.315
REMARK INTRA:                  -0.142
REMARK UNBOUND:                -0.023
REMARK SMILES O=c1c(O)c(-c2ccc(O)cc2)oc2cc(O)cc(O)c12
REMARK SMILES IDX 5 1 3 2 2 3 1 4 21 5 19 6 18 7 16 8 15 9 14 10 13 11 6 12
REMARK SMILES IDX 7 13 8 14 9 15 12 16 11 17 10 18 4 20 20 22 17 24
REMARK H PARENT 10 19 4 21 20 23 17 25
REMARK Flexibility Score: inf
ROOT
ATOM      1  C   UNL     1     173.864 170.266 169.658  1.00  0.00     0.180 A 
ATOM      2  C   UNL     1     172.567 169.798 169.926  1.00  0.00     0.208 A 
ATOM      3  C   UNL     1     171.659 169.659 168.863  1.00  0.00     0.238 A 
ATOM      4  O   UNL     1     170.482 169.293 169.117  1.00  0.00    -0.285 OA
ATOM      5  C   UNL     1     172.066 169.973 167.543  1.00  0.00     0.111 A 
ATOM      6  C   UNL     1     171.243 169.832 166.386  1.00  0.00     0.134 A 
ATOM      7  C   UNL     1     171.705 170.296 165.149  1.00  0.00     0.093 A 
ATOM      8  C   UNL     1     172.983 170.836 165.015  1.00  0.00     0.123 A 
ATOM      9  C   UNL     1     173.819 170.925 166.128  1.00  0.00     0.094 A 
ATOM     10  C   UNL     1     173.372 170.503 167.383  1.00  0.00     0.146 A 
ATOM     11  O   UNL     1     174.195 170.614 168.419  1.00  0.00    -0.452 OA
ENDROOT
BRANCH   1  12
ATOM     12  C   UNL     1     174.883 170.415 170.721  1.00  0.00     0.021 A 
ATOM     13  C   UNL     1     175.351 171.682 171.116  1.00  0.00     0.016 A 
ATOM     14  C   UNL     1     176.296 171.798 172.139  1.00  0.00     0.047 A 
ATOM     15  C   UNL     1     176.776 170.658 172.790  1.00  0.00     0.115 A 
ATOM     16  C   UNL     1     175.354 169.274 171.393  1.00  0.00     0.016 A 
ATOM     17  C   UNL     1     176.299 169.393 172.415  1.00  0.00     0.047 A 
BRANCH  15  18
ATOM     18  O   UNL     1     177.718 170.788 173.807  1.00  0.00    -0.508 OA
ATOM     19  H   UNL     1     178.710 170.698 173.625  1.00  0.00     0.293 HD
ENDBRANCH  15  18
ENDBRANCH   1  12
BRANCH   2  20
ATOM     20  O   UNL     1     172.179 169.515 171.239  1.00  0.00    -0.502 OA
ATOM     21  H   UNL     1     171.817 170.225 171.864  1.00  0.00     0.293 HD
ENDBRANCH   2  20
BRANCH   6  22
ATOM     22  O   UNL     1     169.984 169.222 166.393  1.00  0.00    -0.507 OA
ATOM     23  H   UNL     1     169.349 169.226 167.177  1.00  0.00     0.293 HD
ENDBRANCH   6  22
BRANCH   8  24
ATOM     24  O   UNL     1     173.416 171.275 163.764  1.00  0.00    -0.508 OA
ATOM     25  H   UNL     1     174.100 170.753 163.228  1.00  0.00     0.293 HD
ENDBRANCH   8  24
TORSDOF 5
ENDMDL
