MODEL 1
REMARK VINA RESULT:    -1.681      0.000      0.000
REMARK INTER + INTRA:          -4.829
REMARK INTER:                  -3.056
REMARK INTRA:                  -1.773
REMARK UNBOUND:                -1.773
REMARK SMILES CCCCCCCCCCCCCCCC(=O)[O-]
REMARK SMILES IDX 9 1 10 2 11 3 12 4 13 5 14 6 15 7 16 8 17 9 18 10 8 11 7 12
REMARK SMILES IDX 6 13 5 14 4 15 3 16 2 17 1 18
REMARK H PARENT
REMARK Flexibility Score: inf
ROOT
ATOM      1  C   UNL     1      13.084  27.515  23.089  1.00  0.00     0.000 C 
ENDROOT
BRANCH   1   2
ATOM      2  C   UNL     1      14.299  26.667  22.675  1.00  0.00     0.000 C 
BRANCH   2   3
ATOM      3  C   UNL     1      14.819  25.774  23.811  1.00  0.00     0.000 C 
BRANCH   3   4
ATOM      4  C   UNL     1      14.126  26.116  25.138  1.00  0.00     0.000 C 
BRANCH   4   5
ATOM      5  C   UNL     1      15.122  26.334  26.289  1.00  0.00     0.000 C 
BRANCH   5   6
ATOM      6  C   UNL     1      15.125  27.784  26.804  1.00  0.00     0.006 C 
BRANCH   6   7
ATOM      7  C   UNL     1      13.788  28.492  26.549  1.00  0.00     0.053 C 
BRANCH   7   8
ATOM      8  C   UNL     1      13.916  29.981  26.648  1.00  0.00     0.041 C 
ATOM      9  O   UNL     1      14.689  30.603  25.872  1.00  0.00    -0.550 OA
ATOM     10  O   UNL     1      13.207  30.679  27.618  1.00  0.00    -0.550 OA
ENDBRANCH   7   8
ENDBRANCH   6   7
ENDBRANCH   5   6
ENDBRANCH   4   5
ENDBRANCH   3   4
ENDBRANCH   2   3
ENDBRANCH   1   2
BRANCH   1  11
ATOM     11  C   UNL     1      13.270  29.039  22.936  1.00  0.00     0.000 C 
BRANCH  11  12
ATOM     12  C   UNL     1      14.726  29.505  22.738  1.00  0.00    -0.000 C 
BRANCH  12  13
ATOM     13  C   UNL     1      14.884  30.967  22.279  1.00  0.00    -0.000 C 
BRANCH  13  14
ATOM     14  C   UNL     1      14.804  31.125  20.754  1.00  0.00    -0.000 C 
BRANCH  14  15
ATOM     15  C   UNL     1      15.125  29.799  20.048  1.00  0.00    -0.000 C 
BRANCH  15  16
ATOM     16  C   UNL     1      14.016  29.359  19.080  1.00  0.00    -0.000 C 
BRANCH  16  17
ATOM     17  C   UNL     1      12.881  30.390  18.974  1.00  0.00    -0.003 C 
ATOM     18  C   UNL     1      12.344  30.471  17.547  1.00  0.00     0.004 C 
ENDBRANCH  16  17
ENDBRANCH  15  16
ENDBRANCH  14  15
ENDBRANCH  13  14
ENDBRANCH  12  13
ENDBRANCH  11  12
ENDBRANCH   1  11
TORSDOF 14
ENDMDL
MODEL 2
REMARK VINA RESULT:    -1.384      1.629      5.361
REMARK INTER + INTRA:          -4.290
REMARK INTER:                  -3.041
REMARK INTRA:                  -1.249
REMARK UNBOUND:                -1.773
REMARK SMILES CCCCCCCCCCCCCCCC(=O)[O-]
REMARK SMILES IDX 9 1 10 2 11 3 12 4 13 5 14 6 15 7 16 8 17 9 18 10 8 11 7 12
REMARK SMILES IDX 6 13 5 14 4 15 3 16 2 17 1 18
REMARK H PARENT
REMARK Flexibility Score: inf
ROOT
ATOM      1  C   UNL     1      13.568  28.977  19.456  1.00  0.00     0.000 C 
ENDROOT
BRANCH   1   2
ATOM      2  C   UNL     1      13.364  29.781  20.751  1.00  0.00     0.000 C 
BRANCH   2   3
ATOM      3  C   UNL     1      14.688  30.193  21.413  1.00  0.00     0.000 C 
BRANCH   3   4
ATOM      4  C   UNL     1      14.469  30.584  22.882  1.00  0.00     0.000 C 
BRANCH   4   5
ATOM      5  C   UNL     1      13.918  29.425  23.728  1.00  0.00     0.000 C 
BRANCH   5   6
ATOM      6  C   UNL     1      13.915  29.740  25.234  1.00  0.00     0.006 C 
BRANCH   6   7
ATOM      7  C   UNL     1      12.732  29.085  25.960  1.00  0.00     0.053 C 
BRANCH   7   8
ATOM      8  C   UNL     1      12.735  29.395  27.426  1.00  0.00     0.041 C 
ATOM      9  O   UNL     1      13.813  29.369  28.076  1.00  0.00    -0.550 OA
ATOM     10  O   UNL     1      11.543  29.681  28.080  1.00  0.00    -0.550 OA
ENDBRANCH   7   8
ENDBRANCH   6   7
ENDBRANCH   5   6
ENDBRANCH   4   5
ENDBRANCH   3   4
ENDBRANCH   2   3
ENDBRANCH   1   2
BRANCH   1  11
ATOM     11  C   UNL     1      14.659  27.889  19.528  1.00  0.00     0.000 C 
BRANCH  11  12
ATOM     12  C   UNL     1      14.321  26.680  20.424  1.00  0.00    -0.000 C 
BRANCH  12  13
ATOM     13  C   UNL     1      15.124  26.598  21.736  1.00  0.00    -0.000 C 
BRANCH  13  14
ATOM     14  C   UNL     1      14.622  25.492  22.674  1.00  0.00    -0.000 C 
BRANCH  14  15
ATOM     15  C   UNL     1      14.248  26.067  24.049  1.00  0.00    -0.000 C 
BRANCH  15  16
ATOM     16  C   UNL     1      15.076  25.459  25.191  1.00  0.00    -0.000 C 
BRANCH  16  17
ATOM     17  C   UNL     1      14.241  24.558  26.114  1.00  0.00    -0.003 C 
ATOM     18  C   UNL     1      15.118  23.527  26.818  1.00  0.00     0.004 C 
ENDBRANCH  16  17
ENDBRANCH  15  16
ENDBRANCH  14  15
ENDBRANCH  13  14
ENDBRANCH  12  13
ENDBRANCH  11  12
ENDBRANCH   1  11
TORSDOF 14
ENDMDL
MODEL 3
REMARK VINA RESULT:    -1.270      5.868      9.575
REMARK INTER + INTRA:          -4.083
REMARK INTER:                  -3.382
REMARK INTRA:                  -0.700
REMARK UNBOUND:                -1.773
REMARK SMILES CCCCCCCCCCCCCCCC(=O)[O-]
REMARK SMILES IDX 9 1 10 2 11 3 12 4 13 5 14 6 15 7 16 8 17 9 18 10 8 11 7 12
REMARK SMILES IDX 6 13 5 14 4 15 3 16 2 17 1 18
REMARK H PARENT
REMARK Flexibility Score: inf
ROOT
ATOM      1  C   UNL     1      12.650  31.038  13.985  1.00  0.00     0.000 C 
ENDROOT
BRANCH   1   2
ATOM      2  C   UNL     1      14.183  30.963  14.099  1.00  0.00     0.000 C 
BRANCH   2   3
ATOM      3  C   UNL     1      14.683  31.124  15.543  1.00  0.00     0.000 C 
BRANCH   3   4
ATOM      4  C   UNL     1      13.631  30.626  16.546  1.00  0.00     0.000 C 
BRANCH   4   5
ATOM      5  C   UNL     1      14.193  29.585  17.527  1.00  0.00     0.000 C 
BRANCH   5   6
ATOM      6  C   UNL     1      14.238  30.099  18.976  1.00  0.00     0.006 C 
BRANCH   6   7
ATOM      7  C   UNL     1      13.078  29.554  19.820  1.00  0.00     0.053 C 
BRANCH   7   8
ATOM      8  C   UNL     1      12.715  30.483  20.938  1.00  0.00     0.041 C 
ATOM      9  O   UNL     1      13.582  30.823  21.785  1.00  0.00    -0.550 OA
ATOM     10  O   UNL     1      11.412  30.949  21.062  1.00  0.00    -0.550 OA
ENDBRANCH   7   8
ENDBRANCH   6   7
ENDBRANCH   5   6
ENDBRANCH   4   5
ENDBRANCH   3   4
ENDBRANCH   2   3
ENDBRANCH   1   2
BRANCH   1  11
ATOM     11  C   UNL     1      12.107  31.125  12.544  1.00  0.00     0.000 C 
BRANCH  11  12
ATOM     12  C   UNL     1      13.122  30.770  11.438  1.00  0.00    -0.000 C 
BRANCH  12  13
ATOM     13  C   UNL     1      12.555  30.785  10.007  1.00  0.00    -0.000 C 
BRANCH  13  14
ATOM     14  C   UNL     1      11.614  29.605   9.726  1.00  0.00    -0.000 C 
BRANCH  14  15
ATOM     15  C   UNL     1      12.360  28.467   9.012  1.00  0.00    -0.000 C 
BRANCH  15  16
ATOM     16  C   UNL     1      12.754  27.328   9.964  1.00  0.00    -0.000 C 
BRANCH  16  17
ATOM     17  C   UNL     1      13.630  26.264   9.284  1.00  0.00    -0.003 C 
ATOM     18  C   UNL     1      14.622  26.905   8.317  1.00  0.00     0.004 C 
ENDBRANCH  16  17
ENDBRANCH  15  16
ENDBRANCH  14  15
ENDBRANCH  13  14
ENDBRANCH  12  13
ENDBRANCH  11  12
ENDBRANCH   1  11
TORSDOF 14
ENDMDL
MODEL 4
REMARK VINA RESULT:    -1.003      2.511      3.407
REMARK INTER + INTRA:          -3.597
REMARK INTER:                  -3.007
REMARK INTRA:                  -0.590
REMARK UNBOUND:                -1.773
REMARK SMILES CCCCCCCCCCCCCCCC(=O)[O-]
REMARK SMILES IDX 9 1 10 2 11 3 12 4 13 5 14 6 15 7 16 8 17 9 18 10 8 11 7 12
REMARK SMILES IDX 6 13 5 14 4 15 3 16 2 17 1 18
REMARK H PARENT
REMARK Flexibility Score: inf
ROOT
ATOM      1  C   UNL     1      12.481  29.192  23.218  1.00  0.00     0.000 C 
ENDROOT
BRANCH   1   2
ATOM      2  C   UNL     1      12.248  28.861  24.703  1.00  0.00     0.000 C 
BRANCH   2   3
ATOM      3  C   UNL     1      13.149  29.675  25.644  1.00  0.00     0.000 C 
BRANCH   3   4
ATOM      4  C   UNL     1      13.377  28.927  26.966  1.00  0.00     0.000 C 
BRANCH   4   5
ATOM      5  C   UNL     1      14.852  28.561  27.194  1.00  0.00     0.000 C 
BRANCH   5   6
ATOM      6  C   UNL     1      15.124  27.057  27.015  1.00  0.00     0.006 C 
BRANCH   6   7
ATOM      7  C   UNL     1      14.498  26.504  25.728  1.00  0.00     0.053 C 
BRANCH   7   8
ATOM      8  C   UNL     1      14.884  25.077  25.487  1.00  0.00     0.041 C 
ATOM      9  O   UNL     1      15.053  24.658  24.312  1.00  0.00    -0.550 OA
ATOM     10  O   UNL     1      15.026  24.203  26.557  1.00  0.00    -0.550 OA
ENDBRANCH   7   8
ENDBRANCH   6   7
ENDBRANCH   5   6
ENDBRANCH   4   5
ENDBRANCH   3   4
ENDBRANCH   2   3
ENDBRANCH   1   2
BRANCH   1  11
ATOM     11  C   UNL     1      13.577  30.242  22.949  1.00  0.00     0.000 C 
BRANCH  11  12
ATOM     12  C   UNL     1      13.463  30.978  21.598  1.00  0.00    -0.000 C 
BRANCH  12  13
ATOM     13  C   UNL     1      14.786  31.123  20.823  1.00  0.00    -0.000 C 
BRANCH  13  14
ATOM     14  C   UNL     1      14.602  31.010  19.303  1.00  0.00    -0.000 C 
BRANCH  14  15
ATOM     15  C   UNL     1      13.221  30.431  18.959  1.00  0.00    -0.000 C 
BRANCH  15  16
ATOM     16  C   UNL     1      12.703  30.906  17.593  1.00  0.00    -0.000 C 
BRANCH  16  17
ATOM     17  C   UNL     1      13.409  30.209  16.418  1.00  0.00    -0.003 C 
ATOM     18  C   UNL     1      14.486  31.106  15.814  1.00  0.00     0.004 C 
ENDBRANCH  16  17
ENDBRANCH  15  16
ENDBRANCH  14  15
ENDBRANCH  13  14
ENDBRANCH  12  13
ENDBRANCH  11  12
ENDBRANCH   1  11
TORSDOF 14
ENDMDL
MODEL 5
REMARK VINA RESULT:    -0.058      5.361      8.786
REMARK INTER + INTRA:          -1.878
REMARK INTER:                  -0.959
REMARK INTRA:                  -0.919
REMARK UNBOUND:                -1.773
REMARK SMILES CCCCCCCCCCCCCCCC(=O)[O-]
REMARK SMILES IDX 9 1 10 2 11 3 12 4 13 5 14 6 15 7 16 8 17 9 18 10 8 11 7 12
REMARK SMILES IDX 6 13 5 14 4 15 3 16 2 17 1 18
REMARK H PARENT
REMARK Flexibility Score: inf
ROOT
ATOM      1  C   UNL     1      12.456  31.083  14.459  1.00  0.00     0.000 C 
ENDROOT
BRANCH   1   2
ATOM      2  C   UNL     1      13.624  31.121  15.460  1.00  0.00     0.000 C 
BRANCH   2   3
ATOM      3  C   UNL     1      13.169  30.931  16.915  1.00  0.00     0.000 C 
BRANCH   3   4
ATOM      4  C   UNL     1      13.698  29.607  17.487  1.00  0.00     0.000 C 
BRANCH   4   5
ATOM      5  C   UNL     1      15.000  29.784  18.285  1.00  0.00     0.000 C 
BRANCH   5   6
ATOM      6  C   UNL     1      15.115  28.794  19.458  1.00  0.00     0.006 C 
BRANCH   6   7
ATOM      7  C   UNL     1      13.758  28.516  20.116  1.00  0.00     0.053 C 
BRANCH   7   8
ATOM      8  C   UNL     1      13.910  27.971  21.503  1.00  0.00     0.041 C 
ATOM      9  O   UNL     1      13.855  28.744  22.496  1.00  0.00    -0.550 OA
ATOM     10  O   UNL     1      14.146  26.616  21.698  1.00  0.00    -0.550 OA
ENDBRANCH   7   8
ENDBRANCH   6   7
ENDBRANCH   5   6
ENDBRANCH   4   5
ENDBRANCH   3   4
ENDBRANCH   2   3
ENDBRANCH   1   2
BRANCH   1  11
ATOM     11  C   UNL     1      12.796  30.473  13.084  1.00  0.00     0.000 C 
BRANCH  11  12
ATOM     12  C   UNL     1      14.301  30.292  12.800  1.00  0.00    -0.000 C 
BRANCH  12  13
ATOM     13  C   UNL     1      14.817  31.020  11.545  1.00  0.00    -0.000 C 
BRANCH  13  14
ATOM     14  C   UNL     1      13.761  31.119  10.436  1.00  0.00    -0.000 C 
BRANCH  14  15
ATOM     15  C   UNL     1      14.254  30.446   9.146  1.00  0.00    -0.000 C 
BRANCH  15  16
ATOM     16  C   UNL     1      14.275  28.914   9.249  1.00  0.00    -0.000 C 
BRANCH  16  17
ATOM     17  C   UNL     1      12.919  28.330   9.675  1.00  0.00    -0.003 C 
ATOM     18  C   UNL     1      12.806  26.859   9.283  1.00  0.00     0.004 C 
ENDBRANCH  16  17
ENDBRANCH  15  16
ENDBRANCH  14  15
ENDBRANCH  13  14
ENDBRANCH  12  13
ENDBRANCH  11  12
ENDBRANCH   1  11
TORSDOF 14
ENDMDL
