MODEL 1
REMARK VINA RESULT:    -4.878      0.000      0.000
REMARK INTER + INTRA:         -12.421
REMARK INTER:                 -10.582
REMARK INTRA:                  -1.839
REMARK UNBOUND:                -1.839
REMARK SMILES CCCCCCCCCCCCCCCCCCCCCC(=O)[O-]
REMARK SMILES IDX 12 1 11 2 10 3 9 4 8 5 7 6 6 7 5 8 4 9 3 10 2 11 1 12 13 13
REMARK SMILES IDX 14 14 15 15 16 16 17 17 18 18 19 19 20 20 21 21 22 22 23 23
REMARK SMILES IDX 24 24
REMARK H PARENT
REMARK Flexibility Score: inf
ROOT
ATOM      1  C   UNL     1      -4.816  -3.363   4.759  1.00  0.00     0.000 C 
ENDROOT
BRANCH   1   2
ATOM      2  C   UNL     1      -4.300  -1.922   4.669  1.00  0.00     0.000 C 
BRANCH   2   3
ATOM      3  C   UNL     1      -4.102  -1.315   6.065  1.00  0.00     0.000 C 
BRANCH   3   4
ATOM      4  C   UNL     1      -3.220  -0.053   6.052  1.00  0.00    -0.000 C 
BRANCH   4   5
ATOM      5  C   UNL     1      -2.110  -0.039   4.983  1.00  0.00    -0.000 C 
BRANCH   5   6
ATOM      6  C   UNL     1      -0.712   0.188   5.579  1.00  0.00    -0.000 C 
BRANCH   6   7
ATOM      7  C   UNL     1      -0.412  -0.735   6.775  1.00  0.00    -0.000 C 
BRANCH   7   8
ATOM      8  C   UNL     1       1.076  -0.867   7.151  1.00  0.00    -0.000 C 
BRANCH   8   9
ATOM      9  C   UNL     1       1.768  -2.052   6.456  1.00  0.00    -0.000 C 
BRANCH   9  10
ATOM     10  C   UNL     1       2.752  -1.602   5.362  1.00  0.00    -0.000 C 
BRANCH  10  11
ATOM     11  C   UNL     1       2.151  -1.688   3.951  1.00  0.00    -0.003 C 
ATOM     12  C   UNL     1       3.130  -1.162   2.905  1.00  0.00     0.004 C 
ENDBRANCH  10  11
ENDBRANCH   9  10
ENDBRANCH   8   9
ENDBRANCH   7   8
ENDBRANCH   6   7
ENDBRANCH   5   6
ENDBRANCH   4   5
ENDBRANCH   3   4
ENDBRANCH   2   3
ENDBRANCH   1   2
BRANCH   1  13
ATOM     13  C   UNL     1      -5.233  -3.883   3.375  1.00  0.00     0.000 C 
BRANCH  13  14
ATOM     14  C   UNL     1      -4.954  -2.873   2.252  1.00  0.00     0.000 C 
BRANCH  14  15
ATOM     15  C   UNL     1      -4.597  -3.552   0.916  1.00  0.00     0.000 C 
BRANCH  15  16
ATOM     16  C   UNL     1      -5.053  -5.025   0.856  1.00  0.00     0.000 C 
BRANCH  16  17
ATOM     17  C   UNL     1      -5.836  -5.393  -0.419  1.00  0.00     0.000 C 
BRANCH  17  18
ATOM     18  C   UNL     1      -6.063  -4.239  -1.408  1.00  0.00     0.000 C 
BRANCH  18  19
ATOM     19  C   UNL     1      -7.459  -3.605  -1.277  1.00  0.00     0.000 C 
BRANCH  19  20
ATOM     20  C   UNL     1      -7.471  -2.121  -1.682  1.00  0.00     0.006 C 
BRANCH  20  21
ATOM     21  C   UNL     1      -6.058  -1.546  -1.845  1.00  0.00     0.053 C 
BRANCH  21  22
ATOM     22  C   UNL     1      -5.898  -0.302  -1.030  1.00  0.00     0.041 C 
ATOM     23  O   UNL     1      -6.267  -0.283   0.175  1.00  0.00    -0.550 OA
ATOM     24  O   UNL     1      -5.381   0.851  -1.609  1.00  0.00    -0.550 OA
ENDBRANCH  21  22
ENDBRANCH  20  21
ENDBRANCH  19  20
ENDBRANCH  18  19
ENDBRANCH  17  18
ENDBRANCH  16  17
ENDBRANCH  15  16
ENDBRANCH  14  15
ENDBRANCH  13  14
ENDBRANCH   1  13
TORSDOF 20
ENDMDL
MODEL 2
REMARK VINA RESULT:    -4.861      3.647      8.832
REMARK INTER + INTRA:         -12.385
REMARK INTER:                 -10.687
REMARK INTRA:                  -1.698
REMARK UNBOUND:                -1.839
REMARK SMILES CCCCCCCCCCCCCCCCCCCCCC(=O)[O-]
REMARK SMILES IDX 12 1 11 2 10 3 9 4 8 5 7 6 6 7 5 8 4 9 3 10 2 11 1 12 13 13
REMARK SMILES IDX 14 14 15 15 16 16 17 17 18 18 19 19 20 20 21 21 22 22 23 23
REMARK SMILES IDX 24 24
REMARK H PARENT
REMARK Flexibility Score: inf
ROOT
ATOM      1  C   UNL     1      -3.107  -1.196   6.447  1.00  0.00     0.000 C 
ENDROOT
BRANCH   1   2
ATOM      2  C   UNL     1      -4.560  -1.683   6.410  1.00  0.00     0.000 C 
BRANCH   2   3
ATOM      3  C   UNL     1      -4.633  -3.196   6.162  1.00  0.00     0.000 C 
BRANCH   3   4
ATOM      4  C   UNL     1      -4.739  -3.556   4.669  1.00  0.00    -0.000 C 
BRANCH   4   5
ATOM      5  C   UNL     1      -5.564  -2.574   3.814  1.00  0.00    -0.000 C 
BRANCH   5   6
ATOM      6  C   UNL     1      -4.744  -1.936   2.683  1.00  0.00    -0.000 C 
BRANCH   6   7
ATOM      7  C   UNL     1      -5.609  -1.502   1.484  1.00  0.00    -0.000 C 
BRANCH   7   8
ATOM      8  C   UNL     1      -5.839  -2.582   0.410  1.00  0.00    -0.000 C 
BRANCH   8   9
ATOM      9  C   UNL     1      -4.638  -3.529   0.244  1.00  0.00    -0.000 C 
BRANCH   9  10
ATOM     10  C   UNL     1      -5.038  -5.011   0.335  1.00  0.00    -0.000 C 
BRANCH  10  11
ATOM     11  C   UNL     1      -6.345  -5.227   1.114  1.00  0.00    -0.003 C 
ATOM     12  C   UNL     1      -7.503  -5.531   0.169  1.00  0.00     0.004 C 
ENDBRANCH  10  11
ENDBRANCH   9  10
ENDBRANCH   8   9
ENDBRANCH   7   8
ENDBRANCH   6   7
ENDBRANCH   5   6
ENDBRANCH   4   5
ENDBRANCH   3   4
ENDBRANCH   2   3
ENDBRANCH   1   2
BRANCH   1  13
ATOM     13  C   UNL     1      -2.826  -0.224   5.291  1.00  0.00     0.000 C 
BRANCH  13  14
ATOM     14  C   UNL     1      -1.600   0.665   5.546  1.00  0.00     0.000 C 
BRANCH  14  15
ATOM     15  C   UNL     1      -0.433  -0.103   6.193  1.00  0.00     0.000 C 
BRANCH  15  16
ATOM     16  C   UNL     1       0.540  -0.695   5.152  1.00  0.00     0.000 C 
BRANCH  16  17
ATOM     17  C   UNL     1       1.783  -1.373   5.760  1.00  0.00     0.000 C 
BRANCH  17  18
ATOM     18  C   UNL     1       2.535  -2.331   4.823  1.00  0.00     0.000 C 
BRANCH  18  19
ATOM     19  C   UNL     1       2.200  -2.101   3.338  1.00  0.00     0.000 C 
BRANCH  19  20
ATOM     20  C   UNL     1       3.296  -1.309   2.605  1.00  0.00     0.006 C 
BRANCH  20  21
ATOM     21  C   UNL     1       4.700  -1.870   2.867  1.00  0.00     0.053 C 
BRANCH  21  22
ATOM     22  C   UNL     1       5.278  -2.449   1.615  1.00  0.00     0.041 C 
ATOM     23  O   UNL     1       4.593  -3.234   0.906  1.00  0.00    -0.550 OA
ATOM     24  O   UNL     1       6.588  -2.158   1.250  1.00  0.00    -0.550 OA
ENDBRANCH  21  22
ENDBRANCH  20  21
ENDBRANCH  19  20
ENDBRANCH  18  19
ENDBRANCH  17  18
ENDBRANCH  16  17
ENDBRANCH  15  16
ENDBRANCH  14  15
ENDBRANCH  13  14
ENDBRANCH   1  13
TORSDOF 20
ENDMDL
MODEL 3
REMARK VINA RESULT:    -4.819      2.080      4.732
REMARK INTER + INTRA:         -12.292
REMARK INTER:                  -9.230
REMARK INTRA:                  -3.062
REMARK UNBOUND:                -1.839
REMARK SMILES CCCCCCCCCCCCCCCCCCCCCC(=O)[O-]
REMARK SMILES IDX 12 1 11 2 10 3 9 4 8 5 7 6 6 7 5 8 4 9 3 10 2 11 1 12 13 13
REMARK SMILES IDX 14 14 15 15 16 16 17 17 18 18 19 19 20 20 21 21 22 22 23 23
REMARK SMILES IDX 24 24
REMARK H PARENT
REMARK Flexibility Score: inf
ROOT
ATOM      1  C   UNL     1      -6.773  -5.622  -0.385  1.00  0.00     0.000 C 
ENDROOT
BRANCH   1   2
ATOM      2  C   UNL     1      -5.536  -4.722  -0.489  1.00  0.00     0.000 C 
BRANCH   2   3
ATOM      3  C   UNL     1      -4.616  -4.900   0.727  1.00  0.00     0.000 C 
BRANCH   3   4
ATOM      4  C   UNL     1      -4.895  -3.879   1.846  1.00  0.00    -0.000 C 
BRANCH   4   5
ATOM      5  C   UNL     1      -5.409  -4.481   3.169  1.00  0.00    -0.000 C 
BRANCH   5   6
ATOM      6  C   UNL     1      -5.127  -3.580   4.381  1.00  0.00    -0.000 C 
BRANCH   6   7
ATOM      7  C   UNL     1      -4.521  -2.218   3.990  1.00  0.00    -0.000 C 
BRANCH   7   8
ATOM      8  C   UNL     1      -4.575  -1.133   5.083  1.00  0.00    -0.000 C 
BRANCH   8   9
ATOM      9  C   UNL     1      -3.213  -0.892   5.757  1.00  0.00    -0.000 C 
BRANCH   9  10
ATOM     10  C   UNL     1      -2.257  -0.071   4.876  1.00  0.00    -0.000 C 
BRANCH  10  11
ATOM     11  C   UNL     1      -1.156   0.630   5.687  1.00  0.00    -0.003 C 
ATOM     12  C   UNL     1      -0.762  -0.199   6.906  1.00  0.00     0.004 C 
ENDBRANCH  10  11
ENDBRANCH   9  10
ENDBRANCH   8   9
ENDBRANCH   7   8
ENDBRANCH   6   7
ENDBRANCH   5   6
ENDBRANCH   4   5
ENDBRANCH   3   4
ENDBRANCH   2   3
ENDBRANCH   1   2
BRANCH   1  13
ATOM     13  C   UNL     1      -8.034  -4.789  -0.110  1.00  0.00     0.000 C 
BRANCH  13  14
ATOM     14  C   UNL     1      -8.600  -5.015   1.301  1.00  0.00     0.000 C 
BRANCH  14  15
ATOM     15  C   UNL     1      -8.887  -3.698   2.045  1.00  0.00     0.000 C 
BRANCH  15  16
ATOM     16  C   UNL     1      -8.561  -2.451   1.196  1.00  0.00     0.000 C 
BRANCH  16  17
ATOM     17  C   UNL     1      -7.512  -1.514   1.825  1.00  0.00     0.000 C 
BRANCH  17  18
ATOM     18  C   UNL     1      -6.567  -0.822   0.829  1.00  0.00     0.000 C 
BRANCH  18  19
ATOM     19  C   UNL     1      -6.867  -1.191  -0.635  1.00  0.00     0.000 C 
BRANCH  19  20
ATOM     20  C   UNL     1      -5.592  -1.290  -1.488  1.00  0.00     0.006 C 
BRANCH  20  21
ATOM     21  C   UNL     1      -5.759  -0.647  -2.871  1.00  0.00     0.053 C 
BRANCH  21  22
ATOM     22  C   UNL     1      -5.111   0.702  -2.907  1.00  0.00     0.041 C 
ATOM     23  O   UNL     1      -4.845   1.304  -1.833  1.00  0.00    -0.550 OA
ATOM     24  O   UNL     1      -4.839   1.313  -4.125  1.00  0.00    -0.550 OA
ENDBRANCH  21  22
ENDBRANCH  20  21
ENDBRANCH  19  20
ENDBRANCH  18  19
ENDBRANCH  17  18
ENDBRANCH  16  17
ENDBRANCH  15  16
ENDBRANCH  14  15
ENDBRANCH  13  14
ENDBRANCH   1  13
TORSDOF 20
ENDMDL
MODEL 4
REMARK VINA RESULT:    -4.804      1.801      3.897
REMARK INTER + INTRA:         -12.260
REMARK INTER:                 -10.659
REMARK INTRA:                  -1.602
REMARK UNBOUND:                -1.839
REMARK SMILES CCCCCCCCCCCCCCCCCCCCCC(=O)[O-]
REMARK SMILES IDX 12 1 11 2 10 3 9 4 8 5 7 6 6 7 5 8 4 9 3 10 2 11 1 12 13 13
REMARK SMILES IDX 14 14 15 15 16 16 17 17 18 18 19 19 20 20 21 21 22 22 23 23
REMARK SMILES IDX 24 24
REMARK H PARENT
REMARK Flexibility Score: inf
ROOT
ATOM      1  C   UNL     1      -2.708  -0.219   6.290  1.00  0.00     0.000 C 
ENDROOT
BRANCH   1   2
ATOM      2  C   UNL     1      -1.880   0.358   5.137  1.00  0.00     0.000 C 
BRANCH   2   3
ATOM      3  C   UNL     1      -0.417  -0.100   5.219  1.00  0.00     0.000 C 
BRANCH   3   4
ATOM      4  C   UNL     1       0.046  -0.377   6.661  1.00  0.00    -0.000 C 
BRANCH   4   5
ATOM      5  C   UNL     1       0.965  -1.602   6.831  1.00  0.00    -0.000 C 
BRANCH   5   6
ATOM      6  C   UNL     1       2.260  -1.493   6.011  1.00  0.00    -0.000 C 
BRANCH   6   7
ATOM      7  C   UNL     1       2.366  -2.566   4.910  1.00  0.00    -0.000 C 
BRANCH   7   8
ATOM      8  C   UNL     1       2.293  -2.037   3.464  1.00  0.00    -0.000 C 
BRANCH   8   9
ATOM      9  C   UNL     1       3.610  -1.400   2.991  1.00  0.00    -0.000 C 
BRANCH   9  10
ATOM     10  C   UNL     1       4.442  -2.350   2.113  1.00  0.00    -0.000 C 
BRANCH  10  11
ATOM     11  C   UNL     1       5.403  -3.226   2.931  1.00  0.00    -0.003 C 
ATOM     12  C   UNL     1       6.041  -2.428   4.065  1.00  0.00     0.004 C 
ENDBRANCH  10  11
ENDBRANCH   9  10
ENDBRANCH   8   9
ENDBRANCH   7   8
ENDBRANCH   6   7
ENDBRANCH   5   6
ENDBRANCH   4   5
ENDBRANCH   3   4
ENDBRANCH   2   3
ENDBRANCH   1   2
BRANCH   1  13
ATOM     13  C   UNL     1      -4.052  -0.763   5.782  1.00  0.00     0.000 C 
BRANCH  13  14
ATOM     14  C   UNL     1      -4.141  -2.295   5.857  1.00  0.00     0.000 C 
BRANCH  14  15
ATOM     15  C   UNL     1      -4.756  -2.918   4.591  1.00  0.00     0.000 C 
BRANCH  15  16
ATOM     16  C   UNL     1      -4.819  -1.927   3.410  1.00  0.00     0.000 C 
BRANCH  16  17
ATOM     17  C   UNL     1      -5.498  -2.491   2.147  1.00  0.00     0.000 C 
BRANCH  17  18
ATOM     18  C   UNL     1      -4.692  -3.555   1.385  1.00  0.00     0.000 C 
BRANCH  18  19
ATOM     19  C   UNL     1      -5.317  -4.959   1.479  1.00  0.00     0.000 C 
BRANCH  19  20
ATOM     20  C   UNL     1      -6.364  -5.209   0.381  1.00  0.00     0.006 C 
BRANCH  20  21
ATOM     21  C   UNL     1      -5.730  -5.405  -1.002  1.00  0.00     0.053 C 
BRANCH  21  22
ATOM     22  C   UNL     1      -6.277  -4.412  -1.978  1.00  0.00     0.041 C 
ATOM     23  O   UNL     1      -6.713  -4.797  -3.096  1.00  0.00    -0.550 OA
ATOM     24  O   UNL     1      -6.268  -3.055  -1.674  1.00  0.00    -0.550 OA
ENDBRANCH  21  22
ENDBRANCH  20  21
ENDBRANCH  19  20
ENDBRANCH  18  19
ENDBRANCH  17  18
ENDBRANCH  16  17
ENDBRANCH  15  16
ENDBRANCH  14  15
ENDBRANCH  13  14
ENDBRANCH   1  13
TORSDOF 20
ENDMDL
MODEL 5
REMARK VINA RESULT:    -4.783      4.507      9.178
REMARK INTER + INTRA:         -12.215
REMARK INTER:                 -10.996
REMARK INTRA:                  -1.220
REMARK UNBOUND:                -1.839
REMARK SMILES CCCCCCCCCCCCCCCCCCCCCC(=O)[O-]
REMARK SMILES IDX 12 1 11 2 10 3 9 4 8 5 7 6 6 7 5 8 4 9 3 10 2 11 1 12 13 13
REMARK SMILES IDX 14 14 15 15 16 16 17 17 18 18 19 19 20 20 21 21 22 22 23 23
REMARK SMILES IDX 24 24
REMARK H PARENT
REMARK Flexibility Score: inf
ROOT
ATOM      1  C   UNL     1       1.896  -1.259   6.636  1.00  0.00     0.000 C 
ENDROOT
BRANCH   1   2
ATOM      2  C   UNL     1       0.469  -1.231   7.196  1.00  0.00     0.000 C 
BRANCH   2   3
ATOM      3  C   UNL     1      -0.276   0.038   6.756  1.00  0.00     0.000 C 
BRANCH   3   4
ATOM      4  C   UNL     1      -0.776  -0.032   5.302  1.00  0.00    -0.000 C 
BRANCH   4   5
ATOM      5  C   UNL     1      -2.254   0.354   5.097  1.00  0.00    -0.000 C 
BRANCH   5   6
ATOM      6  C   UNL     1      -3.171  -0.198   6.199  1.00  0.00    -0.000 C 
BRANCH   6   7
ATOM      7  C   UNL     1      -3.839  -1.532   5.814  1.00  0.00    -0.000 C 
BRANCH   7   8
ATOM      8  C   UNL     1      -4.206  -1.681   4.325  1.00  0.00    -0.000 C 
BRANCH   8   9
ATOM      9  C   UNL     1      -4.959  -2.986   4.020  1.00  0.00    -0.000 C 
BRANCH   9  10
ATOM     10  C   UNL     1      -5.084  -3.257   2.510  1.00  0.00    -0.000 C 
BRANCH  10  11
ATOM     11  C   UNL     1      -5.212  -4.752   2.184  1.00  0.00    -0.003 C 
ATOM     12  C   UNL     1      -5.001  -5.008   0.694  1.00  0.00     0.004 C 
ENDBRANCH  10  11
ENDBRANCH   9  10
ENDBRANCH   8   9
ENDBRANCH   7   8
ENDBRANCH   6   7
ENDBRANCH   5   6
ENDBRANCH   4   5
ENDBRANCH   3   4
ENDBRANCH   2   3
ENDBRANCH   1   2
BRANCH   1  13
ATOM     13  C   UNL     1       2.207  -2.621   5.999  1.00  0.00     0.000 C 
BRANCH  13  14
ATOM     14  C   UNL     1       3.082  -2.504   4.742  1.00  0.00     0.000 C 
BRANCH  14  15
ATOM     15  C   UNL     1       2.482  -1.558   3.686  1.00  0.00     0.000 C 
BRANCH  15  16
ATOM     16  C   UNL     1       3.393  -1.389   2.452  1.00  0.00     0.000 C 
BRANCH  16  17
ATOM     17  C   UNL     1       4.836  -1.889   2.657  1.00  0.00     0.000 C 
BRANCH  17  18
ATOM     18  C   UNL     1       5.565  -2.337   1.381  1.00  0.00     0.000 C 
BRANCH  18  19
ATOM     19  C   UNL     1       5.506  -3.860   1.162  1.00  0.00     0.000 C 
BRANCH  19  20
ATOM     20  C   UNL     1       5.160  -4.230  -0.290  1.00  0.00     0.006 C 
BRANCH  20  21
ATOM     21  C   UNL     1       5.935  -5.459  -0.783  1.00  0.00     0.053 C 
BRANCH  21  22
ATOM     22  C   UNL     1       5.694  -5.684  -2.243  1.00  0.00     0.041 C 
ATOM     23  O   UNL     1       6.162  -4.880  -3.092  1.00  0.00    -0.550 OA
ATOM     24  O   UNL     1       4.918  -6.757  -2.666  1.00  0.00    -0.550 OA
ENDBRANCH  21  22
ENDBRANCH  20  21
ENDBRANCH  19  20
ENDBRANCH  18  19
ENDBRANCH  17  18
ENDBRANCH  16  17
ENDBRANCH  15  16
ENDBRANCH  14  15
ENDBRANCH  13  14
ENDBRANCH   1  13
TORSDOF 20
ENDMDL
MODEL 6
REMARK VINA RESULT:    -4.764      1.065      2.440
REMARK INTER + INTRA:         -12.172
REMARK INTER:                 -10.005
REMARK INTRA:                  -2.167
REMARK UNBOUND:                -1.839
REMARK SMILES CCCCCCCCCCCCCCCCCCCCCC(=O)[O-]
REMARK SMILES IDX 12 1 11 2 10 3 9 4 8 5 7 6 6 7 5 8 4 9 3 10 2 11 1 12 13 13
REMARK SMILES IDX 14 14 15 15 16 16 17 17 18 18 19 19 20 20 21 21 22 22 23 23
REMARK SMILES IDX 24 24
REMARK H PARENT
REMARK Flexibility Score: inf
ROOT
ATOM      1  C   UNL     1      -5.533  -3.095   2.206  1.00  0.00     0.000 C 
ENDROOT
BRANCH   1   2
ATOM      2  C   UNL     1      -5.250  -4.127   3.303  1.00  0.00     0.000 C 
BRANCH   2   3
ATOM      3  C   UNL     1      -4.895  -3.444   4.631  1.00  0.00     0.000 C 
BRANCH   3   4
ATOM      4  C   UNL     1      -4.383  -2.003   4.448  1.00  0.00    -0.000 C 
BRANCH   4   5
ATOM      5  C   UNL     1      -4.521  -1.096   5.687  1.00  0.00    -0.000 C 
BRANCH   5   6
ATOM      6  C   UNL     1      -3.163  -0.700   6.287  1.00  0.00    -0.000 C 
BRANCH   6   7
ATOM      7  C   UNL     1      -2.478   0.447   5.519  1.00  0.00    -0.000 C 
BRANCH   7   8
ATOM      8  C   UNL     1      -0.993   0.676   5.861  1.00  0.00    -0.000 C 
BRANCH   8   9
ATOM      9  C   UNL     1      -0.062  -0.370   5.226  1.00  0.00    -0.000 C 
BRANCH   9  10
ATOM     10  C   UNL     1       0.873  -1.029   6.254  1.00  0.00    -0.000 C 
BRANCH  10  11
ATOM     11  C   UNL     1       2.214  -1.465   5.644  1.00  0.00    -0.003 C 
ATOM     12  C   UNL     1       2.105  -1.611   4.129  1.00  0.00     0.004 C 
ENDBRANCH  10  11
ENDBRANCH   9  10
ENDBRANCH   8   9
ENDBRANCH   7   8
ENDBRANCH   6   7
ENDBRANCH   5   6
ENDBRANCH   4   5
ENDBRANCH   3   4
ENDBRANCH   2   3
ENDBRANCH   1   2
BRANCH   1  13
ATOM     13  C   UNL     1      -4.713  -3.399   0.943  1.00  0.00     0.000 C 
BRANCH  13  14
ATOM     14  C   UNL     1      -4.724  -4.889   0.572  1.00  0.00     0.000 C 
BRANCH  14  15
ATOM     15  C   UNL     1      -5.616  -5.193  -0.646  1.00  0.00     0.000 C 
BRANCH  15  16
ATOM     16  C   UNL     1      -7.030  -5.663  -0.245  1.00  0.00     0.000 C 
BRANCH  16  17
ATOM     17  C   UNL     1      -8.045  -4.520  -0.050  1.00  0.00     0.000 C 
BRANCH  17  18
ATOM     18  C   UNL     1      -7.977  -3.394  -1.095  1.00  0.00     0.000 C 
BRANCH  18  19
ATOM     19  C   UNL     1      -8.018  -1.991  -0.464  1.00  0.00     0.000 C 
BRANCH  19  20
ATOM     20  C   UNL     1      -6.903  -1.075  -0.996  1.00  0.00     0.006 C 
BRANCH  20  21
ATOM     21  C   UNL     1      -6.070  -1.744  -2.097  1.00  0.00     0.053 C 
BRANCH  21  22
ATOM     22  C   UNL     1      -5.444  -0.714  -2.984  1.00  0.00     0.041 C 
ATOM     23  O   UNL     1      -4.845   0.274  -2.480  1.00  0.00    -0.550 OA
ATOM     24  O   UNL     1      -5.555  -0.820  -4.365  1.00  0.00    -0.550 OA
ENDBRANCH  21  22
ENDBRANCH  20  21
ENDBRANCH  19  20
ENDBRANCH  18  19
ENDBRANCH  17  18
ENDBRANCH  16  17
ENDBRANCH  15  16
ENDBRANCH  14  15
ENDBRANCH  13  14
ENDBRANCH   1  13
TORSDOF 20
ENDMDL
MODEL 7
REMARK VINA RESULT:    -4.739      1.568      3.731
REMARK INTER + INTRA:         -12.119
REMARK INTER:                 -10.177
REMARK INTRA:                  -1.942
REMARK UNBOUND:                -1.839
REMARK SMILES CCCCCCCCCCCCCCCCCCCCCC(=O)[O-]
REMARK SMILES IDX 12 1 11 2 10 3 9 4 8 5 7 6 6 7 5 8 4 9 3 10 2 11 1 12 13 13
REMARK SMILES IDX 14 14 15 15 16 16 17 17 18 18 19 19 20 20 21 21 22 22 23 23
REMARK SMILES IDX 24 24
REMARK H PARENT
REMARK Flexibility Score: inf
ROOT
ATOM      1  C   UNL     1      -4.897  -4.916   0.278  1.00  0.00     0.000 C 
ENDROOT
BRANCH   1   2
ATOM      2  C   UNL     1      -4.601  -3.517   0.831  1.00  0.00     0.000 C 
BRANCH   2   3
ATOM      3  C   UNL     1      -5.662  -3.088   1.854  1.00  0.00     0.000 C 
BRANCH   3   4
ATOM      4  C   UNL     1      -5.137  -3.091   3.302  1.00  0.00    -0.000 C 
BRANCH   4   5
ATOM      5  C   UNL     1      -4.410  -1.805   3.738  1.00  0.00    -0.000 C 
BRANCH   5   6
ATOM      6  C   UNL     1      -4.722  -1.407   5.189  1.00  0.00    -0.000 C 
BRANCH   6   7
ATOM      7  C   UNL     1      -3.490  -1.486   6.112  1.00  0.00    -0.000 C 
BRANCH   7   8
ATOM      8  C   UNL     1      -2.888  -0.130   6.527  1.00  0.00    -0.000 C 
BRANCH   8   9
ATOM      9  C   UNL     1      -2.115   0.557   5.389  1.00  0.00    -0.000 C 
BRANCH   9  10
ATOM     10  C   UNL     1      -0.753  -0.104   5.118  1.00  0.00    -0.000 C 
BRANCH  10  11
ATOM     11  C   UNL     1       0.026  -0.407   6.407  1.00  0.00    -0.003 C 
ATOM     12  C   UNL     1       1.275  -1.234   6.111  1.00  0.00     0.004 C 
ENDBRANCH  10  11
ENDBRANCH   9  10
ENDBRANCH   8   9
ENDBRANCH   7   8
ENDBRANCH   6   7
ENDBRANCH   5   6
ENDBRANCH   4   5
ENDBRANCH   3   4
ENDBRANCH   2   3
ENDBRANCH   1   2
BRANCH   1  13
ATOM     13  C   UNL     1      -6.379  -5.276   0.464  1.00  0.00     0.000 C 
BRANCH  13  14
ATOM     14  C   UNL     1      -7.054  -5.709  -0.846  1.00  0.00     0.000 C 
BRANCH  14  15
ATOM     15  C   UNL     1      -6.089  -5.699  -2.045  1.00  0.00     0.000 C 
BRANCH  15  16
ATOM     16  C   UNL     1      -6.756  -5.193  -3.342  1.00  0.00     0.000 C 
BRANCH  16  17
ATOM     17  C   UNL     1      -7.759  -4.042  -3.129  1.00  0.00     0.000 C 
BRANCH  17  18
ATOM     18  C   UNL     1      -7.180  -2.627  -3.286  1.00  0.00     0.000 C 
BRANCH  18  19
ATOM     19  C   UNL     1      -6.554  -2.090  -1.986  1.00  0.00     0.000 C 
BRANCH  19  20
ATOM     20  C   UNL     1      -5.394  -1.117  -2.252  1.00  0.00     0.006 C 
BRANCH  20  21
ATOM     21  C   UNL     1      -5.631   0.264  -1.627  1.00  0.00     0.053 C 
BRANCH  21  22
ATOM     22  C   UNL     1      -4.955   1.330  -2.432  1.00  0.00     0.041 C 
ATOM     23  O   UNL     1      -4.780   1.172  -3.670  1.00  0.00    -0.550 OA
ATOM     24  O   UNL     1      -4.481   2.480  -1.811  1.00  0.00    -0.550 OA
ENDBRANCH  21  22
ENDBRANCH  20  21
ENDBRANCH  19  20
ENDBRANCH  18  19
ENDBRANCH  17  18
ENDBRANCH  16  17
ENDBRANCH  15  16
ENDBRANCH  14  15
ENDBRANCH  13  14
ENDBRANCH   1  13
TORSDOF 20
ENDMDL
MODEL 8
REMARK VINA RESULT:    -4.678      2.737      5.495
REMARK INTER + INTRA:         -11.988
REMARK INTER:                  -8.424
REMARK INTRA:                  -3.564
REMARK UNBOUND:                -1.839
REMARK SMILES CCCCCCCCCCCCCCCCCCCCCC(=O)[O-]
REMARK SMILES IDX 12 1 11 2 10 3 9 4 8 5 7 6 6 7 5 8 4 9 3 10 2 11 1 12 13 13
REMARK SMILES IDX 14 14 15 15 16 16 17 17 18 18 19 19 20 20 21 21 22 22 23 23
REMARK SMILES IDX 24 24
REMARK H PARENT
REMARK Flexibility Score: inf
ROOT
ATOM      1  C   UNL     1      -7.296  -5.744  -0.196  1.00  0.00     0.000 C 
ENDROOT
BRANCH   1   2
ATOM      2  C   UNL     1      -8.151  -4.480  -0.052  1.00  0.00     0.000 C 
BRANCH   2   3
ATOM      3  C   UNL     1      -8.872  -4.449   1.303  1.00  0.00     0.000 C 
BRANCH   3   4
ATOM      4  C   UNL     1      -8.416  -5.571   2.253  1.00  0.00    -0.000 C 
BRANCH   4   5
ATOM      5  C   UNL     1      -7.680  -5.097   3.522  1.00  0.00    -0.000 C 
BRANCH   5   6
ATOM      6  C   UNL     1      -6.264  -5.682   3.643  1.00  0.00    -0.000 C 
BRANCH   6   7
ATOM      7  C   UNL     1      -5.546  -5.254   4.937  1.00  0.00    -0.000 C 
BRANCH   7   8
ATOM      8  C   UNL     1      -5.797  -3.801   5.383  1.00  0.00    -0.000 C 
BRANCH   8   9
ATOM      9  C   UNL     1      -4.554  -3.139   6.001  1.00  0.00    -0.000 C 
BRANCH   9  10
ATOM     10  C   UNL     1      -4.552  -1.610   5.827  1.00  0.00    -0.000 C 
BRANCH  10  11
ATOM     11  C   UNL     1      -3.327  -1.103   5.050  1.00  0.00    -0.003 C 
ATOM     12  C   UNL     1      -2.623   0.018   5.808  1.00  0.00     0.004 C 
ENDBRANCH  10  11
ENDBRANCH   9  10
ENDBRANCH   8   9
ENDBRANCH   7   8
ENDBRANCH   6   7
ENDBRANCH   5   6
ENDBRANCH   4   5
ENDBRANCH   3   4
ENDBRANCH   2   3
ENDBRANCH   1   2
BRANCH   1  13
ATOM     13  C   UNL     1      -5.907  -5.404  -0.758  1.00  0.00     0.000 C 
BRANCH  13  14
ATOM     14  C   UNL     1      -4.888  -5.065   0.340  1.00  0.00     0.000 C 
BRANCH  14  15
ATOM     15  C   UNL     1      -4.679  -3.550   0.512  1.00  0.00     0.000 C 
BRANCH  15  16
ATOM     16  C   UNL     1      -4.839  -3.089   1.976  1.00  0.00     0.000 C 
BRANCH  16  17
ATOM     17  C   UNL     1      -5.386  -1.657   2.133  1.00  0.00     0.000 C 
BRANCH  17  18
ATOM     18  C   UNL     1      -6.918  -1.538   2.166  1.00  0.00     0.000 C 
BRANCH  18  19
ATOM     19  C   UNL     1      -7.491  -0.844   0.917  1.00  0.00     0.000 C 
BRANCH  19  20
ATOM     20  C   UNL     1      -6.390  -0.316  -0.017  1.00  0.00     0.006 C 
BRANCH  20  21
ATOM     21  C   UNL     1      -6.627  -0.705  -1.483  1.00  0.00     0.053 C 
BRANCH  21  22
ATOM     22  C   UNL     1      -5.840   0.180  -2.397  1.00  0.00     0.041 C 
ATOM     23  O   UNL     1      -4.920   0.908  -1.936  1.00  0.00    -0.550 OA
ATOM     24  O   UNL     1      -6.147   0.235  -3.751  1.00  0.00    -0.550 OA
ENDBRANCH  21  22
ENDBRANCH  20  21
ENDBRANCH  19  20
ENDBRANCH  18  19
ENDBRANCH  17  18
ENDBRANCH  16  17
ENDBRANCH  15  16
ENDBRANCH  14  15
ENDBRANCH  13  14
ENDBRANCH   1  13
TORSDOF 20
ENDMDL
MODEL 9
REMARK VINA RESULT:    -4.663      4.650      9.090
REMARK INTER + INTRA:         -11.955
REMARK INTER:                 -10.376
REMARK INTRA:                  -1.578
REMARK UNBOUND:                -1.839
REMARK SMILES CCCCCCCCCCCCCCCCCCCCCC(=O)[O-]
REMARK SMILES IDX 12 1 11 2 10 3 9 4 8 5 7 6 6 7 5 8 4 9 3 10 2 11 1 12 13 13
REMARK SMILES IDX 14 14 15 15 16 16 17 17 18 18 19 19 20 20 21 21 22 22 23 23
REMARK SMILES IDX 24 24
REMARK H PARENT
REMARK Flexibility Score: inf
ROOT
ATOM      1  C   UNL     1       2.546  -2.617   6.508  1.00  0.00     0.000 C 
ENDROOT
BRANCH   1   2
ATOM      2  C   UNL     1       1.424  -2.246   7.485  1.00  0.00     0.000 C 
BRANCH   2   3
ATOM      3  C   UNL     1       1.540  -0.782   7.934  1.00  0.00     0.000 C 
BRANCH   3   4
ATOM      4  C   UNL     1       0.240   0.016   7.725  1.00  0.00    -0.000 C 
BRANCH   4   5
ATOM      5  C   UNL     1      -0.815  -0.671   6.837  1.00  0.00    -0.000 C 
BRANCH   5   6
ATOM      6  C   UNL     1      -1.200   0.171   5.610  1.00  0.00    -0.000 C 
BRANCH   6   7
ATOM      7  C   UNL     1      -2.722   0.236   5.379  1.00  0.00    -0.000 C 
BRANCH   7   8
ATOM      8  C   UNL     1      -3.580  -0.516   6.414  1.00  0.00    -0.000 C 
BRANCH   8   9
ATOM      9  C   UNL     1      -4.236  -1.785   5.842  1.00  0.00    -0.000 C 
BRANCH   9  10
ATOM     10  C   UNL     1      -4.872  -1.548   4.462  1.00  0.00    -0.000 C 
BRANCH  10  11
ATOM     11  C   UNL     1      -4.777  -2.777   3.546  1.00  0.00    -0.003 C 
ATOM     12  C   UNL     1      -4.951  -2.385   2.082  1.00  0.00     0.004 C 
ENDBRANCH  10  11
ENDBRANCH   9  10
ENDBRANCH   8   9
ENDBRANCH   7   8
ENDBRANCH   6   7
ENDBRANCH   5   6
ENDBRANCH   4   5
ENDBRANCH   3   4
ENDBRANCH   2   3
ENDBRANCH   1   2
BRANCH   1  13
ATOM     13  C   UNL     1       2.802  -1.478   5.510  1.00  0.00     0.000 C 
BRANCH  13  14
ATOM     14  C   UNL     1       1.902  -1.563   4.267  1.00  0.00     0.000 C 
BRANCH  14  15
ATOM     15  C   UNL     1       2.705  -1.688   2.959  1.00  0.00     0.000 C 
BRANCH  15  16
ATOM     16  C   UNL     1       4.127  -1.101   3.076  1.00  0.00     0.000 C 
BRANCH  16  17
ATOM     17  C   UNL     1       5.179  -1.814   2.204  1.00  0.00     0.000 C 
BRANCH  17  18
ATOM     18  C   UNL     1       4.641  -2.955   1.325  1.00  0.00     0.000 C 
BRANCH  18  19
ATOM     19  C   UNL     1       5.749  -3.905   0.835  1.00  0.00     0.000 C 
BRANCH  19  20
ATOM     20  C   UNL     1       5.587  -4.280  -0.648  1.00  0.00     0.006 C 
BRANCH  20  21
ATOM     21  C   UNL     1       5.239  -5.761  -0.844  1.00  0.00     0.053 C 
BRANCH  21  22
ATOM     22  C   UNL     1       5.472  -6.173  -2.264  1.00  0.00     0.041 C 
ATOM     23  O   UNL     1       4.864  -7.167  -2.742  1.00  0.00    -0.550 OA
ATOM     24  O   UNL     1       6.392  -5.487  -3.048  1.00  0.00    -0.550 OA
ENDBRANCH  21  22
ENDBRANCH  20  21
ENDBRANCH  19  20
ENDBRANCH  18  19
ENDBRANCH  17  18
ENDBRANCH  16  17
ENDBRANCH  15  16
ENDBRANCH  14  15
ENDBRANCH  13  14
ENDBRANCH   1  13
TORSDOF 20
ENDMDL
