MODEL 1
REMARK VINA RESULT:    -3.685      0.000      0.000
REMARK INTER + INTRA:         -10.582
REMARK INTER:                  -7.994
REMARK INTRA:                  -2.588
REMARK UNBOUND:                -2.588
REMARK SMILES CCCCCCCCCCCCCCCCCCCCCC(=O)[O-]
REMARK SMILES IDX 12 1 11 2 10 3 9 4 8 5 7 6 6 7 5 8 4 9 3 10 2 11 1 12 13 13
REMARK SMILES IDX 14 14 15 15 16 16 17 17 18 18 19 19 20 20 21 21 22 22 23 23
REMARK SMILES IDX 24 24
REMARK H PARENT
REMARK Flexibility Score: inf
ROOT
ATOM      1  C   UNL     1      49.698  49.025  13.754  1.00  0.00     0.000 C 
ENDROOT
BRANCH   1   2
ATOM      2  C   UNL     1      50.646  49.012  14.965  1.00  0.00     0.000 C 
BRANCH   2   3
ATOM      3  C   UNL     1      51.517  47.742  14.988  1.00  0.00     0.000 C 
BRANCH   3   4
ATOM      4  C   UNL     1      51.315  46.848  13.751  1.00  0.00    -0.000 C 
BRANCH   4   5
ATOM      5  C   UNL     1      50.644  45.508  14.093  1.00  0.00    -0.000 C 
BRANCH   5   6
ATOM      6  C   UNL     1      50.656  45.215  15.607  1.00  0.00    -0.000 C 
BRANCH   6   7
ATOM      7  C   UNL     1      49.323  44.639  16.108  1.00  0.00    -0.000 C 
BRANCH   7   8
ATOM      8  C   UNL     1      48.130  45.344  15.439  1.00  0.00    -0.000 C 
BRANCH   8   9
ATOM      9  C   UNL     1      46.935  44.404  15.206  1.00  0.00    -0.000 C 
BRANCH   9  10
ATOM     10  C   UNL     1      47.364  42.955  14.925  1.00  0.00    -0.000 C 
BRANCH  10  11
ATOM     11  C   UNL     1      46.147  42.036  14.760  1.00  0.00    -0.003 C 
ATOM     12  C   UNL     1      46.371  40.693  15.449  1.00  0.00     0.004 C 
ENDBRANCH  10  11
ENDBRANCH   9  10
ENDBRANCH   8   9
ENDBRANCH   7   8
ENDBRANCH   6   7
ENDBRANCH   5   6
ENDBRANCH   4   5
ENDBRANCH   3   4
ENDBRANCH   2   3
ENDBRANCH   1   2
BRANCH   1  13
ATOM     13  C   UNL     1      49.759  50.360  12.979  1.00  0.00     0.000 C 
BRANCH  13  14
ATOM     14  C   UNL     1      50.489  50.249  11.622  1.00  0.00     0.000 C 
BRANCH  14  15
ATOM     15  C   UNL     1      52.020  50.145  11.738  1.00  0.00     0.000 C 
BRANCH  15  16
ATOM     16  C   UNL     1      52.660  51.125  12.733  1.00  0.00     0.000 C 
BRANCH  16  17
ATOM     17  C   UNL     1      53.715  50.463  13.635  1.00  0.00     0.000 C 
BRANCH  17  18
ATOM     18  C   UNL     1      54.406  49.270  12.950  1.00  0.00     0.000 C 
BRANCH  18  19
ATOM     19  C   UNL     1      55.216  48.415  13.938  1.00  0.00     0.000 C 
BRANCH  19  20
ATOM     20  C   UNL     1      56.710  48.402  13.568  1.00  0.00     0.006 C 
BRANCH  20  21
ATOM     21  C   UNL     1      57.294  46.983  13.569  1.00  0.00     0.053 C 
BRANCH  21  22
ATOM     22  C   UNL     1      57.030  46.271  14.858  1.00  0.00     0.041 C 
ATOM     23  O   UNL     1      57.554  46.679  15.929  1.00  0.00    -0.550 OA
ATOM     24  O   UNL     1      56.177  45.172  14.885  1.00  0.00    -0.550 OA
ENDBRANCH  21  22
ENDBRANCH  20  21
ENDBRANCH  19  20
ENDBRANCH  18  19
ENDBRANCH  17  18
ENDBRANCH  16  17
ENDBRANCH  15  16
ENDBRANCH  14  15
ENDBRANCH  13  14
ENDBRANCH   1  13
TORSDOF 20
ENDMDL
MODEL 2
REMARK VINA RESULT:    -3.566      6.485     12.124
REMARK INTER + INTRA:         -10.323
REMARK INTER:                  -7.808
REMARK INTRA:                  -2.515
REMARK UNBOUND:                -2.588
REMARK SMILES CCCCCCCCCCCCCCCCCCCCCC(=O)[O-]
REMARK SMILES IDX 12 1 11 2 10 3 9 4 8 5 7 6 6 7 5 8 4 9 3 10 2 11 1 12 13 13
REMARK SMILES IDX 14 14 15 15 16 16 17 17 18 18 19 19 20 20 21 21 22 22 23 23
REMARK SMILES IDX 24 24
REMARK H PARENT
REMARK Flexibility Score: inf
ROOT
ATOM      1  C   UNL     1      64.243  44.673  16.443  1.00  0.00     0.000 C 
ENDROOT
BRANCH   1   2
ATOM      2  C   UNL     1      63.949  44.257  14.992  1.00  0.00     0.000 C 
BRANCH   2   3
ATOM      3  C   UNL     1      63.800  42.729  14.861  1.00  0.00     0.000 C 
BRANCH   3   4
ATOM      4  C   UNL     1      64.578  41.952  15.939  1.00  0.00    -0.000 C 
BRANCH   4   5
ATOM      5  C   UNL     1      63.919  40.609  16.291  1.00  0.00    -0.000 C 
BRANCH   5   6
ATOM      6  C   UNL     1      63.729  40.429  17.810  1.00  0.00    -0.000 C 
BRANCH   6   7
ATOM      7  C   UNL     1      64.116  41.684  18.607  1.00  0.00    -0.000 C 
BRANCH   7   8
ATOM      8  C   UNL     1      62.912  42.232  19.394  1.00  0.00    -0.000 C 
BRANCH   8   9
ATOM      9  C   UNL     1      62.377  41.233  20.436  1.00  0.00    -0.000 C 
BRANCH   9  10
ATOM     10  C   UNL     1      61.055  41.691  21.073  1.00  0.00    -0.000 C 
BRANCH  10  11
ATOM     11  C   UNL     1      60.440  42.863  20.297  1.00  0.00    -0.003 C 
ATOM     12  C   UNL     1      60.376  44.122  21.158  1.00  0.00     0.004 C 
ENDBRANCH  10  11
ENDBRANCH   9  10
ENDBRANCH   8   9
ENDBRANCH   7   8
ENDBRANCH   6   7
ENDBRANCH   5   6
ENDBRANCH   4   5
ENDBRANCH   3   4
ENDBRANCH   2   3
ENDBRANCH   1   2
BRANCH   1  13
ATOM     13  C   UNL     1      63.432  45.916  16.870  1.00  0.00     0.000 C 
BRANCH  13  14
ATOM     14  C   UNL     1      62.297  45.595  17.867  1.00  0.00     0.000 C 
BRANCH  14  15
ATOM     15  C   UNL     1      61.167  44.731  17.278  1.00  0.00     0.000 C 
BRANCH  15  16
ATOM     16  C   UNL     1      59.786  45.405  17.253  1.00  0.00     0.000 C 
BRANCH  16  17
ATOM     17  C   UNL     1      58.626  44.403  17.374  1.00  0.00     0.000 C 
BRANCH  17  18
ATOM     18  C   UNL     1      58.009  44.053  16.008  1.00  0.00     0.000 C 
BRANCH  18  19
ATOM     19  C   UNL     1      56.843  44.983  15.634  1.00  0.00     0.000 C 
BRANCH  19  20
ATOM     20  C   UNL     1      57.309  46.110  14.695  1.00  0.00     0.006 C 
BRANCH  20  21
ATOM     21  C   UNL     1      57.079  47.501  15.302  1.00  0.00     0.053 C 
BRANCH  21  22
ATOM     22  C   UNL     1      55.814  48.126  14.804  1.00  0.00     0.041 C 
ATOM     23  O   UNL     1      54.853  48.332  15.592  1.00  0.00    -0.550 OA
ATOM     24  O   UNL     1      55.707  48.511  13.471  1.00  0.00    -0.550 OA
ENDBRANCH  21  22
ENDBRANCH  20  21
ENDBRANCH  19  20
ENDBRANCH  18  19
ENDBRANCH  17  18
ENDBRANCH  16  17
ENDBRANCH  15  16
ENDBRANCH  14  15
ENDBRANCH  13  14
ENDBRANCH   1  13
TORSDOF 20
ENDMDL
MODEL 3
REMARK VINA RESULT:    -3.515      6.391     11.748
REMARK INTER + INTRA:         -10.212
REMARK INTER:                  -7.549
REMARK INTRA:                  -2.663
REMARK UNBOUND:                -2.588
REMARK SMILES CCCCCCCCCCCCCCCCCCCCCC(=O)[O-]
REMARK SMILES IDX 12 1 11 2 10 3 9 4 8 5 7 6 6 7 5 8 4 9 3 10 2 11 1 12 13 13
REMARK SMILES IDX 14 14 15 15 16 16 17 17 18 18 19 19 20 20 21 21 22 22 23 23
REMARK SMILES IDX 24 24
REMARK H PARENT
REMARK Flexibility Score: inf
ROOT
ATOM      1  C   UNL     1      63.953  43.163  14.869  1.00  0.00     0.000 C 
ENDROOT
BRANCH   1   2
ATOM      2  C   UNL     1      64.805  42.025  15.457  1.00  0.00     0.000 C 
BRANCH   2   3
ATOM      3  C   UNL     1      63.925  40.914  16.061  1.00  0.00     0.000 C 
BRANCH   3   4
ATOM      4  C   UNL     1      64.255  40.615  17.534  1.00  0.00    -0.000 C 
BRANCH   4   5
ATOM      5  C   UNL     1      63.949  41.802  18.462  1.00  0.00    -0.000 C 
BRANCH   5   6
ATOM      6  C   UNL     1      62.869  41.464  19.510  1.00  0.00    -0.000 C 
BRANCH   6   7
ATOM      7  C   UNL     1      62.227  42.719  20.123  1.00  0.00    -0.000 C 
BRANCH   7   8
ATOM      8  C   UNL     1      60.728  42.498  20.390  1.00  0.00    -0.000 C 
BRANCH   8   9
ATOM      9  C   UNL     1      60.047  43.727  21.017  1.00  0.00    -0.000 C 
BRANCH   9  10
ATOM     10  C   UNL     1      58.578  43.874  20.590  1.00  0.00    -0.000 C 
BRANCH  10  11
ATOM     11  C   UNL     1      58.214  42.866  19.492  1.00  0.00    -0.003 C 
ATOM     12  C   UNL     1      56.750  42.448  19.589  1.00  0.00     0.004 C 
ENDBRANCH  10  11
ENDBRANCH   9  10
ENDBRANCH   8   9
ENDBRANCH   7   8
ENDBRANCH   6   7
ENDBRANCH   5   6
ENDBRANCH   4   5
ENDBRANCH   3   4
ENDBRANCH   2   3
ENDBRANCH   1   2
BRANCH   1  13
ATOM     13  C   UNL     1      64.508  44.557  15.235  1.00  0.00     0.000 C 
BRANCH  13  14
ATOM     14  C   UNL     1      63.706  45.263  16.351  1.00  0.00     0.000 C 
BRANCH  14  15
ATOM     15  C   UNL     1      62.424  44.521  16.770  1.00  0.00     0.000 C 
BRANCH  15  16
ATOM     16  C   UNL     1      61.534  45.283  17.765  1.00  0.00     0.000 C 
BRANCH  16  17
ATOM     17  C   UNL     1      60.035  45.165  17.443  1.00  0.00     0.000 C 
BRANCH  17  18
ATOM     18  C   UNL     1      59.241  46.408  17.884  1.00  0.00     0.000 C 
BRANCH  18  19
ATOM     19  C   UNL     1      57.783  46.377  17.398  1.00  0.00     0.000 C 
BRANCH  19  20
ATOM     20  C   UNL     1      57.674  45.727  16.007  1.00  0.00     0.006 C 
BRANCH  20  21
ATOM     21  C   UNL     1      57.250  46.736  14.930  1.00  0.00     0.053 C 
BRANCH  21  22
ATOM     22  C   UNL     1      55.822  46.550  14.522  1.00  0.00     0.041 C 
ATOM     23  O   UNL     1      54.996  46.029  15.318  1.00  0.00    -0.550 OA
ATOM     24  O   UNL     1      55.393  46.982  13.270  1.00  0.00    -0.550 OA
ENDBRANCH  21  22
ENDBRANCH  20  21
ENDBRANCH  19  20
ENDBRANCH  18  19
ENDBRANCH  17  18
ENDBRANCH  16  17
ENDBRANCH  15  16
ENDBRANCH  14  15
ENDBRANCH  13  14
ENDBRANCH   1  13
TORSDOF 20
ENDMDL
MODEL 4
REMARK VINA RESULT:    -3.494      2.134      6.182
REMARK INTER + INTRA:         -10.168
REMARK INTER:                  -6.257
REMARK INTRA:                  -3.911
REMARK UNBOUND:                -2.588
REMARK SMILES CCCCCCCCCCCCCCCCCCCCCC(=O)[O-]
REMARK SMILES IDX 12 1 11 2 10 3 9 4 8 5 7 6 6 7 5 8 4 9 3 10 2 11 1 12 13 13
REMARK SMILES IDX 14 14 15 15 16 16 17 17 18 18 19 19 20 20 21 21 22 22 23 23
REMARK SMILES IDX 24 24
REMARK H PARENT
REMARK Flexibility Score: inf
ROOT
ATOM      1  C   UNL     1      50.543  45.399  14.492  1.00  0.00     0.000 C 
ENDROOT
BRANCH   1   2
ATOM      2  C   UNL     1      51.199  46.600  13.791  1.00  0.00     0.000 C 
BRANCH   2   3
ATOM      3  C   UNL     1      50.700  47.936  14.372  1.00  0.00     0.000 C 
BRANCH   3   4
ATOM      4  C   UNL     1      51.695  48.575  15.358  1.00  0.00    -0.000 C 
BRANCH   4   5
ATOM      5  C   UNL     1      52.494  49.727  14.730  1.00  0.00    -0.000 C 
BRANCH   5   6
ATOM      6  C   UNL     1      53.886  49.278  14.240  1.00  0.00    -0.000 C 
BRANCH   6   7
ATOM      7  C   UNL     1      53.927  49.028  12.725  1.00  0.00    -0.000 C 
BRANCH   7   8
ATOM      8  C   UNL     1      52.973  49.979  11.982  1.00  0.00    -0.000 C 
BRANCH   8   9
ATOM      9  C   UNL     1      51.988  49.237  11.062  1.00  0.00    -0.000 C 
BRANCH   9  10
ATOM     10  C   UNL     1      50.597  49.892  11.030  1.00  0.00    -0.000 C 
BRANCH  10  11
ATOM     11  C   UNL     1      50.542  51.125  11.942  1.00  0.00    -0.003 C 
ATOM     12  C   UNL     1      49.419  51.002  12.968  1.00  0.00     0.004 C 
ENDBRANCH  10  11
ENDBRANCH   9  10
ENDBRANCH   8   9
ENDBRANCH   7   8
ENDBRANCH   6   7
ENDBRANCH   5   6
ENDBRANCH   4   5
ENDBRANCH   3   4
ENDBRANCH   2   3
ENDBRANCH   1   2
BRANCH   1  13
ATOM     13  C   UNL     1      49.237  45.789  15.220  1.00  0.00     0.000 C 
BRANCH  13  14
ATOM     14  C   UNL     1      49.235  45.414  16.718  1.00  0.00     0.000 C 
BRANCH  14  15
ATOM     15  C   UNL     1      49.988  44.111  17.043  1.00  0.00     0.000 C 
BRANCH  15  16
ATOM     16  C   UNL     1      51.300  44.301  17.820  1.00  0.00     0.000 C 
BRANCH  16  17
ATOM     17  C   UNL     1      51.423  45.693  18.461  1.00  0.00     0.000 C 
BRANCH  17  18
ATOM     18  C   UNL     1      52.729  46.407  18.068  1.00  0.00     0.000 C 
BRANCH  18  19
ATOM     19  C   UNL     1      53.521  45.636  17.000  1.00  0.00     0.000 C 
BRANCH  19  20
ATOM     20  C   UNL     1      54.617  46.518  16.375  1.00  0.00     0.006 C 
BRANCH  20  21
ATOM     21  C   UNL     1      55.165  45.921  15.071  1.00  0.00     0.053 C 
BRANCH  21  22
ATOM     22  C   UNL     1      56.404  45.115  15.305  1.00  0.00     0.041 C 
ATOM     23  O   UNL     1      57.528  45.680  15.373  1.00  0.00    -0.550 OA
ATOM     24  O   UNL     1      56.315  43.737  15.478  1.00  0.00    -0.550 OA
ENDBRANCH  21  22
ENDBRANCH  20  21
ENDBRANCH  19  20
ENDBRANCH  18  19
ENDBRANCH  17  18
ENDBRANCH  16  17
ENDBRANCH  15  16
ENDBRANCH  14  15
ENDBRANCH  13  14
ENDBRANCH   1  13
TORSDOF 20
ENDMDL
MODEL 5
REMARK VINA RESULT:    -3.472      7.135     11.905
REMARK INTER + INTRA:         -10.120
REMARK INTER:                  -7.014
REMARK INTRA:                  -3.106
REMARK UNBOUND:                -2.588
REMARK SMILES CCCCCCCCCCCCCCCCCCCCCC(=O)[O-]
REMARK SMILES IDX 12 1 11 2 10 3 9 4 8 5 7 6 6 7 5 8 4 9 3 10 2 11 1 12 13 13
REMARK SMILES IDX 14 14 15 15 16 16 17 17 18 18 19 19 20 20 21 21 22 22 23 23
REMARK SMILES IDX 24 24
REMARK H PARENT
REMARK Flexibility Score: inf
ROOT
ATOM      1  C   UNL     1      63.270  45.215  16.677  1.00  0.00     0.000 C 
ENDROOT
BRANCH   1   2
ATOM      2  C   UNL     1      62.012  44.331  16.725  1.00  0.00     0.000 C 
BRANCH   2   3
ATOM      3  C   UNL     1      61.198  44.576  18.010  1.00  0.00     0.000 C 
BRANCH   3   4
ATOM      4  C   UNL     1      60.819  46.054  18.213  1.00  0.00    -0.000 C 
BRANCH   4   5
ATOM      5  C   UNL     1      59.497  46.227  18.977  1.00  0.00    -0.000 C 
BRANCH   5   6
ATOM      6  C   UNL     1      58.706  44.907  19.088  1.00  0.00    -0.000 C 
BRANCH   6   7
ATOM      7  C   UNL     1      57.482  44.872  18.159  1.00  0.00    -0.000 C 
BRANCH   7   8
ATOM      8  C   UNL     1      57.734  43.956  16.949  1.00  0.00    -0.000 C 
BRANCH   8   9
ATOM      9  C   UNL     1      57.733  44.719  15.613  1.00  0.00    -0.000 C 
BRANCH   9  10
ATOM     10  C   UNL     1      57.668  46.243  15.800  1.00  0.00    -0.000 C 
BRANCH  10  11
ATOM     11  C   UNL     1      56.716  46.888  14.784  1.00  0.00    -0.003 C 
ATOM     12  C   UNL     1      57.398  47.081  13.432  1.00  0.00     0.004 C 
ENDBRANCH  10  11
ENDBRANCH   9  10
ENDBRANCH   8   9
ENDBRANCH   7   8
ENDBRANCH   6   7
ENDBRANCH   5   6
ENDBRANCH   4   5
ENDBRANCH   3   4
ENDBRANCH   2   3
ENDBRANCH   1   2
BRANCH   1  13
ATOM     13  C   UNL     1      64.260  44.762  15.582  1.00  0.00     0.000 C 
BRANCH  13  14
ATOM     14  C   UNL     1      63.859  43.433  14.904  1.00  0.00     0.000 C 
BRANCH  14  15
ATOM     15  C   UNL     1      64.696  42.220  15.350  1.00  0.00     0.000 C 
BRANCH  15  16
ATOM     16  C   UNL     1      63.876  41.019  15.848  1.00  0.00     0.000 C 
BRANCH  16  17
ATOM     17  C   UNL     1      64.047  40.758  17.353  1.00  0.00     0.000 C 
BRANCH  17  18
ATOM     18  C   UNL     1      64.991  41.774  18.021  1.00  0.00     0.000 C 
BRANCH  18  19
ATOM     19  C   UNL     1      64.304  42.564  19.147  1.00  0.00     0.000 C 
BRANCH  19  20
ATOM     20  C   UNL     1      62.961  41.922  19.538  1.00  0.00     0.006 C 
BRANCH  20  21
ATOM     21  C   UNL     1      62.581  42.220  20.995  1.00  0.00     0.053 C 
BRANCH  21  22
ATOM     22  C   UNL     1      61.102  42.373  21.165  1.00  0.00     0.041 C 
ATOM     23  O   UNL     1      60.325  41.432  20.851  1.00  0.00    -0.550 OA
ATOM     24  O   UNL     1      60.580  43.546  21.702  1.00  0.00    -0.550 OA
ENDBRANCH  21  22
ENDBRANCH  20  21
ENDBRANCH  19  20
ENDBRANCH  18  19
ENDBRANCH  17  18
ENDBRANCH  16  17
ENDBRANCH  15  16
ENDBRANCH  14  15
ENDBRANCH  13  14
ENDBRANCH   1  13
TORSDOF 20
ENDMDL
MODEL 6
REMARK VINA RESULT:    -3.423      1.704      4.027
REMARK INTER + INTRA:         -10.013
REMARK INTER:                  -6.662
REMARK INTRA:                  -3.351
REMARK UNBOUND:                -2.588
REMARK SMILES CCCCCCCCCCCCCCCCCCCCCC(=O)[O-]
REMARK SMILES IDX 12 1 11 2 10 3 9 4 8 5 7 6 6 7 5 8 4 9 3 10 2 11 1 12 13 13
REMARK SMILES IDX 14 14 15 15 16 16 17 17 18 18 19 19 20 20 21 21 22 22 23 23
REMARK SMILES IDX 24 24
REMARK H PARENT
REMARK Flexibility Score: inf
ROOT
ATOM      1  C   UNL     1      53.494  49.005  12.264  1.00  0.00     0.000 C 
ENDROOT
BRANCH   1   2
ATOM      2  C   UNL     1      52.410  49.407  11.249  1.00  0.00     0.000 C 
BRANCH   2   3
ATOM      3  C   UNL     1      51.680  50.693  11.681  1.00  0.00     0.000 C 
BRANCH   3   4
ATOM      4  C   UNL     1      50.186  50.471  11.975  1.00  0.00    -0.000 C 
BRANCH   4   5
ATOM      5  C   UNL     1      49.906  50.216  13.464  1.00  0.00    -0.000 C 
BRANCH   5   6
ATOM      6  C   UNL     1      49.605  48.733  13.760  1.00  0.00    -0.000 C 
BRANCH   6   7
ATOM      7  C   UNL     1      50.769  48.023  14.469  1.00  0.00    -0.000 C 
BRANCH   7   8
ATOM      8  C   UNL     1      51.137  46.713  13.751  1.00  0.00    -0.000 C 
BRANCH   8   9
ATOM      9  C   UNL     1      50.798  45.463  14.581  1.00  0.00    -0.000 C 
BRANCH   9  10
ATOM     10  C   UNL     1      50.312  45.804  15.998  1.00  0.00    -0.000 C 
BRANCH  10  11
ATOM     11  C   UNL     1      49.058  45.000  16.365  1.00  0.00    -0.003 C 
ATOM     12  C   UNL     1      47.971  45.157  15.305  1.00  0.00     0.004 C 
ENDBRANCH  10  11
ENDBRANCH   9  10
ENDBRANCH   8   9
ENDBRANCH   7   8
ENDBRANCH   6   7
ENDBRANCH   5   6
ENDBRANCH   4   5
ENDBRANCH   3   4
ENDBRANCH   2   3
ENDBRANCH   1   2
BRANCH   1  13
ATOM     13  C   UNL     1      53.843  50.156  13.232  1.00  0.00     0.000 C 
BRANCH  13  14
ATOM     14  C   UNL     1      55.286  50.681  13.065  1.00  0.00     0.000 C 
BRANCH  14  15
ATOM     15  C   UNL     1      55.994  51.013  14.392  1.00  0.00     0.000 C 
BRANCH  15  16
ATOM     16  C   UNL     1      56.987  49.945  14.877  1.00  0.00     0.000 C 
BRANCH  16  17
ATOM     17  C   UNL     1      57.405  48.965  13.769  1.00  0.00     0.000 C 
BRANCH  17  18
ATOM     18  C   UNL     1      56.869  47.542  14.012  1.00  0.00     0.000 C 
BRANCH  18  19
ATOM     19  C   UNL     1      55.941  47.464  15.235  1.00  0.00     0.000 C 
BRANCH  19  20
ATOM     20  C   UNL     1      54.665  46.665  14.917  1.00  0.00     0.006 C 
BRANCH  20  21
ATOM     21  C   UNL     1      54.276  45.719  16.061  1.00  0.00     0.053 C 
BRANCH  21  22
ATOM     22  C   UNL     1      55.350  44.718  16.348  1.00  0.00     0.041 C 
ATOM     23  O   UNL     1      55.775  43.961  15.435  1.00  0.00    -0.550 OA
ATOM     24  O   UNL     1      55.909  44.642  17.620  1.00  0.00    -0.550 OA
ENDBRANCH  21  22
ENDBRANCH  20  21
ENDBRANCH  19  20
ENDBRANCH  18  19
ENDBRANCH  17  18
ENDBRANCH  16  17
ENDBRANCH  15  16
ENDBRANCH  14  15
ENDBRANCH  13  14
ENDBRANCH   1  13
TORSDOF 20
ENDMDL
MODEL 7
REMARK VINA RESULT:    -3.396      7.806     11.420
REMARK INTER + INTRA:          -9.954
REMARK INTER:                  -7.308
REMARK INTRA:                  -2.646
REMARK UNBOUND:                -2.588
REMARK SMILES CCCCCCCCCCCCCCCCCCCCCC(=O)[O-]
REMARK SMILES IDX 12 1 11 2 10 3 9 4 8 5 7 6 6 7 5 8 4 9 3 10 2 11 1 12 13 13
REMARK SMILES IDX 14 14 15 15 16 16 17 17 18 18 19 19 20 20 21 21 22 22 23 23
REMARK SMILES IDX 24 24
REMARK H PARENT
REMARK Flexibility Score: inf
ROOT
ATOM      1  C   UNL     1      62.319  44.789  16.985  1.00  0.00     0.000 C 
ENDROOT
BRANCH   1   2
ATOM      2  C   UNL     1      61.712  45.765  18.007  1.00  0.00     0.000 C 
BRANCH   2   3
ATOM      3  C   UNL     1      60.212  45.491  18.229  1.00  0.00     0.000 C 
BRANCH   3   4
ATOM      4  C   UNL     1      59.569  44.688  17.084  1.00  0.00    -0.000 C 
BRANCH   4   5
ATOM      5  C   UNL     1      58.370  45.413  16.453  1.00  0.00    -0.000 C 
BRANCH   5   6
ATOM      6  C   UNL     1      57.407  44.443  15.738  1.00  0.00    -0.000 C 
BRANCH   6   7
ATOM      7  C   UNL     1      56.474  43.710  16.715  1.00  0.00    -0.000 C 
BRANCH   7   8
ATOM      8  C   UNL     1      56.998  42.296  17.023  1.00  0.00    -0.000 C 
BRANCH   8   9
ATOM      9  C   UNL     1      56.132  41.552  18.054  1.00  0.00    -0.000 C 
BRANCH   9  10
ATOM     10  C   UNL     1      56.769  41.519  19.452  1.00  0.00    -0.000 C 
BRANCH  10  11
ATOM     11  C   UNL     1      57.984  42.454  19.532  1.00  0.00    -0.003 C 
ATOM     12  C   UNL     1      57.691  43.667  20.410  1.00  0.00     0.004 C 
ENDBRANCH  10  11
ENDBRANCH   9  10
ENDBRANCH   8   9
ENDBRANCH   7   8
ENDBRANCH   6   7
ENDBRANCH   5   6
ENDBRANCH   4   5
ENDBRANCH   3   4
ENDBRANCH   2   3
ENDBRANCH   1   2
BRANCH   1  13
ATOM     13  C   UNL     1      63.797  45.114  16.674  1.00  0.00     0.000 C 
BRANCH  13  14
ATOM     14  C   UNL     1      64.387  44.253  15.536  1.00  0.00     0.000 C 
BRANCH  14  15
ATOM     15  C   UNL     1      63.348  43.401  14.785  1.00  0.00     0.000 C 
BRANCH  15  16
ATOM     16  C   UNL     1      63.604  41.887  14.826  1.00  0.00     0.000 C 
BRANCH  16  17
ATOM     17  C   UNL     1      64.594  41.474  15.927  1.00  0.00     0.000 C 
BRANCH  17  18
ATOM     18  C   UNL     1      63.950  40.557  16.982  1.00  0.00     0.000 C 
BRANCH  18  19
ATOM     19  C   UNL     1      64.358  40.932  18.416  1.00  0.00     0.000 C 
BRANCH  19  20
ATOM     20  C   UNL     1      63.138  40.957  19.354  1.00  0.00     0.006 C 
BRANCH  20  21
ATOM     21  C   UNL     1      62.648  42.386  19.627  1.00  0.00     0.053 C 
BRANCH  21  22
ATOM     22  C   UNL     1      61.554  42.415  20.648  1.00  0.00     0.041 C 
ATOM     23  O   UNL     1      61.154  43.513  21.120  1.00  0.00    -0.550 OA
ATOM     24  O   UNL     1      60.952  41.229  21.057  1.00  0.00    -0.550 OA
ENDBRANCH  21  22
ENDBRANCH  20  21
ENDBRANCH  19  20
ENDBRANCH  18  19
ENDBRANCH  17  18
ENDBRANCH  16  17
ENDBRANCH  15  16
ENDBRANCH  14  15
ENDBRANCH  13  14
ENDBRANCH   1  13
TORSDOF 20
ENDMDL
MODEL 8
REMARK VINA RESULT:    -3.361      2.039      2.609
REMARK INTER + INTRA:          -9.879
REMARK INTER:                  -6.935
REMARK INTRA:                  -2.943
REMARK UNBOUND:                -2.588
REMARK SMILES CCCCCCCCCCCCCCCCCCCCCC(=O)[O-]
REMARK SMILES IDX 12 1 11 2 10 3 9 4 8 5 7 6 6 7 5 8 4 9 3 10 2 11 1 12 13 13
REMARK SMILES IDX 14 14 15 15 16 16 17 17 18 18 19 19 20 20 21 21 22 22 23 23
REMARK SMILES IDX 24 24
REMARK H PARENT
REMARK Flexibility Score: inf
ROOT
ATOM      1  C   UNL     1      50.822  50.482  14.348  1.00  0.00     0.000 C 
ENDROOT
BRANCH   1   2
ATOM      2  C   UNL     1      50.904  49.089  14.995  1.00  0.00     0.000 C 
BRANCH   2   3
ATOM      3  C   UNL     1      50.492  47.981  14.007  1.00  0.00     0.000 C 
BRANCH   3   4
ATOM      4  C   UNL     1      51.496  46.816  13.952  1.00  0.00    -0.000 C 
BRANCH   4   5
ATOM      5  C   UNL     1      51.846  46.269  15.344  1.00  0.00    -0.000 C 
BRANCH   5   6
ATOM      6  C   UNL     1      50.633  45.626  16.044  1.00  0.00    -0.000 C 
BRANCH   6   7
ATOM      7  C   UNL     1      50.112  44.384  15.303  1.00  0.00    -0.000 C 
BRANCH   7   8
ATOM      8  C   UNL     1      49.839  43.230  16.283  1.00  0.00    -0.000 C 
BRANCH   8   9
ATOM      9  C   UNL     1      48.347  42.868  16.376  1.00  0.00    -0.000 C 
BRANCH   9  10
ATOM     10  C   UNL     1      47.426  44.063  16.084  1.00  0.00    -0.000 C 
BRANCH  10  11
ATOM     11  C   UNL     1      46.716  43.901  14.733  1.00  0.00    -0.003 C 
ATOM     12  C   UNL     1      46.766  42.453  14.253  1.00  0.00     0.004 C 
ENDBRANCH  10  11
ENDBRANCH   9  10
ENDBRANCH   8   9
ENDBRANCH   7   8
ENDBRANCH   6   7
ENDBRANCH   5   6
ENDBRANCH   4   5
ENDBRANCH   3   4
ENDBRANCH   2   3
ENDBRANCH   1   2
BRANCH   1  13
ATOM     13  C   UNL     1      49.697  50.571  13.294  1.00  0.00     0.000 C 
BRANCH  13  14
ATOM     14  C   UNL     1      50.174  51.122  11.932  1.00  0.00     0.000 C 
BRANCH  14  15
ATOM     15  C   UNL     1      50.540  50.035  10.906  1.00  0.00     0.000 C 
BRANCH  15  16
ATOM     16  C   UNL     1      52.020  49.620  10.906  1.00  0.00     0.000 C 
BRANCH  16  17
ATOM     17  C   UNL     1      52.975  50.800  11.150  1.00  0.00     0.000 C 
BRANCH  17  18
ATOM     18  C   UNL     1      53.898  50.566  12.360  1.00  0.00     0.000 C 
BRANCH  18  19
ATOM     19  C   UNL     1      53.955  49.088  12.779  1.00  0.00     0.000 C 
BRANCH  19  20
ATOM     20  C   UNL     1      55.070  48.844  13.811  1.00  0.00     0.006 C 
BRANCH  20  21
ATOM     21  C   UNL     1      54.546  48.901  15.253  1.00  0.00     0.053 C 
BRANCH  21  22
ATOM     22  C   UNL     1      54.724  50.257  15.858  1.00  0.00     0.041 C 
ATOM     23  O   UNL     1      53.748  50.850  16.391  1.00  0.00    -0.550 OA
ATOM     24  O   UNL     1      55.980  50.859  15.862  1.00  0.00    -0.550 OA
ENDBRANCH  21  22
ENDBRANCH  20  21
ENDBRANCH  19  20
ENDBRANCH  18  19
ENDBRANCH  17  18
ENDBRANCH  16  17
ENDBRANCH  15  16
ENDBRANCH  14  15
ENDBRANCH  13  14
ENDBRANCH   1  13
TORSDOF 20
ENDMDL
MODEL 9
REMARK VINA RESULT:    -3.320      3.205      6.791
REMARK INTER + INTRA:          -9.790
REMARK INTER:                  -6.288
REMARK INTRA:                  -3.503
REMARK UNBOUND:                -2.588
REMARK SMILES CCCCCCCCCCCCCCCCCCCCCC(=O)[O-]
REMARK SMILES IDX 12 1 11 2 10 3 9 4 8 5 7 6 6 7 5 8 4 9 3 10 2 11 1 12 13 13
REMARK SMILES IDX 14 14 15 15 16 16 17 17 18 18 19 19 20 20 21 21 22 22 23 23
REMARK SMILES IDX 24 24
REMARK H PARENT
REMARK Flexibility Score: inf
ROOT
ATOM      1  C   UNL     1      53.161  49.254  16.591  1.00  0.00     0.000 C 
ENDROOT
BRANCH   1   2
ATOM      2  C   UNL     1      51.840  48.469  16.675  1.00  0.00     0.000 C 
BRANCH   2   3
ATOM      3  C   UNL     1      51.048  48.552  15.357  1.00  0.00     0.000 C 
BRANCH   3   4
ATOM      4  C   UNL     1      50.469  47.196  14.914  1.00  0.00    -0.000 C 
BRANCH   4   5
ATOM      5  C   UNL     1      51.238  46.581  13.735  1.00  0.00    -0.000 C 
BRANCH   5   6
ATOM      6  C   UNL     1      52.426  47.456  13.288  1.00  0.00    -0.000 C 
BRANCH   6   7
ATOM      7  C   UNL     1      52.061  48.406  12.137  1.00  0.00    -0.000 C 
BRANCH   7   8
ATOM      8  C   UNL     1      53.035  49.596  12.073  1.00  0.00    -0.000 C 
BRANCH   8   9
ATOM      9  C   UNL     1      54.281  49.394  12.952  1.00  0.00    -0.000 C 
BRANCH   9  10
ATOM     10  C   UNL     1      55.051  50.701  13.201  1.00  0.00    -0.000 C 
BRANCH  10  11
ATOM     11  C   UNL     1      56.123  50.518  14.283  1.00  0.00    -0.003 C 
ATOM     12  C   UNL     1      57.377  49.862  13.711  1.00  0.00     0.004 C 
ENDBRANCH  10  11
ENDBRANCH   9  10
ENDBRANCH   8   9
ENDBRANCH   7   8
ENDBRANCH   6   7
ENDBRANCH   5   6
ENDBRANCH   4   5
ENDBRANCH   3   4
ENDBRANCH   2   3
ENDBRANCH   1   2
BRANCH   1  13
ATOM     13  C   UNL     1      54.395  48.327  16.658  1.00  0.00     0.000 C 
BRANCH  13  14
ATOM     14  C   UNL     1      54.033  46.826  16.686  1.00  0.00     0.000 C 
BRANCH  14  15
ATOM     15  C   UNL     1      54.718  45.992  15.588  1.00  0.00     0.000 C 
BRANCH  15  16
ATOM     16  C   UNL     1      55.840  46.720  14.831  1.00  0.00     0.000 C 
BRANCH  16  17
ATOM     17  C   UNL     1      57.158  45.929  14.803  1.00  0.00     0.000 C 
BRANCH  17  18
ATOM     18  C   UNL     1      57.892  45.963  16.156  1.00  0.00     0.000 C 
BRANCH  18  19
ATOM     19  C   UNL     1      58.356  44.570  16.609  1.00  0.00     0.000 C 
BRANCH  19  20
ATOM     20  C   UNL     1      57.463  43.465  16.016  1.00  0.00     0.006 C 
BRANCH  20  21
ATOM     21  C   UNL     1      56.849  42.572  17.103  1.00  0.00     0.053 C 
BRANCH  21  22
ATOM     22  C   UNL     1      55.501  43.060  17.532  1.00  0.00     0.041 C 
ATOM     23  O   UNL     1      54.456  42.559  17.037  1.00  0.00    -0.550 OA
ATOM     24  O   UNL     1      55.396  44.050  18.504  1.00  0.00    -0.550 OA
ENDBRANCH  21  22
ENDBRANCH  20  21
ENDBRANCH  19  20
ENDBRANCH  18  19
ENDBRANCH  17  18
ENDBRANCH  16  17
ENDBRANCH  15  16
ENDBRANCH  14  15
ENDBRANCH  13  14
ENDBRANCH   1  13
TORSDOF 20
ENDMDL
