MODEL 1
REMARK VINA RESULT:    -7.504      0.000      0.000
REMARK INTER + INTRA:          -9.203
REMARK INTER:                  -9.039
REMARK INTRA:                  -0.164
REMARK UNBOUND:                -0.164
REMARK SMILES O=c1c(O)c(-c2ccc(O)c(O)c2)oc2cc(O)cc(O)c12
REMARK SMILES IDX 5 1 3 2 2 3 1 4 22 5 20 6 19 7 17 8 16 9 15 10 14 11 6 12
REMARK SMILES IDX 7 13 8 14 9 15 13 16 11 17 10 18 12 20 4 22 21 24 18 26
REMARK H PARENT 10 19 12 21 4 23 21 25 18 27
REMARK Flexibility Score: inf
ROOT
ATOM      1  C   UNL     1      26.867 -26.455  28.016  1.00  0.00     0.180 A 
ATOM      2  C   UNL     1      27.844 -25.765  27.278  1.00  0.00     0.208 A 
ATOM      3  C   UNL     1      27.451 -25.031  26.147  1.00  0.00     0.238 A 
ATOM      4  O   UNL     1      28.337 -24.460  25.459  1.00  0.00    -0.285 OA
ATOM      5  C   UNL     1      26.085 -24.981  25.778  1.00  0.00     0.111 A 
ATOM      6  C   UNL     1      25.569 -24.235  24.676  1.00  0.00     0.134 A 
ATOM      7  C   UNL     1      24.220 -24.365  24.326  1.00  0.00     0.093 A 
ATOM      8  C   UNL     1      23.354 -25.161  25.078  1.00  0.00     0.123 A 
ATOM      9  C   UNL     1      23.834 -25.845  26.192  1.00  0.00     0.094 A 
ATOM     10  C   UNL     1      25.184 -25.766  26.545  1.00  0.00     0.146 A 
ATOM     11  O   UNL     1      25.603 -26.443  27.607  1.00  0.00    -0.452 OA
ENDROOT
BRANCH   1  12
ATOM     12  C   UNL     1      27.200 -27.230  29.232  1.00  0.00     0.025 A 
ATOM     13  C   UNL     1      26.703 -26.861  30.494  1.00  0.00     0.016 A 
ATOM     14  C   UNL     1      27.011 -27.623  31.625  1.00  0.00     0.051 A 
ATOM     15  C   UNL     1      27.808 -28.768  31.510  1.00  0.00     0.157 A 
ATOM     16  C   UNL     1      27.982 -28.391  29.120  1.00  0.00     0.062 A 
ATOM     17  C   UNL     1      28.293 -29.156  30.250  1.00  0.00     0.158 A 
BRANCH  15  18
ATOM     18  O   UNL     1      28.115 -29.525  32.641  1.00  0.00    -0.504 OA
ATOM     19  H   UNL     1      27.509 -29.535  33.452  1.00  0.00     0.293 HD
ENDBRANCH  15  18
BRANCH  17  20
ATOM     20  O   UNL     1      29.083 -30.296  30.101  1.00  0.00    -0.504 OA
ATOM     21  H   UNL     1      29.504 -30.766  30.892  1.00  0.00     0.293 HD
ENDBRANCH  17  20
ENDBRANCH   1  12
BRANCH   2  22
ATOM     22  O   UNL     1      29.189 -25.845  27.646  1.00  0.00    -0.502 OA
ATOM     23  H   UNL     1      29.616 -26.705  27.969  1.00  0.00     0.293 HD
ENDBRANCH   2  22
BRANCH   6  24
ATOM     24  O   UNL     1      26.329 -23.341  23.916  1.00  0.00    -0.507 OA
ATOM     25  H   UNL     1      26.013 -22.895  23.068  1.00  0.00     0.293 HD
ENDBRANCH   6  24
BRANCH   8  26
ATOM     26  O   UNL     1      22.008 -25.271  24.733  1.00  0.00    -0.508 OA
ATOM     27  H   UNL     1      21.717 -25.711  23.868  1.00  0.00     0.293 HD
ENDBRANCH   8  26
TORSDOF 6
ENDMDL
MODEL 2
REMARK VINA RESULT:    -7.269      1.916      3.284
REMARK INTER + INTRA:          -8.920
REMARK INTER:                  -9.128
REMARK INTRA:                   0.208
REMARK UNBOUND:                -0.164
REMARK SMILES O=c1c(O)c(-c2ccc(O)c(O)c2)oc2cc(O)cc(O)c12
REMARK SMILES IDX 5 1 3 2 2 3 1 4 22 5 20 6 19 7 17 8 16 9 15 10 14 11 6 12
REMARK SMILES IDX 7 13 8 14 9 15 13 16 11 17 10 18 12 20 4 22 21 24 18 26
REMARK H PARENT 10 19 12 21 4 23 21 25 18 27
REMARK Flexibility Score: inf
ROOT
ATOM      1  C   UNL     1      25.178 -26.001  27.859  1.00  0.00     0.180 A 
ATOM      2  C   UNL     1      24.108 -25.349  28.495  1.00  0.00     0.208 A 
ATOM      3  C   UNL     1      23.325 -24.447  27.756  1.00  0.00     0.238 A 
ATOM      4  O   UNL     1      22.402 -23.825  28.344  1.00  0.00    -0.285 OA
ATOM      5  C   UNL     1      23.611 -24.222  26.388  1.00  0.00     0.111 A 
ATOM      6  C   UNL     1      22.859 -23.360  25.533  1.00  0.00     0.134 A 
ATOM      7  C   UNL     1      23.311 -23.113  24.232  1.00  0.00     0.093 A 
ATOM      8  C   UNL     1      24.452 -23.746  23.733  1.00  0.00     0.123 A 
ATOM      9  C   UNL     1      25.159 -24.634  24.539  1.00  0.00     0.094 A 
ATOM     10  C   UNL     1      24.754 -24.874  25.855  1.00  0.00     0.146 A 
ATOM     11  O   UNL     1      25.462 -25.719  26.593  1.00  0.00    -0.452 OA
ENDROOT
BRANCH   1  12
ATOM     12  C   UNL     1      26.032 -26.983  28.565  1.00  0.00     0.025 A 
ATOM     13  C   UNL     1      27.423 -27.024  28.361  1.00  0.00     0.016 A 
ATOM     14  C   UNL     1      28.212 -27.943  29.058  1.00  0.00     0.051 A 
ATOM     15  C   UNL     1      27.628 -28.823  29.977  1.00  0.00     0.157 A 
ATOM     16  C   UNL     1      25.455 -27.854  29.503  1.00  0.00     0.062 A 
ATOM     17  C   UNL     1      26.242 -28.776  30.202  1.00  0.00     0.158 A 
BRANCH  15  18
ATOM     18  O   UNL     1      28.418 -29.740  30.668  1.00  0.00    -0.504 OA
ATOM     19  H   UNL     1      28.905 -30.488  30.189  1.00  0.00     0.293 HD
ENDBRANCH  15  18
BRANCH  17  20
ATOM     20  O   UNL     1      25.631 -29.634  31.116  1.00  0.00    -0.504 OA
ATOM     21  H   UNL     1      26.028 -29.820  32.029  1.00  0.00     0.293 HD
ENDBRANCH  17  20
ENDBRANCH   1  12
BRANCH   2  22
ATOM     22  O   UNL     1      23.856 -25.569  29.851  1.00  0.00    -0.502 OA
ATOM     23  H   UNL     1      23.900 -24.828  30.541  1.00  0.00     0.293 HD
ENDBRANCH   2  22
BRANCH   6  24
ATOM     24  O   UNL     1      21.656 -22.751  25.903  1.00  0.00    -0.507 OA
ATOM     25  H   UNL     1      21.518 -21.755  25.986  1.00  0.00     0.293 HD
ENDBRANCH   6  24
BRANCH   8  26
ATOM     26  O   UNL     1      24.886 -23.506  22.430  1.00  0.00    -0.508 OA
ATOM     27  H   UNL     1      24.651 -24.132  21.670  1.00  0.00     0.293 HD
ENDBRANCH   8  26
TORSDOF 6
ENDMDL
MODEL 3
REMARK VINA RESULT:    -7.239      1.261      2.897
REMARK INTER + INTRA:          -8.884
REMARK INTER:                  -8.609
REMARK INTRA:                  -0.276
REMARK UNBOUND:                -0.164
REMARK SMILES O=c1c(O)c(-c2ccc(O)c(O)c2)oc2cc(O)cc(O)c12
REMARK SMILES IDX 5 1 3 2 2 3 1 4 22 5 20 6 19 7 17 8 16 9 15 10 14 11 6 12
REMARK SMILES IDX 7 13 8 14 9 15 13 16 11 17 10 18 12 20 4 22 21 24 18 26
REMARK H PARENT 10 19 12 21 4 23 21 25 18 27
REMARK Flexibility Score: inf
ROOT
ATOM      1  C   UNL     1      26.291 -26.279  27.957  1.00  0.00     0.180 A 
ATOM      2  C   UNL     1      24.991 -26.453  27.451  1.00  0.00     0.208 A 
ATOM      3  C   UNL     1      24.625 -25.788  26.270  1.00  0.00     0.238 A 
ATOM      4  O   UNL     1      23.444 -25.905  25.851  1.00  0.00    -0.285 OA
ATOM      5  C   UNL     1      25.568 -24.971  25.600  1.00  0.00     0.111 A 
ATOM      6  C   UNL     1      25.318 -24.283  24.374  1.00  0.00     0.134 A 
ATOM      7  C   UNL     1      26.280 -23.399  23.871  1.00  0.00     0.093 A 
ATOM      8  C   UNL     1      27.508 -23.228  24.514  1.00  0.00     0.123 A 
ATOM      9  C   UNL     1      27.785 -23.941  25.678  1.00  0.00     0.094 A 
ATOM     10  C   UNL     1      26.830 -24.803  26.225  1.00  0.00     0.146 A 
ATOM     11  O   UNL     1      27.131 -25.454  27.342  1.00  0.00    -0.452 OA
ENDROOT
BRANCH   1  12
ATOM     12  C   UNL     1      26.757 -26.966  29.182  1.00  0.00     0.025 A 
ATOM     13  C   UNL     1      26.370 -26.527  30.460  1.00  0.00     0.016 A 
ATOM     14  C   UNL     1      26.802 -27.206  31.602  1.00  0.00     0.051 A 
ATOM     15  C   UNL     1      27.615 -28.340  31.485  1.00  0.00     0.157 A 
ATOM     16  C   UNL     1      27.555 -28.116  29.069  1.00  0.00     0.062 A 
ATOM     17  C   UNL     1      27.990 -28.799  30.211  1.00  0.00     0.158 A 
BRANCH  15  18
ATOM     18  O   UNL     1      28.046 -29.014  32.627  1.00  0.00    -0.504 OA
ATOM     19  H   UNL     1      27.991 -30.023  32.700  1.00  0.00     0.293 HD
ENDBRANCH  15  18
BRANCH  17  20
ATOM     20  O   UNL     1      28.793 -29.930  30.060  1.00  0.00    -0.504 OA
ATOM     21  H   UNL     1      29.242 -30.381  30.848  1.00  0.00     0.293 HD
ENDBRANCH  17  20
ENDBRANCH   1  12
BRANCH   2  22
ATOM     22  O   UNL     1      24.069 -27.247  28.138  1.00  0.00    -0.502 OA
ATOM     23  H   UNL     1      24.019 -27.272  29.150  1.00  0.00     0.293 HD
ENDBRANCH   2  22
BRANCH   6  24
ATOM     24  O   UNL     1      24.163 -24.452  23.606  1.00  0.00    -0.507 OA
ATOM     25  H   UNL     1      23.870 -23.835  22.864  1.00  0.00     0.293 HD
ENDBRANCH   6  24
BRANCH   8  26
ATOM     26  O   UNL     1      28.466 -22.358  23.997  1.00  0.00    -0.508 OA
ATOM     27  H   UNL     1      29.073 -22.631  23.234  1.00  0.00     0.293 HD
ENDBRANCH   8  26
TORSDOF 6
ENDMDL
MODEL 4
REMARK VINA RESULT:    -7.182      4.846      7.847
REMARK INTER + INTRA:          -8.815
REMARK INTER:                  -8.492
REMARK INTRA:                  -0.323
REMARK UNBOUND:                -0.164
REMARK SMILES O=c1c(O)c(-c2ccc(O)c(O)c2)oc2cc(O)cc(O)c12
REMARK SMILES IDX 5 1 3 2 2 3 1 4 22 5 20 6 19 7 17 8 16 9 15 10 14 11 6 12
REMARK SMILES IDX 7 13 8 14 9 15 13 16 11 17 10 18 12 20 4 22 21 24 18 26
REMARK H PARENT 10 19 12 21 4 23 21 25 18 27
REMARK Flexibility Score: inf
ROOT
ATOM      1  C   UNL     1      24.318 -21.143  26.302  1.00  0.00     0.180 A 
ATOM      2  C   UNL     1      24.915 -21.360  25.048  1.00  0.00     0.208 A 
ATOM      3  C   UNL     1      24.856 -22.643  24.479  1.00  0.00     0.238 A 
ATOM      4  O   UNL     1      25.437 -22.844  23.381  1.00  0.00    -0.285 OA
ATOM      5  C   UNL     1      24.187 -23.687  25.163  1.00  0.00     0.111 A 
ATOM      6  C   UNL     1      24.031 -25.015  24.662  1.00  0.00     0.134 A 
ATOM      7  C   UNL     1      23.467 -26.000  25.481  1.00  0.00     0.093 A 
ATOM      8  C   UNL     1      22.994 -25.691  26.758  1.00  0.00     0.123 A 
ATOM      9  C   UNL     1      23.086 -24.385  27.233  1.00  0.00     0.094 A 
ATOM     10  C   UNL     1      23.679 -23.387  26.453  1.00  0.00     0.146 A 
ATOM     11  O   UNL     1      23.757 -22.159  26.949  1.00  0.00    -0.452 OA
ENDROOT
BRANCH   1  12
ATOM     12  C   UNL     1      24.319 -19.814  26.954  1.00  0.00     0.025 A 
ATOM     13  C   UNL     1      25.355 -19.423  27.819  1.00  0.00     0.016 A 
ATOM     14  C   UNL     1      25.347 -18.153  28.404  1.00  0.00     0.051 A 
ATOM     15  C   UNL     1      24.313 -17.253  28.123  1.00  0.00     0.157 A 
ATOM     16  C   UNL     1      23.295 -18.899  26.660  1.00  0.00     0.062 A 
ATOM     17  C   UNL     1      23.283 -17.627  27.243  1.00  0.00     0.158 A 
BRANCH  15  18
ATOM     18  O   UNL     1      24.306 -15.988  28.709  1.00  0.00    -0.504 OA
ATOM     19  H   UNL     1      23.685 -15.762  29.477  1.00  0.00     0.293 HD
ENDBRANCH  15  18
BRANCH  17  20
ATOM     20  O   UNL     1      22.242 -16.750  26.937  1.00  0.00    -0.504 OA
ATOM     21  H   UNL     1      22.241 -15.787  27.249  1.00  0.00     0.293 HD
ENDBRANCH  17  20
ENDBRANCH   1  12
BRANCH   2  22
ATOM     22  O   UNL     1      25.587 -20.322  24.400  1.00  0.00    -0.502 OA
ATOM     23  H   UNL     1      26.595 -20.305  24.297  1.00  0.00     0.293 HD
ENDBRANCH   2  22
BRANCH   6  24
ATOM     24  O   UNL     1      24.387 -25.407  23.367  1.00  0.00    -0.507 OA
ATOM     25  H   UNL     1      25.328 -25.605  23.065  1.00  0.00     0.293 HD
ENDBRANCH   6  24
BRANCH   8  26
ATOM     26  O   UNL     1      22.418 -26.674  27.561  1.00  0.00    -0.508 OA
ATOM     27  H   UNL     1      22.782 -26.886  28.481  1.00  0.00     0.293 HD
ENDBRANCH   8  26
TORSDOF 6
ENDMDL
MODEL 5
REMARK VINA RESULT:    -7.169      5.087      8.130
REMARK INTER + INTRA:          -8.799
REMARK INTER:                  -8.466
REMARK INTRA:                  -0.333
REMARK UNBOUND:                -0.164
REMARK SMILES O=c1c(O)c(-c2ccc(O)c(O)c2)oc2cc(O)cc(O)c12
REMARK SMILES IDX 5 1 3 2 2 3 1 4 22 5 20 6 19 7 17 8 16 9 15 10 14 11 6 12
REMARK SMILES IDX 7 13 8 14 9 15 13 16 11 17 10 18 12 20 4 22 21 24 18 26
REMARK H PARENT 10 19 12 21 4 23 21 25 18 27
REMARK Flexibility Score: inf
ROOT
ATOM      1  C   UNL     1      23.756 -21.409  26.831  1.00  0.00     0.180 A 
ATOM      2  C   UNL     1      23.137 -22.291  27.733  1.00  0.00     0.208 A 
ATOM      3  C   UNL     1      22.999 -23.643  27.377  1.00  0.00     0.238 A 
ATOM      4  O   UNL     1      22.396 -24.417  28.165  1.00  0.00    -0.285 OA
ATOM      5  C   UNL     1      23.496 -24.098  26.132  1.00  0.00     0.111 A 
ATOM      6  C   UNL     1      23.447 -25.454  25.686  1.00  0.00     0.134 A 
ATOM      7  C   UNL     1      23.850 -25.766  24.383  1.00  0.00     0.093 A 
ATOM      8  C   UNL     1      24.362 -24.784  23.531  1.00  0.00     0.123 A 
ATOM      9  C   UNL     1      24.470 -23.469  23.978  1.00  0.00     0.094 A 
ATOM     10  C   UNL     1      24.041 -23.119  25.262  1.00  0.00     0.146 A 
ATOM     11  O   UNL     1      24.152 -21.853  25.644  1.00  0.00    -0.452 OA
ENDROOT
BRANCH   1  12
ATOM     12  C   UNL     1      23.959 -19.977  27.145  1.00  0.00     0.025 A 
ATOM     13  C   UNL     1      25.121 -19.527  27.796  1.00  0.00     0.016 A 
ATOM     14  C   UNL     1      25.302 -18.167  28.060  1.00  0.00     0.051 A 
ATOM     15  C   UNL     1      24.333 -17.236  27.667  1.00  0.00     0.157 A 
ATOM     16  C   UNL     1      23.000 -19.036  26.735  1.00  0.00     0.062 A 
ATOM     17  C   UNL     1      23.178 -17.673  26.998  1.00  0.00     0.158 A 
BRANCH  15  18
ATOM     18  O   UNL     1      24.516 -15.879  27.934  1.00  0.00    -0.504 OA
ATOM     19  H   UNL     1      24.975 -15.266  27.271  1.00  0.00     0.293 HD
ENDBRANCH  15  18
BRANCH  17  20
ATOM     20  O   UNL     1      22.198 -16.770  26.587  1.00  0.00    -0.504 OA
ATOM     21  H   UNL     1      22.030 -15.899  27.076  1.00  0.00     0.293 HD
ENDBRANCH  17  20
ENDBRANCH   1  12
BRANCH   2  22
ATOM     22  O   UNL     1      22.634 -21.818  28.947  1.00  0.00    -0.502 OA
ATOM     23  H   UNL     1      23.221 -21.673  29.761  1.00  0.00     0.293 HD
ENDBRANCH   2  22
BRANCH   6  24
ATOM     24  O   UNL     1      23.038 -26.524  26.487  1.00  0.00    -0.507 OA
ATOM     25  H   UNL     1      23.624 -27.303  26.747  1.00  0.00     0.293 HD
ENDBRANCH   6  24
BRANCH   8  26
ATOM     26  O   UNL     1      24.776 -25.107  22.240  1.00  0.00    -0.508 OA
ATOM     27  H   UNL     1      25.371 -25.906  22.060  1.00  0.00     0.293 HD
ENDBRANCH   8  26
TORSDOF 6
ENDMDL
MODEL 6
REMARK VINA RESULT:    -7.024      5.352      8.471
REMARK INTER + INTRA:          -8.625
REMARK INTER:                  -8.358
REMARK INTRA:                  -0.268
REMARK UNBOUND:                -0.164
REMARK SMILES O=c1c(O)c(-c2ccc(O)c(O)c2)oc2cc(O)cc(O)c12
REMARK SMILES IDX 5 1 3 2 2 3 1 4 22 5 20 6 19 7 17 8 16 9 15 10 14 11 6 12
REMARK SMILES IDX 7 13 8 14 9 15 13 16 11 17 10 18 12 20 4 22 21 24 18 26
REMARK H PARENT 10 19 12 21 4 23 21 25 18 27
REMARK Flexibility Score: inf
ROOT
ATOM      1  C   UNL     1      23.746 -20.992  26.285  1.00  0.00     0.180 A 
ATOM      2  C   UNL     1      22.888 -21.918  25.666  1.00  0.00     0.208 A 
ATOM      3  C   UNL     1      23.445 -22.998  24.963  1.00  0.00     0.238 A 
ATOM      4  O   UNL     1      22.673 -23.793  24.367  1.00  0.00    -0.285 OA
ATOM      5  C   UNL     1      24.852 -23.148  24.901  1.00  0.00     0.111 A 
ATOM      6  C   UNL     1      25.524 -24.227  24.251  1.00  0.00     0.134 A 
ATOM      7  C   UNL     1      26.919 -24.204  24.140  1.00  0.00     0.093 A 
ATOM      8  C   UNL     1      27.671 -23.175  24.713  1.00  0.00     0.123 A 
ATOM      9  C   UNL     1      27.028 -22.149  25.401  1.00  0.00     0.094 A 
ATOM     10  C   UNL     1      25.634 -22.125  25.497  1.00  0.00     0.146 A 
ATOM     11  O   UNL     1      25.061 -21.123  26.153  1.00  0.00    -0.452 OA
ENDROOT
BRANCH   1  12
ATOM     12  C   UNL     1      23.233 -19.842  27.063  1.00  0.00     0.025 A 
ATOM     13  C   UNL     1      23.279 -19.830  28.468  1.00  0.00     0.016 A 
ATOM     14  C   UNL     1      22.811 -18.722  29.181  1.00  0.00     0.051 A 
ATOM     15  C   UNL     1      22.305 -17.607  28.502  1.00  0.00     0.157 A 
ATOM     16  C   UNL     1      22.743 -18.713  26.387  1.00  0.00     0.062 A 
ATOM     17  C   UNL     1      22.274 -17.602  27.098  1.00  0.00     0.158 A 
BRANCH  15  18
ATOM     18  O   UNL     1      21.837 -16.505  29.217  1.00  0.00    -0.504 OA
ATOM     19  H   UNL     1      20.905 -16.486  29.612  1.00  0.00     0.293 HD
ENDBRANCH  15  18
BRANCH  17  20
ATOM     20  O   UNL     1      21.782 -16.503  26.392  1.00  0.00    -0.504 OA
ATOM     21  H   UNL     1      20.797 -16.392  26.188  1.00  0.00     0.293 HD
ENDBRANCH  17  20
ENDBRANCH   1  12
BRANCH   2  22
ATOM     22  O   UNL     1      21.504 -21.739  25.722  1.00  0.00    -0.502 OA
ATOM     23  H   UNL     1      20.924 -22.187  26.422  1.00  0.00     0.293 HD
ENDBRANCH   2  22
BRANCH   6  24
ATOM     24  O   UNL     1      24.874 -25.348  23.726  1.00  0.00    -0.507 OA
ATOM     25  H   UNL     1      24.170 -25.319  23.005  1.00  0.00     0.293 HD
ENDBRANCH   6  24
BRANCH   8  26
ATOM     26  O   UNL     1      29.061 -23.168  24.611  1.00  0.00    -0.508 OA
ATOM     27  H   UNL     1      29.605 -24.012  24.739  1.00  0.00     0.293 HD
ENDBRANCH   8  26
TORSDOF 6
ENDMDL
MODEL 7
REMARK VINA RESULT:    -6.987      1.676      7.104
REMARK INTER + INTRA:          -8.580
REMARK INTER:                  -8.273
REMARK INTRA:                  -0.307
REMARK UNBOUND:                -0.164
REMARK SMILES O=c1c(O)c(-c2ccc(O)c(O)c2)oc2cc(O)cc(O)c12
REMARK SMILES IDX 5 1 3 2 2 3 1 4 22 5 20 6 19 7 17 8 16 9 15 10 14 11 6 12
REMARK SMILES IDX 7 13 8 14 9 15 13 16 11 17 10 18 12 20 4 22 21 24 18 26
REMARK H PARENT 10 19 12 21 4 23 21 25 18 27
REMARK Flexibility Score: inf
ROOT
ATOM      1  C   UNL     1      25.486 -25.921  27.803  1.00  0.00     0.180 A 
ATOM      2  C   UNL     1      24.839 -25.278  28.873  1.00  0.00     0.208 A 
ATOM      3  C   UNL     1      25.142 -25.672  30.187  1.00  0.00     0.238 A 
ATOM      4  O   UNL     1      24.520 -25.131  31.138  1.00  0.00    -0.285 OA
ATOM      5  C   UNL     1      26.099 -26.690  30.414  1.00  0.00     0.111 A 
ATOM      6  C   UNL     1      26.512 -27.140  31.705  1.00  0.00     0.134 A 
ATOM      7  C   UNL     1      27.367 -28.243  31.809  1.00  0.00     0.093 A 
ATOM      8  C   UNL     1      27.876 -28.872  30.670  1.00  0.00     0.123 A 
ATOM      9  C   UNL     1      27.526 -28.402  29.407  1.00  0.00     0.094 A 
ATOM     10  C   UNL     1      26.645 -27.326  29.269  1.00  0.00     0.146 A 
ATOM     11  O   UNL     1      26.329 -26.917  28.047  1.00  0.00    -0.452 OA
ENDROOT
BRANCH   1  12
ATOM     12  C   UNL     1      25.237 -25.544  26.393  1.00  0.00     0.025 A 
ATOM     13  C   UNL     1      24.130 -26.045  25.686  1.00  0.00     0.016 A 
ATOM     14  C   UNL     1      23.902 -25.656  24.363  1.00  0.00     0.051 A 
ATOM     15  C   UNL     1      24.766 -24.752  23.733  1.00  0.00     0.157 A 
ATOM     16  C   UNL     1      26.088 -24.622  25.763  1.00  0.00     0.062 A 
ATOM     17  C   UNL     1      25.863 -24.230  24.438  1.00  0.00     0.158 A 
BRANCH  15  18
ATOM     18  O   UNL     1      24.536 -24.368  22.412  1.00  0.00    -0.504 OA
ATOM     19  H   UNL     1      23.631 -24.031  22.108  1.00  0.00     0.293 HD
ENDBRANCH  15  18
BRANCH  17  20
ATOM     20  O   UNL     1      26.738 -23.323  23.841  1.00  0.00    -0.504 OA
ATOM     21  H   UNL     1      26.423 -22.632  23.172  1.00  0.00     0.293 HD
ENDBRANCH  17  20
ENDBRANCH   1  12
BRANCH   2  22
ATOM     22  O   UNL     1      23.883 -24.291  28.626  1.00  0.00    -0.502 OA
ATOM     23  H   UNL     1      23.217 -24.354  27.864  1.00  0.00     0.293 HD
ENDBRANCH   2  22
BRANCH   6  24
ATOM     24  O   UNL     1      26.135 -26.526  32.903  1.00  0.00    -0.507 OA
ATOM     25  H   UNL     1      26.694 -25.852  33.404  1.00  0.00     0.293 HD
ENDBRANCH   6  24
BRANCH   8  26
ATOM     26  O   UNL     1      28.740 -29.959  30.784  1.00  0.00    -0.508 OA
ATOM     27  H   UNL     1      28.855 -30.626  30.030  1.00  0.00     0.293 HD
ENDBRANCH   8  26
TORSDOF 6
ENDMDL
MODEL 8
REMARK VINA RESULT:    -6.977      3.149      4.257
REMARK INTER + INTRA:          -8.569
REMARK INTER:                  -8.339
REMARK INTRA:                  -0.230
REMARK UNBOUND:                -0.164
REMARK SMILES O=c1c(O)c(-c2ccc(O)c(O)c2)oc2cc(O)cc(O)c12
REMARK SMILES IDX 5 1 3 2 2 3 1 4 22 5 20 6 19 7 17 8 16 9 15 10 14 11 6 12
REMARK SMILES IDX 7 13 8 14 9 15 13 16 11 17 10 18 12 20 4 22 21 24 18 26
REMARK H PARENT 10 19 12 21 4 23 21 25 18 27
REMARK Flexibility Score: inf
ROOT
ATOM      1  C   UNL     1      24.884 -25.082  27.826  1.00  0.00     0.180 A 
ATOM      2  C   UNL     1      23.885 -25.314  26.865  1.00  0.00     0.208 A 
ATOM      3  C   UNL     1      23.060 -24.249  26.469  1.00  0.00     0.238 A 
ATOM      4  O   UNL     1      22.132 -24.476  25.649  1.00  0.00    -0.285 OA
ATOM      5  C   UNL     1      23.255 -22.962  27.026  1.00  0.00     0.111 A 
ATOM      6  C   UNL     1      22.504 -21.801  26.668  1.00  0.00     0.134 A 
ATOM      7  C   UNL     1      22.694 -20.610  27.378  1.00  0.00     0.093 A 
ATOM      8  C   UNL     1      23.655 -20.519  28.388  1.00  0.00     0.123 A 
ATOM      9  C   UNL     1      24.434 -21.629  28.704  1.00  0.00     0.094 A 
ATOM     10  C   UNL     1      24.242 -22.843  28.038  1.00  0.00     0.146 A 
ATOM     11  O   UNL     1      24.999 -23.879  28.378  1.00  0.00    -0.452 OA
ENDROOT
BRANCH   1  12
ATOM     12  C   UNL     1      25.808 -26.148  28.275  1.00  0.00     0.025 A 
ATOM     13  C   UNL     1      27.168 -26.135  27.921  1.00  0.00     0.016 A 
ATOM     14  C   UNL     1      28.026 -27.139  28.378  1.00  0.00     0.051 A 
ATOM     15  C   UNL     1      27.542 -28.161  29.204  1.00  0.00     0.157 A 
ATOM     16  C   UNL     1      25.332 -27.163  29.120  1.00  0.00     0.062 A 
ATOM     17  C   UNL     1      26.189 -28.171  29.579  1.00  0.00     0.158 A 
BRANCH  15  18
ATOM     18  O   UNL     1      28.401 -29.162  29.656  1.00  0.00    -0.504 OA
ATOM     19  H   UNL     1      28.268 -29.609  30.555  1.00  0.00     0.293 HD
ENDBRANCH  15  18
BRANCH  17  20
ATOM     20  O   UNL     1      25.677 -29.171  30.407  1.00  0.00    -0.504 OA
ATOM     21  H   UNL     1      26.010 -29.308  31.353  1.00  0.00     0.293 HD
ENDBRANCH  17  20
ENDBRANCH   1  12
BRANCH   2  22
ATOM     22  O   UNL     1      23.695 -26.596  26.344  1.00  0.00    -0.502 OA
ATOM     23  H   UNL     1      23.714 -27.428  26.922  1.00  0.00     0.293 HD
ENDBRANCH   2  22
BRANCH   6  24
ATOM     24  O   UNL     1      21.586 -21.761  25.614  1.00  0.00    -0.507 OA
ATOM     25  H   UNL     1      21.823 -21.573  24.652  1.00  0.00     0.293 HD
ENDBRANCH   6  24
BRANCH   8  26
ATOM     26  O   UNL     1      23.849 -19.324  29.079  1.00  0.00    -0.508 OA
ATOM     27  H   UNL     1      24.767 -19.040  29.398  1.00  0.00     0.293 HD
ENDBRANCH   8  26
TORSDOF 6
ENDMDL
MODEL 9
REMARK VINA RESULT:    -6.950      5.075      8.441
REMARK INTER + INTRA:          -8.536
REMARK INTER:                  -8.400
REMARK INTRA:                  -0.136
REMARK UNBOUND:                -0.164
REMARK SMILES O=c1c(O)c(-c2ccc(O)c(O)c2)oc2cc(O)cc(O)c12
REMARK SMILES IDX 5 1 3 2 2 3 1 4 22 5 20 6 19 7 17 8 16 9 15 10 14 11 6 12
REMARK SMILES IDX 7 13 8 14 9 15 13 16 11 17 10 18 12 20 4 22 21 24 18 26
REMARK H PARENT 10 19 12 21 4 23 21 25 18 27
REMARK Flexibility Score: inf
ROOT
ATOM      1  C   UNL     1      26.336 -28.140  35.711  1.00  0.00     0.180 A 
ATOM      2  C   UNL     1      25.682 -26.971  35.284  1.00  0.00     0.208 A 
ATOM      3  C   UNL     1      25.733 -26.620  33.925  1.00  0.00     0.238 A 
ATOM      4  O   UNL     1      25.192 -25.545  33.558  1.00  0.00    -0.285 OA
ATOM      5  C   UNL     1      26.422 -27.450  33.008  1.00  0.00     0.111 A 
ATOM      6  C   UNL     1      26.505 -27.213  31.603  1.00  0.00     0.134 A 
ATOM      7  C   UNL     1      27.322 -28.028  30.812  1.00  0.00     0.093 A 
ATOM      8  C   UNL     1      28.010 -29.112  31.364  1.00  0.00     0.123 A 
ATOM      9  C   UNL     1      27.888 -29.388  32.724  1.00  0.00     0.094 A 
ATOM     10  C   UNL     1      27.109 -28.570  33.546  1.00  0.00     0.146 A 
ATOM     11  O   UNL     1      27.029 -28.862  34.839  1.00  0.00    -0.452 OA
ENDROOT
BRANCH   1  12
ATOM     12  C   UNL     1      26.306 -28.587  37.122  1.00  0.00     0.025 A 
ATOM     13  C   UNL     1      26.858 -27.804  38.150  1.00  0.00     0.016 A 
ATOM     14  C   UNL     1      26.796 -28.235  39.478  1.00  0.00     0.051 A 
ATOM     15  C   UNL     1      26.170 -29.446  39.799  1.00  0.00     0.157 A 
ATOM     16  C   UNL     1      25.662 -29.790  37.452  1.00  0.00     0.062 A 
ATOM     17  C   UNL     1      25.598 -30.226  38.781  1.00  0.00     0.158 A 
BRANCH  15  18
ATOM     18  O   UNL     1      26.112 -29.875  41.125  1.00  0.00    -0.504 OA
ATOM     19  H   UNL     1      25.804 -29.259  41.868  1.00  0.00     0.293 HD
ENDBRANCH  15  18
BRANCH  17  20
ATOM     20  O   UNL     1      24.961 -31.434  39.069  1.00  0.00    -0.504 OA
ATOM     21  H   UNL     1      25.198 -31.986  39.884  1.00  0.00     0.293 HD
ENDBRANCH  17  20
ENDBRANCH   1  12
BRANCH   2  22
ATOM     22  O   UNL     1      25.026 -26.155  36.208  1.00  0.00    -0.502 OA
ATOM     23  H   UNL     1      24.032 -26.228  36.391  1.00  0.00     0.293 HD
ENDBRANCH   2  22
BRANCH   6  24
ATOM     24  O   UNL     1      25.787 -26.215  30.937  1.00  0.00    -0.507 OA
ATOM     25  H   UNL     1      25.310 -25.450  31.391  1.00  0.00     0.293 HD
ENDBRANCH   6  24
BRANCH   8  26
ATOM     26  O   UNL     1      28.809 -29.929  30.566  1.00  0.00    -0.508 OA
ATOM     27  H   UNL     1      28.437 -30.401  29.752  1.00  0.00     0.293 HD
ENDBRANCH   8  26
TORSDOF 6
ENDMDL
