MODEL 1
REMARK VINA RESULT:    -5.534      0.000      0.000
REMARK INTER + INTRA:          -9.880
REMARK INTER:                  -9.416
REMARK INTRA:                  -0.464
REMARK UNBOUND:                -0.464
REMARK SMILES CCCCCCCCCCCCCC(=O)[O-]
REMARK SMILES IDX 8 1 9 2 10 3 11 4 12 5 13 6 14 7 15 8 16 9 7 10 6 11 5 12
REMARK SMILES IDX 4 13 3 14 2 15 1 16
REMARK H PARENT
REMARK Flexibility Score: inf
ROOT
ATOM      1  C   UNL     1      41.369  65.362  24.756  1.00  0.00     0.000 C 
ENDROOT
BRANCH   1   2
ATOM      2  C   UNL     1      41.908  63.930  24.591  1.00  0.00     0.000 C 
BRANCH   2   3
ATOM      3  C   UNL     1      42.342  63.306  25.929  1.00  0.00     0.000 C 
BRANCH   3   4
ATOM      4  C   UNL     1      43.013  61.935  25.749  1.00  0.00     0.000 C 
BRANCH   4   5
ATOM      5  C   UNL     1      44.394  61.856  26.423  1.00  0.00     0.006 C 
BRANCH   5   6
ATOM      6  C   UNL     1      45.537  62.101  25.429  1.00  0.00     0.053 C 
BRANCH   6   7
ATOM      7  C   UNL     1      46.593  62.992  26.010  1.00  0.00     0.041 C 
ATOM      8  O   UNL     1      47.522  63.432  25.282  1.00  0.00    -0.550 OA
ATOM      9  O   UNL     1      46.569  63.307  27.362  1.00  0.00    -0.550 OA
ENDBRANCH   6   7
ENDBRANCH   5   6
ENDBRANCH   4   5
ENDBRANCH   3   4
ENDBRANCH   2   3
ENDBRANCH   1   2
BRANCH   1  10
ATOM     10  C   UNL     1      41.233  66.102  23.417  1.00  0.00     0.000 C 
BRANCH  10  11
ATOM     11  C   UNL     1      39.830  66.703  23.262  1.00  0.00    -0.000 C 
BRANCH  11  12
ATOM     12  C   UNL     1      39.197  66.984  24.633  1.00  0.00    -0.000 C 
BRANCH  12  13
ATOM     13  C   UNL     1      37.686  67.249  24.543  1.00  0.00    -0.000 C 
BRANCH  13  14
ATOM     14  C   UNL     1      37.062  67.585  25.906  1.00  0.00    -0.000 C 
BRANCH  14  15
ATOM     15  C   UNL     1      35.533  67.639  25.811  1.00  0.00    -0.003 C 
ATOM     16  C   UNL     1      34.915  66.267  26.066  1.00  0.00     0.004 C 
ENDBRANCH  14  15
ENDBRANCH  13  14
ENDBRANCH  12  13
ENDBRANCH  11  12
ENDBRANCH  10  11
ENDBRANCH   1  10
TORSDOF 12
ENDMDL
MODEL 2
REMARK VINA RESULT:    -5.364      4.298      8.646
REMARK INTER + INTRA:          -9.591
REMARK INTER:                  -9.057
REMARK INTRA:                  -0.535
REMARK UNBOUND:                -0.464
REMARK SMILES CCCCCCCCCCCCCC(=O)[O-]
REMARK SMILES IDX 8 1 9 2 10 3 11 4 12 5 13 6 14 7 15 8 16 9 7 10 6 11 5 12
REMARK SMILES IDX 4 13 3 14 2 15 1 16
REMARK H PARENT
REMARK Flexibility Score: inf
ROOT
ATOM      1  C   UNL     1      39.736  66.596  23.154  1.00  0.00     0.000 C 
ENDROOT
BRANCH   1   2
ATOM      2  C   UNL     1      39.110  66.866  24.533  1.00  0.00     0.000 C 
BRANCH   2   3
ATOM      3  C   UNL     1      37.699  67.473  24.431  1.00  0.00     0.000 C 
BRANCH   3   4
ATOM      4  C   UNL     1      36.963  67.480  25.780  1.00  0.00     0.000 C 
BRANCH   4   5
ATOM      5  C   UNL     1      35.433  67.537  25.622  1.00  0.00     0.006 C 
BRANCH   5   6
ATOM      6  C   UNL     1      34.708  66.749  26.720  1.00  0.00     0.053 C 
BRANCH   6   7
ATOM      7  C   UNL     1      34.733  65.275  26.451  1.00  0.00     0.041 C 
ATOM      8  O   UNL     1      34.373  64.829  25.329  1.00  0.00    -0.550 OA
ATOM      9  O   UNL     1      35.121  64.393  27.450  1.00  0.00    -0.550 OA
ENDBRANCH   6   7
ENDBRANCH   5   6
ENDBRANCH   4   5
ENDBRANCH   3   4
ENDBRANCH   2   3
ENDBRANCH   1   2
BRANCH   1  10
ATOM     10  C   UNL     1      41.195  66.123  23.248  1.00  0.00     0.000 C 
BRANCH  10  11
ATOM     11  C   UNL     1      41.488  65.517  24.625  1.00  0.00    -0.000 C 
BRANCH  11  12
ATOM     12  C   UNL     1      41.803  64.017  24.512  1.00  0.00    -0.000 C 
BRANCH  12  13
ATOM     13  C   UNL     1      42.434  63.446  25.791  1.00  0.00    -0.000 C 
BRANCH  13  14
ATOM     14  C   UNL     1      42.797  61.960  25.659  1.00  0.00    -0.000 C 
BRANCH  14  15
ATOM     15  C   UNL     1      44.035  61.621  26.498  1.00  0.00    -0.003 C 
ATOM     16  C   UNL     1      45.290  62.266  25.914  1.00  0.00     0.004 C 
ENDBRANCH  14  15
ENDBRANCH  13  14
ENDBRANCH  12  13
ENDBRANCH  11  12
ENDBRANCH  10  11
ENDBRANCH   1  10
TORSDOF 12
ENDMDL
MODEL 3
REMARK VINA RESULT:    -5.360      5.683      7.299
REMARK INTER + INTRA:          -9.584
REMARK INTER:                  -9.069
REMARK INTRA:                  -0.515
REMARK UNBOUND:                -0.464
REMARK SMILES CCCCCCCCCCCCCC(=O)[O-]
REMARK SMILES IDX 8 1 9 2 10 3 11 4 12 5 13 6 14 7 15 8 16 9 7 10 6 11 5 12
REMARK SMILES IDX 4 13 3 14 2 15 1 16
REMARK H PARENT
REMARK Flexibility Score: inf
ROOT
ATOM      1  C   UNL     1      41.694  67.711  24.507  1.00  0.00     0.000 C 
ENDROOT
BRANCH   1   2
ATOM      2  C   UNL     1      42.660  68.764  23.937  1.00  0.00     0.000 C 
BRANCH   2   3
ATOM      3  C   UNL     1      43.127  69.773  25.001  1.00  0.00     0.000 C 
BRANCH   3   4
ATOM      4  C   UNL     1      43.940  70.930  24.399  1.00  0.00     0.000 C 
BRANCH   4   5
ATOM      5  C   UNL     1      43.609  72.288  25.042  1.00  0.00     0.006 C 
BRANCH   5   6
ATOM      6  C   UNL     1      42.778  73.181  24.113  1.00  0.00     0.053 C 
BRANCH   6   7
ATOM      7  C   UNL     1      41.567  73.727  24.807  1.00  0.00     0.041 C 
ATOM      8  O   UNL     1      41.483  73.685  26.063  1.00  0.00    -0.550 OA
ATOM      9  O   UNL     1      40.516  74.249  24.064  1.00  0.00    -0.550 OA
ENDBRANCH   6   7
ENDBRANCH   5   6
ENDBRANCH   4   5
ENDBRANCH   3   4
ENDBRANCH   2   3
ENDBRANCH   1   2
BRANCH   1  10
ATOM     10  C   UNL     1      41.231  66.698  23.450  1.00  0.00     0.000 C 
BRANCH  10  11
ATOM     11  C   UNL     1      39.702  66.699  23.319  1.00  0.00    -0.000 C 
BRANCH  11  12
ATOM     12  C   UNL     1      39.034  66.965  24.677  1.00  0.00    -0.000 C 
BRANCH  12  13
ATOM     13  C   UNL     1      37.577  67.433  24.538  1.00  0.00    -0.000 C 
BRANCH  13  14
ATOM     14  C   UNL     1      36.868  67.570  25.893  1.00  0.00    -0.000 C 
BRANCH  14  15
ATOM     15  C   UNL     1      35.345  67.509  25.723  1.00  0.00    -0.003 C 
ATOM     16  C   UNL     1      34.795  66.152  26.155  1.00  0.00     0.004 C 
ENDBRANCH  14  15
ENDBRANCH  13  14
ENDBRANCH  12  13
ENDBRANCH  11  12
ENDBRANCH  10  11
ENDBRANCH   1  10
TORSDOF 12
ENDMDL
MODEL 4
REMARK VINA RESULT:    -5.309      2.910      4.189
REMARK INTER + INTRA:          -9.497
REMARK INTER:                  -8.951
REMARK INTRA:                  -0.546
REMARK UNBOUND:                -0.464
REMARK SMILES CCCCCCCCCCCCCC(=O)[O-]
REMARK SMILES IDX 8 1 9 2 10 3 11 4 12 5 13 6 14 7 15 8 16 9 7 10 6 11 5 12
REMARK SMILES IDX 4 13 3 14 2 15 1 16
REMARK H PARENT
REMARK Flexibility Score: inf
ROOT
ATOM      1  C   UNL     1      41.690  65.221  24.399  1.00  0.00     0.000 C 
ENDROOT
BRANCH   1   2
ATOM      2  C   UNL     1      41.695  63.692  24.567  1.00  0.00     0.000 C 
BRANCH   2   3
ATOM      3  C   UNL     1      42.298  63.248  25.911  1.00  0.00     0.000 C 
BRANCH   3   4
ATOM      4  C   UNL     1      42.983  61.875  25.824  1.00  0.00     0.000 C 
BRANCH   4   5
ATOM      5  C   UNL     1      44.369  61.859  26.493  1.00  0.00     0.006 C 
BRANCH   5   6
ATOM      6  C   UNL     1      45.502  62.071  25.481  1.00  0.00     0.053 C 
BRANCH   6   7
ATOM      7  C   UNL     1      46.561  62.984  26.020  1.00  0.00     0.041 C 
ATOM      8  O   UNL     1      47.468  63.419  25.262  1.00  0.00    -0.550 OA
ATOM      9  O   UNL     1      46.566  63.326  27.366  1.00  0.00    -0.550 OA
ENDBRANCH   6   7
ENDBRANCH   5   6
ENDBRANCH   4   5
ENDBRANCH   3   4
ENDBRANCH   2   3
ENDBRANCH   1   2
BRANCH   1  10
ATOM     10  C   UNL     1      41.260  65.662  22.992  1.00  0.00     0.000 C 
BRANCH  10  11
ATOM     11  C   UNL     1      41.073  67.183  22.927  1.00  0.00    -0.000 C 
BRANCH  11  12
ATOM     12  C   UNL     1      41.678  67.867  24.162  1.00  0.00    -0.000 C 
BRANCH  12  13
ATOM     13  C   UNL     1      42.777  68.878  23.800  1.00  0.00    -0.000 C 
BRANCH  13  14
ATOM     14  C   UNL     1      43.252  69.695  25.011  1.00  0.00    -0.000 C 
BRANCH  14  15
ATOM     15  C   UNL     1      44.210  70.811  24.578  1.00  0.00    -0.003 C 
ATOM     16  C   UNL     1      43.548  72.182  24.689  1.00  0.00     0.004 C 
ENDBRANCH  14  15
ENDBRANCH  13  14
ENDBRANCH  12  13
ENDBRANCH  11  12
ENDBRANCH  10  11
ENDBRANCH   1  10
TORSDOF 12
ENDMDL
MODEL 5
REMARK VINA RESULT:    -5.297      4.392      8.846
REMARK INTER + INTRA:          -9.476
REMARK INTER:                  -8.991
REMARK INTRA:                  -0.485
REMARK UNBOUND:                -0.464
REMARK SMILES CCCCCCCCCCCCCC(=O)[O-]
REMARK SMILES IDX 8 1 9 2 10 3 11 4 12 5 13 6 14 7 15 8 16 9 7 10 6 11 5 12
REMARK SMILES IDX 4 13 3 14 2 15 1 16
REMARK H PARENT
REMARK Flexibility Score: inf
ROOT
ATOM      1  C   UNL     1      41.132  66.001  23.381  1.00  0.00     0.000 C 
ENDROOT
BRANCH   1   2
ATOM      2  C   UNL     1      39.740  66.651  23.295  1.00  0.00     0.000 C 
BRANCH   2   3
ATOM      3  C   UNL     1      39.157  66.983  24.680  1.00  0.00     0.000 C 
BRANCH   3   4
ATOM      4  C   UNL     1      37.682  67.407  24.612  1.00  0.00     0.000 C 
BRANCH   4   5
ATOM      5  C   UNL     1      36.927  67.147  25.928  1.00  0.00     0.006 C 
BRANCH   5   6
ATOM      6  C   UNL     1      35.407  67.248  25.752  1.00  0.00     0.053 C 
BRANCH   6   7
ATOM      7  C   UNL     1      34.730  65.938  26.018  1.00  0.00     0.041 C 
ATOM      8  O   UNL     1      33.901  65.474  25.192  1.00  0.00    -0.550 OA
ATOM      9  O   UNL     1      34.992  65.247  27.194  1.00  0.00    -0.550 OA
ENDBRANCH   6   7
ENDBRANCH   5   6
ENDBRANCH   4   5
ENDBRANCH   3   4
ENDBRANCH   2   3
ENDBRANCH   1   2
BRANCH   1  10
ATOM     10  C   UNL     1      41.387  65.322  24.735  1.00  0.00     0.000 C 
BRANCH  10  11
ATOM     11  C   UNL     1      41.776  63.850  24.546  1.00  0.00    -0.000 C 
BRANCH  11  12
ATOM     12  C   UNL     1      42.353  63.262  25.842  1.00  0.00    -0.000 C 
BRANCH  12  13
ATOM     13  C   UNL     1      43.011  61.890  25.629  1.00  0.00    -0.000 C 
BRANCH  13  14
ATOM     14  C   UNL     1      44.330  61.740  26.401  1.00  0.00    -0.000 C 
BRANCH  14  15
ATOM     15  C   UNL     1      45.518  62.214  25.556  1.00  0.00    -0.003 C 
ATOM     16  C   UNL     1      46.506  63.021  26.396  1.00  0.00     0.004 C 
ENDBRANCH  14  15
ENDBRANCH  13  14
ENDBRANCH  12  13
ENDBRANCH  11  12
ENDBRANCH  10  11
ENDBRANCH   1  10
TORSDOF 12
ENDMDL
MODEL 6
REMARK VINA RESULT:    -5.242      5.981      8.221
REMARK INTER + INTRA:          -9.384
REMARK INTER:                  -8.786
REMARK INTRA:                  -0.598
REMARK UNBOUND:                -0.464
REMARK SMILES CCCCCCCCCCCCCC(=O)[O-]
REMARK SMILES IDX 8 1 9 2 10 3 11 4 12 5 13 6 14 7 15 8 16 9 7 10 6 11 5 12
REMARK SMILES IDX 4 13 3 14 2 15 1 16
REMARK H PARENT
REMARK Flexibility Score: inf
ROOT
ATOM      1  C   UNL     1      41.814  68.044  24.187  1.00  0.00     0.000 C 
ENDROOT
BRANCH   1   2
ATOM      2  C   UNL     1      41.430  67.128  23.012  1.00  0.00     0.000 C 
BRANCH   2   3
ATOM      3  C   UNL     1      39.947  66.717  23.045  1.00  0.00     0.000 C 
BRANCH   3   4
ATOM      4  C   UNL     1      39.341  66.815  24.454  1.00  0.00     0.000 C 
BRANCH   4   5
ATOM      5  C   UNL     1      37.848  67.190  24.434  1.00  0.00     0.006 C 
BRANCH   5   6
ATOM      6  C   UNL     1      37.294  67.432  25.844  1.00  0.00     0.053 C 
BRANCH   6   7
ATOM      7  C   UNL     1      35.816  67.190  25.906  1.00  0.00     0.041 C 
ATOM      8  O   UNL     1      35.013  68.159  25.853  1.00  0.00    -0.550 OA
ATOM      9  O   UNL     1      35.329  65.899  26.058  1.00  0.00    -0.550 OA
ENDBRANCH   6   7
ENDBRANCH   5   6
ENDBRANCH   4   5
ENDBRANCH   3   4
ENDBRANCH   2   3
ENDBRANCH   1   2
BRANCH   1  10
ATOM     10  C   UNL     1      42.970  68.996  23.843  1.00  0.00     0.000 C 
BRANCH  10  11
ATOM     11  C   UNL     1      43.263  69.947  25.010  1.00  0.00    -0.000 C 
BRANCH  11  12
ATOM     12  C   UNL     1      44.031  71.188  24.530  1.00  0.00    -0.000 C 
BRANCH  12  13
ATOM     13  C   UNL     1      43.418  72.499  25.045  1.00  0.00    -0.000 C 
BRANCH  13  14
ATOM     14  C   UNL     1      42.591  73.227  23.975  1.00  0.00    -0.000 C 
BRANCH  14  15
ATOM     15  C   UNL     1      41.315  73.824  24.580  1.00  0.00    -0.003 C 
ATOM     16  C   UNL     1      41.366  73.804  26.106  1.00  0.00     0.004 C 
ENDBRANCH  14  15
ENDBRANCH  13  14
ENDBRANCH  12  13
ENDBRANCH  11  12
ENDBRANCH  10  11
ENDBRANCH   1  10
TORSDOF 12
ENDMDL
MODEL 7
REMARK VINA RESULT:    -5.228      1.749      3.710
REMARK INTER + INTRA:          -9.360
REMARK INTER:                  -8.701
REMARK INTRA:                  -0.659
REMARK UNBOUND:                -0.464
REMARK SMILES CCCCCCCCCCCCCC(=O)[O-]
REMARK SMILES IDX 8 1 9 2 10 3 11 4 12 5 13 6 14 7 15 8 16 9 7 10 6 11 5 12
REMARK SMILES IDX 4 13 3 14 2 15 1 16
REMARK H PARENT
REMARK Flexibility Score: inf
ROOT
ATOM      1  C   UNL     1      38.947  66.739  24.279  1.00  0.00     0.000 C 
ENDROOT
BRANCH   1   2
ATOM      2  C   UNL     1      39.956  67.135  25.371  1.00  0.00     0.000 C 
BRANCH   2   3
ATOM      3  C   UNL     1      41.391  66.690  25.037  1.00  0.00     0.000 C 
BRANCH   3   4
ATOM      4  C   UNL     1      41.460  65.229  24.568  1.00  0.00     0.000 C 
BRANCH   4   5
ATOM      5  C   UNL     1      41.995  64.280  25.656  1.00  0.00     0.006 C 
BRANCH   5   6
ATOM      6  C   UNL     1      42.129  62.838  25.151  1.00  0.00     0.053 C 
BRANCH   6   7
ATOM      7  C   UNL     1      43.190  62.087  25.897  1.00  0.00     0.041 C 
ATOM      8  O   UNL     1      42.871  61.168  26.697  1.00  0.00    -0.550 OA
ATOM      9  O   UNL     1      44.526  62.425  25.733  1.00  0.00    -0.550 OA
ENDBRANCH   6   7
ENDBRANCH   5   6
ENDBRANCH   4   5
ENDBRANCH   3   4
ENDBRANCH   2   3
ENDBRANCH   1   2
BRANCH   1  10
ATOM     10  C   UNL     1      37.607  67.479  24.414  1.00  0.00     0.000 C 
BRANCH  10  11
ATOM     11  C   UNL     1      37.034  67.325  25.828  1.00  0.00    -0.000 C 
BRANCH  11  12
ATOM     12  C   UNL     1      35.503  67.443  25.818  1.00  0.00    -0.000 C 
BRANCH  12  13
ATOM     13  C   UNL     1      34.816  66.292  26.570  1.00  0.00    -0.000 C 
BRANCH  13  14
ATOM     14  C   UNL     1      34.666  65.029  25.709  1.00  0.00    -0.000 C 
BRANCH  14  15
ATOM     15  C   UNL     1      34.714  63.765  26.577  1.00  0.00    -0.003 C 
ATOM     16  C   UNL     1      35.113  64.096  28.013  1.00  0.00     0.004 C 
ENDBRANCH  14  15
ENDBRANCH  13  14
ENDBRANCH  12  13
ENDBRANCH  11  12
ENDBRANCH  10  11
ENDBRANCH   1  10
TORSDOF 12
ENDMDL
MODEL 8
REMARK VINA RESULT:    -5.228      1.107      2.074
REMARK INTER + INTRA:          -9.360
REMARK INTER:                  -8.821
REMARK INTRA:                  -0.539
REMARK UNBOUND:                -0.464
REMARK SMILES CCCCCCCCCCCCCC(=O)[O-]
REMARK SMILES IDX 8 1 9 2 10 3 11 4 12 5 13 6 14 7 15 8 16 9 7 10 6 11 5 12
REMARK SMILES IDX 4 13 3 14 2 15 1 16
REMARK H PARENT
REMARK Flexibility Score: inf
ROOT
ATOM      1  C   UNL     1      40.817  67.024  23.696  1.00  0.00     0.000 C 
ENDROOT
BRANCH   1   2
ATOM      2  C   UNL     1      41.390  65.601  23.582  1.00  0.00     0.000 C 
BRANCH   2   3
ATOM      3  C   UNL     1      41.443  64.876  24.938  1.00  0.00     0.000 C 
BRANCH   3   4
ATOM      4  C   UNL     1      42.073  63.478  24.834  1.00  0.00     0.000 C 
BRANCH   4   5
ATOM      5  C   UNL     1      42.674  62.996  26.166  1.00  0.00     0.006 C 
BRANCH   5   6
ATOM      6  C   UNL     1      43.456  61.686  26.008  1.00  0.00     0.053 C 
BRANCH   6   7
ATOM      7  C   UNL     1      44.919  61.936  25.805  1.00  0.00     0.041 C 
ATOM      8  O   UNL     1      45.516  61.439  24.813  1.00  0.00    -0.550 OA
ATOM      9  O   UNL     1      45.630  62.689  26.730  1.00  0.00    -0.550 OA
ENDBRANCH   6   7
ENDBRANCH   5   6
ENDBRANCH   4   5
ENDBRANCH   3   4
ENDBRANCH   2   3
ENDBRANCH   1   2
BRANCH   1  10
ATOM     10  C   UNL     1      39.891  67.196  24.909  1.00  0.00     0.000 C 
BRANCH  10  11
ATOM     11  C   UNL     1      38.418  67.097  24.494  1.00  0.00    -0.000 C 
BRANCH  11  12
ATOM     12  C   UNL     1      37.490  67.285  25.704  1.00  0.00    -0.000 C 
BRANCH  12  13
ATOM     13  C   UNL     1      36.054  67.648  25.297  1.00  0.00    -0.000 C 
BRANCH  13  14
ATOM     14  C   UNL     1      35.005  67.097  26.275  1.00  0.00    -0.000 C 
BRANCH  14  15
ATOM     15  C   UNL     1      34.580  65.677  25.880  1.00  0.00    -0.003 C 
ATOM     16  C   UNL     1      34.895  64.678  26.990  1.00  0.00     0.004 C 
ENDBRANCH  14  15
ENDBRANCH  13  14
ENDBRANCH  12  13
ENDBRANCH  11  12
ENDBRANCH  10  11
ENDBRANCH   1  10
TORSDOF 12
ENDMDL
MODEL 9
REMARK VINA RESULT:    -5.191      5.665      8.450
REMARK INTER + INTRA:          -9.296
REMARK INTER:                  -8.783
REMARK INTRA:                  -0.512
REMARK UNBOUND:                -0.464
REMARK SMILES CCCCCCCCCCCCCC(=O)[O-]
REMARK SMILES IDX 8 1 9 2 10 3 11 4 12 5 13 6 14 7 15 8 16 9 7 10 6 11 5 12
REMARK SMILES IDX 4 13 3 14 2 15 1 16
REMARK H PARENT
REMARK Flexibility Score: inf
ROOT
ATOM      1  C   UNL     1      41.213  66.775  23.470  1.00  0.00     0.000 C 
ENDROOT
BRANCH   1   2
ATOM      2  C   UNL     1      39.678  66.695  23.411  1.00  0.00     0.000 C 
BRANCH   2   3
ATOM      3  C   UNL     1      39.018  67.016  24.763  1.00  0.00     0.000 C 
BRANCH   3   4
ATOM      4  C   UNL     1      37.527  67.362  24.623  1.00  0.00     0.000 C 
BRANCH   4   5
ATOM      5  C   UNL     1      36.782  67.335  25.970  1.00  0.00     0.006 C 
BRANCH   5   6
ATOM      6  C   UNL     1      35.263  67.222  25.788  1.00  0.00     0.053 C 
BRANCH   6   7
ATOM      7  C   UNL     1      34.769  65.842  26.100  1.00  0.00     0.041 C 
ATOM      8  O   UNL     1      34.166  65.170  25.222  1.00  0.00    -0.550 OA
ATOM      9  O   UNL     1      34.946  65.312  27.372  1.00  0.00    -0.550 OA
ENDBRANCH   6   7
ENDBRANCH   5   6
ENDBRANCH   4   5
ENDBRANCH   3   4
ENDBRANCH   2   3
ENDBRANCH   1   2
BRANCH   1  10
ATOM     10  C   UNL     1      41.715  67.729  24.564  1.00  0.00     0.000 C 
BRANCH  10  11
ATOM     11  C   UNL     1      42.589  68.839  23.966  1.00  0.00    -0.000 C 
BRANCH  11  12
ATOM     12  C   UNL     1      43.195  69.718  25.070  1.00  0.00    -0.000 C 
BRANCH  12  13
ATOM     13  C   UNL     1      44.188  70.755  24.523  1.00  0.00    -0.000 C 
BRANCH  13  14
ATOM     14  C   UNL     1      43.962  72.157  25.109  1.00  0.00    -0.000 C 
BRANCH  14  15
ATOM     15  C   UNL     1      42.801  72.867  24.402  1.00  0.00    -0.003 C 
ATOM     16  C   UNL     1      41.900  73.585  25.404  1.00  0.00     0.004 C 
ENDBRANCH  14  15
ENDBRANCH  13  14
ENDBRANCH  12  13
ENDBRANCH  11  12
ENDBRANCH  10  11
ENDBRANCH   1  10
TORSDOF 12
ENDMDL
