MODEL 1
REMARK VINA RESULT:    -3.721      0.000      0.000
REMARK INTER + INTRA:          -6.747
REMARK INTER:                  -5.897
REMARK INTRA:                  -0.850
REMARK UNBOUND:                -0.850
REMARK SMILES CCCCCCCCCCCC(=O)[O-]
REMARK SMILES IDX 7 1 8 2 9 3 10 4 11 5 12 6 13 7 14 8 6 9 5 10 4 11 3 12 2 13
REMARK SMILES IDX 1 14
REMARK H PARENT
REMARK Flexibility Score: inf
ROOT
ATOM      1  C   UNL     1      -5.476   6.339  -3.045  1.00  0.00     0.000 C 
ENDROOT
BRANCH   1   2
ATOM      2  C   UNL     1      -4.511   6.988  -4.046  1.00  0.00     0.000 C 
BRANCH   2   3
ATOM      3  C   UNL     1      -4.489   6.213  -5.372  1.00  0.00     0.000 C 
BRANCH   3   4
ATOM      4  C   UNL     1      -5.758   5.374  -5.602  1.00  0.00     0.006 C 
BRANCH   4   5
ATOM      5  C   UNL     1      -5.534   4.130  -6.480  1.00  0.00     0.053 C 
BRANCH   5   6
ATOM      6  C   UNL     1      -6.685   3.860  -7.400  1.00  0.00     0.041 C 
ATOM      7  O   UNL     1      -7.729   3.307  -6.964  1.00  0.00    -0.550 OA
ATOM      8  O   UNL     1      -6.621   4.250  -8.733  1.00  0.00    -0.550 OA
ENDBRANCH   5   6
ENDBRANCH   4   5
ENDBRANCH   3   4
ENDBRANCH   2   3
ENDBRANCH   1   2
BRANCH   1   9
ATOM      9  C   UNL     1      -4.733   5.378  -2.109  1.00  0.00     0.000 C 
BRANCH   9  10
ATOM     10  C   UNL     1      -4.749   5.894  -0.665  1.00  0.00    -0.000 C 
BRANCH  10  11
ATOM     11  C   UNL     1      -3.322   6.018  -0.111  1.00  0.00    -0.000 C 
BRANCH  11  12
ATOM     12  C   UNL     1      -2.318   5.125  -0.857  1.00  0.00    -0.000 C 
BRANCH  12  13
ATOM     13  C   UNL     1      -1.047   5.881  -1.271  1.00  0.00    -0.003 C 
ATOM     14  C   UNL     1      -1.166   6.416  -2.695  1.00  0.00     0.004 C 
ENDBRANCH  12  13
ENDBRANCH  11  12
ENDBRANCH  10  11
ENDBRANCH   9  10
ENDBRANCH   1   9
TORSDOF 10
ENDMDL
MODEL 2
REMARK VINA RESULT:    -3.681     10.468     12.702
REMARK INTER + INTRA:          -6.682
REMARK INTER:                  -5.982
REMARK INTRA:                  -0.700
REMARK UNBOUND:                -0.850
REMARK SMILES CCCCCCCCCCCC(=O)[O-]
REMARK SMILES IDX 7 1 8 2 9 3 10 4 11 5 12 6 13 7 14 8 6 9 5 10 4 11 3 12 2 13
REMARK SMILES IDX 1 14
REMARK H PARENT
REMARK Flexibility Score: inf
ROOT
ATOM      1  C   UNL     1      -8.268  -5.478  -4.256  1.00  0.00     0.000 C 
ENDROOT
BRANCH   1   2
ATOM      2  C   UNL     1      -7.964  -4.055  -3.772  1.00  0.00     0.000 C 
BRANCH   2   3
ATOM      3  C   UNL     1      -9.243  -3.207  -3.715  1.00  0.00     0.000 C 
BRANCH   3   4
ATOM      4  C   UNL     1      -9.328  -2.164  -4.844  1.00  0.00     0.006 C 
BRANCH   4   5
ATOM      5  C   UNL     1      -8.047  -2.057  -5.690  1.00  0.00     0.053 C 
BRANCH   5   6
ATOM      6  C   UNL     1      -8.236  -2.564  -7.087  1.00  0.00     0.041 C 
ATOM      7  O   UNL     1      -8.680  -1.799  -7.984  1.00  0.00    -0.550 OA
ATOM      8  O   UNL     1      -7.890  -3.871  -7.410  1.00  0.00    -0.550 OA
ENDBRANCH   5   6
ENDBRANCH   4   5
ENDBRANCH   3   4
ENDBRANCH   2   3
ENDBRANCH   1   2
BRANCH   1   9
ATOM      9  C   UNL     1      -9.760  -5.801  -4.116  1.00  0.00     0.000 C 
BRANCH   9  10
ATOM     10  C   UNL     1     -10.089  -7.167  -4.731  1.00  0.00    -0.000 C 
BRANCH  10  11
ATOM     11  C   UNL     1      -9.103  -8.240  -4.244  1.00  0.00    -0.000 C 
BRANCH  11  12
ATOM     12  C   UNL     1      -9.299  -9.589  -4.952  1.00  0.00    -0.000 C 
BRANCH  12  13
ATOM     13  C   UNL     1      -9.482 -10.753  -3.967  1.00  0.00    -0.003 C 
ATOM     14  C   UNL     1      -9.237 -10.300  -2.530  1.00  0.00     0.004 C 
ENDBRANCH  12  13
ENDBRANCH  11  12
ENDBRANCH  10  11
ENDBRANCH   9  10
ENDBRANCH   1   9
TORSDOF 10
ENDMDL
MODEL 3
REMARK VINA RESULT:    -3.642      4.137      6.345
REMARK INTER + INTRA:          -6.622
REMARK INTER:                  -5.687
REMARK INTRA:                  -0.935
REMARK UNBOUND:                -0.850
REMARK SMILES CCCCCCCCCCCC(=O)[O-]
REMARK SMILES IDX 7 1 8 2 9 3 10 4 11 5 12 6 13 7 14 8 6 9 5 10 4 11 3 12 2 13
REMARK SMILES IDX 1 14
REMARK H PARENT
REMARK Flexibility Score: inf
ROOT
ATOM      1  C   UNL     1      -6.473   6.335  -1.245  1.00  0.00     0.000 C 
ENDROOT
BRANCH   1   2
ATOM      2  C   UNL     1      -5.005   6.228  -0.814  1.00  0.00     0.000 C 
BRANCH   2   3
ATOM      3  C   UNL     1      -4.149   5.596  -1.921  1.00  0.00     0.000 C 
BRANCH   3   4
ATOM      4  C   UNL     1      -2.910   6.435  -2.281  1.00  0.00     0.006 C 
BRANCH   4   5
ATOM      5  C   UNL     1      -1.574   5.750  -1.945  1.00  0.00     0.053 C 
BRANCH   5   6
ATOM      6  C   UNL     1      -0.974   6.254  -0.667  1.00  0.00     0.041 C 
ATOM      7  O   UNL     1      -1.633   6.203   0.405  1.00  0.00    -0.550 OA
ATOM      8  O   UNL     1       0.325   6.748  -0.651  1.00  0.00    -0.550 OA
ENDBRANCH   5   6
ENDBRANCH   4   5
ENDBRANCH   3   4
ENDBRANCH   2   3
ENDBRANCH   1   2
BRANCH   1   9
ATOM      9  C   UNL     1      -6.603   7.093  -2.571  1.00  0.00     0.000 C 
BRANCH   9  10
ATOM     10  C   UNL     1      -7.867   6.665  -3.328  1.00  0.00    -0.000 C 
BRANCH  10  11
ATOM     11  C   UNL     1      -7.544   6.334  -4.793  1.00  0.00    -0.000 C 
BRANCH  11  12
ATOM     12  C   UNL     1      -6.035   6.337  -5.081  1.00  0.00    -0.000 C 
BRANCH  12  13
ATOM     13  C   UNL     1      -5.475   4.928  -5.319  1.00  0.00    -0.003 C 
ATOM     14  C   UNL     1      -5.530   4.557  -6.799  1.00  0.00     0.004 C 
ENDBRANCH  12  13
ENDBRANCH  11  12
ENDBRANCH  10  11
ENDBRANCH   9  10
ENDBRANCH   1   9
TORSDOF 10
ENDMDL
MODEL 4
REMARK VINA RESULT:    -3.628     10.212     12.493
REMARK INTER + INTRA:          -6.600
REMARK INTER:                  -5.691
REMARK INTRA:                  -0.909
REMARK UNBOUND:                -0.850
REMARK SMILES CCCCCCCCCCCC(=O)[O-]
REMARK SMILES IDX 7 1 8 2 9 3 10 4 11 5 12 6 13 7 14 8 6 9 5 10 4 11 3 12 2 13
REMARK SMILES IDX 1 14
REMARK H PARENT
REMARK Flexibility Score: inf
ROOT
ATOM      1  C   UNL     1      -7.973  -3.820  -3.972  1.00  0.00     0.000 C 
ENDROOT
BRANCH   1   2
ATOM      2  C   UNL     1      -8.147  -5.335  -4.143  1.00  0.00     0.000 C 
BRANCH   2   3
ATOM      3  C   UNL     1      -9.504  -5.666  -4.781  1.00  0.00     0.000 C 
BRANCH   3   4
ATOM      4  C   UNL     1     -10.036  -7.054  -4.383  1.00  0.00     0.006 C 
BRANCH   4   5
ATOM      5  C   UNL     1      -8.935  -8.114  -4.200  1.00  0.00     0.053 C 
BRANCH   5   6
ATOM      6  C   UNL     1      -9.331  -9.454  -4.740  1.00  0.00     0.041 C 
ATOM      7  O   UNL     1      -9.312 -10.469  -3.995  1.00  0.00    -0.550 OA
ATOM      8  O   UNL     1      -9.757  -9.579  -6.058  1.00  0.00    -0.550 OA
ENDBRANCH   5   6
ENDBRANCH   4   5
ENDBRANCH   3   4
ENDBRANCH   2   3
ENDBRANCH   1   2
BRANCH   1   9
ATOM      9  C   UNL     1      -9.327  -3.132  -3.757  1.00  0.00     0.000 C 
BRANCH   9  10
ATOM     10  C   UNL     1      -9.593  -2.089  -4.850  1.00  0.00    -0.000 C 
BRANCH  10  11
ATOM     11  C   UNL     1      -8.364  -1.915  -5.754  1.00  0.00    -0.000 C 
BRANCH  11  12
ATOM     12  C   UNL     1      -8.657  -2.258  -7.223  1.00  0.00    -0.000 C 
BRANCH  12  13
ATOM     13  C   UNL     1      -8.055  -3.605  -7.647  1.00  0.00    -0.003 C 
ATOM     14  C   UNL     1      -6.932  -3.409  -8.663  1.00  0.00     0.004 C 
ENDBRANCH  12  13
ENDBRANCH  11  12
ENDBRANCH  10  11
ENDBRANCH   9  10
ENDBRANCH   1   9
TORSDOF 10
ENDMDL
MODEL 5
REMARK VINA RESULT:    -3.596      3.914      7.091
REMARK INTER + INTRA:          -6.548
REMARK INTER:                  -6.095
REMARK INTRA:                  -0.453
REMARK UNBOUND:                -0.850
REMARK SMILES CCCCCCCCCCCC(=O)[O-]
REMARK SMILES IDX 7 1 8 2 9 3 10 4 11 5 12 6 13 7 14 8 6 9 5 10 4 11 3 12 2 13
REMARK SMILES IDX 1 14
REMARK H PARENT
REMARK Flexibility Score: inf
ROOT
ATOM      1  C   UNL     1      -4.664   6.314  -3.670  1.00  0.00     0.000 C 
ENDROOT
BRANCH   1   2
ATOM      2  C   UNL     1      -5.089   5.914  -2.251  1.00  0.00     0.000 C 
BRANCH   2   3
ATOM      3  C   UNL     1      -4.016   6.303  -1.224  1.00  0.00     0.000 C 
BRANCH   3   4
ATOM      4  C   UNL     1      -2.810   5.348  -1.220  1.00  0.00     0.006 C 
BRANCH   4   5
ATOM      5  C   UNL     1      -1.652   5.808  -0.317  1.00  0.00     0.053 C 
BRANCH   5   6
ATOM      6  C   UNL     1      -0.588   6.543  -1.075  1.00  0.00     0.041 C 
ATOM      7  O   UNL     1       0.479   6.883  -0.500  1.00  0.00    -0.550 OA
ATOM      8  O   UNL     1      -0.759   6.822  -2.426  1.00  0.00    -0.550 OA
ENDBRANCH   5   6
ENDBRANCH   4   5
ENDBRANCH   3   4
ENDBRANCH   2   3
ENDBRANCH   1   2
BRANCH   1   9
ATOM      9  C   UNL     1      -5.515   5.594  -4.723  1.00  0.00     0.000 C 
BRANCH   9  10
ATOM     10  C   UNL     1      -4.845   5.645  -6.102  1.00  0.00    -0.000 C 
BRANCH  10  11
ATOM     11  C   UNL     1      -5.110   4.354  -6.889  1.00  0.00    -0.000 C 
BRANCH  11  12
ATOM     12  C   UNL     1      -6.572   3.890  -6.791  1.00  0.00    -0.000 C 
BRANCH  12  13
ATOM     13  C   UNL     1      -7.334   4.053  -8.114  1.00  0.00    -0.003 C 
ATOM     14  C   UNL     1      -6.377   4.049  -9.303  1.00  0.00     0.004 C 
ENDBRANCH  12  13
ENDBRANCH  11  12
ENDBRANCH  10  11
ENDBRANCH   9  10
ENDBRANCH   1   9
TORSDOF 10
ENDMDL
MODEL 6
REMARK VINA RESULT:    -3.574     17.439     18.815
REMARK INTER + INTRA:          -6.513
REMARK INTER:                  -5.350
REMARK INTRA:                  -1.163
REMARK UNBOUND:                -0.850
REMARK SMILES CCCCCCCCCCCC(=O)[O-]
REMARK SMILES IDX 7 1 8 2 9 3 10 4 11 5 12 6 13 7 14 8 6 9 5 10 4 11 3 12 2 13
REMARK SMILES IDX 1 14
REMARK H PARENT
REMARK Flexibility Score: inf
ROOT
ATOM      1  C   UNL     1      -4.644  -7.398   7.197  1.00  0.00     0.000 C 
ENDROOT
BRANCH   1   2
ATOM      2  C   UNL     1      -4.864  -8.753   6.512  1.00  0.00     0.000 C 
BRANCH   2   3
ATOM      3  C   UNL     1      -6.012  -9.527   7.176  1.00  0.00     0.000 C 
BRANCH   3   4
ATOM      4  C   UNL     1      -6.216 -10.932   6.581  1.00  0.00     0.006 C 
BRANCH   4   5
ATOM      5  C   UNL     1      -6.733 -10.927   5.132  1.00  0.00     0.053 C 
BRANCH   5   6
ATOM      6  C   UNL     1      -6.220 -12.087   4.334  1.00  0.00     0.041 C 
ATOM      7  O   UNL     1      -5.301 -12.815   4.794  1.00  0.00    -0.550 OA
ATOM      8  O   UNL     1      -6.779 -12.387   3.098  1.00  0.00    -0.550 OA
ENDBRANCH   5   6
ENDBRANCH   4   5
ENDBRANCH   3   4
ENDBRANCH   2   3
ENDBRANCH   1   2
BRANCH   1   9
ATOM      9  C   UNL     1      -5.458  -7.299   8.493  1.00  0.00     0.000 C 
BRANCH   9  10
ATOM     10  C   UNL     1      -4.540  -7.096   9.706  1.00  0.00    -0.000 C 
BRANCH  10  11
ATOM     11  C   UNL     1      -3.859  -8.413  10.106  1.00  0.00    -0.000 C 
BRANCH  11  12
ATOM     12  C   UNL     1      -2.330  -8.355   9.967  1.00  0.00    -0.000 C 
BRANCH  12  13
ATOM     13  C   UNL     1      -1.819  -9.114   8.733  1.00  0.00    -0.003 C 
ATOM     14  C   UNL     1      -2.426 -10.513   8.659  1.00  0.00     0.004 C 
ENDBRANCH  12  13
ENDBRANCH  11  12
ENDBRANCH  10  11
ENDBRANCH   9  10
ENDBRANCH   1   9
TORSDOF 10
ENDMDL
MODEL 7
REMARK VINA RESULT:    -3.561     15.306     16.784
REMARK INTER + INTRA:          -6.493
REMARK INTER:                  -5.639
REMARK INTRA:                  -0.854
REMARK UNBOUND:                -0.850
REMARK SMILES CCCCCCCCCCCC(=O)[O-]
REMARK SMILES IDX 7 1 8 2 9 3 10 4 11 5 12 6 13 7 14 8 6 9 5 10 4 11 3 12 2 13
REMARK SMILES IDX 1 14
REMARK H PARENT
REMARK Flexibility Score: inf
ROOT
ATOM      1  C   UNL     1       3.127  -8.416  -8.716  1.00  0.00     0.000 C 
ENDROOT
BRANCH   1   2
ATOM      2  C   UNL     1       4.139  -9.363  -9.375  1.00  0.00     0.000 C 
BRANCH   2   3
ATOM      3  C   UNL     1       5.577  -8.984  -8.994  1.00  0.00     0.000 C 
BRANCH   3   4
ATOM      4  C   UNL     1       5.737  -7.494  -8.643  1.00  0.00     0.006 C 
BRANCH   4   5
ATOM      5  C   UNL     1       6.455  -6.671  -9.727  1.00  0.00     0.053 C 
BRANCH   5   6
ATOM      6  C   UNL     1       7.870  -6.344  -9.357  1.00  0.00     0.041 C 
ATOM      7  O   UNL     1       8.148  -5.231  -8.838  1.00  0.00    -0.550 OA
ATOM      8  O   UNL     1       8.878  -7.281  -9.552  1.00  0.00    -0.550 OA
ENDBRANCH   5   6
ENDBRANCH   4   5
ENDBRANCH   3   4
ENDBRANCH   2   3
ENDBRANCH   1   2
BRANCH   1   9
ATOM      9  C   UNL     1       2.124  -7.881  -9.744  1.00  0.00     0.000 C 
BRANCH   9  10
ATOM     10  C   UNL     1       2.436  -6.425 -10.112  1.00  0.00    -0.000 C 
BRANCH  10  11
ATOM     11  C   UNL     1       1.180  -5.548  -9.994  1.00  0.00    -0.000 C 
BRANCH  11  12
ATOM     12  C   UNL     1       1.309  -4.473  -8.903  1.00  0.00    -0.000 C 
BRANCH  12  13
ATOM     13  C   UNL     1       2.222  -4.910  -7.748  1.00  0.00    -0.003 C 
ATOM     14  C   UNL     1       1.673  -4.435  -6.405  1.00  0.00     0.004 C 
ENDBRANCH  12  13
ENDBRANCH  11  12
ENDBRANCH  10  11
ENDBRANCH   9  10
ENDBRANCH   1   9
TORSDOF 10
ENDMDL
MODEL 8
REMARK VINA RESULT:    -3.538     10.014     12.199
REMARK INTER + INTRA:          -6.457
REMARK INTER:                  -5.839
REMARK INTRA:                  -0.618
REMARK UNBOUND:                -0.850
REMARK SMILES CCCCCCCCCCCC(=O)[O-]
REMARK SMILES IDX 7 1 8 2 9 3 10 4 11 5 12 6 13 7 14 8 6 9 5 10 4 11 3 12 2 13
REMARK SMILES IDX 1 14
REMARK H PARENT
REMARK Flexibility Score: inf
ROOT
ATOM      1  C   UNL     1      -9.219  -3.710  -3.689  1.00  0.00     0.000 C 
ENDROOT
BRANCH   1   2
ATOM      2  C   UNL     1      -7.863  -3.444  -4.355  1.00  0.00     0.000 C 
BRANCH   2   3
ATOM      3  C   UNL     1      -7.906  -2.163  -5.200  1.00  0.00     0.000 C 
BRANCH   3   4
ATOM      4  C   UNL     1      -8.565  -2.369  -6.575  1.00  0.00     0.006 C 
BRANCH   4   5
ATOM      5  C   UNL     1      -8.083  -3.629  -7.316  1.00  0.00     0.053 C 
BRANCH   5   6
ATOM      6  C   UNL     1      -7.351  -3.306  -8.583  1.00  0.00     0.041 C 
ATOM      7  O   UNL     1      -6.606  -4.167  -9.121  1.00  0.00    -0.550 OA
ATOM      8  O   UNL     1      -7.518  -2.068  -9.191  1.00  0.00    -0.550 OA
ENDBRANCH   5   6
ENDBRANCH   4   5
ENDBRANCH   3   4
ENDBRANCH   2   3
ENDBRANCH   1   2
BRANCH   1   9
ATOM      9  C   UNL     1      -9.898  -4.942  -4.298  1.00  0.00     0.000 C 
BRANCH   9  10
ATOM     10  C   UNL     1      -8.961  -6.156  -4.275  1.00  0.00    -0.000 C 
BRANCH  10  11
ATOM     11  C   UNL     1      -9.757  -7.462  -4.137  1.00  0.00    -0.000 C 
BRANCH  11  12
ATOM     12  C   UNL     1      -8.956  -8.694  -4.587  1.00  0.00    -0.000 C 
BRANCH  12  13
ATOM     13  C   UNL     1      -9.529 -10.007  -4.035  1.00  0.00    -0.003 C 
ATOM     14  C   UNL     1      -9.217 -10.160  -2.548  1.00  0.00     0.004 C 
ENDBRANCH  12  13
ENDBRANCH  11  12
ENDBRANCH  10  11
ENDBRANCH   9  10
ENDBRANCH   1   9
TORSDOF 10
ENDMDL
MODEL 9
REMARK VINA RESULT:    -3.498      1.050      2.017
REMARK INTER + INTRA:          -6.394
REMARK INTER:                  -5.605
REMARK INTRA:                  -0.789
REMARK UNBOUND:                -0.850
REMARK SMILES CCCCCCCCCCCC(=O)[O-]
REMARK SMILES IDX 7 1 8 2 9 3 10 4 11 5 12 6 13 7 14 8 6 9 5 10 4 11 3 12 2 13
REMARK SMILES IDX 1 14
REMARK H PARENT
REMARK Flexibility Score: inf
ROOT
ATOM      1  C   UNL     1      -3.809   6.758  -5.300  1.00  0.00     0.000 C 
ENDROOT
BRANCH   1   2
ATOM      2  C   UNL     1      -5.157   6.275  -5.851  1.00  0.00     0.000 C 
BRANCH   2   3
ATOM      3  C   UNL     1      -4.969   5.079  -6.795  1.00  0.00     0.000 C 
BRANCH   3   4
ATOM      4  C   UNL     1      -5.788   3.845  -6.376  1.00  0.00     0.006 C 
BRANCH   4   5
ATOM      5  C   UNL     1      -7.235   3.847  -6.902  1.00  0.00     0.053 C 
BRANCH   5   6
ATOM      6  C   UNL     1      -7.318   4.213  -8.353  1.00  0.00     0.041 C 
ATOM      7  O   UNL     1      -7.028   3.364  -9.237  1.00  0.00    -0.550 OA
ATOM      8  O   UNL     1      -7.750   5.478  -8.732  1.00  0.00    -0.550 OA
ENDBRANCH   5   6
ENDBRANCH   4   5
ENDBRANCH   3   4
ENDBRANCH   2   3
ENDBRANCH   1   2
BRANCH   1   9
ATOM      9  C   UNL     1      -3.815   6.776  -3.767  1.00  0.00     0.000 C 
BRANCH   9  10
ATOM     10  C   UNL     1      -5.029   6.019  -3.213  1.00  0.00    -0.000 C 
BRANCH  10  11
ATOM     11  C   UNL     1      -4.674   5.293  -1.907  1.00  0.00    -0.000 C 
BRANCH  11  12
ATOM     12  C   UNL     1      -3.612   6.039  -1.085  1.00  0.00    -0.000 C 
BRANCH  12  13
ATOM     13  C   UNL     1      -2.421   5.147  -0.707  1.00  0.00    -0.003 C 
ATOM     14  C   UNL     1      -1.173   5.536  -1.495  1.00  0.00     0.004 C 
ENDBRANCH  12  13
ENDBRANCH  11  12
ENDBRANCH  10  11
ENDBRANCH   9  10
ENDBRANCH   1   9
TORSDOF 10
ENDMDL
