MODEL 1
REMARK VINA RESULT:    -5.274      0.000      0.000
REMARK INTER + INTRA:          -8.851
REMARK INTER:                  -8.357
REMARK INTRA:                  -0.495
REMARK UNBOUND:                -0.495
REMARK SMILES CCCCCCCCCCCC(=O)[O-]
REMARK SMILES IDX 7 1 8 2 9 3 10 4 11 5 12 6 13 7 14 8 6 9 5 10 4 11 3 12 2 13
REMARK SMILES IDX 1 14
REMARK H PARENT
REMARK Flexibility Score: inf
ROOT
ATOM      1  C   UNL     1     -23.832 -10.169   6.134  1.00  0.00     0.000 C 
ENDROOT
BRANCH   1   2
ATOM      2  C   UNL     1     -24.562 -11.349   5.468  1.00  0.00     0.000 C 
BRANCH   2   3
ATOM      3  C   UNL     1     -23.829 -11.846   4.203  1.00  0.00     0.000 C 
BRANCH   3   4
ATOM      4  C   UNL     1     -23.890 -13.371   4.016  1.00  0.00     0.006 C 
BRANCH   4   5
ATOM      5  C   UNL     1     -25.267 -13.958   4.347  1.00  0.00     0.053 C 
BRANCH   5   6
ATOM      6  C   UNL     1     -25.130 -15.117   5.284  1.00  0.00     0.041 C 
ATOM      7  O   UNL     1     -25.100 -14.926   6.529  1.00  0.00    -0.550 OA
ATOM      8  O   UNL     1     -24.985 -16.404   4.781  1.00  0.00    -0.550 OA
ENDBRANCH   5   6
ENDBRANCH   4   5
ENDBRANCH   3   4
ENDBRANCH   2   3
ENDBRANCH   1   2
BRANCH   1   9
ATOM      9  C   UNL     1     -24.526  -9.695   7.421  1.00  0.00     0.000 C 
BRANCH   9  10
ATOM     10  C   UNL     1     -23.774 -10.128   8.691  1.00  0.00    -0.000 C 
BRANCH  10  11
ATOM     11  C   UNL     1     -24.189 -11.525   9.179  1.00  0.00    -0.000 C 
BRANCH  11  12
ATOM     12  C   UNL     1     -23.409 -11.969  10.429  1.00  0.00    -0.000 C 
BRANCH  12  13
ATOM     13  C   UNL     1     -22.599 -13.252  10.192  1.00  0.00    -0.003 C 
ATOM     14  C   UNL     1     -23.465 -14.513  10.214  1.00  0.00     0.004 C 
ENDBRANCH  12  13
ENDBRANCH  11  12
ENDBRANCH  10  11
ENDBRANCH   9  10
ENDBRANCH   1   9
TORSDOF 10
ENDMDL
MODEL 2
REMARK VINA RESULT:    -5.208      2.003      4.920
REMARK INTER + INTRA:          -8.748
REMARK INTER:                  -7.958
REMARK INTRA:                  -0.790
REMARK UNBOUND:                -0.495
REMARK SMILES CCCCCCCCCCCC(=O)[O-]
REMARK SMILES IDX 7 1 8 2 9 3 10 4 11 5 12 6 13 7 14 8 6 9 5 10 4 11 3 12 2 13
REMARK SMILES IDX 1 14
REMARK H PARENT
REMARK Flexibility Score: inf
ROOT
ATOM      1  C   UNL     1     -23.393  -8.293   8.203  1.00  0.00     0.000 C 
ENDROOT
BRANCH   1   2
ATOM      2  C   UNL     1     -24.362  -9.409   8.630  1.00  0.00     0.000 C 
BRANCH   2   3
ATOM      3  C   UNL     1     -23.683 -10.796   8.638  1.00  0.00     0.000 C 
BRANCH   3   4
ATOM      4  C   UNL     1     -24.475 -11.865   9.410  1.00  0.00     0.006 C 
BRANCH   4   5
ATOM      5  C   UNL     1     -23.586 -12.729  10.312  1.00  0.00     0.053 C 
BRANCH   5   6
ATOM      6  C   UNL     1     -23.283 -14.036   9.649  1.00  0.00     0.041 C 
ATOM      7  O   UNL     1     -22.202 -14.635   9.891  1.00  0.00    -0.550 OA
ATOM      8  O   UNL     1     -24.173 -14.569   8.725  1.00  0.00    -0.550 OA
ENDBRANCH   5   6
ENDBRANCH   4   5
ENDBRANCH   3   4
ENDBRANCH   2   3
ENDBRANCH   1   2
BRANCH   1   9
ATOM      9  C   UNL     1     -22.017  -8.832   7.782  1.00  0.00     0.000 C 
BRANCH   9  10
ATOM     10  C   UNL     1     -21.749  -8.658   6.277  1.00  0.00    -0.000 C 
BRANCH  10  11
ATOM     11  C   UNL     1     -22.787  -9.381   5.403  1.00  0.00    -0.000 C 
BRANCH  11  12
ATOM     12  C   UNL     1     -22.136 -10.292   4.348  1.00  0.00    -0.000 C 
BRANCH  12  13
ATOM     13  C   UNL     1     -23.077 -11.410   3.875  1.00  0.00    -0.003 C 
ATOM     14  C   UNL     1     -24.178 -11.727   4.889  1.00  0.00     0.004 C 
ENDBRANCH  12  13
ENDBRANCH  11  12
ENDBRANCH  10  11
ENDBRANCH   9  10
ENDBRANCH   1   9
TORSDOF 10
ENDMDL
MODEL 3
REMARK VINA RESULT:    -5.101      2.138      5.026
REMARK INTER + INTRA:          -8.578
REMARK INTER:                  -7.953
REMARK INTRA:                  -0.625
REMARK UNBOUND:                -0.495
REMARK SMILES CCCCCCCCCCCC(=O)[O-]
REMARK SMILES IDX 7 1 8 2 9 3 10 4 11 5 12 6 13 7 14 8 6 9 5 10 4 11 3 12 2 13
REMARK SMILES IDX 1 14
REMARK H PARENT
REMARK Flexibility Score: inf
ROOT
ATOM      1  C   UNL     1     -24.690  -9.873   8.269  1.00  0.00     0.000 C 
ENDROOT
BRANCH   1   2
ATOM      2  C   UNL     1     -24.460 -11.046   9.239  1.00  0.00     0.000 C 
BRANCH   2   3
ATOM      3  C   UNL     1     -22.978 -11.179   9.649  1.00  0.00     0.000 C 
BRANCH   3   4
ATOM      4  C   UNL     1     -22.722 -12.291  10.680  1.00  0.00     0.006 C 
BRANCH   4   5
ATOM      5  C   UNL     1     -23.752 -13.423  10.604  1.00  0.00     0.053 C 
BRANCH   5   6
ATOM      6  C   UNL     1     -23.306 -14.471   9.634  1.00  0.00     0.041 C 
ATOM      7  O   UNL     1     -22.158 -14.979   9.731  1.00  0.00    -0.550 OA
ATOM      8  O   UNL     1     -24.141 -14.853   8.590  1.00  0.00    -0.550 OA
ENDBRANCH   5   6
ENDBRANCH   4   5
ENDBRANCH   3   4
ENDBRANCH   2   3
ENDBRANCH   1   2
BRANCH   1   9
ATOM      9  C   UNL     1     -23.669  -8.740   8.459  1.00  0.00     0.000 C 
BRANCH   9  10
ATOM     10  C   UNL     1     -22.633  -8.681   7.324  1.00  0.00    -0.000 C 
BRANCH  10  11
ATOM     11  C   UNL     1     -23.066  -9.481   6.084  1.00  0.00    -0.000 C 
BRANCH  11  12
ATOM     12  C   UNL     1     -22.022  -9.430   4.956  1.00  0.00    -0.000 C 
BRANCH  12  13
ATOM     13  C   UNL     1     -22.219 -10.548   3.921  1.00  0.00    -0.003 C 
ATOM     14  C   UNL     1     -23.514 -11.333   4.135  1.00  0.00     0.004 C 
ENDBRANCH  12  13
ENDBRANCH  11  12
ENDBRANCH  10  11
ENDBRANCH   9  10
ENDBRANCH   1   9
TORSDOF 10
ENDMDL
MODEL 4
REMARK VINA RESULT:    -5.075      3.037      4.571
REMARK INTER + INTRA:          -8.536
REMARK INTER:                  -7.637
REMARK INTRA:                  -0.899
REMARK UNBOUND:                -0.495
REMARK SMILES CCCCCCCCCCCC(=O)[O-]
REMARK SMILES IDX 7 1 8 2 9 3 10 4 11 5 12 6 13 7 14 8 6 9 5 10 4 11 3 12 2 13
REMARK SMILES IDX 1 14
REMARK H PARENT
REMARK Flexibility Score: inf
ROOT
ATOM      1  C   UNL     1     -23.820 -10.883   8.753  1.00  0.00     0.000 C 
ENDROOT
BRANCH   1   2
ATOM      2  C   UNL     1     -24.529  -9.519   8.690  1.00  0.00     0.000 C 
BRANCH   2   3
ATOM      3  C   UNL     1     -23.576  -8.388   8.245  1.00  0.00     0.000 C 
BRANCH   3   4
ATOM      4  C   UNL     1     -22.253  -8.898   7.647  1.00  0.00     0.006 C 
BRANCH   4   5
ATOM      5  C   UNL     1     -22.070  -8.497   6.179  1.00  0.00     0.053 C 
BRANCH   5   6
ATOM      6  C   UNL     1     -22.428  -9.637   5.278  1.00  0.00     0.041 C 
ATOM      7  O   UNL     1     -21.619 -10.026   4.395  1.00  0.00    -0.550 OA
ATOM      8  O   UNL     1     -23.676 -10.239   5.381  1.00  0.00    -0.550 OA
ENDBRANCH   5   6
ENDBRANCH   4   5
ENDBRANCH   3   4
ENDBRANCH   2   3
ENDBRANCH   1   2
BRANCH   1   9
ATOM      9  C   UNL     1     -23.750 -11.447  10.181  1.00  0.00     0.000 C 
BRANCH   9  10
ATOM     10  C   UNL     1     -22.338 -11.928  10.557  1.00  0.00    -0.000 C 
BRANCH  10  11
ATOM     11  C   UNL     1     -22.166 -13.447  10.395  1.00  0.00    -0.000 C 
BRANCH  11  12
ATOM     12  C   UNL     1     -23.511 -14.195  10.388  1.00  0.00    -0.000 C 
BRANCH  12  13
ATOM     13  C   UNL     1     -23.710 -15.034   9.117  1.00  0.00    -0.003 C 
ATOM     14  C   UNL     1     -24.712 -14.410   8.144  1.00  0.00     0.004 C 
ENDBRANCH  12  13
ENDBRANCH  11  12
ENDBRANCH  10  11
ENDBRANCH   9  10
ENDBRANCH   1   9
TORSDOF 10
ENDMDL
MODEL 5
REMARK VINA RESULT:    -5.003      1.526      3.813
REMARK INTER + INTRA:          -8.423
REMARK INTER:                  -7.746
REMARK INTRA:                  -0.677
REMARK UNBOUND:                -0.495
REMARK SMILES CCCCCCCCCCCC(=O)[O-]
REMARK SMILES IDX 7 1 8 2 9 3 10 4 11 5 12 6 13 7 14 8 6 9 5 10 4 11 3 12 2 13
REMARK SMILES IDX 1 14
REMARK H PARENT
REMARK Flexibility Score: inf
ROOT
ATOM      1  C   UNL     1     -23.122 -14.246   9.483  1.00  0.00     0.000 C 
ENDROOT
BRANCH   1   2
ATOM      2  C   UNL     1     -24.268 -14.962   8.747  1.00  0.00     0.000 C 
BRANCH   2   3
ATOM      3  C   UNL     1     -24.627 -14.266   7.416  1.00  0.00     0.000 C 
BRANCH   3   4
ATOM      4  C   UNL     1     -25.587 -15.083   6.534  1.00  0.00     0.006 C 
BRANCH   4   5
ATOM      5  C   UNL     1     -25.039 -15.323   5.122  1.00  0.00     0.053 C 
BRANCH   5   6
ATOM      6  C   UNL     1     -25.094 -14.061   4.320  1.00  0.00     0.041 C 
ATOM      7  O   UNL     1     -24.032 -13.453   4.021  1.00  0.00    -0.550 OA
ATOM      8  O   UNL     1     -26.321 -13.530   3.942  1.00  0.00    -0.550 OA
ENDBRANCH   5   6
ENDBRANCH   4   5
ENDBRANCH   3   4
ENDBRANCH   2   3
ENDBRANCH   1   2
BRANCH   1   9
ATOM      9  C   UNL     1     -23.614 -13.416  10.678  1.00  0.00     0.000 C 
BRANCH   9  10
ATOM     10  C   UNL     1     -23.390 -11.907  10.481  1.00  0.00    -0.000 C 
BRANCH  10  11
ATOM     11  C   UNL     1     -24.279 -11.314   9.376  1.00  0.00    -0.000 C 
BRANCH  11  12
ATOM     12  C   UNL     1     -23.619 -10.120   8.665  1.00  0.00    -0.000 C 
BRANCH  12  13
ATOM     13  C   UNL     1     -24.485  -9.563   7.525  1.00  0.00    -0.003 C 
ATOM     14  C   UNL     1     -24.240 -10.273   6.193  1.00  0.00     0.004 C 
ENDBRANCH  12  13
ENDBRANCH  11  12
ENDBRANCH  10  11
ENDBRANCH   9  10
ENDBRANCH   1   9
TORSDOF 10
ENDMDL
MODEL 6
REMARK VINA RESULT:    -4.954      1.760      3.984
REMARK INTER + INTRA:          -8.344
REMARK INTER:                  -7.703
REMARK INTRA:                  -0.641
REMARK UNBOUND:                -0.495
REMARK SMILES CCCCCCCCCCCC(=O)[O-]
REMARK SMILES IDX 7 1 8 2 9 3 10 4 11 5 12 6 13 7 14 8 6 9 5 10 4 11 3 12 2 13
REMARK SMILES IDX 1 14
REMARK H PARENT
REMARK Flexibility Score: inf
ROOT
ATOM      1  C   UNL     1     -23.420 -12.801  10.539  1.00  0.00     0.000 C 
ENDROOT
BRANCH   1   2
ATOM      2  C   UNL     1     -23.038 -14.014   9.673  1.00  0.00     0.000 C 
BRANCH   2   3
ATOM      3  C   UNL     1     -24.272 -14.675   9.022  1.00  0.00     0.000 C 
BRANCH   3   4
ATOM      4  C   UNL     1     -24.530 -14.209   7.579  1.00  0.00     0.006 C 
BRANCH   4   5
ATOM      5  C   UNL     1     -25.534 -15.099   6.836  1.00  0.00     0.053 C 
BRANCH   5   6
ATOM      6  C   UNL     1     -25.116 -15.282   5.412  1.00  0.00     0.041 C 
ATOM      7  O   UNL     1     -24.946 -14.280   4.667  1.00  0.00    -0.550 OA
ATOM      8  O   UNL     1     -24.960 -16.560   4.891  1.00  0.00    -0.550 OA
ENDBRANCH   5   6
ENDBRANCH   4   5
ENDBRANCH   3   4
ENDBRANCH   2   3
ENDBRANCH   1   2
BRANCH   1   9
ATOM      9  C   UNL     1     -23.196 -11.464   9.816  1.00  0.00     0.000 C 
BRANCH   9  10
ATOM     10  C   UNL     1     -24.454 -10.971   9.082  1.00  0.00    -0.000 C 
BRANCH  10  11
ATOM     11  C   UNL     1     -24.124 -10.126   7.841  1.00  0.00    -0.000 C 
BRANCH  11  12
ATOM     12  C   UNL     1     -23.399  -8.816   8.196  1.00  0.00    -0.000 C 
BRANCH  12  13
ATOM     13  C   UNL     1     -22.033  -8.694   7.503  1.00  0.00    -0.003 C 
ATOM     14  C   UNL     1     -22.134  -8.757   5.978  1.00  0.00     0.004 C 
ENDBRANCH  12  13
ENDBRANCH  11  12
ENDBRANCH  10  11
ENDBRANCH   9  10
ENDBRANCH   1   9
TORSDOF 10
ENDMDL
MODEL 7
REMARK VINA RESULT:    -4.844      2.441      5.953
REMARK INTER + INTRA:          -8.170
REMARK INTER:                  -7.566
REMARK INTRA:                  -0.604
REMARK UNBOUND:                -0.495
REMARK SMILES CCCCCCCCCCCC(=O)[O-]
REMARK SMILES IDX 7 1 8 2 9 3 10 4 11 5 12 6 13 7 14 8 6 9 5 10 4 11 3 12 2 13
REMARK SMILES IDX 1 14
REMARK H PARENT
REMARK Flexibility Score: inf
ROOT
ATOM      1  C   UNL     1     -23.260 -14.508   9.484  1.00  0.00     0.000 C 
ENDROOT
BRANCH   1   2
ATOM      2  C   UNL     1     -23.701 -13.606  10.650  1.00  0.00     0.000 C 
BRANCH   2   3
ATOM      3  C   UNL     1     -23.314 -12.129  10.421  1.00  0.00     0.000 C 
BRANCH   3   4
ATOM      4  C   UNL     1     -24.271 -11.382   9.476  1.00  0.00     0.006 C 
BRANCH   4   5
ATOM      5  C   UNL     1     -23.583 -10.248   8.707  1.00  0.00     0.053 C 
BRANCH   5   6
ATOM      6  C   UNL     1     -24.552  -9.582   7.781  1.00  0.00     0.041 C 
ATOM      7  O   UNL     1     -25.439  -8.813   8.237  1.00  0.00    -0.550 OA
ATOM      8  O   UNL     1     -24.507  -9.849   6.418  1.00  0.00    -0.550 OA
ENDBRANCH   5   6
ENDBRANCH   4   5
ENDBRANCH   3   4
ENDBRANCH   2   3
ENDBRANCH   1   2
BRANCH   1   9
ATOM      9  C   UNL     1     -24.447 -15.046   8.671  1.00  0.00     0.000 C 
BRANCH   9  10
ATOM     10  C   UNL     1     -24.590 -14.352   7.305  1.00  0.00    -0.000 C 
BRANCH  10  11
ATOM     11  C   UNL     1     -25.425 -15.172   6.308  1.00  0.00    -0.000 C 
BRANCH  11  12
ATOM     12  C   UNL     1     -24.945 -15.001   4.857  1.00  0.00    -0.000 C 
BRANCH  12  13
ATOM     13  C   UNL     1     -25.420 -13.681   4.231  1.00  0.00    -0.003 C 
ATOM     14  C   UNL     1     -24.310 -12.631   4.147  1.00  0.00     0.004 C 
ENDBRANCH  12  13
ENDBRANCH  11  12
ENDBRANCH  10  11
ENDBRANCH   9  10
ENDBRANCH   1   9
TORSDOF 10
ENDMDL
MODEL 8
REMARK VINA RESULT:    -4.751      2.920      5.693
REMARK INTER + INTRA:          -8.024
REMARK INTER:                  -7.315
REMARK INTRA:                  -0.709
REMARK UNBOUND:                -0.495
REMARK SMILES CCCCCCCCCCCC(=O)[O-]
REMARK SMILES IDX 7 1 8 2 9 3 10 4 11 5 12 6 13 7 14 8 6 9 5 10 4 11 3 12 2 13
REMARK SMILES IDX 1 14
REMARK H PARENT
REMARK Flexibility Score: inf
ROOT
ATOM      1  C   UNL     1     -23.847 -13.070  10.369  1.00  0.00     0.000 C 
ENDROOT
BRANCH   1   2
ATOM      2  C   UNL     1     -23.485 -11.661   9.869  1.00  0.00     0.000 C 
BRANCH   2   3
ATOM      3  C   UNL     1     -24.664 -10.982   9.140  1.00  0.00     0.000 C 
BRANCH   3   4
ATOM      4  C   UNL     1     -24.268  -9.699   8.390  1.00  0.00     0.006 C 
BRANCH   4   5
ATOM      5  C   UNL     1     -23.892  -9.956   6.926  1.00  0.00     0.053 C 
BRANCH   5   6
ATOM      6  C   UNL     1     -22.643  -9.215   6.569  1.00  0.00     0.041 C 
ATOM      7  O   UNL     1     -22.308  -9.079   5.362  1.00  0.00    -0.550 OA
ATOM      8  O   UNL     1     -21.821  -8.714   7.571  1.00  0.00    -0.550 OA
ENDBRANCH   5   6
ENDBRANCH   4   5
ENDBRANCH   3   4
ENDBRANCH   2   3
ENDBRANCH   1   2
BRANCH   1   9
ATOM      9  C   UNL     1     -23.241 -14.181   9.496  1.00  0.00     0.000 C 
BRANCH   9  10
ATOM     10  C   UNL     1     -24.301 -14.929   8.671  1.00  0.00    -0.000 C 
BRANCH  10  11
ATOM     11  C   UNL     1     -24.628 -14.222   7.345  1.00  0.00    -0.000 C 
BRANCH  11  12
ATOM     12  C   UNL     1     -25.401 -15.127   6.370  1.00  0.00    -0.000 C 
BRANCH  12  13
ATOM     13  C   UNL     1     -25.027 -14.866   4.903  1.00  0.00    -0.003 C 
ATOM     14  C   UNL     1     -24.616 -13.415   4.645  1.00  0.00     0.004 C 
ENDBRANCH  12  13
ENDBRANCH  11  12
ENDBRANCH  10  11
ENDBRANCH   9  10
ENDBRANCH   1   9
TORSDOF 10
ENDMDL
MODEL 9
REMARK VINA RESULT:    -4.713      1.629      4.855
REMARK INTER + INTRA:          -7.963
REMARK INTER:                  -7.421
REMARK INTRA:                  -0.542
REMARK UNBOUND:                -0.495
REMARK SMILES CCCCCCCCCCCC(=O)[O-]
REMARK SMILES IDX 7 1 8 2 9 3 10 4 11 5 12 6 13 7 14 8 6 9 5 10 4 11 3 12 2 13
REMARK SMILES IDX 1 14
REMARK H PARENT
REMARK Flexibility Score: inf
ROOT
ATOM      1  C   UNL     1     -23.635  -9.751   6.894  1.00  0.00     0.000 C 
ENDROOT
BRANCH   1   2
ATOM      2  C   UNL     1     -24.377  -9.805   8.242  1.00  0.00     0.000 C 
BRANCH   2   3
ATOM      3  C   UNL     1     -23.695 -10.763   9.242  1.00  0.00     0.000 C 
BRANCH   3   4
ATOM      4  C   UNL     1     -24.364 -12.146   9.323  1.00  0.00     0.006 C 
BRANCH   4   5
ATOM      5  C   UNL     1     -23.736 -13.049  10.391  1.00  0.00     0.053 C 
BRANCH   5   6
ATOM      6  C   UNL     1     -23.164 -14.281   9.764  1.00  0.00     0.041 C 
ATOM      7  O   UNL     1     -22.015 -14.683  10.088  1.00  0.00    -0.550 OA
ATOM      8  O   UNL     1     -23.880 -14.959   8.785  1.00  0.00    -0.550 OA
ENDBRANCH   5   6
ENDBRANCH   4   5
ENDBRANCH   3   4
ENDBRANCH   2   3
ENDBRANCH   1   2
BRANCH   1   9
ATOM      9  C   UNL     1     -24.250 -10.687   5.843  1.00  0.00     0.000 C 
BRANCH   9  10
ATOM     10  C   UNL     1     -23.334 -10.888   4.623  1.00  0.00    -0.000 C 
BRANCH  10  11
ATOM     11  C   UNL     1     -23.622 -12.200   3.875  1.00  0.00    -0.000 C 
BRANCH  11  12
ATOM     12  C   UNL     1     -24.797 -12.982   4.487  1.00  0.00    -0.000 C 
BRANCH  12  13
ATOM     13  C   UNL     1     -24.678 -14.496   4.258  1.00  0.00    -0.003 C 
ATOM     14  C   UNL     1     -25.325 -15.318   5.374  1.00  0.00     0.004 C 
ENDBRANCH  12  13
ENDBRANCH  11  12
ENDBRANCH  10  11
ENDBRANCH   9  10
ENDBRANCH   1   9
TORSDOF 10
ENDMDL
