MODEL 1
REMARK VINA RESULT:    -3.827      0.000      0.000
REMARK INTER + INTRA:          -7.356
REMARK INTER:                  -6.065
REMARK INTRA:                  -1.291
REMARK UNBOUND:                -1.291
REMARK SMILES CCCCCCCCCCCC(=O)[O-]
REMARK SMILES IDX 7 1 8 2 9 3 10 4 11 5 12 6 13 7 14 8 6 9 5 10 4 11 3 12 2 13
REMARK SMILES IDX 1 14
REMARK H PARENT
REMARK Flexibility Score: inf
ROOT
ATOM      1  C   UNL     1     -21.782   8.321  18.570  1.00  0.00     0.000 C 
ENDROOT
BRANCH   1   2
ATOM      2  C   UNL     1     -22.471   7.234  17.729  1.00  0.00     0.000 C 
BRANCH   2   3
ATOM      3  C   UNL     1     -21.469   6.334  16.983  1.00  0.00     0.000 C 
BRANCH   3   4
ATOM      4  C   UNL     1     -20.461   7.146  16.143  1.00  0.00     0.006 C 
BRANCH   4   5
ATOM      5  C   UNL     1     -19.025   6.605  16.214  1.00  0.00     0.053 C 
BRANCH   5   6
ATOM      6  C   UNL     1     -18.537   6.469  17.623  1.00  0.00     0.041 C 
ATOM      7  O   UNL     1     -18.389   7.490  18.344  1.00  0.00    -0.550 OA
ATOM      8  O   UNL     1     -18.271   5.210  18.148  1.00  0.00    -0.550 OA
ENDBRANCH   5   6
ENDBRANCH   4   5
ENDBRANCH   3   4
ENDBRANCH   2   3
ENDBRANCH   1   2
BRANCH   1   9
ATOM      9  C   UNL     1     -22.195   8.274  20.051  1.00  0.00     0.000 C 
BRANCH   9  10
ATOM     10  C   UNL     1     -23.697   7.996  20.244  1.00  0.00    -0.000 C 
BRANCH  10  11
ATOM     11  C   UNL     1     -24.033   6.766  21.113  1.00  0.00    -0.000 C 
BRANCH  11  12
ATOM     12  C   UNL     1     -22.854   5.815  21.383  1.00  0.00    -0.000 C 
BRANCH  12  13
ATOM     13  C   UNL     1     -22.830   4.611  20.432  1.00  0.00    -0.003 C 
ATOM     14  C   UNL     1     -21.407   4.297  19.979  1.00  0.00     0.004 C 
ENDBRANCH  12  13
ENDBRANCH  11  12
ENDBRANCH  10  11
ENDBRANCH   9  10
ENDBRANCH   1   9
TORSDOF 10
ENDMDL
MODEL 2
REMARK VINA RESULT:    -3.708      2.623      4.963
REMARK INTER + INTRA:          -7.166
REMARK INTER:                  -5.717
REMARK INTRA:                  -1.450
REMARK UNBOUND:                -1.291
REMARK SMILES CCCCCCCCCCCC(=O)[O-]
REMARK SMILES IDX 7 1 8 2 9 3 10 4 11 5 12 6 13 7 14 8 6 9 5 10 4 11 3 12 2 13
REMARK SMILES IDX 1 14
REMARK H PARENT
REMARK Flexibility Score: inf
ROOT
ATOM      1  C   UNL     1     -21.379   6.099  16.401  1.00  0.00     0.000 C 
ENDROOT
BRANCH   1   2
ATOM      2  C   UNL     1     -22.364   6.653  17.444  1.00  0.00     0.000 C 
BRANCH   2   3
ATOM      3  C   UNL     1     -21.895   7.984  18.059  1.00  0.00     0.000 C 
BRANCH   3   4
ATOM      4  C   UNL     1     -22.813   8.458  19.204  1.00  0.00     0.006 C 
BRANCH   4   5
ATOM      5  C   UNL     1     -22.533   7.759  20.544  1.00  0.00     0.053 C 
BRANCH   5   6
ATOM      6  C   UNL     1     -23.603   6.777  20.907  1.00  0.00     0.041 C 
ATOM      7  O   UNL     1     -23.364   5.541  20.883  1.00  0.00    -0.550 OA
ATOM      8  O   UNL     1     -24.858   7.228  21.296  1.00  0.00    -0.550 OA
ENDBRANCH   5   6
ENDBRANCH   4   5
ENDBRANCH   3   4
ENDBRANCH   2   3
ENDBRANCH   1   2
BRANCH   1   9
ATOM      9  C   UNL     1     -20.269   7.103  16.045  1.00  0.00     0.000 C 
BRANCH   9  10
ATOM     10  C   UNL     1     -18.855   6.533  16.264  1.00  0.00    -0.000 C 
BRANCH  10  11
ATOM     11  C   UNL     1     -18.230   6.833  17.642  1.00  0.00    -0.000 C 
BRANCH  11  12
ATOM     12  C   UNL     1     -18.240   5.658  18.635  1.00  0.00    -0.000 C 
BRANCH  12  13
ATOM     13  C   UNL     1     -19.359   5.771  19.680  1.00  0.00    -0.003 C 
ATOM     14  C   UNL     1     -20.261   4.540  19.655  1.00  0.00     0.004 C 
ENDBRANCH  12  13
ENDBRANCH  11  12
ENDBRANCH  10  11
ENDBRANCH   9  10
ENDBRANCH   1   9
TORSDOF 10
ENDMDL
MODEL 3
REMARK VINA RESULT:    -3.677      1.390      4.568
REMARK INTER + INTRA:          -7.117
REMARK INTER:                  -6.003
REMARK INTRA:                  -1.114
REMARK UNBOUND:                -1.291
REMARK SMILES CCCCCCCCCCCC(=O)[O-]
REMARK SMILES IDX 7 1 8 2 9 3 10 4 11 5 12 6 13 7 14 8 6 9 5 10 4 11 3 12 2 13
REMARK SMILES IDX 1 14
REMARK H PARENT
REMARK Flexibility Score: inf
ROOT
ATOM      1  C   UNL     1     -22.242   8.302  20.402  1.00  0.00     0.000 C 
ENDROOT
BRANCH   1   2
ATOM      2  C   UNL     1     -23.735   7.946  20.306  1.00  0.00     0.000 C 
BRANCH   2   3
ATOM      3  C   UNL     1     -24.111   6.718  21.154  1.00  0.00     0.000 C 
BRANCH   3   4
ATOM      4  C   UNL     1     -22.915   5.768  21.374  1.00  0.00     0.006 C 
BRANCH   4   5
ATOM      5  C   UNL     1     -22.814   4.654  20.320  1.00  0.00     0.053 C 
BRANCH   5   6
ATOM      6  C   UNL     1     -21.416   4.144  20.164  1.00  0.00     0.041 C 
ATOM      7  O   UNL     1     -21.191   2.905  20.147  1.00  0.00    -0.550 OA
ATOM      8  O   UNL     1     -20.363   5.037  20.012  1.00  0.00    -0.550 OA
ENDBRANCH   5   6
ENDBRANCH   4   5
ENDBRANCH   3   4
ENDBRANCH   2   3
ENDBRANCH   1   2
BRANCH   1   9
ATOM      9  C   UNL     1     -21.549   8.317  19.028  1.00  0.00     0.000 C 
BRANCH   9  10
ATOM     10  C   UNL     1     -22.350   7.571  17.946  1.00  0.00    -0.000 C 
BRANCH  10  11
ATOM     11  C   UNL     1     -21.548   6.538  17.127  1.00  0.00    -0.000 C 
BRANCH  11  12
ATOM     12  C   UNL     1     -20.575   7.135  16.095  1.00  0.00    -0.000 C 
BRANCH  12  13
ATOM     13  C   UNL     1     -19.280   6.321  15.957  1.00  0.00    -0.003 C 
ATOM     14  C   UNL     1     -18.303   6.647  17.082  1.00  0.00     0.004 C 
ENDBRANCH  12  13
ENDBRANCH  11  12
ENDBRANCH  10  11
ENDBRANCH   9  10
ENDBRANCH   1   9
TORSDOF 10
ENDMDL
MODEL 4
REMARK VINA RESULT:    -3.583      2.417      5.055
REMARK INTER + INTRA:          -6.968
REMARK INTER:                  -5.930
REMARK INTRA:                  -1.038
REMARK UNBOUND:                -1.291
REMARK SMILES CCCCCCCCCCCC(=O)[O-]
REMARK SMILES IDX 7 1 8 2 9 3 10 4 11 5 12 6 13 7 14 8 6 9 5 10 4 11 3 12 2 13
REMARK SMILES IDX 1 14
REMARK H PARENT
REMARK Flexibility Score: inf
ROOT
ATOM      1  C   UNL     1     -22.177   8.238  20.031  1.00  0.00     0.000 C 
ENDROOT
BRANCH   1   2
ATOM      2  C   UNL     1     -23.657   8.003  20.373  1.00  0.00     0.000 C 
BRANCH   2   3
ATOM      3  C   UNL     1     -23.898   6.657  21.081  1.00  0.00     0.000 C 
BRANCH   3   4
ATOM      4  C   UNL     1     -22.615   5.805  21.174  1.00  0.00     0.006 C 
BRANCH   4   5
ATOM      5  C   UNL     1     -22.611   4.595  20.226  1.00  0.00     0.053 C 
BRANCH   5   6
ATOM      6  C   UNL     1     -22.859   3.307  20.947  1.00  0.00     0.041 C 
ATOM      7  O   UNL     1     -22.137   2.302  20.716  1.00  0.00    -0.550 OA
ATOM      8  O   UNL     1     -23.873   3.224  21.894  1.00  0.00    -0.550 OA
ENDBRANCH   5   6
ENDBRANCH   4   5
ENDBRANCH   3   4
ENDBRANCH   2   3
ENDBRANCH   1   2
BRANCH   1   9
ATOM      9  C   UNL     1     -21.943   8.438  18.523  1.00  0.00     0.000 C 
BRANCH   9  10
ATOM     10  C   UNL     1     -22.476   7.269  17.675  1.00  0.00    -0.000 C 
BRANCH  10  11
ATOM     11  C   UNL     1     -21.396   6.382  17.022  1.00  0.00    -0.000 C 
BRANCH  11  12
ATOM     12  C   UNL     1     -20.441   7.115  16.064  1.00  0.00    -0.000 C 
BRANCH  12  13
ATOM     13  C   UNL     1     -18.964   6.797  16.337  1.00  0.00    -0.003 C 
ATOM     14  C   UNL     1     -18.755   6.359  17.784  1.00  0.00     0.004 C 
ENDBRANCH  12  13
ENDBRANCH  11  12
ENDBRANCH  10  11
ENDBRANCH   9  10
ENDBRANCH   1   9
TORSDOF 10
ENDMDL
MODEL 5
REMARK VINA RESULT:    -3.577      1.016      1.928
REMARK INTER + INTRA:          -6.960
REMARK INTER:                  -5.930
REMARK INTRA:                  -1.030
REMARK UNBOUND:                -1.291
REMARK SMILES CCCCCCCCCCCC(=O)[O-]
REMARK SMILES IDX 7 1 8 2 9 3 10 4 11 5 12 6 13 7 14 8 6 9 5 10 4 11 3 12 2 13
REMARK SMILES IDX 1 14
REMARK H PARENT
REMARK Flexibility Score: inf
ROOT
ATOM      1  C   UNL     1     -22.384   6.665  17.631  1.00  0.00     0.000 C 
ENDROOT
BRANCH   1   2
ATOM      2  C   UNL     1     -21.524   6.084  16.496  1.00  0.00     0.000 C 
BRANCH   2   3
ATOM      3  C   UNL     1     -20.396   7.034  16.058  1.00  0.00     0.000 C 
BRANCH   3   4
ATOM      4  C   UNL     1     -19.001   6.384  16.177  1.00  0.00     0.006 C 
BRANCH   4   5
ATOM      5  C   UNL     1     -18.247   6.780  17.457  1.00  0.00     0.053 C 
BRANCH   5   6
ATOM      6  C   UNL     1     -18.473   5.808  18.573  1.00  0.00     0.041 C 
ATOM      7  O   UNL     1     -18.016   4.637  18.497  1.00  0.00    -0.550 OA
ATOM      8  O   UNL     1     -19.167   6.204  19.709  1.00  0.00    -0.550 OA
ENDBRANCH   5   6
ENDBRANCH   4   5
ENDBRANCH   3   4
ENDBRANCH   2   3
ENDBRANCH   1   2
BRANCH   1   9
ATOM      9  C   UNL     1     -21.770   7.934  18.247  1.00  0.00     0.000 C 
BRANCH   9  10
ATOM     10  C   UNL     1     -22.776   8.733  19.097  1.00  0.00    -0.000 C 
BRANCH  10  11
ATOM     11  C   UNL     1     -22.948   8.242  20.549  1.00  0.00    -0.000 C 
BRANCH  11  12
ATOM     12  C   UNL     1     -24.184   7.360  20.799  1.00  0.00    -0.000 C 
BRANCH  12  13
ATOM     13  C   UNL     1     -23.841   6.039  21.503  1.00  0.00    -0.003 C 
ATOM     14  C   UNL     1     -22.388   5.645  21.254  1.00  0.00     0.004 C 
ENDBRANCH  12  13
ENDBRANCH  11  12
ENDBRANCH  10  11
ENDBRANCH   9  10
ENDBRANCH   1   9
TORSDOF 10
ENDMDL
MODEL 6
REMARK VINA RESULT:    -3.544      2.370      4.479
REMARK INTER + INTRA:          -6.907
REMARK INTER:                  -5.472
REMARK INTRA:                  -1.435
REMARK UNBOUND:                -1.291
REMARK SMILES CCCCCCCCCCCC(=O)[O-]
REMARK SMILES IDX 7 1 8 2 9 3 10 4 11 5 12 6 13 7 14 8 6 9 5 10 4 11 3 12 2 13
REMARK SMILES IDX 1 14
REMARK H PARENT
REMARK Flexibility Score: inf
ROOT
ATOM      1  C   UNL     1     -20.401   7.185  16.045  1.00  0.00     0.000 C 
ENDROOT
BRANCH   1   2
ATOM      2  C   UNL     1     -21.309   6.092  16.633  1.00  0.00     0.000 C 
BRANCH   2   3
ATOM      3  C   UNL     1     -22.360   6.652  17.609  1.00  0.00     0.000 C 
BRANCH   3   4
ATOM      4  C   UNL     1     -21.962   8.032  18.172  1.00  0.00     0.006 C 
BRANCH   4   5
ATOM      5  C   UNL     1     -22.996   8.619  19.145  1.00  0.00     0.053 C 
BRANCH   5   6
ATOM      6  C   UNL     1     -23.168   7.775  20.370  1.00  0.00     0.041 C 
ATOM      7  O   UNL     1     -22.196   7.579  21.146  1.00  0.00    -0.550 OA
ATOM      8  O   UNL     1     -24.408   7.225  20.667  1.00  0.00    -0.550 OA
ENDBRANCH   5   6
ENDBRANCH   4   5
ENDBRANCH   3   4
ENDBRANCH   2   3
ENDBRANCH   1   2
BRANCH   1   9
ATOM      9  C   UNL     1     -18.908   6.910  16.292  1.00  0.00     0.000 C 
BRANCH   9  10
ATOM     10  C   UNL     1     -18.667   5.844  17.377  1.00  0.00    -0.000 C 
BRANCH  10  11
ATOM     11  C   UNL     1     -18.305   6.395  18.772  1.00  0.00    -0.000 C 
BRANCH  11  12
ATOM     12  C   UNL     1     -19.330   6.095  19.880  1.00  0.00    -0.000 C 
BRANCH  12  13
ATOM     13  C   UNL     1     -19.509   4.592  20.135  1.00  0.00    -0.003 C 
ATOM     14  C   UNL     1     -20.952   4.161  19.891  1.00  0.00     0.004 C 
ENDBRANCH  12  13
ENDBRANCH  11  12
ENDBRANCH  10  11
ENDBRANCH   9  10
ENDBRANCH   1   9
TORSDOF 10
ENDMDL
MODEL 7
REMARK VINA RESULT:    -3.519      1.346      3.469
REMARK INTER + INTRA:          -6.867
REMARK INTER:                  -5.387
REMARK INTRA:                  -1.479
REMARK UNBOUND:                -1.291
REMARK SMILES CCCCCCCCCCCC(=O)[O-]
REMARK SMILES IDX 7 1 8 2 9 3 10 4 11 5 12 6 13 7 14 8 6 9 5 10 4 11 3 12 2 13
REMARK SMILES IDX 1 14
REMARK H PARENT
REMARK Flexibility Score: inf
ROOT
ATOM      1  C   UNL     1     -23.850   5.998  21.509  1.00  0.00     0.000 C 
ENDROOT
BRANCH   1   2
ATOM      2  C   UNL     1     -22.412   5.544  21.209  1.00  0.00     0.000 C 
BRANCH   2   3
ATOM      3  C   UNL     1     -22.351   4.148  20.563  1.00  0.00     0.000 C 
BRANCH   3   4
ATOM      4  C   UNL     1     -20.952   3.823  20.000  1.00  0.00     0.006 C 
BRANCH   4   5
ATOM      5  C   UNL     1     -19.966   4.999  20.086  1.00  0.00     0.053 C 
BRANCH   5   6
ATOM      6  C   UNL     1     -18.833   4.862  19.118  1.00  0.00     0.041 C 
ATOM      7  O   UNL     1     -18.701   5.687  18.176  1.00  0.00    -0.550 OA
ATOM      8  O   UNL     1     -17.907   3.838  19.271  1.00  0.00    -0.550 OA
ENDBRANCH   5   6
ENDBRANCH   4   5
ENDBRANCH   3   4
ENDBRANCH   2   3
ENDBRANCH   1   2
BRANCH   1   9
ATOM      9  C   UNL     1     -24.236   7.279  20.748  1.00  0.00     0.000 C 
BRANCH   9  10
ATOM     10  C   UNL     1     -23.067   8.273  20.618  1.00  0.00    -0.000 C 
BRANCH  10  11
ATOM     11  C   UNL     1     -22.723   8.699  19.176  1.00  0.00    -0.000 C 
BRANCH  11  12
ATOM     12  C   UNL     1     -21.410   8.122  18.619  1.00  0.00    -0.000 C 
BRANCH  12  13
ATOM     13  C   UNL     1     -21.597   7.406  17.274  1.00  0.00    -0.003 C 
ATOM     14  C   UNL     1     -22.424   6.134  17.438  1.00  0.00     0.004 C 
ENDBRANCH  12  13
ENDBRANCH  11  12
ENDBRANCH  10  11
ENDBRANCH   9  10
ENDBRANCH   1   9
TORSDOF 10
ENDMDL
MODEL 8
REMARK VINA RESULT:    -3.431      2.972      5.111
REMARK INTER + INTRA:          -6.729
REMARK INTER:                  -5.252
REMARK INTRA:                  -1.477
REMARK UNBOUND:                -1.291
REMARK SMILES CCCCCCCCCCCC(=O)[O-]
REMARK SMILES IDX 7 1 8 2 9 3 10 4 11 5 12 6 13 7 14 8 6 9 5 10 4 11 3 12 2 13
REMARK SMILES IDX 1 14
REMARK H PARENT
REMARK Flexibility Score: inf
ROOT
ATOM      1  C   UNL     1     -20.066   7.255  19.862  1.00  0.00     0.000 C 
ENDROOT
BRANCH   1   2
ATOM      2  C   UNL     1     -20.390   6.040  20.747  1.00  0.00     0.000 C 
BRANCH   2   3
ATOM      3  C   UNL     1     -20.437   4.721  19.954  1.00  0.00     0.000 C 
BRANCH   3   4
ATOM      4  C   UNL     1     -21.836   4.072  19.976  1.00  0.00     0.006 C 
BRANCH   4   5
ATOM      5  C   UNL     1     -22.905   4.939  20.660  1.00  0.00     0.053 C 
BRANCH   5   6
ATOM      6  C   UNL     1     -23.622   4.204  21.749  1.00  0.00     0.041 C 
ATOM      7  O   UNL     1     -23.729   2.951  21.705  1.00  0.00    -0.550 OA
ATOM      8  O   UNL     1     -24.152   4.903  22.827  1.00  0.00    -0.550 OA
ENDBRANCH   5   6
ENDBRANCH   4   5
ENDBRANCH   3   4
ENDBRANCH   2   3
ENDBRANCH   1   2
BRANCH   1   9
ATOM      9  C   UNL     1     -21.281   8.176  19.656  1.00  0.00     0.000 C 
BRANCH   9  10
ATOM     10  C   UNL     1     -21.731   8.253  18.185  1.00  0.00    -0.000 C 
BRANCH  10  11
ATOM     11  C   UNL     1     -22.376   6.968  17.625  1.00  0.00    -0.000 C 
BRANCH  11  12
ATOM     12  C   UNL     1     -21.486   6.153  16.671  1.00  0.00    -0.000 C 
BRANCH  12  13
ATOM     13  C   UNL     1     -20.424   7.011  15.968  1.00  0.00    -0.003 C 
ATOM     14  C   UNL     1     -19.016   6.542  16.324  1.00  0.00     0.004 C 
ENDBRANCH  12  13
ENDBRANCH  11  12
ENDBRANCH  10  11
ENDBRANCH   9  10
ENDBRANCH   1   9
TORSDOF 10
ENDMDL
MODEL 9
REMARK VINA RESULT:    -3.388      2.207      3.860
REMARK INTER + INTRA:          -6.660
REMARK INTER:                  -5.660
REMARK INTRA:                  -1.000
REMARK UNBOUND:                -1.291
REMARK SMILES CCCCCCCCCCCC(=O)[O-]
REMARK SMILES IDX 7 1 8 2 9 3 10 4 11 5 12 6 13 7 14 8 6 9 5 10 4 11 3 12 2 13
REMARK SMILES IDX 1 14
REMARK H PARENT
REMARK Flexibility Score: inf
ROOT
ATOM      1  C   UNL     1     -24.002   5.953  21.532  1.00  0.00     0.000 C 
ENDROOT
BRANCH   1   2
ATOM      2  C   UNL     1     -24.234   7.269  20.771  1.00  0.00     0.000 C 
BRANCH   2   3
ATOM      3  C   UNL     1     -22.961   8.127  20.663  1.00  0.00     0.000 C 
BRANCH   3   4
ATOM      4  C   UNL     1     -22.645   8.528  19.207  1.00  0.00     0.006 C 
BRANCH   4   5
ATOM      5  C   UNL     1     -21.378   7.863  18.647  1.00  0.00     0.053 C 
BRANCH   5   6
ATOM      6  C   UNL     1     -21.627   7.175  17.341  1.00  0.00     0.041 C 
ATOM      7  O   UNL     1     -20.950   7.480  16.324  1.00  0.00    -0.550 OA
ATOM      8  O   UNL     1     -22.590   6.178  17.254  1.00  0.00    -0.550 OA
ENDBRANCH   5   6
ENDBRANCH   4   5
ENDBRANCH   3   4
ENDBRANCH   2   3
ENDBRANCH   1   2
BRANCH   1   9
ATOM      9  C   UNL     1     -22.576   5.405  21.344  1.00  0.00     0.000 C 
BRANCH   9  10
ATOM     10  C   UNL     1     -22.464   4.422  20.164  1.00  0.00    -0.000 C 
BRANCH  10  11
ATOM     11  C   UNL     1     -21.634   3.152  20.442  1.00  0.00    -0.000 C 
BRANCH  11  12
ATOM     12  C   UNL     1     -22.165   2.260  21.579  1.00  0.00    -0.000 C 
BRANCH  12  13
ATOM     13  C   UNL     1     -23.469   1.539  21.212  1.00  0.00    -0.003 C 
ATOM     14  C   UNL     1     -24.604   1.945  22.148  1.00  0.00     0.004 C 
ENDBRANCH  12  13
ENDBRANCH  11  12
ENDBRANCH  10  11
ENDBRANCH   9  10
ENDBRANCH   1   9
TORSDOF 10
ENDMDL
