MODEL 1
REMARK VINA RESULT:    -2.749      0.000      0.000
REMARK INTER + INTRA:          -7.447
REMARK INTER:                  -5.962
REMARK INTRA:                  -1.485
REMARK UNBOUND:                -1.485
REMARK SMILES CCCCCCCCCCCCCCCCCCCCCC(=O)[O-]
REMARK SMILES IDX 12 1 11 2 10 3 9 4 8 5 7 6 6 7 5 8 4 9 3 10 2 11 1 12 13 13
REMARK SMILES IDX 14 14 15 15 16 16 17 17 18 18 19 19 20 20 21 21 22 22 23 23
REMARK SMILES IDX 24 24
REMARK H PARENT
REMARK Flexibility Score: inf
ROOT
ATOM      1  C   UNL     1       8.056  78.982   0.676  1.00  0.00     0.000 C 
ENDROOT
BRANCH   1   2
ATOM      2  C   UNL     1       6.620  78.991   1.233  1.00  0.00     0.000 C 
BRANCH   2   3
ATOM      3  C   UNL     1       6.509  79.117   2.764  1.00  0.00     0.000 C 
BRANCH   3   4
ATOM      4  C   UNL     1       7.848  79.270   3.513  1.00  0.00    -0.000 C 
BRANCH   4   5
ATOM      5  C   UNL     1       7.737  79.341   5.045  1.00  0.00    -0.000 C 
BRANCH   5   6
ATOM      6  C   UNL     1       7.793  77.958   5.717  1.00  0.00    -0.000 C 
BRANCH   6   7
ATOM      7  C   UNL     1       6.860  77.875   6.937  1.00  0.00    -0.000 C 
BRANCH   7   8
ATOM      8  C   UNL     1       5.378  77.807   6.534  1.00  0.00    -0.000 C 
BRANCH   8   9
ATOM      9  C   UNL     1       4.444  77.751   7.754  1.00  0.00    -0.000 C 
BRANCH   9  10
ATOM     10  C   UNL     1       3.004  77.375   7.362  1.00  0.00    -0.000 C 
BRANCH  10  11
ATOM     11  C   UNL     1       2.682  77.726   5.902  1.00  0.00    -0.003 C 
ATOM     12  C   UNL     1       1.504  78.694   5.774  1.00  0.00     0.004 C 
ENDBRANCH  10  11
ENDBRANCH   9  10
ENDBRANCH   8   9
ENDBRANCH   7   8
ENDBRANCH   6   7
ENDBRANCH   5   6
ENDBRANCH   4   5
ENDBRANCH   3   4
ENDBRANCH   2   3
ENDBRANCH   1   2
BRANCH   1  13
ATOM     13  C   UNL     1       8.224  79.754  -0.649  1.00  0.00     0.000 C 
BRANCH  13  14
ATOM     14  C   UNL     1       9.691  80.122  -0.943  1.00  0.00     0.000 C 
BRANCH  14  15
ATOM     15  C   UNL     1      10.660  79.603   0.131  1.00  0.00     0.000 C 
BRANCH  15  16
ATOM     16  C   UNL     1      12.095  80.125  -0.060  1.00  0.00     0.000 C 
BRANCH  16  17
ATOM     17  C   UNL     1      13.015  79.738   1.112  1.00  0.00     0.000 C 
BRANCH  17  18
ATOM     18  C   UNL     1      14.452  79.437   0.654  1.00  0.00     0.000 C 
BRANCH  18  19
ATOM     19  C   UNL     1      14.667  79.727  -0.841  1.00  0.00     0.000 C 
BRANCH  19  20
ATOM     20  C   UNL     1      15.034  78.467  -1.643  1.00  0.00     0.006 C 
BRANCH  20  21
ATOM     21  C   UNL     1      14.683  77.179  -0.886  1.00  0.00     0.053 C 
BRANCH  21  22
ATOM     22  C   UNL     1      13.281  76.731  -1.170  1.00  0.00     0.041 C 
ATOM     23  O   UNL     1      12.804  76.839  -2.329  1.00  0.00    -0.550 OA
ATOM     24  O   UNL     1      12.493  76.221  -0.147  1.00  0.00    -0.550 OA
ENDBRANCH  21  22
ENDBRANCH  20  21
ENDBRANCH  19  20
ENDBRANCH  18  19
ENDBRANCH  17  18
ENDBRANCH  16  17
ENDBRANCH  15  16
ENDBRANCH  14  15
ENDBRANCH  13  14
ENDBRANCH   1  13
TORSDOF 20
ENDMDL
MODEL 2
REMARK VINA RESULT:    -2.676      4.267     10.509
REMARK INTER + INTRA:          -7.290
REMARK INTER:                  -6.470
REMARK INTRA:                  -0.820
REMARK UNBOUND:                -1.485
REMARK SMILES CCCCCCCCCCCCCCCCCCCCCC(=O)[O-]
REMARK SMILES IDX 12 1 11 2 10 3 9 4 8 5 7 6 6 7 5 8 4 9 3 10 2 11 1 12 13 13
REMARK SMILES IDX 14 14 15 15 16 16 17 17 18 18 19 19 20 20 21 21 22 22 23 23
REMARK SMILES IDX 24 24
REMARK H PARENT
REMARK Flexibility Score: inf
ROOT
ATOM      1  C   UNL     1       7.001  80.089   1.078  1.00  0.00     0.000 C 
ENDROOT
BRANCH   1   2
ATOM      2  C   UNL     1       7.968  79.366   0.122  1.00  0.00     0.000 C 
BRANCH   2   3
ATOM      3  C   UNL     1       9.270  80.125  -0.193  1.00  0.00     0.000 C 
BRANCH   3   4
ATOM      4  C   UNL     1      10.453  79.828   0.751  1.00  0.00    -0.000 C 
BRANCH   4   5
ATOM      5  C   UNL     1      11.846  80.125   0.170  1.00  0.00    -0.000 C 
BRANCH   5   6
ATOM      6  C   UNL     1      12.992  79.669   1.090  1.00  0.00    -0.000 C 
BRANCH   6   7
ATOM      7  C   UNL     1      14.371  80.023   0.507  1.00  0.00    -0.000 C 
BRANCH   7   8
ATOM      8  C   UNL     1      15.057  78.810  -0.143  1.00  0.00    -0.000 C 
BRANCH   8   9
ATOM      9  C   UNL     1      14.698  78.666  -1.632  1.00  0.00    -0.000 C 
BRANCH   9  10
ATOM     10  C   UNL     1      14.041  77.309  -1.937  1.00  0.00    -0.000 C 
BRANCH  10  11
ATOM     11  C   UNL     1      13.911  76.423  -0.689  1.00  0.00    -0.003 C 
ATOM     12  C   UNL     1      12.510  76.469  -0.077  1.00  0.00     0.004 C 
ENDBRANCH  10  11
ENDBRANCH   9  10
ENDBRANCH   8   9
ENDBRANCH   7   8
ENDBRANCH   6   7
ENDBRANCH   5   6
ENDBRANCH   4   5
ENDBRANCH   3   4
ENDBRANCH   2   3
ENDBRANCH   1   2
BRANCH   1  13
ATOM     13  C   UNL     1       7.217  79.750   2.569  1.00  0.00     0.000 C 
BRANCH  13  14
ATOM     14  C   UNL     1       8.459  78.870   2.806  1.00  0.00     0.000 C 
BRANCH  14  15
ATOM     15  C   UNL     1       8.698  78.569   4.294  1.00  0.00     0.000 C 
BRANCH  15  16
ATOM     16  C   UNL     1       7.448  78.812   5.158  1.00  0.00     0.000 C 
BRANCH  16  17
ATOM     17  C   UNL     1       7.267  77.729   6.236  1.00  0.00     0.000 C 
BRANCH  17  18
ATOM     18  C   UNL     1       6.197  78.108   7.274  1.00  0.00     0.000 C 
BRANCH  18  19
ATOM     19  C   UNL     1       4.801  77.586   6.899  1.00  0.00     0.000 C 
BRANCH  19  20
ATOM     20  C   UNL     1       3.780  77.749   8.038  1.00  0.00     0.006 C 
BRANCH  20  21
ATOM     21  C   UNL     1       4.179  78.863   9.015  1.00  0.00     0.053 C 
BRANCH  21  22
ATOM     22  C   UNL     1       4.253  78.365  10.426  1.00  0.00     0.041 C 
ATOM     23  O   UNL     1       5.320  77.865  10.866  1.00  0.00    -0.550 OA
ATOM     24  O   UNL     1       3.134  78.428  11.246  1.00  0.00    -0.550 OA
ENDBRANCH  21  22
ENDBRANCH  20  21
ENDBRANCH  19  20
ENDBRANCH  18  19
ENDBRANCH  17  18
ENDBRANCH  16  17
ENDBRANCH  15  16
ENDBRANCH  14  15
ENDBRANCH  13  14
ENDBRANCH   1  13
TORSDOF 20
ENDMDL
MODEL 3
REMARK VINA RESULT:    -2.378      2.368      4.501
REMARK INTER + INTRA:          -6.644
REMARK INTER:                  -5.572
REMARK INTRA:                  -1.073
REMARK UNBOUND:                -1.485
REMARK SMILES CCCCCCCCCCCCCCCCCCCCCC(=O)[O-]
REMARK SMILES IDX 12 1 11 2 10 3 9 4 8 5 7 6 6 7 5 8 4 9 3 10 2 11 1 12 13 13
REMARK SMILES IDX 14 14 15 15 16 16 17 17 18 18 19 19 20 20 21 21 22 22 23 23
REMARK SMILES IDX 24 24
REMARK H PARENT
REMARK Flexibility Score: inf
ROOT
ATOM      1  C   UNL     1       5.682  77.873   3.640  1.00  0.00     0.000 C 
ENDROOT
BRANCH   1   2
ATOM      2  C   UNL     1       4.196  77.644   3.975  1.00  0.00     0.000 C 
BRANCH   2   3
ATOM      3  C   UNL     1       3.831  77.774   5.465  1.00  0.00     0.000 C 
BRANCH   3   4
ATOM      4  C   UNL     1       2.350  78.092   5.757  1.00  0.00    -0.000 C 
BRANCH   4   5
ATOM      5  C   UNL     1       2.111  79.196   6.801  1.00  0.00    -0.000 C 
BRANCH   5   6
ATOM      6  C   UNL     1       3.069  79.108   8.001  1.00  0.00    -0.000 C 
BRANCH   6   7
ATOM      7  C   UNL     1       2.679  80.088   9.120  1.00  0.00    -0.000 C 
BRANCH   7   8
ATOM      8  C   UNL     1       3.246  79.668  10.487  1.00  0.00    -0.000 C 
BRANCH   8   9
ATOM      9  C   UNL     1       3.730  78.208  10.493  1.00  0.00    -0.000 C 
BRANCH   9  10
ATOM     10  C   UNL     1       3.969  77.685  11.920  1.00  0.00    -0.000 C 
BRANCH  10  11
ATOM     11  C   UNL     1       5.400  77.167  12.125  1.00  0.00    -0.003 C 
ATOM     12  C   UNL     1       6.454  78.083  11.501  1.00  0.00     0.004 C 
ENDBRANCH  10  11
ENDBRANCH   9  10
ENDBRANCH   8   9
ENDBRANCH   7   8
ENDBRANCH   6   7
ENDBRANCH   5   6
ENDBRANCH   4   5
ENDBRANCH   3   4
ENDBRANCH   2   3
ENDBRANCH   1   2
BRANCH   1  13
ATOM     13  C   UNL     1       5.989  77.919   2.128  1.00  0.00     0.000 C 
BRANCH  13  14
ATOM     14  C   UNL     1       5.977  79.352   1.561  1.00  0.00     0.000 C 
BRANCH  14  15
ATOM     15  C   UNL     1       7.268  80.125   1.874  1.00  0.00     0.000 C 
BRANCH  15  16
ATOM     16  C   UNL     1       8.534  79.270   1.685  1.00  0.00     0.000 C 
BRANCH  16  17
ATOM     17  C   UNL     1       9.514  79.416   2.863  1.00  0.00     0.000 C 
BRANCH  17  18
ATOM     18  C   UNL     1      10.876  79.982   2.424  1.00  0.00     0.000 C 
BRANCH  18  19
ATOM     19  C   UNL     1      11.131  79.802   0.919  1.00  0.00     0.000 C 
BRANCH  19  20
ATOM     20  C   UNL     1      12.546  79.281   0.615  1.00  0.00     0.006 C 
BRANCH  20  21
ATOM     21  C   UNL     1      12.560  78.309  -0.573  1.00  0.00     0.053 C 
BRANCH  21  22
ATOM     22  C   UNL     1      13.934  77.771  -0.836  1.00  0.00     0.041 C 
ATOM     23  O   UNL     1      14.317  76.713  -0.274  1.00  0.00    -0.550 OA
ATOM     24  O   UNL     1      14.800  78.455  -1.678  1.00  0.00    -0.550 OA
ENDBRANCH  21  22
ENDBRANCH  20  21
ENDBRANCH  19  20
ENDBRANCH  18  19
ENDBRANCH  17  18
ENDBRANCH  16  17
ENDBRANCH  15  16
ENDBRANCH  14  15
ENDBRANCH  13  14
ENDBRANCH   1  13
TORSDOF 20
ENDMDL
MODEL 4
REMARK VINA RESULT:    -2.316      4.940      9.386
REMARK INTER + INTRA:          -6.510
REMARK INTER:                  -4.743
REMARK INTRA:                  -1.767
REMARK UNBOUND:                -1.485
REMARK SMILES CCCCCCCCCCCCCCCCCCCCCC(=O)[O-]
REMARK SMILES IDX 12 1 11 2 10 3 9 4 8 5 7 6 6 7 5 8 4 9 3 10 2 11 1 12 13 13
REMARK SMILES IDX 14 14 15 15 16 16 17 17 18 18 19 19 20 20 21 21 22 22 23 23
REMARK SMILES IDX 24 24
REMARK H PARENT
REMARK Flexibility Score: inf
ROOT
ATOM      1  C   UNL     1      11.069  79.718   2.009  1.00  0.00     0.000 C 
ENDROOT
BRANCH   1   2
ATOM      2  C   UNL     1      10.798  79.389   0.529  1.00  0.00     0.000 C 
BRANCH   2   3
ATOM      3  C   UNL     1       9.599  80.125  -0.098  1.00  0.00     0.000 C 
BRANCH   3   4
ATOM      4  C   UNL     1       8.339  79.264  -0.324  1.00  0.00    -0.000 C 
BRANCH   4   5
ATOM      5  C   UNL     1       7.007  79.947   0.031  1.00  0.00    -0.000 C 
BRANCH   5   6
ATOM      6  C   UNL     1       6.207  79.186   1.102  1.00  0.00    -0.000 C 
BRANCH   6   7
ATOM      7  C   UNL     1       6.675  77.728   1.240  1.00  0.00    -0.000 C 
BRANCH   7   8
ATOM      8  C   UNL     1       5.522  76.778   1.608  1.00  0.00    -0.000 C 
BRANCH   8   9
ATOM      9  C   UNL     1       5.507  75.513   0.733  1.00  0.00    -0.000 C 
BRANCH   9  10
ATOM     10  C   UNL     1       4.375  75.546  -0.308  1.00  0.00    -0.000 C 
BRANCH  10  11
ATOM     11  C   UNL     1       4.530  74.457  -1.380  1.00  0.00    -0.003 C 
ATOM     12  C   UNL     1       5.422  74.897  -2.543  1.00  0.00     0.004 C 
ENDBRANCH  10  11
ENDBRANCH   9  10
ENDBRANCH   8   9
ENDBRANCH   7   8
ENDBRANCH   6   7
ENDBRANCH   5   6
ENDBRANCH   4   5
ENDBRANCH   3   4
ENDBRANCH   2   3
ENDBRANCH   1   2
BRANCH   1  13
ATOM     13  C   UNL     1       9.805  80.087   2.815  1.00  0.00     0.000 C 
BRANCH  13  14
ATOM     14  C   UNL     1       9.227  78.893   3.599  1.00  0.00     0.000 C 
BRANCH  14  15
ATOM     15  C   UNL     1       8.060  79.293   4.515  1.00  0.00     0.000 C 
BRANCH  15  16
ATOM     16  C   UNL     1       7.781  78.250   5.612  1.00  0.00     0.000 C 
BRANCH  16  17
ATOM     17  C   UNL     1       6.280  77.941   5.752  1.00  0.00     0.000 C 
BRANCH  17  18
ATOM     18  C   UNL     1       5.837  77.841   7.222  1.00  0.00     0.000 C 
BRANCH  18  19
ATOM     19  C   UNL     1       4.308  77.793   7.374  1.00  0.00     0.000 C 
BRANCH  19  20
ATOM     20  C   UNL     1       3.807  78.580   8.597  1.00  0.00     0.006 C 
BRANCH  20  21
ATOM     21  C   UNL     1       4.298  77.968   9.916  1.00  0.00     0.053 C 
BRANCH  21  22
ATOM     22  C   UNL     1       4.351  78.984  11.016  1.00  0.00     0.041 C 
ATOM     23  O   UNL     1       3.385  79.770  11.198  1.00  0.00    -0.550 OA
ATOM     24  O   UNL     1       5.479  79.083  11.819  1.00  0.00    -0.550 OA
ENDBRANCH  21  22
ENDBRANCH  20  21
ENDBRANCH  19  20
ENDBRANCH  18  19
ENDBRANCH  17  18
ENDBRANCH  16  17
ENDBRANCH  15  16
ENDBRANCH  14  15
ENDBRANCH  13  14
ENDBRANCH   1  13
TORSDOF 20
ENDMDL
MODEL 5
REMARK VINA RESULT:    -2.309      4.468     11.134
REMARK INTER + INTRA:          -6.495
REMARK INTER:                  -5.127
REMARK INTRA:                  -1.368
REMARK UNBOUND:                -1.485
REMARK SMILES CCCCCCCCCCCCCCCCCCCCCC(=O)[O-]
REMARK SMILES IDX 12 1 11 2 10 3 9 4 8 5 7 6 6 7 5 8 4 9 3 10 2 11 1 12 13 13
REMARK SMILES IDX 14 14 15 15 16 16 17 17 18 18 19 19 20 20 21 21 22 22 23 23
REMARK SMILES IDX 24 24
REMARK H PARENT
REMARK Flexibility Score: inf
ROOT
ATOM      1  C   UNL     1       7.253  78.291   2.986  1.00  0.00     0.000 C 
ENDROOT
BRANCH   1   2
ATOM      2  C   UNL     1       6.662  79.061   1.790  1.00  0.00     0.000 C 
BRANCH   2   3
ATOM      3  C   UNL     1       7.692  79.772   0.893  1.00  0.00     0.000 C 
BRANCH   3   4
ATOM      4  C   UNL     1       9.074  80.012   1.535  1.00  0.00    -0.000 C 
BRANCH   4   5
ATOM      5  C   UNL     1      10.279  79.621   0.662  1.00  0.00    -0.000 C 
BRANCH   5   6
ATOM      6  C   UNL     1      11.620  80.119   1.229  1.00  0.00    -0.000 C 
BRANCH   6   7
ATOM      7  C   UNL     1      12.733  80.102   0.168  1.00  0.00    -0.000 C 
BRANCH   7   8
ATOM      8  C   UNL     1      14.097  79.713   0.760  1.00  0.00    -0.000 C 
BRANCH   8   9
ATOM      9  C   UNL     1      14.746  78.538   0.008  1.00  0.00    -0.000 C 
BRANCH   9  10
ATOM     10  C   UNL     1      13.913  78.104  -1.211  1.00  0.00    -0.000 C 
BRANCH  10  11
ATOM     11  C   UNL     1      13.615  76.597  -1.213  1.00  0.00    -0.003 C 
ATOM     12  C   UNL     1      12.533  76.208  -0.204  1.00  0.00     0.004 C 
ENDBRANCH  10  11
ENDBRANCH   9  10
ENDBRANCH   8   9
ENDBRANCH   7   8
ENDBRANCH   6   7
ENDBRANCH   5   6
ENDBRANCH   4   5
ENDBRANCH   3   4
ENDBRANCH   2   3
ENDBRANCH   1   2
BRANCH   1  13
ATOM     13  C   UNL     1       6.608  78.642   4.343  1.00  0.00     0.000 C 
BRANCH  13  14
ATOM     14  C   UNL     1       7.450  78.168   5.544  1.00  0.00     0.000 C 
BRANCH  14  15
ATOM     15  C   UNL     1       6.598  77.876   6.789  1.00  0.00     0.000 C 
BRANCH  15  16
ATOM     16  C   UNL     1       5.087  77.921   6.499  1.00  0.00     0.000 C 
BRANCH  16  17
ATOM     17  C   UNL     1       4.248  77.538   7.731  1.00  0.00     0.000 C 
BRANCH  17  18
ATOM     18  C   UNL     1       3.466  78.734   8.302  1.00  0.00     0.000 C 
BRANCH  18  19
ATOM     19  C   UNL     1       4.321  79.602   9.240  1.00  0.00     0.000 C 
BRANCH  19  20
ATOM     20  C   UNL     1       3.772  79.642  10.676  1.00  0.00     0.006 C 
BRANCH  20  21
ATOM     21  C   UNL     1       4.894  79.584  11.723  1.00  0.00     0.053 C 
BRANCH  21  22
ATOM     22  C   UNL     1       5.329  78.176  11.994  1.00  0.00     0.041 C 
ATOM     23  O   UNL     1       6.550  77.904  12.125  1.00  0.00    -0.550 OA
ATOM     24  O   UNL     1       4.387  77.159  12.072  1.00  0.00    -0.550 OA
ENDBRANCH  21  22
ENDBRANCH  20  21
ENDBRANCH  19  20
ENDBRANCH  18  19
ENDBRANCH  17  18
ENDBRANCH  16  17
ENDBRANCH  15  16
ENDBRANCH  14  15
ENDBRANCH  13  14
ENDBRANCH   1  13
TORSDOF 20
ENDMDL
MODEL 6
REMARK VINA RESULT:    -2.224      1.256      2.101
REMARK INTER + INTRA:          -6.310
REMARK INTER:                  -4.820
REMARK INTRA:                  -1.491
REMARK UNBOUND:                -1.485
REMARK SMILES CCCCCCCCCCCCCCCCCCCCCC(=O)[O-]
REMARK SMILES IDX 12 1 11 2 10 3 9 4 8 5 7 6 6 7 5 8 4 9 3 10 2 11 1 12 13 13
REMARK SMILES IDX 14 14 15 15 16 16 17 17 18 18 19 19 20 20 21 21 22 22 23 23
REMARK SMILES IDX 24 24
REMARK H PARENT
REMARK Flexibility Score: inf
ROOT
ATOM      1  C   UNL     1      10.116  79.716   0.960  1.00  0.00     0.000 C 
ENDROOT
BRANCH   1   2
ATOM      2  C   UNL     1       8.651  80.029   0.603  1.00  0.00     0.000 C 
BRANCH   2   3
ATOM      3  C   UNL     1       7.667  80.010   1.788  1.00  0.00     0.000 C 
BRANCH   3   4
ATOM      4  C   UNL     1       7.252  78.608   2.280  1.00  0.00    -0.000 C 
BRANCH   4   5
ATOM      5  C   UNL     1       6.693  78.554   3.712  1.00  0.00    -0.000 C 
BRANCH   5   6
ATOM      6  C   UNL     1       7.794  78.523   4.787  1.00  0.00    -0.000 C 
BRANCH   6   7
ATOM      7  C   UNL     1       7.279  77.952   6.119  1.00  0.00    -0.000 C 
BRANCH   7   8
ATOM      8  C   UNL     1       5.744  77.969   6.205  1.00  0.00    -0.000 C 
BRANCH   8   9
ATOM      9  C   UNL     1       5.243  78.068   7.656  1.00  0.00    -0.000 C 
BRANCH   9  10
ATOM     10  C   UNL     1       3.798  77.561   7.803  1.00  0.00    -0.000 C 
BRANCH  10  11
ATOM     11  C   UNL     1       2.984  77.718   6.510  1.00  0.00    -0.003 C 
ATOM     12  C   UNL     1       1.890  78.780   6.626  1.00  0.00     0.004 C 
ENDBRANCH  10  11
ENDBRANCH   9  10
ENDBRANCH   8   9
ENDBRANCH   7   8
ENDBRANCH   6   7
ENDBRANCH   5   6
ENDBRANCH   4   5
ENDBRANCH   3   4
ENDBRANCH   2   3
ENDBRANCH   1   2
BRANCH   1  13
ATOM     13  C   UNL     1      10.445  79.862   2.461  1.00  0.00     0.000 C 
BRANCH  13  14
ATOM     14  C   UNL     1      11.948  80.073   2.724  1.00  0.00     0.000 C 
BRANCH  14  15
ATOM     15  C   UNL     1      12.783  80.067   1.434  1.00  0.00     0.000 C 
BRANCH  15  16
ATOM     16  C   UNL     1      14.297  80.125   1.705  1.00  0.00     0.000 C 
BRANCH  16  17
ATOM     17  C   UNL     1      15.125  79.943   0.420  1.00  0.00     0.000 C 
BRANCH  17  18
ATOM     18  C   UNL     1      15.022  78.516  -0.145  1.00  0.00     0.000 C 
BRANCH  18  19
ATOM     19  C   UNL     1      14.188  78.452  -1.435  1.00  0.00     0.000 C 
BRANCH  19  20
ATOM     20  C   UNL     1      13.328  77.180  -1.525  1.00  0.00     0.006 C 
BRANCH  20  21
ATOM     21  C   UNL     1      13.578  76.231  -0.345  1.00  0.00     0.053 C 
BRANCH  21  22
ATOM     22  C   UNL     1      12.309  75.899   0.381  1.00  0.00     0.041 C 
ATOM     23  O   UNL     1      11.394  76.756   0.480  1.00  0.00    -0.550 OA
ATOM     24  O   UNL     1      12.152  74.653   0.972  1.00  0.00    -0.550 OA
ENDBRANCH  21  22
ENDBRANCH  20  21
ENDBRANCH  19  20
ENDBRANCH  18  19
ENDBRANCH  17  18
ENDBRANCH  16  17
ENDBRANCH  15  16
ENDBRANCH  14  15
ENDBRANCH  13  14
ENDBRANCH   1  13
TORSDOF 20
ENDMDL
MODEL 7
REMARK VINA RESULT:    -2.065      1.618      2.649
REMARK INTER + INTRA:          -5.965
REMARK INTER:                  -4.687
REMARK INTRA:                  -1.278
REMARK UNBOUND:                -1.485
REMARK SMILES CCCCCCCCCCCCCCCCCCCCCC(=O)[O-]
REMARK SMILES IDX 12 1 11 2 10 3 9 4 8 5 7 6 6 7 5 8 4 9 3 10 2 11 1 12 13 13
REMARK SMILES IDX 14 14 15 15 16 16 17 17 18 18 19 19 20 20 21 21 22 22 23 23
REMARK SMILES IDX 24 24
REMARK H PARENT
REMARK Flexibility Score: inf
ROOT
ATOM      1  C   UNL     1       7.128  79.242   2.072  1.00  0.00     0.000 C 
ENDROOT
BRANCH   1   2
ATOM      2  C   UNL     1       8.092  78.362   2.890  1.00  0.00     0.000 C 
BRANCH   2   3
ATOM      3  C   UNL     1       8.348  78.833   4.333  1.00  0.00     0.000 C 
BRANCH   3   4
ATOM      4  C   UNL     1       7.855  77.876   5.438  1.00  0.00    -0.000 C 
BRANCH   4   5
ATOM      5  C   UNL     1       7.080  78.545   6.587  1.00  0.00    -0.000 C 
BRANCH   5   6
ATOM      6  C   UNL     1       6.129  77.579   7.315  1.00  0.00    -0.000 C 
BRANCH   6   7
ATOM      7  C   UNL     1       4.880  78.298   7.851  1.00  0.00    -0.000 C 
BRANCH   7   8
ATOM      8  C   UNL     1       3.827  77.315   8.388  1.00  0.00    -0.000 C 
BRANCH   8   9
ATOM      9  C   UNL     1       3.475  77.584   9.860  1.00  0.00    -0.000 C 
BRANCH   9  10
ATOM     10  C   UNL     1       3.737  79.048  10.257  1.00  0.00    -0.000 C 
BRANCH  10  11
ATOM     11  C   UNL     1       4.364  79.177  11.653  1.00  0.00    -0.003 C 
ATOM     12  C   UNL     1       5.583  78.272  11.837  1.00  0.00     0.004 C 
ENDBRANCH  10  11
ENDBRANCH   9  10
ENDBRANCH   8   9
ENDBRANCH   7   8
ENDBRANCH   6   7
ENDBRANCH   5   6
ENDBRANCH   4   5
ENDBRANCH   3   4
ENDBRANCH   2   3
ENDBRANCH   1   2
BRANCH   1  13
ATOM     13  C   UNL     1       7.722  79.766   0.747  1.00  0.00     0.000 C 
BRANCH  13  14
ATOM     14  C   UNL     1       9.216  80.125   0.864  1.00  0.00     0.000 C 
BRANCH  14  15
ATOM     15  C   UNL     1      10.106  79.273  -0.055  1.00  0.00     0.000 C 
BRANCH  15  16
ATOM     16  C   UNL     1      11.545  79.810  -0.153  1.00  0.00     0.000 C 
BRANCH  16  17
ATOM     17  C   UNL     1      12.360  79.522   1.120  1.00  0.00     0.000 C 
BRANCH  17  18
ATOM     18  C   UNL     1      13.852  79.856   0.948  1.00  0.00     0.000 C 
BRANCH  18  19
ATOM     19  C   UNL     1      14.245  80.051  -0.525  1.00  0.00     0.000 C 
BRANCH  19  20
ATOM     20  C   UNL     1      15.050  78.867  -1.087  1.00  0.00     0.006 C 
BRANCH  20  21
ATOM     21  C   UNL     1      14.753  77.560  -0.337  1.00  0.00     0.053 C 
BRANCH  21  22
ATOM     22  C   UNL     1      13.603  76.818  -0.947  1.00  0.00     0.041 C 
ATOM     23  O   UNL     1      12.911  76.036  -0.246  1.00  0.00    -0.550 OA
ATOM     24  O   UNL     1      13.316  76.967  -2.298  1.00  0.00    -0.550 OA
ENDBRANCH  21  22
ENDBRANCH  20  21
ENDBRANCH  19  20
ENDBRANCH  18  19
ENDBRANCH  17  18
ENDBRANCH  16  17
ENDBRANCH  15  16
ENDBRANCH  14  15
ENDBRANCH  13  14
ENDBRANCH   1  13
TORSDOF 20
ENDMDL
MODEL 8
REMARK VINA RESULT:    -1.973      2.950      4.196
REMARK INTER + INTRA:          -5.765
REMARK INTER:                  -3.762
REMARK INTRA:                  -2.002
REMARK UNBOUND:                -1.485
REMARK SMILES CCCCCCCCCCCCCCCCCCCCCC(=O)[O-]
REMARK SMILES IDX 12 1 11 2 10 3 9 4 8 5 7 6 6 7 5 8 4 9 3 10 2 11 1 12 13 13
REMARK SMILES IDX 14 14 15 15 16 16 17 17 18 18 19 19 20 20 21 21 22 22 23 23
REMARK SMILES IDX 24 24
REMARK H PARENT
REMARK Flexibility Score: inf
ROOT
ATOM      1  C   UNL     1       9.663  78.869   3.370  1.00  0.00     0.000 C 
ENDROOT
BRANCH   1   2
ATOM      2  C   UNL     1       8.141  78.873   3.608  1.00  0.00     0.000 C 
BRANCH   2   3
ATOM      3  C   UNL     1       7.401  80.125   3.101  1.00  0.00     0.000 C 
BRANCH   3   4
ATOM      4  C   UNL     1       6.987  80.093   1.616  1.00  0.00    -0.000 C 
BRANCH   4   5
ATOM      5  C   UNL     1       5.575  79.550   1.340  1.00  0.00    -0.000 C 
BRANCH   5   6
ATOM      6  C   UNL     1       5.579  78.107   0.805  1.00  0.00    -0.000 C 
BRANCH   6   7
ATOM      7  C   UNL     1       6.120  77.111   1.845  1.00  0.00    -0.000 C 
BRANCH   7   8
ATOM      8  C   UNL     1       6.481  75.754   1.218  1.00  0.00    -0.000 C 
BRANCH   8   9
ATOM      9  C   UNL     1       5.358  74.717   1.388  1.00  0.00    -0.000 C 
BRANCH   9  10
ATOM     10  C   UNL     1       5.246  73.784   0.169  1.00  0.00    -0.000 C 
BRANCH  10  11
ATOM     11  C   UNL     1       5.008  74.552  -1.140  1.00  0.00    -0.003 C 
ATOM     12  C   UNL     1       3.657  75.269  -1.165  1.00  0.00     0.004 C 
ENDBRANCH  10  11
ENDBRANCH   9  10
ENDBRANCH   8   9
ENDBRANCH   7   8
ENDBRANCH   6   7
ENDBRANCH   5   6
ENDBRANCH   4   5
ENDBRANCH   3   4
ENDBRANCH   2   3
ENDBRANCH   1   2
BRANCH   1  13
ATOM     13  C   UNL     1      10.114  77.987   2.187  1.00  0.00     0.000 C 
BRANCH  13  14
ATOM     14  C   UNL     1      10.310  78.790   0.886  1.00  0.00     0.000 C 
BRANCH  14  15
ATOM     15  C   UNL     1      11.083  80.100   1.107  1.00  0.00     0.000 C 
BRANCH  15  16
ATOM     16  C   UNL     1      12.433  80.124   0.370  1.00  0.00     0.000 C 
BRANCH  16  17
ATOM     17  C   UNL     1      13.618  79.876   1.321  1.00  0.00     0.000 C 
BRANCH  17  18
ATOM     18  C   UNL     1      14.868  79.370   0.579  1.00  0.00     0.000 C 
BRANCH  18  19
ATOM     19  C   UNL     1      14.699  79.401  -0.948  1.00  0.00     0.000 C 
BRANCH  19  20
ATOM     20  C   UNL     1      14.666  77.995  -1.571  1.00  0.00     0.006 C 
BRANCH  20  21
ATOM     21  C   UNL     1      13.328  77.286  -1.322  1.00  0.00     0.053 C 
BRANCH  21  22
ATOM     22  C   UNL     1      13.470  76.155  -0.349  1.00  0.00     0.041 C 
ATOM     23  O   UNL     1      12.469  75.741   0.292  1.00  0.00    -0.550 OA
ATOM     24  O   UNL     1      14.714  75.579  -0.128  1.00  0.00    -0.550 OA
ENDBRANCH  21  22
ENDBRANCH  20  21
ENDBRANCH  19  20
ENDBRANCH  18  19
ENDBRANCH  17  18
ENDBRANCH  16  17
ENDBRANCH  15  16
ENDBRANCH  14  15
ENDBRANCH  13  14
ENDBRANCH   1  13
TORSDOF 20
ENDMDL
MODEL 9
REMARK VINA RESULT:    -1.960      4.522     11.124
REMARK INTER + INTRA:          -5.736
REMARK INTER:                  -4.622
REMARK INTRA:                  -1.114
REMARK UNBOUND:                -1.485
REMARK SMILES CCCCCCCCCCCCCCCCCCCCCC(=O)[O-]
REMARK SMILES IDX 12 1 11 2 10 3 9 4 8 5 7 6 6 7 5 8 4 9 3 10 2 11 1 12 13 13
REMARK SMILES IDX 14 14 15 15 16 16 17 17 18 18 19 19 20 20 21 21 22 22 23 23
REMARK SMILES IDX 24 24
REMARK H PARENT
REMARK Flexibility Score: inf
ROOT
ATOM      1  C   UNL     1       5.984  78.085   1.278  1.00  0.00     0.000 C 
ENDROOT
BRANCH   1   2
ATOM      2  C   UNL     1       6.155  79.553   1.711  1.00  0.00     0.000 C 
BRANCH   2   3
ATOM      3  C   UNL     1       7.613  80.029   1.859  1.00  0.00     0.000 C 
BRANCH   3   4
ATOM      4  C   UNL     1       8.407  79.377   3.009  1.00  0.00    -0.000 C 
BRANCH   4   5
ATOM      5  C   UNL     1       9.937  79.409   2.849  1.00  0.00    -0.000 C 
BRANCH   5   6
ATOM      6  C   UNL     1      10.394  80.125   1.566  1.00  0.00    -0.000 C 
BRANCH   6   7
ATOM      7  C   UNL     1      11.722  79.560   1.036  1.00  0.00    -0.000 C 
BRANCH   7   8
ATOM      8  C   UNL     1      11.510  78.523  -0.080  1.00  0.00    -0.000 C 
BRANCH   8   9
ATOM      9  C   UNL     1      12.599  77.437  -0.081  1.00  0.00    -0.000 C 
BRANCH   9  10
ATOM     10  C   UNL     1      14.014  78.040  -0.111  1.00  0.00    -0.000 C 
BRANCH  10  11
ATOM     11  C   UNL     1      14.473  78.394  -1.534  1.00  0.00    -0.003 C 
ATOM     12  C   UNL     1      14.397  77.203  -2.491  1.00  0.00     0.004 C 
ENDBRANCH  10  11
ENDBRANCH   9  10
ENDBRANCH   8   9
ENDBRANCH   7   8
ENDBRANCH   6   7
ENDBRANCH   5   6
ENDBRANCH   4   5
ENDBRANCH   3   4
ENDBRANCH   2   3
ENDBRANCH   1   2
BRANCH   1  13
ATOM     13  C   UNL     1       5.624  77.125   2.432  1.00  0.00     0.000 C 
BRANCH  13  14
ATOM     14  C   UNL     1       5.186  77.867   3.710  1.00  0.00     0.000 C 
BRANCH  14  15
ATOM     15  C   UNL     1       3.785  77.452   4.187  1.00  0.00     0.000 C 
BRANCH  15  16
ATOM     16  C   UNL     1       3.523  77.826   5.656  1.00  0.00     0.000 C 
BRANCH  16  17
ATOM     17  C   UNL     1       2.021  77.985   5.955  1.00  0.00     0.000 C 
BRANCH  17  18
ATOM     18  C   UNL     1       1.734  79.164   6.902  1.00  0.00     0.000 C 
BRANCH  18  19
ATOM     19  C   UNL     1       2.950  79.533   7.767  1.00  0.00     0.000 C 
BRANCH  19  20
ATOM     20  C   UNL     1       2.554  80.024   9.170  1.00  0.00     0.006 C 
BRANCH  20  21
ATOM     21  C   UNL     1       3.698  79.865  10.181  1.00  0.00     0.053 C 
BRANCH  21  22
ATOM     22  C   UNL     1       3.723  78.492  10.781  1.00  0.00     0.041 C 
ATOM     23  O   UNL     1       3.997  77.494  10.066  1.00  0.00    -0.550 OA
ATOM     24  O   UNL     1       3.413  78.313  12.122  1.00  0.00    -0.550 OA
ENDBRANCH  21  22
ENDBRANCH  20  21
ENDBRANCH  19  20
ENDBRANCH  18  19
ENDBRANCH  17  18
ENDBRANCH  16  17
ENDBRANCH  15  16
ENDBRANCH  14  15
ENDBRANCH  13  14
ENDBRANCH   1  13
TORSDOF 20
ENDMDL
