MODEL 1
REMARK VINA RESULT:    -1.951      0.000      0.000
REMARK INTER + INTRA:          -6.852
REMARK INTER:                  -3.662
REMARK INTRA:                  -3.190
REMARK UNBOUND:                -3.190
REMARK SMILES CCCCCCCCC=CCCCCCCCC(=O)[O-]
REMARK SMILES IDX 10 1 9 2 11 3 12 4 13 5 14 6 15 7 16 8 17 9 18 10 19 11
REMARK SMILES IDX 20 12 8 13 7 14 6 15 5 16 4 17 3 18 2 19 1 20
REMARK H PARENT
REMARK Flexibility Score: inf
ROOT
ATOM      1  C   UNL     1     177.302 203.970 199.441  1.00  0.00    -0.031 C 
ATOM      2  C   UNL     1     176.147 204.479 199.907  1.00  0.00    -0.031 C 
ENDROOT
BRANCH   1   3
ATOM      3  C   UNL     1     178.212 203.051 200.220  1.00  0.00     0.027 C 
BRANCH   3   4
ATOM      4  C   UNL     1     179.247 203.829 201.045  1.00  0.00     0.004 C 
BRANCH   4   5
ATOM      5  C   UNL     1     180.079 204.787 200.179  1.00  0.00     0.000 C 
BRANCH   5   6
ATOM      6  C   UNL     1     180.135 206.186 200.804  1.00  0.00     0.000 C 
BRANCH   6   7
ATOM      7  C   UNL     1     180.129 207.274 199.721  1.00  0.00     0.000 C 
BRANCH   7   8
ATOM      8  C   UNL     1     178.892 207.199 198.813  1.00  0.00     0.006 C 
BRANCH   8   9
ATOM      9  C   UNL     1     179.255 207.106 197.326  1.00  0.00     0.053 C 
BRANCH   9  10
ATOM     10  C   UNL     1     178.698 205.853 196.728  1.00  0.00     0.041 C 
ATOM     11  O   UNL     1     179.415 204.824 196.630  1.00  0.00    -0.550 OA
ATOM     12  O   UNL     1     177.371 205.807 196.318  1.00  0.00    -0.550 OA
ENDBRANCH   9  10
ENDBRANCH   8   9
ENDBRANCH   7   8
ENDBRANCH   6   7
ENDBRANCH   5   6
ENDBRANCH   4   5
ENDBRANCH   3   4
ENDBRANCH   1   3
BRANCH   2  13
ATOM     13  C   UNL     1     175.627 204.281 201.308  1.00  0.00     0.027 C 
BRANCH  13  14
ATOM     14  C   UNL     1     175.411 205.633 202.002  1.00  0.00     0.004 C 
BRANCH  14  15
ATOM     15  C   UNL     1     176.633 206.562 201.888  1.00  0.00     0.000 C 
BRANCH  15  16
ATOM     16  C   UNL     1     176.316 207.995 201.415  1.00  0.00     0.000 C 
BRANCH  16  17
ATOM     17  C   UNL     1     175.071 208.124 200.513  1.00  0.00    -0.000 C 
BRANCH  17  18
ATOM     18  C   UNL     1     175.361 208.125 198.999  1.00  0.00    -0.000 C 
BRANCH  18  19
ATOM     19  C   UNL     1     174.565 207.087 198.189  1.00  0.00    -0.003 C 
ATOM     20  C   UNL     1     173.280 206.646 198.889  1.00  0.00     0.004 C 
ENDBRANCH  18  19
ENDBRANCH  17  18
ENDBRANCH  16  17
ENDBRANCH  15  16
ENDBRANCH  14  15
ENDBRANCH  13  14
ENDBRANCH   2  13
TORSDOF 15
ENDMDL
MODEL 2
REMARK VINA RESULT:    -1.912      1.963      4.267
REMARK INTER + INTRA:          -6.779
REMARK INTER:                  -3.704
REMARK INTRA:                  -3.075
REMARK UNBOUND:                -3.190
REMARK SMILES CCCCCCCCC=CCCCCCCCC(=O)[O-]
REMARK SMILES IDX 10 1 9 2 11 3 12 4 13 5 14 6 15 7 16 8 17 9 18 10 19 11
REMARK SMILES IDX 20 12 8 13 7 14 6 15 5 16 4 17 3 18 2 19 1 20
REMARK H PARENT
REMARK Flexibility Score: inf
ROOT
ATOM      1  C   UNL     1     176.695 203.921 200.208  1.00  0.00    -0.031 C 
ATOM      2  C   UNL     1     177.971 203.949 199.783  1.00  0.00    -0.031 C 
ENDROOT
BRANCH   1   3
ATOM      3  C   UNL     1     176.267 203.593 201.618  1.00  0.00     0.027 C 
BRANCH   3   4
ATOM      4  C   UNL     1     176.271 204.832 202.525  1.00  0.00     0.004 C 
BRANCH   4   5
ATOM      5  C   UNL     1     175.631 206.051 201.844  1.00  0.00     0.000 C 
BRANCH   5   6
ATOM      6  C   UNL     1     176.517 207.293 201.993  1.00  0.00     0.000 C 
BRANCH   6   7
ATOM      7  C   UNL     1     176.522 208.125 200.703  1.00  0.00     0.000 C 
BRANCH   7   8
ATOM      8  C   UNL     1     176.173 207.292 199.460  1.00  0.00     0.006 C 
BRANCH   8   9
ATOM      9  C   UNL     1     175.502 208.125 198.360  1.00  0.00     0.053 C 
BRANCH   9  10
ATOM     10  C   UNL     1     174.103 207.649 198.122  1.00  0.00     0.041 C 
ATOM     11  O   UNL     1     173.471 207.057 199.035  1.00  0.00    -0.550 OA
ATOM     12  O   UNL     1     173.481 207.898 196.905  1.00  0.00    -0.550 OA
ENDBRANCH   9  10
ENDBRANCH   8   9
ENDBRANCH   7   8
ENDBRANCH   6   7
ENDBRANCH   5   6
ENDBRANCH   4   5
ENDBRANCH   3   4
ENDBRANCH   1   3
BRANCH   2  13
ATOM     13  C   UNL     1     179.164 203.572 200.625  1.00  0.00     0.027 C 
BRANCH  13  14
ATOM     14  C   UNL     1     180.238 204.667 200.562  1.00  0.00     0.004 C 
BRANCH  14  15
ATOM     15  C   UNL     1     179.693 206.058 200.931  1.00  0.00     0.000 C 
BRANCH  15  16
ATOM     16  C   UNL     1     180.327 207.230 200.154  1.00  0.00     0.000 C 
BRANCH  16  17
ATOM     17  C   UNL     1     180.536 206.977 198.647  1.00  0.00    -0.000 C 
BRANCH  17  18
ATOM     18  C   UNL     1     179.258 207.058 197.789  1.00  0.00    -0.000 C 
BRANCH  18  19
ATOM     19  C   UNL     1     179.085 205.912 196.778  1.00  0.00    -0.003 C 
ATOM     20  C   UNL     1     177.620 205.619 196.456  1.00  0.00     0.004 C 
ENDBRANCH  18  19
ENDBRANCH  17  18
ENDBRANCH  16  17
ENDBRANCH  15  16
ENDBRANCH  14  15
ENDBRANCH  13  14
ENDBRANCH   2  13
TORSDOF 15
ENDMDL
MODEL 3
REMARK VINA RESULT:    -1.907      2.478      4.723
REMARK INTER + INTRA:          -6.770
REMARK INTER:                  -3.617
REMARK INTRA:                  -3.152
REMARK UNBOUND:                -3.190
REMARK SMILES CCCCCCCCC=CCCCCCCCC(=O)[O-]
REMARK SMILES IDX 10 1 9 2 11 3 12 4 13 5 14 6 15 7 16 8 17 9 18 10 19 11
REMARK SMILES IDX 20 12 8 13 7 14 6 15 5 16 4 17 3 18 2 19 1 20
REMARK H PARENT
REMARK Flexibility Score: inf
ROOT
ATOM      1  C   UNL     1     179.200 203.723 200.536  1.00  0.00    -0.031 C 
ATOM      2  C   UNL     1     179.752 204.161 199.390  1.00  0.00    -0.031 C 
ENDROOT
BRANCH   1   3
ATOM      3  C   UNL     1     179.727 204.036 201.916  1.00  0.00     0.027 C 
BRANCH   3   4
ATOM      4  C   UNL     1     178.833 205.039 202.660  1.00  0.00     0.004 C 
BRANCH   4   5
ATOM      5  C   UNL     1     177.442 205.161 202.021  1.00  0.00     0.000 C 
BRANCH   5   6
ATOM      6  C   UNL     1     176.678 206.362 202.591  1.00  0.00     0.000 C 
BRANCH   6   7
ATOM      7  C   UNL     1     175.597 206.843 201.613  1.00  0.00     0.000 C 
BRANCH   7   8
ATOM      8  C   UNL     1     174.326 205.981 201.665  1.00  0.00     0.006 C 
BRANCH   8   9
ATOM      9  C   UNL     1     173.537 206.012 200.350  1.00  0.00     0.053 C 
BRANCH   9  10
ATOM     10  C   UNL     1     172.980 207.379 200.105  1.00  0.00     0.041 C 
ATOM     11  O   UNL     1     173.363 208.052 199.114  1.00  0.00    -0.550 OA
ATOM     12  O   UNL     1     172.002 207.893 200.949  1.00  0.00    -0.550 OA
ENDBRANCH   9  10
ENDBRANCH   8   9
ENDBRANCH   7   8
ENDBRANCH   6   7
ENDBRANCH   5   6
ENDBRANCH   4   5
ENDBRANCH   3   4
ENDBRANCH   1   3
BRANCH   2  13
ATOM     13  C   UNL     1     181.028 204.959 199.301  1.00  0.00     0.027 C 
BRANCH  13  14
ATOM     14  C   UNL     1     180.736 206.400 198.860  1.00  0.00     0.004 C 
BRANCH  14  15
ATOM     15  C   UNL     1     180.087 207.243 199.973  1.00  0.00     0.000 C 
BRANCH  15  16
ATOM     16  C   UNL     1     178.651 207.719 199.672  1.00  0.00     0.000 C 
BRANCH  16  17
ATOM     17  C   UNL     1     178.099 207.296 198.296  1.00  0.00    -0.000 C 
BRANCH  17  18
ATOM     18  C   UNL     1     176.739 206.570 198.335  1.00  0.00    -0.000 C 
BRANCH  18  19
ATOM     19  C   UNL     1     176.725 205.189 197.657  1.00  0.00    -0.003 C 
ATOM     20  C   UNL     1     176.104 204.103 198.534  1.00  0.00     0.004 C 
ENDBRANCH  18  19
ENDBRANCH  17  18
ENDBRANCH  16  17
ENDBRANCH  15  16
ENDBRANCH  14  15
ENDBRANCH  13  14
ENDBRANCH   2  13
TORSDOF 15
ENDMDL
MODEL 4
REMARK VINA RESULT:    -1.876      1.749      5.153
REMARK INTER + INTRA:          -6.711
REMARK INTER:                  -4.016
REMARK INTRA:                  -2.695
REMARK UNBOUND:                -3.190
REMARK SMILES CCCCCCCCC=CCCCCCCCC(=O)[O-]
REMARK SMILES IDX 10 1 9 2 11 3 12 4 13 5 14 6 15 7 16 8 17 9 18 10 19 11
REMARK SMILES IDX 20 12 8 13 7 14 6 15 5 16 4 17 3 18 2 19 1 20
REMARK H PARENT
REMARK Flexibility Score: inf
ROOT
ATOM      1  C   UNL     1     174.315 205.713 198.834  1.00  0.00    -0.031 C 
ATOM      2  C   UNL     1     175.365 205.950 198.027  1.00  0.00    -0.031 C 
ENDROOT
BRANCH   1   3
ATOM      3  C   UNL     1     173.570 206.775 199.607  1.00  0.00     0.027 C 
BRANCH   3   4
ATOM      4  C   UNL     1     174.088 206.910 201.047  1.00  0.00     0.004 C 
BRANCH   4   5
ATOM      5  C   UNL     1     175.012 208.124 201.220  1.00  0.00     0.000 C 
BRANCH   5   6
ATOM      6  C   UNL     1     176.470 207.684 201.393  1.00  0.00     0.000 C 
BRANCH   6   7
ATOM      7  C   UNL     1     176.571 206.461 202.315  1.00  0.00     0.000 C 
BRANCH   7   8
ATOM      8  C   UNL     1     177.520 205.383 201.766  1.00  0.00     0.006 C 
BRANCH   8   9
ATOM      9  C   UNL     1     176.772 204.217 201.107  1.00  0.00     0.053 C 
BRANCH   9  10
ATOM     10  C   UNL     1     177.631 203.561 200.073  1.00  0.00     0.041 C 
ATOM     11  O   UNL     1     177.133 202.734 199.267  1.00  0.00    -0.550 OA
ATOM     12  O   UNL     1     178.976 203.897 199.970  1.00  0.00    -0.550 OA
ENDBRANCH   9  10
ENDBRANCH   8   9
ENDBRANCH   7   8
ENDBRANCH   6   7
ENDBRANCH   5   6
ENDBRANCH   4   5
ENDBRANCH   3   4
ENDBRANCH   1   3
BRANCH   2  13
ATOM     13  C   UNL     1     176.014 207.298 197.837  1.00  0.00     0.027 C 
BRANCH  13  14
ATOM     14  C   UNL     1     175.786 207.811 196.409  1.00  0.00     0.004 C 
BRANCH  14  15
ATOM     15  C   UNL     1     177.100 208.013 195.633  1.00  0.00     0.000 C 
BRANCH  15  16
ATOM     16  C   UNL     1     178.124 206.870 195.784  1.00  0.00     0.000 C 
BRANCH  16  17
ATOM     17  C   UNL     1     179.454 207.270 196.454  1.00  0.00    -0.000 C 
BRANCH  17  18
ATOM     18  C   UNL     1     179.754 206.555 197.787  1.00  0.00    -0.000 C 
BRANCH  18  19
ATOM     19  C   UNL     1     179.343 207.337 199.045  1.00  0.00    -0.003 C 
ATOM     20  C   UNL     1     180.335 207.175 200.196  1.00  0.00     0.004 C 
ENDBRANCH  18  19
ENDBRANCH  17  18
ENDBRANCH  16  17
ENDBRANCH  15  16
ENDBRANCH  14  15
ENDBRANCH  13  14
ENDBRANCH   2  13
TORSDOF 15
ENDMDL
MODEL 5
REMARK VINA RESULT:    -1.793      1.873      4.905
REMARK INTER + INTRA:          -6.555
REMARK INTER:                  -3.869
REMARK INTRA:                  -2.686
REMARK UNBOUND:                -3.190
REMARK SMILES CCCCCCCCC=CCCCCCCCC(=O)[O-]
REMARK SMILES IDX 10 1 9 2 11 3 12 4 13 5 14 6 15 7 16 8 17 9 18 10 19 11
REMARK SMILES IDX 20 12 8 13 7 14 6 15 5 16 4 17 3 18 2 19 1 20
REMARK H PARENT
REMARK Flexibility Score: inf
ROOT
ATOM      1  C   UNL     1     177.109 205.532 201.151  1.00  0.00    -0.031 C 
ATOM      2  C   UNL     1     178.359 205.041 201.067  1.00  0.00    -0.031 C 
ENDROOT
BRANCH   1   3
ATOM      3  C   UNL     1     176.675 206.614 202.110  1.00  0.00     0.027 C 
BRANCH   3   4
ATOM      4  C   UNL     1     176.305 207.914 201.381  1.00  0.00     0.004 C 
BRANCH   4   5
ATOM      5  C   UNL     1     174.789 208.055 201.181  1.00  0.00     0.000 C 
BRANCH   5   6
ATOM      6  C   UNL     1     174.435 208.125 199.690  1.00  0.00     0.000 C 
BRANCH   6   7
ATOM      7  C   UNL     1     173.966 206.759 199.171  1.00  0.00     0.000 C 
BRANCH   7   8
ATOM      8  C   UNL     1     173.110 206.871 197.900  1.00  0.00     0.006 C 
BRANCH   8   9
ATOM      9  C   UNL     1     172.642 205.507 197.380  1.00  0.00     0.053 C 
BRANCH   9  10
ATOM     10  C   UNL     1     173.750 204.816 196.648  1.00  0.00     0.041 C 
ATOM     11  O   UNL     1     174.316 205.380 195.677  1.00  0.00    -0.550 OA
ATOM     12  O   UNL     1     174.188 203.566 197.068  1.00  0.00    -0.550 OA
ENDBRANCH   9  10
ENDBRANCH   8   9
ENDBRANCH   7   8
ENDBRANCH   6   7
ENDBRANCH   5   6
ENDBRANCH   4   5
ENDBRANCH   3   4
ENDBRANCH   1   3
BRANCH   2  13
ATOM     13  C   UNL     1     179.498 205.433 201.974  1.00  0.00     0.027 C 
BRANCH  13  14
ATOM     14  C   UNL     1     180.676 205.982 201.158  1.00  0.00     0.004 C 
BRANCH  14  15
ATOM     15  C   UNL     1     180.269 207.142 200.232  1.00  0.00     0.000 C 
BRANCH  15  16
ATOM     16  C   UNL     1     180.784 207.027 198.783  1.00  0.00     0.000 C 
BRANCH  16  17
ATOM     17  C   UNL     1     179.688 206.838 197.714  1.00  0.00    -0.000 C 
BRANCH  17  18
ATOM     18  C   UNL     1     178.284 207.324 198.127  1.00  0.00    -0.000 C 
BRANCH  18  19
ATOM     19  C   UNL     1     177.121 206.489 197.566  1.00  0.00    -0.003 C 
ATOM     20  C   UNL     1     177.497 205.026 197.335  1.00  0.00     0.004 C 
ENDBRANCH  18  19
ENDBRANCH  17  18
ENDBRANCH  16  17
ENDBRANCH  15  16
ENDBRANCH  14  15
ENDBRANCH  13  14
ENDBRANCH   2  13
TORSDOF 15
ENDMDL
MODEL 6
REMARK VINA RESULT:    -1.784      2.039      4.126
REMARK INTER + INTRA:          -6.538
REMARK INTER:                  -3.303
REMARK INTRA:                  -3.235
REMARK UNBOUND:                -3.190
REMARK SMILES CCCCCCCCC=CCCCCCCCC(=O)[O-]
REMARK SMILES IDX 10 1 9 2 11 3 12 4 13 5 14 6 15 7 16 8 17 9 18 10 19 11
REMARK SMILES IDX 20 12 8 13 7 14 6 15 5 16 4 17 3 18 2 19 1 20
REMARK H PARENT
REMARK Flexibility Score: inf
ROOT
ATOM      1  C   UNL     1     173.921 207.280 199.868  1.00  0.00    -0.031 C 
ATOM      2  C   UNL     1     174.548 207.655 200.998  1.00  0.00    -0.031 C 
ENDROOT
BRANCH   1   3
ATOM      3  C   UNL     1     174.579 207.183 198.513  1.00  0.00     0.027 C 
BRANCH   3   4
ATOM      4  C   UNL     1     175.065 205.758 198.210  1.00  0.00     0.004 C 
BRANCH   4   5
ATOM      5  C   UNL     1     176.597 205.670 198.141  1.00  0.00     0.000 C 
BRANCH   5   6
ATOM      6  C   UNL     1     177.205 207.005 197.698  1.00  0.00     0.000 C 
BRANCH   6   7
ATOM      7  C   UNL     1     178.447 207.350 198.532  1.00  0.00     0.000 C 
BRANCH   7   8
ATOM      8  C   UNL     1     179.541 206.275 198.437  1.00  0.00     0.006 C 
BRANCH   8   9
ATOM      9  C   UNL     1     180.317 206.104 199.749  1.00  0.00     0.053 C 
BRANCH   9  10
ATOM     10  C   UNL     1     179.746 204.979 200.553  1.00  0.00     0.041 C 
ATOM     11  O   UNL     1     179.275 203.964 199.978  1.00  0.00    -0.550 OA
ATOM     12  O   UNL     1     179.773 205.031 201.942  1.00  0.00    -0.550 OA
ENDBRANCH   9  10
ENDBRANCH   8   9
ENDBRANCH   7   8
ENDBRANCH   6   7
ENDBRANCH   5   6
ENDBRANCH   4   5
ENDBRANCH   3   4
ENDBRANCH   1   3
BRANCH   2  13
ATOM     13  C   UNL     1     175.981 208.119 201.070  1.00  0.00     0.027 C 
BRANCH  13  14
ATOM     14  C   UNL     1     176.879 207.017 201.648  1.00  0.00     0.004 C 
BRANCH  14  15
ATOM     15  C   UNL     1     176.081 205.923 202.380  1.00  0.00     0.000 C 
BRANCH  15  16
ATOM     16  C   UNL     1     176.211 204.511 201.773  1.00  0.00     0.000 C 
BRANCH  16  17
ATOM     17  C   UNL     1     174.993 203.591 201.993  1.00  0.00    -0.000 C 
BRANCH  17  18
ATOM     18  C   UNL     1     173.835 203.794 200.994  1.00  0.00    -0.000 C 
BRANCH  18  19
ATOM     19  C   UNL     1     172.480 204.135 201.638  1.00  0.00    -0.003 C 
ATOM     20  C   UNL     1     172.623 204.842 202.985  1.00  0.00     0.004 C 
ENDBRANCH  18  19
ENDBRANCH  17  18
ENDBRANCH  16  17
ENDBRANCH  15  16
ENDBRANCH  14  15
ENDBRANCH  13  14
ENDBRANCH   2  13
TORSDOF 15
ENDMDL
MODEL 7
REMARK VINA RESULT:    -1.778      2.451      3.777
REMARK INTER + INTRA:          -6.526
REMARK INTER:                  -4.042
REMARK INTRA:                  -2.484
REMARK UNBOUND:                -3.190
REMARK SMILES CCCCCCCCC=CCCCCCCCC(=O)[O-]
REMARK SMILES IDX 10 1 9 2 11 3 12 4 13 5 14 6 15 7 16 8 17 9 18 10 19 11
REMARK SMILES IDX 20 12 8 13 7 14 6 15 5 16 4 17 3 18 2 19 1 20
REMARK H PARENT
REMARK Flexibility Score: inf
ROOT
ATOM      1  C   UNL     1     178.353 207.060 197.059  1.00  0.00    -0.031 C 
ATOM      2  C   UNL     1     177.229 207.386 197.723  1.00  0.00    -0.031 C 
ENDROOT
BRANCH   1   3
ATOM      3  C   UNL     1     179.446 206.174 197.604  1.00  0.00     0.027 C 
BRANCH   3   4
ATOM      4  C   UNL     1     180.678 206.981 198.039  1.00  0.00     0.004 C 
BRANCH   4   5
ATOM      5  C   UNL     1     180.843 207.008 199.566  1.00  0.00     0.000 C 
BRANCH   5   6
ATOM      6  C   UNL     1     180.369 205.693 200.194  1.00  0.00     0.000 C 
BRANCH   6   7
ATOM      7  C   UNL     1     179.939 205.902 201.653  1.00  0.00     0.000 C 
BRANCH   7   8
ATOM      8  C   UNL     1     178.632 205.169 201.996  1.00  0.00     0.006 C 
BRANCH   8   9
ATOM      9  C   UNL     1     178.236 204.138 200.932  1.00  0.00     0.053 C 
BRANCH   9  10
ATOM     10  C   UNL     1     177.525 202.982 201.563  1.00  0.00     0.041 C 
ATOM     11  O   UNL     1     177.967 201.813 201.422  1.00  0.00    -0.550 OA
ATOM     12  O   UNL     1     176.396 203.201 202.344  1.00  0.00    -0.550 OA
ENDBRANCH   9  10
ENDBRANCH   8   9
ENDBRANCH   7   8
ENDBRANCH   6   7
ENDBRANCH   5   6
ENDBRANCH   4   5
ENDBRANCH   3   4
ENDBRANCH   1   3
BRANCH   2  13
ATOM     13  C   UNL     1     176.929 206.988 199.146  1.00  0.00     0.027 C 
BRANCH  13  14
ATOM     14  C   UNL     1     177.299 208.119 200.115  1.00  0.00     0.004 C 
BRANCH  14  15
ATOM     15  C   UNL     1     176.430 208.124 201.385  1.00  0.00     0.000 C 
BRANCH  15  16
ATOM     16  C   UNL     1     175.264 207.115 201.376  1.00  0.00     0.000 C 
BRANCH  16  17
ATOM     17  C   UNL     1     173.861 207.740 201.241  1.00  0.00    -0.000 C 
BRANCH  17  18
ATOM     18  C   UNL     1     173.454 208.125 199.804  1.00  0.00    -0.000 C 
BRANCH  18  19
ATOM     19  C   UNL     1     171.963 207.933 199.482  1.00  0.00    -0.003 C 
ATOM     20  C   UNL     1     171.193 207.252 200.613  1.00  0.00     0.004 C 
ENDBRANCH  18  19
ENDBRANCH  17  18
ENDBRANCH  16  17
ENDBRANCH  15  16
ENDBRANCH  14  15
ENDBRANCH  13  14
ENDBRANCH   2  13
TORSDOF 15
ENDMDL
MODEL 8
REMARK VINA RESULT:    -1.769      2.697      4.779
REMARK INTER + INTRA:          -6.510
REMARK INTER:                  -3.527
REMARK INTRA:                  -2.983
REMARK UNBOUND:                -3.190
REMARK SMILES CCCCCCCCC=CCCCCCCCC(=O)[O-]
REMARK SMILES IDX 10 1 9 2 11 3 12 4 13 5 14 6 15 7 16 8 17 9 18 10 19 11
REMARK SMILES IDX 20 12 8 13 7 14 6 15 5 16 4 17 3 18 2 19 1 20
REMARK H PARENT
REMARK Flexibility Score: inf
ROOT
ATOM      1  C   UNL     1     178.519 204.327 201.974  1.00  0.00    -0.031 C 
ATOM      2  C   UNL     1     177.859 205.160 202.800  1.00  0.00    -0.031 C 
ENDROOT
BRANCH   1   3
ATOM      3  C   UNL     1     177.857 203.382 201.000  1.00  0.00     0.027 C 
BRANCH   3   4
ATOM      4  C   UNL     1     177.934 203.896 199.555  1.00  0.00     0.004 C 
BRANCH   4   5
ATOM      5  C   UNL     1     176.816 203.320 198.674  1.00  0.00     0.000 C 
BRANCH   5   6
ATOM      6  C   UNL     1     175.439 203.798 199.150  1.00  0.00     0.000 C 
BRANCH   6   7
ATOM      7  C   UNL     1     175.169 205.239 198.698  1.00  0.00     0.000 C 
BRANCH   7   8
ATOM      8  C   UNL     1     173.674 205.522 198.483  1.00  0.00     0.006 C 
BRANCH   8   9
ATOM      9  C   UNL     1     173.351 207.022 198.480  1.00  0.00     0.053 C 
BRANCH   9  10
ATOM     10  C   UNL     1     172.615 207.401 199.726  1.00  0.00     0.041 C 
ATOM     11  O   UNL     1     173.170 208.120 200.597  1.00  0.00    -0.550 OA
ATOM     12  O   UNL     1     171.297 206.998 199.906  1.00  0.00    -0.550 OA
ENDBRANCH   9  10
ENDBRANCH   8   9
ENDBRANCH   7   8
ENDBRANCH   6   7
ENDBRANCH   5   6
ENDBRANCH   4   5
ENDBRANCH   3   4
ENDBRANCH   1   3
BRANCH   2  13
ATOM     13  C   UNL     1     176.359 205.215 202.943  1.00  0.00     0.027 C 
BRANCH  13  14
ATOM     14  C   UNL     1     175.765 206.278 202.008  1.00  0.00     0.004 C 
BRANCH  14  15
ATOM     15  C   UNL     1     176.704 207.480 201.801  1.00  0.00     0.000 C 
BRANCH  15  16
ATOM     16  C   UNL     1     176.632 208.125 200.402  1.00  0.00     0.000 C 
BRANCH  16  17
ATOM     17  C   UNL     1     177.724 207.666 199.415  1.00  0.00    -0.000 C 
BRANCH  17  18
ATOM     18  C   UNL     1     179.099 207.377 200.051  1.00  0.00    -0.000 C 
BRANCH  18  19
ATOM     19  C   UNL     1     180.206 206.997 199.053  1.00  0.00    -0.003 C 
ATOM     20  C   UNL     1     181.090 205.856 199.554  1.00  0.00     0.004 C 
ENDBRANCH  18  19
ENDBRANCH  17  18
ENDBRANCH  16  17
ENDBRANCH  15  16
ENDBRANCH  14  15
ENDBRANCH  13  14
ENDBRANCH   2  13
TORSDOF 15
ENDMDL
MODEL 9
REMARK VINA RESULT:    -1.715      2.679      5.742
REMARK INTER + INTRA:          -6.408
REMARK INTER:                  -3.370
REMARK INTRA:                  -3.039
REMARK UNBOUND:                -3.190
REMARK SMILES CCCCCCCCC=CCCCCCCCC(=O)[O-]
REMARK SMILES IDX 10 1 9 2 11 3 12 4 13 5 14 6 15 7 16 8 17 9 18 10 19 11
REMARK SMILES IDX 20 12 8 13 7 14 6 15 5 16 4 17 3 18 2 19 1 20
REMARK H PARENT
REMARK Flexibility Score: inf
ROOT
ATOM      1  C   UNL     1     176.214 205.408 197.150  1.00  0.00    -0.031 C 
ATOM      2  C   UNL     1     177.528 205.694 197.173  1.00  0.00    -0.031 C 
ENDROOT
BRANCH   1   3
ATOM      3  C   UNL     1     175.110 206.428 197.295  1.00  0.00     0.027 C 
BRANCH   3   4
ATOM      4  C   UNL     1     174.645 206.570 198.752  1.00  0.00     0.004 C 
BRANCH   4   5
ATOM      5  C   UNL     1     174.366 208.032 199.132  1.00  0.00     0.000 C 
BRANCH   5   6
ATOM      6  C   UNL     1     173.709 208.125 200.514  1.00  0.00     0.000 C 
BRANCH   6   7
ATOM      7  C   UNL     1     173.889 206.818 201.299  1.00  0.00     0.000 C 
BRANCH   7   8
ATOM      8  C   UNL     1     172.583 206.332 201.947  1.00  0.00     0.006 C 
BRANCH   8   9
ATOM      9  C   UNL     1     172.358 204.826 201.765  1.00  0.00     0.053 C 
BRANCH   9  10
ATOM     10  C   UNL     1     172.048 204.511 200.336  1.00  0.00     0.041 C 
ATOM     11  O   UNL     1     171.202 205.196 199.705  1.00  0.00    -0.550 OA
ATOM     12  O   UNL     1     172.727 203.487 199.686  1.00  0.00    -0.550 OA
ENDBRANCH   9  10
ENDBRANCH   8   9
ENDBRANCH   7   8
ENDBRANCH   6   7
ENDBRANCH   5   6
ENDBRANCH   4   5
ENDBRANCH   3   4
ENDBRANCH   1   3
BRANCH   2  13
ATOM     13  C   UNL     1     178.103 207.063 197.435  1.00  0.00     0.027 C 
BRANCH  13  14
ATOM     14  C   UNL     1     179.458 206.954 198.149  1.00  0.00     0.004 C 
BRANCH  14  15
ATOM     15  C   UNL     1     179.388 207.378 199.626  1.00  0.00     0.000 C 
BRANCH  15  16
ATOM     16  C   UNL     1     177.973 207.724 200.135  1.00  0.00     0.000 C 
BRANCH  16  17
ATOM     17  C   UNL     1     177.433 206.797 201.243  1.00  0.00    -0.000 C 
BRANCH  17  18
ATOM     18  C   UNL     1     177.903 205.331 201.152  1.00  0.00    -0.000 C 
BRANCH  18  19
ATOM     19  C   UNL     1     176.852 204.349 200.607  1.00  0.00    -0.003 C 
ATOM     20  C   UNL     1     175.946 203.782 201.699  1.00  0.00     0.004 C 
ENDBRANCH  18  19
ENDBRANCH  17  18
ENDBRANCH  16  17
ENDBRANCH  15  16
ENDBRANCH  14  15
ENDBRANCH  13  14
ENDBRANCH   2  13
TORSDOF 15
ENDMDL
