MODEL 1
REMARK VINA RESULT:    -4.605      0.000      0.000
REMARK INTER + INTRA:          -8.569
REMARK INTER:                  -7.297
REMARK INTRA:                  -1.272
REMARK UNBOUND:                -1.272
REMARK SMILES CCCCCCCCCCCC(=O)[O-]
REMARK SMILES IDX 7 1 8 2 9 3 10 4 11 5 12 6 13 7 14 8 6 9 5 10 4 11 3 12 2 13
REMARK SMILES IDX 1 14
REMARK H PARENT
REMARK Flexibility Score: inf
ROOT
ATOM      1  C   UNL     1      11.836  16.813  14.033  1.00  0.00     0.000 C 
ENDROOT
BRANCH   1   2
ATOM      2  C   UNL     1      11.209  15.893  12.976  1.00  0.00     0.000 C 
BRANCH   2   3
ATOM      3  C   UNL     1       9.678  15.938  13.048  1.00  0.00     0.000 C 
BRANCH   3   4
ATOM      4  C   UNL     1       9.194  15.865  14.505  1.00  0.00     0.006 C 
BRANCH   4   5
ATOM      5  C   UNL     1       8.030  16.827  14.779  1.00  0.00     0.053 C 
BRANCH   5   6
ATOM      6  C   UNL     1       8.391  18.244  14.454  1.00  0.00     0.041 C 
ATOM      7  O   UNL     1       9.220  18.866  15.170  1.00  0.00    -0.550 OA
ATOM      8  O   UNL     1       7.786  18.889  13.383  1.00  0.00    -0.550 OA
ENDBRANCH   5   6
ENDBRANCH   4   5
ENDBRANCH   3   4
ENDBRANCH   2   3
ENDBRANCH   1   2
BRANCH   1   9
ATOM      9  C   UNL     1      13.096  16.211  14.679  1.00  0.00     0.000 C 
BRANCH   9  10
ATOM     10  C   UNL     1      13.530  14.842  14.116  1.00  0.00    -0.000 C 
BRANCH  10  11
ATOM     11  C   UNL     1      12.926  13.620  14.833  1.00  0.00    -0.000 C 
BRANCH  11  12
ATOM     12  C   UNL     1      12.312  13.971  16.196  1.00  0.00    -0.000 C 
BRANCH  12  13
ATOM     13  C   UNL     1      10.993  13.221  16.413  1.00  0.00    -0.003 C 
ATOM     14  C   UNL     1      10.669  12.320  15.224  1.00  0.00     0.004 C 
ENDBRANCH  12  13
ENDBRANCH  11  12
ENDBRANCH  10  11
ENDBRANCH   9  10
ENDBRANCH   1   9
TORSDOF 10
ENDMDL
MODEL 2
REMARK VINA RESULT:    -4.549      2.442      4.456
REMARK INTER + INTRA:          -8.481
REMARK INTER:                  -7.642
REMARK INTRA:                  -0.839
REMARK UNBOUND:                -1.272
REMARK SMILES CCCCCCCCCCCC(=O)[O-]
REMARK SMILES IDX 7 1 8 2 9 3 10 4 11 5 12 6 13 7 14 8 6 9 5 10 4 11 3 12 2 13
REMARK SMILES IDX 1 14
REMARK H PARENT
REMARK Flexibility Score: inf
ROOT
ATOM      1  C   UNL     1      13.161  13.879  14.956  1.00  0.00     0.000 C 
ENDROOT
BRANCH   1   2
ATOM      2  C   UNL     1      12.430  14.125  16.284  1.00  0.00     0.000 C 
BRANCH   2   3
ATOM      3  C   UNL     1      11.260  13.148  16.454  1.00  0.00     0.000 C 
BRANCH   3   4
ATOM      4  C   UNL     1      10.271  13.266  15.283  1.00  0.00     0.006 C 
BRANCH   4   5
ATOM      5  C   UNL     1       9.450  14.561  15.345  1.00  0.00     0.053 C 
BRANCH   5   6
ATOM      6  C   UNL     1       9.709  15.441  14.161  1.00  0.00     0.041 C 
ATOM      7  O   UNL     1      10.294  14.981  13.145  1.00  0.00    -0.550 OA
ATOM      8  O   UNL     1       9.336  16.778  14.192  1.00  0.00    -0.550 OA
ENDBRANCH   5   6
ENDBRANCH   4   5
ENDBRANCH   3   4
ENDBRANCH   2   3
ENDBRANCH   1   2
BRANCH   1   9
ATOM      9  C   UNL     1      13.714  15.172  14.330  1.00  0.00     0.000 C 
BRANCH   9  10
ATOM     10  C   UNL     1      13.016  16.470  14.783  1.00  0.00    -0.000 C 
BRANCH  10  11
ATOM     11  C   UNL     1      13.937  17.697  14.910  1.00  0.00    -0.000 C 
BRANCH  11  12
ATOM     12  C   UNL     1      13.514  18.647  16.039  1.00  0.00    -0.000 C 
BRANCH  12  13
ATOM     13  C   UNL     1      14.718  19.430  16.577  1.00  0.00    -0.003 C 
ATOM     14  C   UNL     1      14.605  19.648  18.083  1.00  0.00     0.004 C 
ENDBRANCH  12  13
ENDBRANCH  11  12
ENDBRANCH  10  11
ENDBRANCH   9  10
ENDBRANCH   1   9
TORSDOF 10
ENDMDL
MODEL 3
REMARK VINA RESULT:    -4.518      3.028      5.024
REMARK INTER + INTRA:          -8.431
REMARK INTER:                  -6.943
REMARK INTRA:                  -1.488
REMARK UNBOUND:                -1.272
REMARK SMILES CCCCCCCCCCCC(=O)[O-]
REMARK SMILES IDX 7 1 8 2 9 3 10 4 11 5 12 6 13 7 14 8 6 9 5 10 4 11 3 12 2 13
REMARK SMILES IDX 1 14
REMARK H PARENT
REMARK Flexibility Score: inf
ROOT
ATOM      1  C   UNL     1      12.527  14.112  16.167  1.00  0.00     0.000 C 
ENDROOT
BRANCH   1   2
ATOM      2  C   UNL     1      13.143  13.798  14.796  1.00  0.00     0.000 C 
BRANCH   2   3
ATOM      3  C   UNL     1      13.892  15.016  14.239  1.00  0.00     0.000 C 
BRANCH   3   4
ATOM      4  C   UNL     1      13.300  16.323  14.790  1.00  0.00     0.006 C 
BRANCH   4   5
ATOM      5  C   UNL     1      13.793  17.553  14.017  1.00  0.00     0.053 C 
BRANCH   5   6
ATOM      6  C   UNL     1      15.258  17.790  14.222  1.00  0.00     0.041 C 
ATOM      7  O   UNL     1      15.672  18.298  15.297  1.00  0.00    -0.550 OA
ATOM      8  O   UNL     1      16.161  17.483  13.213  1.00  0.00    -0.550 OA
ENDBRANCH   5   6
ENDBRANCH   4   5
ENDBRANCH   3   4
ENDBRANCH   2   3
ENDBRANCH   1   2
BRANCH   1   9
ATOM      9  C   UNL     1      11.222  13.340  16.427  1.00  0.00     0.000 C 
BRANCH   9  10
ATOM     10  C   UNL     1      10.167  13.442  15.307  1.00  0.00    -0.000 C 
BRANCH  10  11
ATOM     11  C   UNL     1       9.314  14.724  15.328  1.00  0.00    -0.000 C 
BRANCH  11  12
ATOM     12  C   UNL     1       9.668  15.696  14.193  1.00  0.00    -0.000 C 
BRANCH  12  13
ATOM     13  C   UNL     1      10.295  14.951  13.009  1.00  0.00    -0.003 C 
ATOM     14  C   UNL     1      10.887  15.926  11.995  1.00  0.00     0.004 C 
ENDBRANCH  12  13
ENDBRANCH  11  12
ENDBRANCH  10  11
ENDBRANCH   9  10
ENDBRANCH   1   9
TORSDOF 10
ENDMDL
MODEL 4
REMARK VINA RESULT:    -4.508      2.695      3.395
REMARK INTER + INTRA:          -8.415
REMARK INTER:                  -7.080
REMARK INTRA:                  -1.335
REMARK UNBOUND:                -1.272
REMARK SMILES CCCCCCCCCCCC(=O)[O-]
REMARK SMILES IDX 7 1 8 2 9 3 10 4 11 5 12 6 13 7 14 8 6 9 5 10 4 11 3 12 2 13
REMARK SMILES IDX 1 14
REMARK H PARENT
REMARK Flexibility Score: inf
ROOT
ATOM      1  C   UNL     1      12.219  17.205  13.753  1.00  0.00     0.000 C 
ENDROOT
BRANCH   1   2
ATOM      2  C   UNL     1      10.705  17.255  14.003  1.00  0.00     0.000 C 
BRANCH   2   3
ATOM      3  C   UNL     1      10.068  15.877  13.788  1.00  0.00     0.000 C 
BRANCH   3   4
ATOM      4  C   UNL     1       9.708  15.662  12.309  1.00  0.00     0.006 C 
BRANCH   4   5
ATOM      5  C   UNL     1      10.629  14.640  11.631  1.00  0.00     0.053 C 
BRANCH   5   6
ATOM      6  C   UNL     1      10.187  14.333  10.233  1.00  0.00     0.041 C 
ATOM      7  O   UNL     1      11.040  14.128   9.330  1.00  0.00    -0.550 OA
ATOM      8  O   UNL     1       8.835  14.309   9.920  1.00  0.00    -0.550 OA
ENDBRANCH   5   6
ENDBRANCH   4   5
ENDBRANCH   3   4
ENDBRANCH   2   3
ENDBRANCH   1   2
BRANCH   1   9
ATOM      9  C   UNL     1      12.967  16.340  14.783  1.00  0.00     0.000 C 
BRANCH   9  10
ATOM     10  C   UNL     1      13.561  15.029  14.229  1.00  0.00    -0.000 C 
BRANCH  10  11
ATOM     11  C   UNL     1      12.945  13.740  14.803  1.00  0.00    -0.000 C 
BRANCH  11  12
ATOM     12  C   UNL     1      12.238  13.963  16.148  1.00  0.00    -0.000 C 
BRANCH  12  13
ATOM     13  C   UNL     1      11.041  13.018  16.301  1.00  0.00    -0.003 C 
ATOM     14  C   UNL     1      10.727  12.308  14.987  1.00  0.00     0.004 C 
ENDBRANCH  12  13
ENDBRANCH  11  12
ENDBRANCH  10  11
ENDBRANCH   9  10
ENDBRANCH   1   9
TORSDOF 10
ENDMDL
MODEL 5
REMARK VINA RESULT:    -4.471      1.193      3.074
REMARK INTER + INTRA:          -8.358
REMARK INTER:                  -7.250
REMARK INTRA:                  -1.107
REMARK UNBOUND:                -1.272
REMARK SMILES CCCCCCCCCCCC(=O)[O-]
REMARK SMILES IDX 7 1 8 2 9 3 10 4 11 5 12 6 13 7 14 8 6 9 5 10 4 11 3 12 2 13
REMARK SMILES IDX 1 14
REMARK H PARENT
REMARK Flexibility Score: inf
ROOT
ATOM      1  C   UNL     1      10.299  13.220  15.409  1.00  0.00     0.000 C 
ENDROOT
BRANCH   1   2
ATOM      2  C   UNL     1       9.464  14.492  15.204  1.00  0.00     0.000 C 
BRANCH   2   3
ATOM      3  C   UNL     1       9.875  15.216  13.915  1.00  0.00     0.000 C 
BRANCH   3   4
ATOM      4  C   UNL     1       9.600  16.724  14.019  1.00  0.00     0.006 C 
BRANCH   4   5
ATOM      5  C   UNL     1       8.235  17.022  14.654  1.00  0.00     0.053 C 
BRANCH   5   6
ATOM      6  C   UNL     1       7.346  17.791  13.726  1.00  0.00     0.041 C 
ATOM      7  O   UNL     1       7.116  17.360  12.566  1.00  0.00    -0.550 OA
ATOM      8  O   UNL     1       6.798  19.002  14.131  1.00  0.00    -0.550 OA
ENDBRANCH   5   6
ENDBRANCH   4   5
ENDBRANCH   3   4
ENDBRANCH   2   3
ENDBRANCH   1   2
BRANCH   1   9
ATOM      9  C   UNL     1      11.295  13.339  16.576  1.00  0.00     0.000 C 
BRANCH   9  10
ATOM     10  C   UNL     1      12.587  14.119  16.257  1.00  0.00    -0.000 C 
BRANCH  10  11
ATOM     11  C   UNL     1      13.172  13.867  14.856  1.00  0.00    -0.000 C 
BRANCH  11  12
ATOM     12  C   UNL     1      13.765  15.132  14.219  1.00  0.00    -0.000 C 
BRANCH  12  13
ATOM     13  C   UNL     1      13.175  16.395  14.857  1.00  0.00    -0.003 C 
ATOM     14  C   UNL     1      14.084  17.601  14.636  1.00  0.00     0.004 C 
ENDBRANCH  12  13
ENDBRANCH  11  12
ENDBRANCH  10  11
ENDBRANCH   9  10
ENDBRANCH   1   9
TORSDOF 10
ENDMDL
MODEL 6
REMARK VINA RESULT:    -4.448      1.175      1.476
REMARK INTER + INTRA:          -8.321
REMARK INTER:                  -7.028
REMARK INTRA:                  -1.293
REMARK UNBOUND:                -1.272
REMARK SMILES CCCCCCCCCCCC(=O)[O-]
REMARK SMILES IDX 7 1 8 2 9 3 10 4 11 5 12 6 13 7 14 8 6 9 5 10 4 11 3 12 2 13
REMARK SMILES IDX 1 14
REMARK H PARENT
REMARK Flexibility Score: inf
ROOT
ATOM      1  C   UNL     1      11.434  16.433  13.230  1.00  0.00     0.000 C 
ENDROOT
BRANCH   1   2
ATOM      2  C   UNL     1      10.276  15.425  13.238  1.00  0.00     0.000 C 
BRANCH   2   3
ATOM      3  C   UNL     1       9.318  15.699  14.404  1.00  0.00     0.000 C 
BRANCH   3   4
ATOM      4  C   UNL     1       8.871  17.169  14.415  1.00  0.00     0.006 C 
BRANCH   4   5
ATOM      5  C   UNL     1       7.534  17.374  13.690  1.00  0.00     0.053 C 
BRANCH   5   6
ATOM      6  C   UNL     1       7.729  17.899  12.300  1.00  0.00     0.041 C 
ATOM      7  O   UNL     1       8.790  18.504  11.995  1.00  0.00    -0.550 OA
ATOM      8  O   UNL     1       6.725  17.750  11.353  1.00  0.00    -0.550 OA
ENDBRANCH   5   6
ENDBRANCH   4   5
ENDBRANCH   3   4
ENDBRANCH   2   3
ENDBRANCH   1   2
BRANCH   1   9
ATOM      9  C   UNL     1      12.424  16.216  14.388  1.00  0.00     0.000 C 
BRANCH   9  10
ATOM     10  C   UNL     1      13.390  15.027  14.208  1.00  0.00    -0.000 C 
BRANCH  10  11
ATOM     11  C   UNL     1      12.988  13.741  14.954  1.00  0.00    -0.000 C 
BRANCH  11  12
ATOM     12  C   UNL     1      12.265  14.021  16.280  1.00  0.00    -0.000 C 
BRANCH  12  13
ATOM     13  C   UNL     1      11.066  13.083  16.459  1.00  0.00    -0.003 C 
ATOM     14  C   UNL     1      10.772  12.312  15.175  1.00  0.00     0.004 C 
ENDBRANCH  12  13
ENDBRANCH  11  12
ENDBRANCH  10  11
ENDBRANCH   9  10
ENDBRANCH   1   9
TORSDOF 10
ENDMDL
MODEL 7
REMARK VINA RESULT:    -4.421      2.013      3.751
REMARK INTER + INTRA:          -8.277
REMARK INTER:                  -6.819
REMARK INTRA:                  -1.458
REMARK UNBOUND:                -1.272
REMARK SMILES CCCCCCCCCCCC(=O)[O-]
REMARK SMILES IDX 7 1 8 2 9 3 10 4 11 5 12 6 13 7 14 8 6 9 5 10 4 11 3 12 2 13
REMARK SMILES IDX 1 14
REMARK H PARENT
REMARK Flexibility Score: inf
ROOT
ATOM      1  C   UNL     1      10.049  13.648  15.181  1.00  0.00     0.000 C 
ENDROOT
BRANCH   1   2
ATOM      2  C   UNL     1       9.141  14.870  15.386  1.00  0.00     0.000 C 
BRANCH   2   3
ATOM      3  C   UNL     1       9.327  15.887  14.254  1.00  0.00     0.000 C 
BRANCH   3   4
ATOM      4  C   UNL     1      10.021  15.242  13.044  1.00  0.00     0.006 C 
BRANCH   4   5
ATOM      5  C   UNL     1       9.844  16.070  11.764  1.00  0.00     0.053 C 
BRANCH   5   6
ATOM      6  C   UNL     1       8.657  15.619  10.970  1.00  0.00     0.041 C 
ATOM      7  O   UNL     1       7.526  16.135  11.172  1.00  0.00    -0.550 OA
ATOM      8  O   UNL     1       8.792  14.605  10.030  1.00  0.00    -0.550 OA
ENDBRANCH   5   6
ENDBRANCH   4   5
ENDBRANCH   3   4
ENDBRANCH   2   3
ENDBRANCH   1   2
BRANCH   1   9
ATOM      9  C   UNL     1      10.992  13.399  16.371  1.00  0.00     0.000 C 
BRANCH   9  10
ATOM     10  C   UNL     1      12.425  13.942  16.196  1.00  0.00    -0.000 C 
BRANCH  10  11
ATOM     11  C   UNL     1      13.012  13.791  14.781  1.00  0.00    -0.000 C 
BRANCH  11  12
ATOM     12  C   UNL     1      13.711  15.065  14.285  1.00  0.00    -0.000 C 
BRANCH  12  13
ATOM     13  C   UNL     1      13.035  16.318  14.853  1.00  0.00    -0.003 C 
ATOM     14  C   UNL     1      12.913  17.408  13.792  1.00  0.00     0.004 C 
ENDBRANCH  12  13
ENDBRANCH  11  12
ENDBRANCH  10  11
ENDBRANCH   9  10
ENDBRANCH   1   9
TORSDOF 10
ENDMDL
MODEL 8
REMARK VINA RESULT:    -4.394      2.521      5.160
REMARK INTER + INTRA:          -8.235
REMARK INTER:                  -7.139
REMARK INTRA:                  -1.096
REMARK UNBOUND:                -1.272
REMARK SMILES CCCCCCCCCCCC(=O)[O-]
REMARK SMILES IDX 7 1 8 2 9 3 10 4 11 5 12 6 13 7 14 8 6 9 5 10 4 11 3 12 2 13
REMARK SMILES IDX 1 14
REMARK H PARENT
REMARK Flexibility Score: inf
ROOT
ATOM      1  C   UNL     1      11.340  13.300  16.478  1.00  0.00     0.000 C 
ENDROOT
BRANCH   1   2
ATOM      2  C   UNL     1      12.558  14.153  16.094  1.00  0.00     0.000 C 
BRANCH   2   3
ATOM      3  C   UNL     1      13.106  13.738  14.723  1.00  0.00     0.000 C 
BRANCH   3   4
ATOM      4  C   UNL     1      13.397  14.970  13.851  1.00  0.00     0.006 C 
BRANCH   4   5
ATOM      5  C   UNL     1      13.324  16.277  14.652  1.00  0.00     0.053 C 
BRANCH   5   6
ATOM      6  C   UNL     1      14.507  17.157  14.389  1.00  0.00     0.041 C 
ATOM      7  O   UNL     1      14.576  18.299  14.917  1.00  0.00    -0.550 OA
ATOM      8  O   UNL     1      15.515  16.733  13.533  1.00  0.00    -0.550 OA
ENDBRANCH   5   6
ENDBRANCH   4   5
ENDBRANCH   3   4
ENDBRANCH   2   3
ENDBRANCH   1   2
BRANCH   1   9
ATOM      9  C   UNL     1      10.249  13.292  15.393  1.00  0.00     0.000 C 
BRANCH   9  10
ATOM     10  C   UNL     1       9.448  14.604  15.260  1.00  0.00    -0.000 C 
BRANCH  10  11
ATOM     11  C   UNL     1       9.744  15.423  13.991  1.00  0.00    -0.000 C 
BRANCH  11  12
ATOM     12  C   UNL     1       9.552  16.932  14.195  1.00  0.00    -0.000 C 
BRANCH  12  13
ATOM     13  C   UNL     1       8.101  17.254  14.572  1.00  0.00    -0.003 C 
ATOM     14  C   UNL     1       7.284  17.639  13.342  1.00  0.00     0.004 C 
ENDBRANCH  12  13
ENDBRANCH  11  12
ENDBRANCH  10  11
ENDBRANCH   9  10
ENDBRANCH   1   9
TORSDOF 10
ENDMDL
MODEL 9
REMARK VINA RESULT:    -4.334      2.726      5.333
REMARK INTER + INTRA:          -8.139
REMARK INTER:                  -7.108
REMARK INTRA:                  -1.031
REMARK UNBOUND:                -1.272
REMARK SMILES CCCCCCCCCCCC(=O)[O-]
REMARK SMILES IDX 7 1 8 2 9 3 10 4 11 5 12 6 13 7 14 8 6 9 5 10 4 11 3 12 2 13
REMARK SMILES IDX 1 14
REMARK H PARENT
REMARK Flexibility Score: inf
ROOT
ATOM      1  C   UNL     1      10.143  13.399  15.083  1.00  0.00     0.000 C 
ENDROOT
BRANCH   1   2
ATOM      2  C   UNL     1      11.016  12.973  16.272  1.00  0.00     0.000 C 
BRANCH   2   3
ATOM      3  C   UNL     1      12.171  13.959  16.485  1.00  0.00     0.000 C 
BRANCH   3   4
ATOM      4  C   UNL     1      13.005  14.114  15.204  1.00  0.00     0.006 C 
BRANCH   4   5
ATOM      5  C   UNL     1      13.247  15.586  14.844  1.00  0.00     0.053 C 
BRANCH   5   6
ATOM      6  C   UNL     1      13.934  15.730  13.521  1.00  0.00     0.041 C 
ATOM      7  O   UNL     1      14.961  15.048  13.263  1.00  0.00    -0.550 OA
ATOM      8  O   UNL     1      13.461  16.642  12.586  1.00  0.00    -0.550 OA
ENDBRANCH   5   6
ENDBRANCH   4   5
ENDBRANCH   3   4
ENDBRANCH   2   3
ENDBRANCH   1   2
BRANCH   1   9
ATOM      9  C   UNL     1       9.331  14.675  15.364  1.00  0.00     0.000 C 
BRANCH   9  10
ATOM     10  C   UNL     1       9.470  15.787  14.303  1.00  0.00    -0.000 C 
BRANCH  10  11
ATOM     11  C   UNL     1      10.204  15.372  13.015  1.00  0.00    -0.000 C 
BRANCH  11  12
ATOM     12  C   UNL     1       9.427  15.733  11.741  1.00  0.00    -0.000 C 
BRANCH  12  13
ATOM     13  C   UNL     1       8.188  16.573  12.075  1.00  0.00    -0.003 C 
ATOM     14  C   UNL     1       7.289  16.737  10.853  1.00  0.00     0.004 C 
ENDBRANCH  12  13
ENDBRANCH  11  12
ENDBRANCH  10  11
ENDBRANCH   9  10
ENDBRANCH   1   9
TORSDOF 10
ENDMDL
