MODEL 1
REMARK VINA RESULT:     0.000      0.000      0.000
REMARK INTER + INTRA:          -7.641
REMARK INTER:                   0.000
REMARK INTRA:                  -7.641
REMARK UNBOUND:                -7.641
REMARK SMILES CCCCCCCCCCCCCCCCCCCCCCCCCCCCCC(=O)[O-]
REMARK SMILES IDX 16 1 17 2 18 3 19 4 20 5 21 6 22 7 23 8 24 9 25 10 26 11
REMARK SMILES IDX 27 12 28 13 29 14 30 15 31 16 32 17 15 18 14 19 13 20 12 21
REMARK SMILES IDX 11 22 10 23 9 24 8 25 7 26 6 27 5 28 4 29 3 30 2 31 1 32
REMARK H PARENT
REMARK Flexibility Score: inf
ROOT
ATOM      1  C   UNL     1     181.310 179.420 187.615  1.00  0.00     0.000 C 
ENDROOT
BRANCH   1   2
ATOM      2  C   UNL     1     179.776 179.360 187.504  1.00  0.00     0.000 C 
BRANCH   2   3
ATOM      3  C   UNL     1     179.135 178.554 188.645  1.00  0.00     0.000 C 
BRANCH   3   4
ATOM      4  C   UNL     1     178.171 179.403 189.495  1.00  0.00     0.000 C 
BRANCH   4   5
ATOM      5  C   UNL     1     178.776 179.805 190.851  1.00  0.00     0.000 C 
BRANCH   5   6
ATOM      6  C   UNL     1     177.699 180.146 191.895  1.00  0.00     0.000 C 
BRANCH   6   7
ATOM      7  C   UNL     1     177.983 181.467 192.628  1.00  0.00     0.000 C 
BRANCH   7   8
ATOM      8  C   UNL     1     179.475 181.656 192.956  1.00  0.00     0.000 C 
BRANCH   8   9
ATOM      9  C   UNL     1     179.817 183.106 193.337  1.00  0.00     0.000 C 
BRANCH   9  10
ATOM     10  C   UNL     1     178.755 184.111 192.857  1.00  0.00     0.000 C 
BRANCH  10  11
ATOM     11  C   UNL     1     179.379 185.384 192.259  1.00  0.00     0.000 C 
BRANCH  11  12
ATOM     12  C   UNL     1     180.907 185.428 192.430  1.00  0.00     0.000 C 
BRANCH  12  13
ATOM     13  C   UNL     1     181.631 185.971 191.184  1.00  0.00     0.006 C 
BRANCH  13  14
ATOM     14  C   UNL     1     180.692 186.437 190.059  1.00  0.00     0.053 C 
BRANCH  14  15
ATOM     15  C   UNL     1     181.304 186.252 188.704  1.00  0.00     0.041 C 
ATOM     16  O   UNL     1     180.569 186.066 187.698  1.00  0.00    -0.550 OA
ATOM     17  O   UNL     1     182.685 186.267 188.556  1.00  0.00    -0.550 OA
ENDBRANCH  14  15
ENDBRANCH  13  14
ENDBRANCH  12  13
ENDBRANCH  11  12
ENDBRANCH  10  11
ENDBRANCH   9  10
ENDBRANCH   8   9
ENDBRANCH   7   8
ENDBRANCH   6   7
ENDBRANCH   5   6
ENDBRANCH   4   5
ENDBRANCH   3   4
ENDBRANCH   2   3
ENDBRANCH   1   2
BRANCH   1  18
ATOM     18  C   UNL     1     181.833 178.776 188.908  1.00  0.00     0.000 C 
BRANCH  18  19
ATOM     19  C   UNL     1     183.319 179.075 189.153  1.00  0.00     0.000 C 
BRANCH  19  20
ATOM     20  C   UNL     1     183.645 179.058 190.654  1.00  0.00     0.000 C 
BRANCH  20  21
ATOM     21  C   UNL     1     182.660 179.908 191.484  1.00  0.00     0.000 C 
BRANCH  21  22
ATOM     22  C   UNL     1     183.297 181.158 192.119  1.00  0.00     0.000 C 
BRANCH  22  23
ATOM     23  C   UNL     1     182.856 182.499 191.503  1.00  0.00     0.000 C 
BRANCH  23  24
ATOM     24  C   UNL     1     183.269 182.712 190.031  1.00  0.00    -0.000 C 
BRANCH  24  25
ATOM     25  C   UNL     1     182.108 182.691 189.021  1.00  0.00    -0.000 C 
BRANCH  25  26
ATOM     26  C   UNL     1     180.727 182.665 189.701  1.00  0.00    -0.000 C 
BRANCH  26  27
ATOM     27  C   UNL     1     179.571 182.796 188.696  1.00  0.00    -0.000 C 
BRANCH  27  28
ATOM     28  C   UNL     1     178.418 183.660 189.235  1.00  0.00    -0.000 C 
BRANCH  28  29
ATOM     29  C   UNL     1     177.077 182.906 189.264  1.00  0.00    -0.000 C 
BRANCH  29  30
ATOM     30  C   UNL     1     176.090 183.491 190.287  1.00  0.00    -0.000 C 
BRANCH  30  31
ATOM     31  C   UNL     1     174.786 182.683 190.311  1.00  0.00    -0.003 C 
ATOM     32  C   UNL     1     174.971 181.320 189.649  1.00  0.00     0.004 C 
ENDBRANCH  30  31
ENDBRANCH  29  30
ENDBRANCH  28  29
ENDBRANCH  27  28
ENDBRANCH  26  27
ENDBRANCH  25  26
ENDBRANCH  24  25
ENDBRANCH  23  24
ENDBRANCH  22  23
ENDBRANCH  21  22
ENDBRANCH  20  21
ENDBRANCH  19  20
ENDBRANCH  18  19
ENDBRANCH   1  18
TORSDOF 28
ENDMDL
MODEL 2
REMARK VINA RESULT:     0.001      6.009      9.985
REMARK INTER + INTRA:          -7.638
REMARK INTER:                   0.000
REMARK INTRA:                  -7.638
REMARK UNBOUND:                -7.641
REMARK SMILES CCCCCCCCCCCCCCCCCCCCCCCCCCCCCC(=O)[O-]
REMARK SMILES IDX 16 1 17 2 18 3 19 4 20 5 21 6 22 7 23 8 24 9 25 10 26 11
REMARK SMILES IDX 27 12 28 13 29 14 30 15 31 16 32 17 15 18 14 19 13 20 12 21
REMARK SMILES IDX 11 22 10 23 9 24 8 25 7 26 6 27 5 28 4 29 3 30 2 31 1 32
REMARK H PARENT
REMARK Flexibility Score: inf
ROOT
ATOM      1  C   UNL     1     183.319 189.691 191.685  1.00  0.00     0.000 C 
ENDROOT
BRANCH   1   2
ATOM      2  C   UNL     1     183.297 189.863 193.215  1.00  0.00     0.000 C 
BRANCH   2   3
ATOM      3  C   UNL     1     184.031 191.132 193.676  1.00  0.00     0.000 C 
BRANCH   3   4
ATOM      4  C   UNL     1     185.502 190.861 194.039  1.00  0.00     0.000 C 
BRANCH   4   5
ATOM      5  C   UNL     1     186.483 191.686 193.189  1.00  0.00     0.000 C 
BRANCH   5   6
ATOM      6  C   UNL     1     187.438 190.800 192.371  1.00  0.00     0.000 C 
BRANCH   6   7
ATOM      7  C   UNL     1     187.140 190.842 190.864  1.00  0.00     0.000 C 
BRANCH   7   8
ATOM      8  C   UNL     1     186.071 191.887 190.499  1.00  0.00     0.000 C 
BRANCH   8   9
ATOM      9  C   UNL     1     185.323 191.538 189.201  1.00  0.00     0.000 C 
BRANCH   9  10
ATOM     10  C   UNL     1     185.982 190.381 188.430  1.00  0.00     0.000 C 
BRANCH  10  11
ATOM     11  C   UNL     1     184.960 189.539 187.646  1.00  0.00     0.000 C 
BRANCH  11  12
ATOM     12  C   UNL     1     185.507 188.151 187.268  1.00  0.00     0.000 C 
BRANCH  12  13
ATOM     13  C   UNL     1     184.392 187.118 187.027  1.00  0.00     0.006 C 
BRANCH  13  14
ATOM     14  C   UNL     1     183.017 187.529 187.579  1.00  0.00     0.053 C 
BRANCH  14  15
ATOM     15  C   UNL     1     182.325 186.392 188.267  1.00  0.00     0.041 C 
ATOM     16  O   UNL     1     182.770 185.219 188.156  1.00  0.00    -0.550 OA
ATOM     17  O   UNL     1     181.177 186.625 189.015  1.00  0.00    -0.550 OA
ENDBRANCH  14  15
ENDBRANCH  13  14
ENDBRANCH  12  13
ENDBRANCH  11  12
ENDBRANCH  10  11
ENDBRANCH   9  10
ENDBRANCH   8   9
ENDBRANCH   7   8
ENDBRANCH   6   7
ENDBRANCH   5   6
ENDBRANCH   4   5
ENDBRANCH   3   4
ENDBRANCH   2   3
ENDBRANCH   1   2
BRANCH   1  18
ATOM     18  C   UNL     1     183.543 188.231 191.259  1.00  0.00     0.000 C 
BRANCH  18  19
ATOM     19  C   UNL     1     185.023 187.914 191.006  1.00  0.00     0.000 C 
BRANCH  19  20
ATOM     20  C   UNL     1     185.213 186.438 190.624  1.00  0.00     0.000 C 
BRANCH  20  21
ATOM     21  C   UNL     1     186.697 186.065 190.419  1.00  0.00     0.000 C 
BRANCH  21  22
ATOM     22  C   UNL     1     187.611 187.275 190.146  1.00  0.00     0.000 C 
BRANCH  22  23
ATOM     23  C   UNL     1     189.108 187.036 190.417  1.00  0.00     0.000 C 
BRANCH  23  24
ATOM     24  C   UNL     1     189.781 188.070 191.343  1.00  0.00    -0.000 C 
BRANCH  24  25
ATOM     25  C   UNL     1     189.515 187.869 192.845  1.00  0.00    -0.000 C 
BRANCH  25  26
ATOM     26  C   UNL     1     189.298 186.391 193.219  1.00  0.00    -0.000 C 
BRANCH  26  27
ATOM     27  C   UNL     1     187.955 186.151 193.927  1.00  0.00    -0.000 C 
BRANCH  27  28
ATOM     28  C   UNL     1     187.114 187.434 194.042  1.00  0.00    -0.000 C 
BRANCH  28  29
ATOM     29  C   UNL     1     185.662 187.155 194.468  1.00  0.00    -0.000 C 
BRANCH  29  30
ATOM     30  C   UNL     1     185.250 185.691 194.248  1.00  0.00    -0.000 C 
BRANCH  30  31
ATOM     31  C   UNL     1     183.749 185.584 193.952  1.00  0.00    -0.003 C 
ATOM     32  C   UNL     1     182.953 186.592 194.777  1.00  0.00     0.004 C 
ENDBRANCH  30  31
ENDBRANCH  29  30
ENDBRANCH  28  29
ENDBRANCH  27  28
ENDBRANCH  26  27
ENDBRANCH  25  26
ENDBRANCH  24  25
ENDBRANCH  23  24
ENDBRANCH  22  23
ENDBRANCH  21  22
ENDBRANCH  20  21
ENDBRANCH  19  20
ENDBRANCH  18  19
ENDBRANCH   1  18
TORSDOF 28
ENDMDL
MODEL 3
REMARK VINA RESULT:     0.019      3.387      7.684
REMARK INTER + INTRA:          -7.590
REMARK INTER:                   0.000
REMARK INTRA:                  -7.590
REMARK UNBOUND:                -7.641
REMARK SMILES CCCCCCCCCCCCCCCCCCCCCCCCCCCCCC(=O)[O-]
REMARK SMILES IDX 16 1 17 2 18 3 19 4 20 5 21 6 22 7 23 8 24 9 25 10 26 11
REMARK SMILES IDX 27 12 28 13 29 14 30 15 31 16 32 17 15 18 14 19 13 20 12 21
REMARK SMILES IDX 11 22 10 23 9 24 8 25 7 26 6 27 5 28 4 29 3 30 2 31 1 32
REMARK H PARENT
REMARK Flexibility Score: inf
ROOT
ATOM      1  C   UNL     1     178.703 189.889 193.954  1.00  0.00     0.000 C 
ENDROOT
BRANCH   1   2
ATOM      2  C   UNL     1     178.814 188.934 192.752  1.00  0.00     0.000 C 
BRANCH   2   3
ATOM      3  C   UNL     1     177.459 188.325 192.356  1.00  0.00     0.000 C 
BRANCH   3   4
ATOM      4  C   UNL     1     177.384 186.816 192.650  1.00  0.00     0.000 C 
BRANCH   4   5
ATOM      5  C   UNL     1     178.739 186.227 193.075  1.00  0.00     0.000 C 
BRANCH   5   6
ATOM      6  C   UNL     1     178.660 185.485 194.420  1.00  0.00     0.000 C 
BRANCH   6   7
ATOM      7  C   UNL     1     179.999 185.485 195.176  1.00  0.00     0.000 C 
BRANCH   7   8
ATOM      8  C   UNL     1     181.205 185.710 194.248  1.00  0.00     0.000 C 
BRANCH   8   9
ATOM      9  C   UNL     1     182.010 186.966 194.620  1.00  0.00     0.000 C 
BRANCH   9  10
ATOM     10  C   UNL     1     182.288 187.873 193.407  1.00  0.00     0.000 C 
BRANCH  10  11
ATOM     11  C   UNL     1     182.464 187.074 192.104  1.00  0.00     0.000 C 
BRANCH  11  12
ATOM     12  C   UNL     1     181.647 187.660 190.939  1.00  0.00     0.000 C 
BRANCH  12  13
ATOM     13  C   UNL     1     180.918 186.579 190.120  1.00  0.00     0.006 C 
BRANCH  13  14
ATOM     14  C   UNL     1     179.566 187.027 189.541  1.00  0.00     0.053 C 
BRANCH  14  15
ATOM     15  C   UNL     1     179.671 188.334 188.816  1.00  0.00     0.041 C 
ATOM     16  O   UNL     1     179.041 189.342 189.233  1.00  0.00    -0.550 OA
ATOM     17  O   UNL     1     180.451 188.434 187.670  1.00  0.00    -0.550 OA
ENDBRANCH  14  15
ENDBRANCH  13  14
ENDBRANCH  12  13
ENDBRANCH  11  12
ENDBRANCH  10  11
ENDBRANCH   9  10
ENDBRANCH   8   9
ENDBRANCH   7   8
ENDBRANCH   6   7
ENDBRANCH   5   6
ENDBRANCH   4   5
ENDBRANCH   3   4
ENDBRANCH   2   3
ENDBRANCH   1   2
BRANCH   1  18
ATOM     18  C   UNL     1     179.245 189.270 195.252  1.00  0.00     0.000 C 
BRANCH  18  19
ATOM     19  C   UNL     1     178.130 188.695 196.138  1.00  0.00     0.000 C 
BRANCH  19  20
ATOM     20  C   UNL     1     176.807 189.445 195.914  1.00  0.00     0.000 C 
BRANCH  20  21
ATOM     21  C   UNL     1     175.631 188.493 195.610  1.00  0.00     0.000 C 
BRANCH  21  22
ATOM     22  C   UNL     1     175.792 187.088 196.223  1.00  0.00     0.000 C 
BRANCH  22  23
ATOM     23  C   UNL     1     175.080 185.957 195.458  1.00  0.00     0.000 C 
BRANCH  23  24
ATOM     24  C   UNL     1     175.464 184.528 195.893  1.00  0.00    -0.000 C 
BRANCH  24  25
ATOM     25  C   UNL     1     175.126 183.426 194.873  1.00  0.00    -0.000 C 
BRANCH  25  26
ATOM     26  C   UNL     1     175.149 183.931 193.419  1.00  0.00    -0.000 C 
BRANCH  26  27
ATOM     27  C   UNL     1     175.635 182.860 192.429  1.00  0.00    -0.000 C 
BRANCH  27  28
ATOM     28  C   UNL     1     177.156 182.915 192.204  1.00  0.00    -0.000 C 
BRANCH  28  29
ATOM     29  C   UNL     1     177.530 183.485 190.825  1.00  0.00    -0.000 C 
BRANCH  29  30
ATOM     30  C   UNL     1     179.040 183.426 190.548  1.00  0.00    -0.000 C 
BRANCH  30  31
ATOM     31  C   UNL     1     179.806 182.958 191.791  1.00  0.00    -0.003 C 
ATOM     32  C   UNL     1     181.309 183.166 191.623  1.00  0.00     0.004 C 
ENDBRANCH  30  31
ENDBRANCH  29  30
ENDBRANCH  28  29
ENDBRANCH  27  28
ENDBRANCH  26  27
ENDBRANCH  25  26
ENDBRANCH  24  25
ENDBRANCH  23  24
ENDBRANCH  22  23
ENDBRANCH  21  22
ENDBRANCH  20  21
ENDBRANCH  19  20
ENDBRANCH  18  19
ENDBRANCH   1  18
TORSDOF 28
ENDMDL
MODEL 4
REMARK VINA RESULT:     0.028      4.013      7.660
REMARK INTER + INTRA:          -7.567
REMARK INTER:                   0.000
REMARK INTRA:                  -7.567
REMARK UNBOUND:                -7.641
REMARK SMILES CCCCCCCCCCCCCCCCCCCCCCCCCCCCCC(=O)[O-]
REMARK SMILES IDX 16 1 17 2 18 3 19 4 20 5 21 6 22 7 23 8 24 9 25 10 26 11
REMARK SMILES IDX 27 12 28 13 29 14 30 15 31 16 32 17 15 18 14 19 13 20 12 21
REMARK SMILES IDX 11 22 10 23 9 24 8 25 7 26 6 27 5 28 4 29 3 30 2 31 1 32
REMARK H PARENT
REMARK Flexibility Score: inf
ROOT
ATOM      1  C   UNL     1     177.924 190.168 187.382  1.00  0.00     0.000 C 
ENDROOT
BRANCH   1   2
ATOM      2  C   UNL     1     178.993 190.086 188.486  1.00  0.00     0.000 C 
BRANCH   2   3
ATOM      3  C   UNL     1     179.736 188.741 188.487  1.00  0.00     0.000 C 
BRANCH   3   4
ATOM      4  C   UNL     1     180.349 188.408 189.860  1.00  0.00     0.000 C 
BRANCH   4   5
ATOM      5  C   UNL     1     180.309 186.904 190.177  1.00  0.00     0.000 C 
BRANCH   5   6
ATOM      6  C   UNL     1     180.185 186.040 188.910  1.00  0.00     0.000 C 
BRANCH   6   7
ATOM      7  C   UNL     1     179.675 184.621 189.209  1.00  0.00     0.000 C 
BRANCH   7   8
ATOM      8  C   UNL     1     179.451 184.374 190.711  1.00  0.00     0.000 C 
BRANCH   8   9
ATOM      9  C   UNL     1     178.198 183.527 190.990  1.00  0.00     0.000 C 
BRANCH   9  10
ATOM     10  C   UNL     1     177.342 184.095 192.137  1.00  0.00     0.000 C 
BRANCH  10  11
ATOM     11  C   UNL     1     177.898 185.421 192.685  1.00  0.00     0.000 C 
BRANCH  11  12
ATOM     12  C   UNL     1     177.900 185.467 194.223  1.00  0.00     0.000 C 
BRANCH  12  13
ATOM     13  C   UNL     1     178.920 186.473 194.786  1.00  0.00     0.006 C 
BRANCH  13  14
ATOM     14  C   UNL     1     179.838 187.106 193.727  1.00  0.00     0.053 C 
BRANCH  14  15
ATOM     15  C   UNL     1     181.282 187.039 194.123  1.00  0.00     0.041 C 
ATOM     16  O   UNL     1     181.601 186.890 195.332  1.00  0.00    -0.550 OA
ATOM     17  O   UNL     1     182.275 187.161 193.159  1.00  0.00    -0.550 OA
ENDBRANCH  14  15
ENDBRANCH  13  14
ENDBRANCH  12  13
ENDBRANCH  11  12
ENDBRANCH  10  11
ENDBRANCH   9  10
ENDBRANCH   8   9
ENDBRANCH   7   8
ENDBRANCH   6   7
ENDBRANCH   5   6
ENDBRANCH   4   5
ENDBRANCH   3   4
ENDBRANCH   2   3
ENDBRANCH   1   2
BRANCH   1  18
ATOM     18  C   UNL     1     177.955 188.955 186.440  1.00  0.00     0.000 C 
BRANCH  18  19
ATOM     19  C   UNL     1     176.555 188.554 185.953  1.00  0.00     0.000 C 
BRANCH  19  20
ATOM     20  C   UNL     1     176.438 187.029 185.805  1.00  0.00     0.000 C 
BRANCH  20  21
ATOM     21  C   UNL     1     177.187 186.267 186.919  1.00  0.00     0.000 C 
BRANCH  21  22
ATOM     22  C   UNL     1     176.293 185.307 187.726  1.00  0.00     0.000 C 
BRANCH  22  23
ATOM     23  C   UNL     1     175.941 185.784 189.148  1.00  0.00     0.000 C 
BRANCH  23  24
ATOM     24  C   UNL     1     176.616 187.102 189.584  1.00  0.00    -0.000 C 
BRANCH  24  25
ATOM     25  C   UNL     1     175.693 188.333 189.588  1.00  0.00    -0.000 C 
BRANCH  25  26
ATOM     26  C   UNL     1     176.048 189.340 190.697  1.00  0.00    -0.000 C 
BRANCH  26  27
ATOM     27  C   UNL     1     177.196 188.851 191.595  1.00  0.00    -0.000 C 
BRANCH  27  28
ATOM     28  C   UNL     1     177.214 189.556 192.963  1.00  0.00    -0.000 C 
BRANCH  28  29
ATOM     29  C   UNL     1     175.841 189.538 193.656  1.00  0.00    -0.000 C 
BRANCH  29  30
ATOM     30  C   UNL     1     175.478 188.155 194.219  1.00  0.00    -0.000 C 
BRANCH  30  31
ATOM     31  C   UNL     1     174.146 187.662 193.641  1.00  0.00    -0.003 C 
ATOM     32  C   UNL     1     174.363 186.514 192.659  1.00  0.00     0.004 C 
ENDBRANCH  30  31
ENDBRANCH  29  30
ENDBRANCH  28  29
ENDBRANCH  27  28
ENDBRANCH  26  27
ENDBRANCH  25  26
ENDBRANCH  24  25
ENDBRANCH  23  24
ENDBRANCH  22  23
ENDBRANCH  21  22
ENDBRANCH  20  21
ENDBRANCH  19  20
ENDBRANCH  18  19
ENDBRANCH   1  18
TORSDOF 28
ENDMDL
MODEL 5
REMARK VINA RESULT:     0.028      4.676      8.409
REMARK INTER + INTRA:          -7.566
REMARK INTER:                   0.000
REMARK INTRA:                  -7.566
REMARK UNBOUND:                -7.641
REMARK SMILES CCCCCCCCCCCCCCCCCCCCCCCCCCCCCC(=O)[O-]
REMARK SMILES IDX 16 1 17 2 18 3 19 4 20 5 21 6 22 7 23 8 24 9 25 10 26 11
REMARK SMILES IDX 27 12 28 13 29 14 30 15 31 16 32 17 15 18 14 19 13 20 12 21
REMARK SMILES IDX 11 22 10 23 9 24 8 25 7 26 6 27 5 28 4 29 3 30 2 31 1 32
REMARK H PARENT
REMARK Flexibility Score: inf
ROOT
ATOM      1  C   UNL     1     176.658 182.122 190.625  1.00  0.00     0.000 C 
ENDROOT
BRANCH   1   2
ATOM      2  C   UNL     1     176.930 181.500 192.006  1.00  0.00     0.000 C 
BRANCH   2   3
ATOM      3  C   UNL     1     176.790 182.519 193.148  1.00  0.00     0.000 C 
BRANCH   3   4
ATOM      4  C   UNL     1     177.926 182.405 194.181  1.00  0.00     0.000 C 
BRANCH   4   5
ATOM      5  C   UNL     1     177.442 182.641 195.621  1.00  0.00     0.000 C 
BRANCH   5   6
ATOM      6  C   UNL     1     175.988 183.141 195.677  1.00  0.00     0.000 C 
BRANCH   6   7
ATOM      7  C   UNL     1     175.442 183.212 197.112  1.00  0.00     0.000 C 
BRANCH   7   8
ATOM      8  C   UNL     1     174.450 182.078 197.428  1.00  0.00     0.000 C 
BRANCH   8   9
ATOM      9  C   UNL     1     175.104 180.919 198.198  1.00  0.00     0.000 C 
BRANCH   9  10
ATOM     10  C   UNL     1     175.214 179.636 197.355  1.00  0.00     0.000 C 
BRANCH  10  11
ATOM     11  C   UNL     1     174.440 179.735 196.029  1.00  0.00     0.000 C 
BRANCH  11  12
ATOM     12  C   UNL     1     175.337 179.489 194.803  1.00  0.00     0.000 C 
BRANCH  12  13
ATOM     13  C   UNL     1     176.749 179.011 195.186  1.00  0.00     0.006 C 
BRANCH  13  14
ATOM     14  C   UNL     1     177.567 178.447 194.013  1.00  0.00     0.053 C 
BRANCH  14  15
ATOM     15  C   UNL     1     179.009 178.847 194.090  1.00  0.00     0.041 C 
ATOM     16  O   UNL     1     179.579 179.360 193.091  1.00  0.00    -0.550 OA
ATOM     17  O   UNL     1     179.729 178.635 195.260  1.00  0.00    -0.550 OA
ENDBRANCH  14  15
ENDBRANCH  13  14
ENDBRANCH  12  13
ENDBRANCH  11  12
ENDBRANCH  10  11
ENDBRANCH   9  10
ENDBRANCH   8   9
ENDBRANCH   7   8
ENDBRANCH   6   7
ENDBRANCH   5   6
ENDBRANCH   4   5
ENDBRANCH   3   4
ENDBRANCH   2   3
ENDBRANCH   1   2
BRANCH   1  18
ATOM     18  C   UNL     1     176.558 183.655 190.678  1.00  0.00     0.000 C 
BRANCH  18  19
ATOM     19  C   UNL     1     175.274 184.182 190.021  1.00  0.00     0.000 C 
BRANCH  19  20
ATOM     20  C   UNL     1     174.148 183.138 190.096  1.00  0.00     0.000 C 
BRANCH  20  21
ATOM     21  C   UNL     1     173.217 183.357 191.308  1.00  0.00     0.000 C 
BRANCH  21  22
ATOM     22  C   UNL     1     173.079 182.122 192.219  1.00  0.00     0.000 C 
BRANCH  22  23
ATOM     23  C   UNL     1     173.193 182.409 193.727  1.00  0.00     0.000 C 
BRANCH  23  24
ATOM     24  C   UNL     1     171.950 182.033 194.562  1.00  0.00    -0.000 C 
BRANCH  24  25
ATOM     25  C   UNL     1     171.439 183.139 195.502  1.00  0.00    -0.000 C 
BRANCH  25  26
ATOM     26  C   UNL     1     171.804 184.552 195.013  1.00  0.00    -0.000 C 
BRANCH  26  27
ATOM     27  C   UNL     1     172.610 185.347 196.053  1.00  0.00    -0.000 C 
BRANCH  27  28
ATOM     28  C   UNL     1     173.761 186.148 195.418  1.00  0.00    -0.000 C 
BRANCH  28  29
ATOM     29  C   UNL     1     173.745 186.091 193.881  1.00  0.00    -0.000 C 
BRANCH  29  30
ATOM     30  C   UNL     1     175.143 185.879 193.280  1.00  0.00    -0.000 C 
BRANCH  30  31
ATOM     31  C   UNL     1     176.224 186.477 194.189  1.00  0.00    -0.003 C 
ATOM     32  C   UNL     1     177.622 186.120 193.690  1.00  0.00     0.004 C 
ENDBRANCH  30  31
ENDBRANCH  29  30
ENDBRANCH  28  29
ENDBRANCH  27  28
ENDBRANCH  26  27
ENDBRANCH  25  26
ENDBRANCH  24  25
ENDBRANCH  23  24
ENDBRANCH  22  23
ENDBRANCH  21  22
ENDBRANCH  20  21
ENDBRANCH  19  20
ENDBRANCH  18  19
ENDBRANCH   1  18
TORSDOF 28
ENDMDL
MODEL 6
REMARK VINA RESULT:     0.030      2.218      3.035
REMARK INTER + INTRA:          -7.563
REMARK INTER:                   0.000
REMARK INTRA:                  -7.563
REMARK UNBOUND:                -7.641
REMARK SMILES CCCCCCCCCCCCCCCCCCCCCCCCCCCCCC(=O)[O-]
REMARK SMILES IDX 16 1 17 2 18 3 19 4 20 5 21 6 22 7 23 8 24 9 25 10 26 11
REMARK SMILES IDX 27 12 28 13 29 14 30 15 31 16 32 17 15 18 14 19 13 20 12 21
REMARK SMILES IDX 11 22 10 23 9 24 8 25 7 26 6 27 5 28 4 29 3 30 2 31 1 32
REMARK H PARENT
REMARK Flexibility Score: inf
ROOT
ATOM      1  C   UNL     1     181.677 181.339 189.869  1.00  0.00     0.000 C 
ENDROOT
BRANCH   1   2
ATOM      2  C   UNL     1     180.143 181.278 189.758  1.00  0.00     0.000 C 
BRANCH   2   3
ATOM      3  C   UNL     1     179.512 180.365 190.821  1.00  0.00     0.000 C 
BRANCH   3   4
ATOM      4  C   UNL     1     178.521 181.117 191.728  1.00  0.00     0.000 C 
BRANCH   4   5
ATOM      5  C   UNL     1     179.104 181.420 193.118  1.00  0.00     0.000 C 
BRANCH   5   6
ATOM      6  C   UNL     1     178.010 181.634 194.179  1.00  0.00     0.000 C 
BRANCH   6   7
ATOM      7  C   UNL     1     178.230 182.911 195.006  1.00  0.00     0.000 C 
BRANCH   7   8
ATOM      8  C   UNL     1     179.707 183.131 195.379  1.00  0.00     0.000 C 
BRANCH   8   9
ATOM      9  C   UNL     1     179.988 184.564 195.859  1.00  0.00     0.000 C 
BRANCH   9  10
ATOM     10  C   UNL     1     178.861 185.545 195.488  1.00  0.00     0.000 C 
BRANCH  10  11
ATOM     11  C   UNL     1     179.399 186.911 195.027  1.00  0.00     0.000 C 
BRANCH  11  12
ATOM     12  C   UNL     1     180.921 187.037 195.211  1.00  0.00     0.000 C 
BRANCH  12  13
ATOM     13  C   UNL     1     181.618 187.663 193.989  1.00  0.00     0.006 C 
BRANCH  13  14
ATOM     14  C   UNL     1     180.659 188.132 192.883  1.00  0.00     0.053 C 
BRANCH  14  15
ATOM     15  C   UNL     1     181.321 188.158 191.539  1.00  0.00     0.041 C 
ATOM     16  O   UNL     1     180.626 188.245 190.492  1.00  0.00    -0.550 OA
ATOM     17  O   UNL     1     182.704 188.069 191.443  1.00  0.00    -0.550 OA
ENDBRANCH  14  15
ENDBRANCH  13  14
ENDBRANCH  12  13
ENDBRANCH  11  12
ENDBRANCH  10  11
ENDBRANCH   9  10
ENDBRANCH   8   9
ENDBRANCH   7   8
ENDBRANCH   6   7
ENDBRANCH   5   6
ENDBRANCH   4   5
ENDBRANCH   3   4
ENDBRANCH   2   3
ENDBRANCH   1   2
BRANCH   1  18
ATOM     18  C   UNL     1     182.201 180.694 191.162  1.00  0.00     0.000 C 
BRANCH  18  19
ATOM     19  C   UNL     1     183.689 180.986 191.402  1.00  0.00     0.000 C 
BRANCH  19  20
ATOM     20  C   UNL     1     184.029 180.922 192.899  1.00  0.00     0.000 C 
BRANCH  20  21
ATOM     21  C   UNL     1     182.989 181.654 193.774  1.00  0.00     0.000 C 
BRANCH  21  22
ATOM     22  C   UNL     1     183.553 182.877 194.522  1.00  0.00     0.000 C 
BRANCH  22  23
ATOM     23  C   UNL     1     183.060 184.242 194.005  1.00  0.00     0.000 C 
BRANCH  23  24
ATOM     24  C   UNL     1     183.489 184.592 192.565  1.00  0.00    -0.000 C 
BRANCH  24  25
ATOM     25  C   UNL     1     182.352 184.583 191.528  1.00  0.00    -0.000 C 
BRANCH  25  26
ATOM     26  C   UNL     1     180.963 184.411 192.168  1.00  0.00    -0.000 C 
BRANCH  26  27
ATOM     27  C   UNL     1     179.819 184.636 191.166  1.00  0.00    -0.000 C 
BRANCH  27  28
ATOM     28  C   UNL     1     178.622 185.370 191.795  1.00  0.00    -0.000 C 
BRANCH  28  29
ATOM     29  C   UNL     1     177.322 184.550 191.729  1.00  0.00    -0.000 C 
BRANCH  29  30
ATOM     30  C   UNL     1     176.290 184.987 192.779  1.00  0.00    -0.000 C 
BRANCH  30  31
ATOM     31  C   UNL     1     174.972 184.223 192.602  1.00  0.00    -0.003 C 
ATOM     32  C   UNL     1     175.220 182.814 192.070  1.00  0.00     0.004 C 
ENDBRANCH  30  31
ENDBRANCH  29  30
ENDBRANCH  28  29
ENDBRANCH  27  28
ENDBRANCH  26  27
ENDBRANCH  25  26
ENDBRANCH  24  25
ENDBRANCH  23  24
ENDBRANCH  22  23
ENDBRANCH  21  22
ENDBRANCH  20  21
ENDBRANCH  19  20
ENDBRANCH  18  19
ENDBRANCH   1  18
TORSDOF 28
ENDMDL
MODEL 7
REMARK VINA RESULT:     0.035      5.385      9.018
REMARK INTER + INTRA:          -7.548
REMARK INTER:                   0.000
REMARK INTRA:                  -7.548
REMARK UNBOUND:                -7.641
REMARK SMILES CCCCCCCCCCCCCCCCCCCCCCCCCCCCCC(=O)[O-]
REMARK SMILES IDX 16 1 17 2 18 3 19 4 20 5 21 6 22 7 23 8 24 9 25 10 26 11
REMARK SMILES IDX 27 12 28 13 29 14 30 15 31 16 32 17 15 18 14 19 13 20 12 21
REMARK SMILES IDX 11 22 10 23 9 24 8 25 7 26 6 27 5 28 4 29 3 30 2 31 1 32
REMARK H PARENT
REMARK Flexibility Score: inf
ROOT
ATOM      1  C   UNL     1     182.935 190.090 189.482  1.00  0.00     0.000 C 
ENDROOT
BRANCH   1   2
ATOM      2  C   UNL     1     181.712 190.663 190.222  1.00  0.00     0.000 C 
BRANCH   2   3
ATOM      3  C   UNL     1     180.840 189.566 190.853  1.00  0.00     0.000 C 
BRANCH   3   4
ATOM      4  C   UNL     1     181.671 188.380 191.375  1.00  0.00     0.000 C 
BRANCH   4   5
ATOM      5  C   UNL     1     181.120 187.022 190.911  1.00  0.00     0.000 C 
BRANCH   5   6
ATOM      6  C   UNL     1     179.636 187.096 190.512  1.00  0.00     0.000 C 
BRANCH   6   7
ATOM      7  C   UNL     1     179.205 185.923 189.617  1.00  0.00     0.000 C 
BRANCH   7   8
ATOM      8  C   UNL     1     177.694 185.922 189.325  1.00  0.00     0.000 C 
BRANCH   8   9
ATOM      9  C   UNL     1     176.883 185.199 190.413  1.00  0.00     0.000 C 
BRANCH   9  10
ATOM     10  C   UNL     1     175.979 186.155 191.212  1.00  0.00     0.000 C 
BRANCH  10  11
ATOM     11  C   UNL     1     175.621 187.425 190.420  1.00  0.00     0.000 C 
BRANCH  11  12
ATOM     12  C   UNL     1     175.626 188.688 191.298  1.00  0.00     0.000 C 
BRANCH  12  13
ATOM     13  C   UNL     1     176.871 188.781 192.199  1.00  0.00     0.006 C 
BRANCH  13  14
ATOM     14  C   UNL     1     177.451 190.198 192.336  1.00  0.00     0.053 C 
BRANCH  14  15
ATOM     15  C   UNL     1     176.407 191.196 192.736  1.00  0.00     0.041 C 
ATOM     16  O   UNL     1     176.105 192.143 191.962  1.00  0.00    -0.550 OA
ATOM     17  O   UNL     1     175.780 191.090 193.971  1.00  0.00    -0.550 OA
ENDBRANCH  14  15
ENDBRANCH  13  14
ENDBRANCH  12  13
ENDBRANCH  11  12
ENDBRANCH  10  11
ENDBRANCH   9  10
ENDBRANCH   8   9
ENDBRANCH   7   8
ENDBRANCH   6   7
ENDBRANCH   5   6
ENDBRANCH   4   5
ENDBRANCH   3   4
ENDBRANCH   2   3
ENDBRANCH   1   2
BRANCH   1  18
ATOM     18  C   UNL     1     182.634 189.764 188.011  1.00  0.00     0.000 C 
BRANCH  18  19
ATOM     19  C   UNL     1     182.697 188.257 187.720  1.00  0.00     0.000 C 
BRANCH  19  20
ATOM     20  C   UNL     1     181.350 187.742 187.189  1.00  0.00     0.000 C 
BRANCH  20  21
ATOM     21  C   UNL     1     180.241 188.813 187.248  1.00  0.00     0.000 C 
BRANCH  21  22
ATOM     22  C   UNL     1     178.880 188.332 186.710  1.00  0.00     0.000 C 
BRANCH  22  23
ATOM     23  C   UNL     1     177.653 189.046 187.306  1.00  0.00     0.000 C 
BRANCH  23  24
ATOM     24  C   UNL     1     177.905 189.777 188.642  1.00  0.00    -0.000 C 
BRANCH  24  25
ATOM     25  C   UNL     1     177.482 191.257 188.662  1.00  0.00    -0.000 C 
BRANCH  25  26
ATOM     26  C   UNL     1     178.510 192.161 189.368  1.00  0.00    -0.000 C 
BRANCH  26  27
ATOM     27  C   UNL     1     179.157 193.177 188.414  1.00  0.00    -0.000 C 
BRANCH  27  28
ATOM     28  C   UNL     1     180.090 192.509 187.388  1.00  0.00    -0.000 C 
BRANCH  28  29
ATOM     29  C   UNL     1     179.684 192.808 185.935  1.00  0.00    -0.000 C 
BRANCH  29  30
ATOM     30  C   UNL     1     179.779 191.573 185.026  1.00  0.00    -0.000 C 
BRANCH  30  31
ATOM     31  C   UNL     1     178.426 191.271 184.370  1.00  0.00    -0.003 C 
ATOM     32  C   UNL     1     177.302 192.054 185.043  1.00  0.00     0.004 C 
ENDBRANCH  30  31
ENDBRANCH  29  30
ENDBRANCH  28  29
ENDBRANCH  27  28
ENDBRANCH  26  27
ENDBRANCH  25  26
ENDBRANCH  24  25
ENDBRANCH  23  24
ENDBRANCH  22  23
ENDBRANCH  21  22
ENDBRANCH  20  21
ENDBRANCH  19  20
ENDBRANCH  18  19
ENDBRANCH   1  18
TORSDOF 28
ENDMDL
MODEL 8
REMARK VINA RESULT:     0.038      4.130      7.275
REMARK INTER + INTRA:          -7.542
REMARK INTER:                   0.000
REMARK INTRA:                  -7.542
REMARK UNBOUND:                -7.641
REMARK SMILES CCCCCCCCCCCCCCCCCCCCCCCCCCCCCC(=O)[O-]
REMARK SMILES IDX 16 1 17 2 18 3 19 4 20 5 21 6 22 7 23 8 24 9 25 10 26 11
REMARK SMILES IDX 27 12 28 13 29 14 30 15 31 16 32 17 15 18 14 19 13 20 12 21
REMARK SMILES IDX 11 22 10 23 9 24 8 25 7 26 6 27 5 28 4 29 3 30 2 31 1 32
REMARK H PARENT
REMARK Flexibility Score: inf
ROOT
ATOM      1  C   UNL     1     180.710 185.939 192.513  1.00  0.00     0.000 C 
ENDROOT
BRANCH   1   2
ATOM      2  C   UNL     1     180.836 187.455 192.278  1.00  0.00     0.000 C 
BRANCH   2   3
ATOM      3  C   UNL     1     180.318 188.280 193.466  1.00  0.00     0.000 C 
BRANCH   3   4
ATOM      4  C   UNL     1     179.755 187.397 194.595  1.00  0.00     0.000 C 
BRANCH   4   5
ATOM      5  C   UNL     1     178.227 187.508 194.727  1.00  0.00     0.000 C 
BRANCH   5   6
ATOM      6  C   UNL     1     177.670 188.771 194.048  1.00  0.00     0.000 C 
BRANCH   6   7
ATOM      7  C   UNL     1     176.580 188.454 193.011  1.00  0.00     0.000 C 
BRANCH   7   8
ATOM      8  C   UNL     1     176.887 187.186 192.195  1.00  0.00     0.000 C 
BRANCH   8   9
ATOM      9  C   UNL     1     177.489 187.503 190.816  1.00  0.00     0.000 C 
BRANCH   9  10
ATOM     10  C   UNL     1     177.082 186.478 189.742  1.00  0.00     0.000 C 
BRANCH  10  11
ATOM     11  C   UNL     1     176.166 185.375 190.300  1.00  0.00     0.000 C 
BRANCH  11  12
ATOM     12  C   UNL     1     174.907 185.164 189.440  1.00  0.00     0.000 C 
BRANCH  12  13
ATOM     13  C   UNL     1     173.604 185.401 190.225  1.00  0.00     0.006 C 
BRANCH  13  14
ATOM     14  C   UNL     1     173.505 186.787 190.885  1.00  0.00     0.053 C 
BRANCH  14  15
ATOM     15  C   UNL     1     172.863 186.720 192.237  1.00  0.00     0.041 C 
ATOM     16  O   UNL     1     173.060 187.638 193.077  1.00  0.00    -0.550 OA
ATOM     17  O   UNL     1     172.064 185.636 192.576  1.00  0.00    -0.550 OA
ENDBRANCH  14  15
ENDBRANCH  13  14
ENDBRANCH  12  13
ENDBRANCH  11  12
ENDBRANCH  10  11
ENDBRANCH   9  10
ENDBRANCH   8   9
ENDBRANCH   7   8
ENDBRANCH   6   7
ENDBRANCH   5   6
ENDBRANCH   4   5
ENDBRANCH   3   4
ENDBRANCH   2   3
ENDBRANCH   1   2
BRANCH   1  18
ATOM     18  C   UNL     1     180.528 185.152 191.206  1.00  0.00     0.000 C 
BRANCH  18  19
ATOM     19  C   UNL     1     179.453 184.062 191.322  1.00  0.00     0.000 C 
BRANCH  19  20
ATOM     20  C   UNL     1     178.794 184.084 192.710  1.00  0.00     0.000 C 
BRANCH  20  21
ATOM     21  C   UNL     1     178.951 182.744 193.460  1.00  0.00     0.000 C 
BRANCH  21  22
ATOM     22  C   UNL     1     179.380 182.901 194.932  1.00  0.00     0.000 C 
BRANCH  22  23
ATOM     23  C   UNL     1     178.638 184.000 195.714  1.00  0.00     0.000 C 
BRANCH  23  24
ATOM     24  C   UNL     1     177.464 183.506 196.585  1.00  0.00    -0.000 C 
BRANCH  24  25
ATOM     25  C   UNL     1     176.101 183.459 195.872  1.00  0.00    -0.000 C 
BRANCH  25  26
ATOM     26  C   UNL     1     175.882 184.651 194.922  1.00  0.00    -0.000 C 
BRANCH  26  27
ATOM     27  C   UNL     1     175.143 184.253 193.635  1.00  0.00    -0.000 C 
BRANCH  27  28
ATOM     28  C   UNL     1     175.225 182.743 193.352  1.00  0.00    -0.000 C 
BRANCH  28  29
ATOM     29  C   UNL     1     174.174 182.274 192.332  1.00  0.00    -0.000 C 
BRANCH  29  30
ATOM     30  C   UNL     1     174.791 181.887 190.979  1.00  0.00    -0.000 C 
BRANCH  30  31
ATOM     31  C   UNL     1     176.308 181.698 191.105  1.00  0.00    -0.003 C 
ATOM     32  C   UNL     1     176.983 181.732 189.736  1.00  0.00     0.004 C 
ENDBRANCH  30  31
ENDBRANCH  29  30
ENDBRANCH  28  29
ENDBRANCH  27  28
ENDBRANCH  26  27
ENDBRANCH  25  26
ENDBRANCH  24  25
ENDBRANCH  23  24
ENDBRANCH  22  23
ENDBRANCH  21  22
ENDBRANCH  20  21
ENDBRANCH  19  20
ENDBRANCH  18  19
ENDBRANCH   1  18
TORSDOF 28
ENDMDL
MODEL 9
REMARK VINA RESULT:     0.050      6.731     10.030
REMARK INTER + INTRA:          -7.510
REMARK INTER:                   0.000
REMARK INTRA:                  -7.510
REMARK UNBOUND:                -7.641
REMARK SMILES CCCCCCCCCCCCCCCCCCCCCCCCCCCCCC(=O)[O-]
REMARK SMILES IDX 16 1 17 2 18 3 19 4 20 5 21 6 22 7 23 8 24 9 25 10 26 11
REMARK SMILES IDX 27 12 28 13 29 14 30 15 31 16 32 17 15 18 14 19 13 20 12 21
REMARK SMILES IDX 11 22 10 23 9 24 8 25 7 26 6 27 5 28 4 29 3 30 2 31 1 32
REMARK H PARENT
REMARK Flexibility Score: inf
ROOT
ATOM      1  C   UNL     1     180.397 188.652 187.222  1.00  0.00     0.000 C 
ENDROOT
BRANCH   1   2
ATOM      2  C   UNL     1     181.026 188.542 185.822  1.00  0.00     0.000 C 
BRANCH   2   3
ATOM      3  C   UNL     1     182.036 189.665 185.541  1.00  0.00     0.000 C 
BRANCH   3   4
ATOM      4  C   UNL     1     183.423 189.125 185.149  1.00  0.00     0.000 C 
BRANCH   4   5
ATOM      5  C   UNL     1     183.811 187.862 185.937  1.00  0.00     0.000 C 
BRANCH   5   6
ATOM      6  C   UNL     1     185.235 187.945 186.514  1.00  0.00     0.000 C 
BRANCH   6   7
ATOM      7  C   UNL     1     185.258 187.845 188.048  1.00  0.00     0.000 C 
BRANCH   7   8
ATOM      8  C   UNL     1     183.849 187.866 188.666  1.00  0.00     0.000 C 
BRANCH   8   9
ATOM      9  C   UNL     1     183.645 189.047 189.630  1.00  0.00     0.000 C 
BRANCH   9  10
ATOM     10  C   UNL     1     183.155 190.318 188.913  1.00  0.00     0.000 C 
BRANCH  10  11
ATOM     11  C   UNL     1     184.233 191.415 188.859  1.00  0.00     0.000 C 
BRANCH  11  12
ATOM     12  C   UNL     1     184.357 192.052 187.464  1.00  0.00     0.000 C 
BRANCH  12  13
ATOM     13  C   UNL     1     185.628 191.607 186.718  1.00  0.00     0.006 C 
BRANCH  13  14
ATOM     14  C   UNL     1     186.827 191.305 187.631  1.00  0.00     0.053 C 
BRANCH  14  15
ATOM     15  C   UNL     1     187.586 192.546 187.990  1.00  0.00     0.041 C 
ATOM     16  O   UNL     1     187.966 193.339 187.089  1.00  0.00    -0.550 OA
ATOM     17  O   UNL     1     187.889 192.817 189.319  1.00  0.00    -0.550 OA
ENDBRANCH  14  15
ENDBRANCH  13  14
ENDBRANCH  12  13
ENDBRANCH  11  12
ENDBRANCH  10  11
ENDBRANCH   9  10
ENDBRANCH   8   9
ENDBRANCH   7   8
ENDBRANCH   6   7
ENDBRANCH   5   6
ENDBRANCH   4   5
ENDBRANCH   3   4
ENDBRANCH   2   3
ENDBRANCH   1   2
BRANCH   1  18
ATOM     18  C   UNL     1     180.225 187.284 187.901  1.00  0.00     0.000 C 
BRANCH  18  19
ATOM     19  C   UNL     1     180.214 187.386 189.433  1.00  0.00     0.000 C 
BRANCH  19  20
ATOM     20  C   UNL     1     179.887 188.817 189.887  1.00  0.00     0.000 C 
BRANCH  20  21
ATOM     21  C   UNL     1     180.258 189.069 191.364  1.00  0.00     0.000 C 
BRANCH  21  22
ATOM     22  C   UNL     1     180.667 190.524 191.665  1.00  0.00     0.000 C 
BRANCH  22  23
ATOM     23  C   UNL     1     181.869 190.680 192.615  1.00  0.00     0.000 C 
BRANCH  23  24
ATOM     24  C   UNL     1     182.830 191.838 192.273  1.00  0.00    -0.000 C 
BRANCH  24  25
ATOM     25  C   UNL     1     182.183 193.234 192.253  1.00  0.00    -0.000 C 
BRANCH  25  26
ATOM     26  C   UNL     1     182.620 194.077 191.041  1.00  0.00    -0.000 C 
BRANCH  26  27
ATOM     27  C   UNL     1     181.682 193.910 189.835  1.00  0.00    -0.000 C 
BRANCH  27  28
ATOM     28  C   UNL     1     180.200 193.856 190.245  1.00  0.00    -0.000 C 
BRANCH  28  29
ATOM     29  C   UNL     1     179.336 193.075 189.241  1.00  0.00    -0.000 C 
BRANCH  29  30
ATOM     30  C   UNL     1     180.166 192.158 188.330  1.00  0.00    -0.000 C 
BRANCH  30  31
ATOM     31  C   UNL     1     179.867 192.440 186.852  1.00  0.00    -0.003 C 
ATOM     32  C   UNL     1     181.022 193.187 186.189  1.00  0.00     0.004 C 
ENDBRANCH  30  31
ENDBRANCH  29  30
ENDBRANCH  28  29
ENDBRANCH  27  28
ENDBRANCH  26  27
ENDBRANCH  25  26
ENDBRANCH  24  25
ENDBRANCH  23  24
ENDBRANCH  22  23
ENDBRANCH  21  22
ENDBRANCH  20  21
ENDBRANCH  19  20
ENDBRANCH  18  19
ENDBRANCH   1  18
TORSDOF 28
ENDMDL
