MODEL 1
REMARK VINA RESULT:    -7.799      0.000      0.000
REMARK INTER + INTRA:         -11.555
REMARK INTER:                 -10.762
REMARK INTRA:                  -0.793
REMARK UNBOUND:                -0.793
REMARK SMILES CC[C@H](CC[C@@H](C)[C@H]1CC[C@H]2[C@@H]3CC=C4C[C@@H](O)CC[C@]4(C)[C@H]3CC[C@]12C)C(C)C
REMARK SMILES IDX 5 1 4 2 3 3 2 4 1 5 28 6 29 7 30 8 6 9 7 10 8 11 9 12 26 13
REMARK SMILES IDX 10 14 11 15 25 16 27 17 12 18 24 19 23 20 13 21 21 22 14 23
REMARK SMILES IDX 15 24 20 25 22 26 16 27 19 28 17 29 18 30
REMARK H PARENT 18 31
REMARK Flexibility Score: inf
ROOT
ATOM      1  C   UNL     1      76.339 -26.885  83.128  1.00  0.00     0.004 C 
ENDROOT
BRANCH   1   2
ATOM      2  C   UNL     1      74.932 -26.639  83.714  1.00  0.00     0.004 C 
BRANCH   2   3
ATOM      3  C   UNL     1      74.945 -25.552  84.837  1.00  0.00    -0.009 C 
BRANCH   3   4
ATOM      4  C   UNL     1      75.310 -26.156  86.219  1.00  0.00     0.000 C 
ATOM      5  C   UNL     1      74.151 -26.110  87.215  1.00  0.00     0.004 C 
ENDBRANCH   3   4
BRANCH   3   6
ATOM      6  C   UNL     1      75.865 -24.334  84.506  1.00  0.00    -0.014 C 
ATOM      7  C   UNL     1      75.155 -23.214  83.726  1.00  0.00     0.007 C 
ATOM      8  C   UNL     1      76.548 -23.770  85.763  1.00  0.00     0.007 C 
ENDBRANCH   3   6
ENDBRANCH   2   3
ENDBRANCH   1   2
BRANCH   1   9
ATOM      9  C   UNL     1      76.770 -28.378  83.079  1.00  0.00    -0.011 C 
ATOM     10  C   UNL     1      76.819 -28.870  81.619  1.00  0.00     0.008 C 
BRANCH   9  11
ATOM     11  C   UNL     1      78.110 -28.653  83.847  1.00  0.00    -0.002 C 
ATOM     12  C   UNL     1      79.118 -29.477  82.999  1.00  0.00     0.005 C 
ATOM     13  C   UNL     1      78.951 -27.430  84.327  1.00  0.00    -0.026 C 
ATOM     14  C   UNL     1      80.529 -29.020  83.396  1.00  0.00     0.005 C 
ATOM     15  C   UNL     1      80.299 -28.119  84.597  1.00  0.00    -0.001 C 
ATOM     16  C   UNL     1      78.503 -26.797  85.669  1.00  0.00     0.007 C 
ATOM     17  C   UNL     1      79.031 -26.345  83.206  1.00  0.00     0.012 C 
ATOM     18  C   UNL     1      81.424 -27.144  85.006  1.00  0.00     0.000 C 
ATOM     19  C   UNL     1      79.555 -25.796  86.202  1.00  0.00     0.005 C 
ATOM     20  C   UNL     1      80.995 -26.396  86.304  1.00  0.00     0.003 C 
ATOM     21  C   UNL     1      82.728 -27.912  85.273  1.00  0.00     0.031 C 
ATOM     22  C   UNL     1      82.091 -25.359  86.763  1.00  0.00    -0.008 C 
ATOM     23  C   UNL     1      83.773 -27.069  85.947  1.00  0.00    -0.027 C 
ATOM     24  C   UNL     1      83.489 -25.999  86.722  1.00  0.00    -0.065 C 
ATOM     25  C   UNL     1      81.789 -24.917  88.229  1.00  0.00     0.014 C 
ATOM     26  C   UNL     1      82.107 -24.106  85.843  1.00  0.00     0.016 C 
ATOM     27  C   UNL     1      84.632 -25.306  87.440  1.00  0.00     0.063 C 
ATOM     28  C   UNL     1      82.934 -24.133  88.888  1.00  0.00     0.033 C 
ATOM     29  C   UNL     1      84.236 -24.945  88.875  1.00  0.00     0.118 C 
BRANCH  29  30
ATOM     30  O   UNL     1      85.268 -24.198  89.461  1.00  0.00    -0.393 OA
ATOM     31  H   UNL     1      84.838 -23.452  89.955  1.00  0.00     0.210 HD
ENDBRANCH  29  30
ENDBRANCH   9  11
ENDBRANCH   1   9
TORSDOF 7
ENDMDL
MODEL 2
REMARK VINA RESULT:    -7.787      0.654      1.447
REMARK INTER + INTRA:         -11.540
REMARK INTER:                 -10.986
REMARK INTRA:                  -0.554
REMARK UNBOUND:                -0.793
REMARK SMILES CC[C@H](CC[C@@H](C)[C@H]1CC[C@H]2[C@@H]3CC=C4C[C@@H](O)CC[C@]4(C)[C@H]3CC[C@]12C)C(C)C
REMARK SMILES IDX 5 1 4 2 3 3 2 4 1 5 28 6 29 7 30 8 6 9 7 10 8 11 9 12 26 13
REMARK SMILES IDX 10 14 11 15 25 16 27 17 12 18 24 19 23 20 13 21 21 22 14 23
REMARK SMILES IDX 15 24 20 25 22 26 16 27 19 28 17 29 18 30
REMARK H PARENT 18 31
REMARK Flexibility Score: inf
ROOT
ATOM      1  C   UNL     1      76.444 -27.056  82.753  1.00  0.00     0.004 C 
ENDROOT
BRANCH   1   2
ATOM      2  C   UNL     1      75.291 -26.739  83.730  1.00  0.00     0.004 C 
BRANCH   2   3
ATOM      3  C   UNL     1      75.581 -25.465  84.586  1.00  0.00    -0.009 C 
BRANCH   3   4
ATOM      4  C   UNL     1      75.260 -24.161  83.807  1.00  0.00     0.000 C 
ATOM      5  C   UNL     1      75.639 -22.897  84.578  1.00  0.00     0.004 C 
ENDBRANCH   3   4
BRANCH   3   6
ATOM      6  C   UNL     1      74.856 -25.474  85.970  1.00  0.00    -0.014 C 
ATOM      7  C   UNL     1      73.398 -25.960  85.904  1.00  0.00     0.007 C 
ATOM      8  C   UNL     1      75.645 -26.267  87.026  1.00  0.00     0.007 C 
ENDBRANCH   3   6
ENDBRANCH   2   3
ENDBRANCH   1   2
BRANCH   1   9
ATOM      9  C   UNL     1      76.908 -28.541  82.756  1.00  0.00    -0.011 C 
ATOM     10  C   UNL     1      77.107 -29.038  81.311  1.00  0.00     0.008 C 
BRANCH   9  11
ATOM     11  C   UNL     1      78.174 -28.784  83.651  1.00  0.00    -0.002 C 
ATOM     12  C   UNL     1      79.164 -29.796  83.010  1.00  0.00     0.005 C 
ATOM     13  C   UNL     1      79.077 -27.562  84.000  1.00  0.00    -0.026 C 
ATOM     14  C   UNL     1      80.579 -29.381  83.434  1.00  0.00     0.005 C 
ATOM     15  C   UNL     1      80.349 -28.291  84.467  1.00  0.00    -0.001 C 
ATOM     16  C   UNL     1      78.600 -26.699  85.197  1.00  0.00     0.007 C 
ATOM     17  C   UNL     1      79.310 -26.671  82.739  1.00  0.00     0.012 C 
ATOM     18  C   UNL     1      81.520 -27.344  84.805  1.00  0.00     0.000 C 
ATOM     19  C   UNL     1      79.693 -25.703  85.647  1.00  0.00     0.005 C 
ATOM     20  C   UNL     1      81.073 -26.377  85.942  1.00  0.00     0.003 C 
ATOM     21  C   UNL     1      82.741 -28.149  85.277  1.00  0.00     0.031 C 
ATOM     22  C   UNL     1      82.218 -25.358  86.317  1.00  0.00    -0.008 C 
ATOM     23  C   UNL     1      83.807 -27.285  85.889  1.00  0.00    -0.027 C 
ATOM     24  C   UNL     1      83.561 -26.091  86.473  1.00  0.00    -0.065 C 
ATOM     25  C   UNL     1      81.863 -24.675  87.675  1.00  0.00     0.014 C 
ATOM     26  C   UNL     1      82.387 -24.266  85.223  1.00  0.00     0.016 C 
ATOM     27  C   UNL     1      84.709 -25.374  87.159  1.00  0.00     0.063 C 
ATOM     28  C   UNL     1      83.024 -23.879  88.289  1.00  0.00     0.033 C 
ATOM     29  C   UNL     1      84.257 -24.769  88.491  1.00  0.00     0.118 C 
BRANCH  29  30
ATOM     30  O   UNL     1      85.307 -24.013  89.032  1.00  0.00    -0.393 OA
ATOM     31  H   UNL     1      84.938 -23.525  89.814  1.00  0.00     0.210 HD
ENDBRANCH  29  30
ENDBRANCH   9  11
ENDBRANCH   1   9
TORSDOF 7
ENDMDL
MODEL 3
REMARK VINA RESULT:    -7.435      1.372      4.470
REMARK INTER + INTRA:         -11.053
REMARK INTER:                 -10.292
REMARK INTRA:                  -0.761
REMARK UNBOUND:                -0.793
REMARK SMILES CC[C@H](CC[C@@H](C)[C@H]1CC[C@H]2[C@@H]3CC=C4C[C@@H](O)CC[C@]4(C)[C@H]3CC[C@]12C)C(C)C
REMARK SMILES IDX 5 1 4 2 3 3 2 4 1 5 28 6 29 7 30 8 6 9 7 10 8 11 9 12 26 13
REMARK SMILES IDX 10 14 11 15 25 16 27 17 12 18 24 19 23 20 13 21 21 22 14 23
REMARK SMILES IDX 15 24 20 25 22 26 16 27 19 28 17 29 18 30
REMARK H PARENT 18 31
REMARK Flexibility Score: inf
ROOT
ATOM      1  C   UNL     1      76.317 -27.540  83.818  1.00  0.00     0.004 C 
ENDROOT
BRANCH   1   2
ATOM      2  C   UNL     1      76.359 -28.249  82.447  1.00  0.00     0.004 C 
BRANCH   2   3
ATOM      3  C   UNL     1      77.759 -28.877  82.153  1.00  0.00    -0.009 C 
BRANCH   3   4
ATOM      4  C   UNL     1      78.740 -27.839  81.544  1.00  0.00     0.000 C 
ATOM      5  C   UNL     1      79.158 -28.181  80.115  1.00  0.00     0.004 C 
ENDBRANCH   3   4
BRANCH   3   6
ATOM      6  C   UNL     1      78.395 -29.576  83.397  1.00  0.00    -0.014 C 
ATOM      7  C   UNL     1      78.098 -31.083  83.481  1.00  0.00     0.007 C 
ATOM      8  C   UNL     1      79.908 -29.315  83.492  1.00  0.00     0.007 C 
ENDBRANCH   3   6
ENDBRANCH   2   3
ENDBRANCH   1   2
BRANCH   1   9
ATOM      9  C   UNL     1      75.768 -26.085  83.780  1.00  0.00    -0.011 C 
ATOM     10  C   UNL     1      74.370 -26.028  84.426  1.00  0.00     0.008 C 
BRANCH   9  11
ATOM     11  C   UNL     1      76.758 -25.041  84.405  1.00  0.00    -0.002 C 
ATOM     12  C   UNL     1      76.059 -24.104  85.429  1.00  0.00     0.005 C 
ATOM     13  C   UNL     1      77.998 -25.575  85.186  1.00  0.00    -0.026 C 
ATOM     14  C   UNL     1      77.095 -23.748  86.503  1.00  0.00     0.005 C 
ATOM     15  C   UNL     1      78.399 -24.305  85.955  1.00  0.00    -0.001 C 
ATOM     16  C   UNL     1      79.219 -25.965  84.314  1.00  0.00     0.007 C 
ATOM     17  C   UNL     1      77.591 -26.756  86.123  1.00  0.00     0.012 C 
ATOM     18  C   UNL     1      79.573 -24.516  86.935  1.00  0.00     0.000 C 
ATOM     19  C   UNL     1      80.479 -26.199  85.178  1.00  0.00     0.005 C 
ATOM     20  C   UNL     1      80.815 -25.007  86.132  1.00  0.00     0.003 C 
ATOM     21  C   UNL     1      79.920 -23.200  87.648  1.00  0.00     0.031 C 
ATOM     22  C   UNL     1      82.048 -25.272  87.081  1.00  0.00    -0.008 C 
ATOM     23  C   UNL     1      81.224 -23.266  88.392  1.00  0.00    -0.027 C 
ATOM     24  C   UNL     1      82.233 -24.103  88.063  1.00  0.00    -0.065 C 
ATOM     25  C   UNL     1      83.338 -25.401  86.211  1.00  0.00     0.014 C 
ATOM     26  C   UNL     1      81.857 -26.574  87.910  1.00  0.00     0.016 C 
ATOM     27  C   UNL     1      83.542 -23.986  88.821  1.00  0.00     0.063 C 
ATOM     28  C   UNL     1      84.639 -25.375  87.027  1.00  0.00     0.033 C 
ATOM     29  C   UNL     1      84.737 -24.096  87.869  1.00  0.00     0.118 C 
BRANCH  29  30
ATOM     30  O   UNL     1      85.922 -24.109  88.620  1.00  0.00    -0.393 OA
ATOM     31  H   UNL     1      86.649 -23.815  88.012  1.00  0.00     0.210 HD
ENDBRANCH  29  30
ENDBRANCH   9  11
ENDBRANCH   1   9
TORSDOF 7
ENDMDL
MODEL 4
REMARK VINA RESULT:    -5.963      1.316      2.009
REMARK INTER + INTRA:          -9.022
REMARK INTER:                  -8.927
REMARK INTRA:                  -0.095
REMARK UNBOUND:                -0.793
REMARK SMILES CC[C@H](CC[C@@H](C)[C@H]1CC[C@H]2[C@@H]3CC=C4C[C@@H](O)CC[C@]4(C)[C@H]3CC[C@]12C)C(C)C
REMARK SMILES IDX 5 1 4 2 3 3 2 4 1 5 28 6 29 7 30 8 6 9 7 10 8 11 9 12 26 13
REMARK SMILES IDX 10 14 11 15 25 16 27 17 12 18 24 19 23 20 13 21 21 22 14 23
REMARK SMILES IDX 15 24 20 25 22 26 16 27 19 28 17 29 18 30
REMARK H PARENT 18 31
REMARK Flexibility Score: inf
ROOT
ATOM      1  C   UNL     1      76.992 -26.394  84.527  1.00  0.00     0.004 C 
ENDROOT
BRANCH   1   2
ATOM      2  C   UNL     1      75.623 -26.386  83.814  1.00  0.00     0.004 C 
BRANCH   2   3
ATOM      3  C   UNL     1      74.830 -25.066  84.080  1.00  0.00    -0.009 C 
BRANCH   3   4
ATOM      4  C   UNL     1      74.345 -24.970  85.551  1.00  0.00     0.000 C 
ATOM      5  C   UNL     1      73.738 -26.275  86.065  1.00  0.00     0.004 C 
ENDBRANCH   3   4
BRANCH   3   6
ATOM      6  C   UNL     1      75.619 -23.781  83.672  1.00  0.00    -0.014 C 
ATOM      7  C   UNL     1      74.909 -22.930  82.605  1.00  0.00     0.007 C 
ATOM      8  C   UNL     1      75.987 -22.921  84.893  1.00  0.00     0.007 C 
ENDBRANCH   3   6
ENDBRANCH   2   3
ENDBRANCH   1   2
BRANCH   1   9
ATOM      9  C   UNL     1      77.797 -27.716  84.374  1.00  0.00    -0.011 C 
ATOM     10  C   UNL     1      77.347 -28.467  83.105  1.00  0.00     0.008 C 
BRANCH   9  11
ATOM     11  C   UNL     1      79.350 -27.496  84.419  1.00  0.00    -0.002 C 
ATOM     12  C   UNL     1      79.902 -26.913  83.089  1.00  0.00     0.005 C 
ATOM     13  C   UNL     1      79.928 -26.538  85.506  1.00  0.00    -0.026 C 
ATOM     14  C   UNL     1      81.098 -26.019  83.445  1.00  0.00     0.005 C 
ATOM     15  C   UNL     1      81.329 -26.284  84.923  1.00  0.00    -0.001 C 
ATOM     16  C   UNL     1      80.141 -27.168  86.906  1.00  0.00     0.007 C 
ATOM     17  C   UNL     1      79.064 -25.241  85.612  1.00  0.00     0.012 C 
ATOM     18  C   UNL     1      82.161 -25.264  85.728  1.00  0.00     0.000 C 
ATOM     19  C   UNL     1      80.978 -26.244  87.821  1.00  0.00     0.005 C 
ATOM     20  C   UNL     1      82.332 -25.791  87.184  1.00  0.00     0.003 C 
ATOM     21  C   UNL     1      83.547 -25.081  85.091  1.00  0.00     0.031 C 
ATOM     22  C   UNL     1      83.152 -24.778  88.073  1.00  0.00    -0.008 C 
ATOM     23  C   UNL     1      84.501 -24.330  85.975  1.00  0.00    -0.027 C 
ATOM     24  C   UNL     1      84.406 -24.296  87.323  1.00  0.00    -0.065 C 
ATOM     25  C   UNL     1      83.602 -25.501  89.381  1.00  0.00     0.014 C 
ATOM     26  C   UNL     1      82.301 -23.531  88.444  1.00  0.00     0.016 C 
ATOM     27  C   UNL     1      85.503 -23.598  88.106  1.00  0.00     0.063 C 
ATOM     28  C   UNL     1      84.643 -24.717  90.195  1.00  0.00     0.033 C 
ATOM     29  C   UNL     1      85.885 -24.408  89.349  1.00  0.00     0.118 C 
BRANCH  29  30
ATOM     30  O   UNL     1      86.808 -23.673  90.108  1.00  0.00    -0.393 OA
ATOM     31  H   UNL     1      86.905 -24.145  90.976  1.00  0.00     0.210 HD
ENDBRANCH  29  30
ENDBRANCH   9  11
ENDBRANCH   1   9
TORSDOF 7
ENDMDL
MODEL 5
REMARK VINA RESULT:    -5.810      2.930      7.818
REMARK INTER + INTRA:          -8.811
REMARK INTER:                  -8.318
REMARK INTRA:                  -0.493
REMARK UNBOUND:                -0.793
REMARK SMILES CC[C@H](CC[C@@H](C)[C@H]1CC[C@H]2[C@@H]3CC=C4C[C@@H](O)CC[C@]4(C)[C@H]3CC[C@]12C)C(C)C
REMARK SMILES IDX 5 1 4 2 3 3 2 4 1 5 28 6 29 7 30 8 6 9 7 10 8 11 9 12 26 13
REMARK SMILES IDX 10 14 11 15 25 16 27 17 12 18 24 19 23 20 13 21 21 22 14 23
REMARK SMILES IDX 15 24 20 25 22 26 16 27 19 28 17 29 18 30
REMARK H PARENT 18 31
REMARK Flexibility Score: inf
ROOT
ATOM      1  C   UNL     1      84.442 -26.114  86.540  1.00  0.00     0.004 C 
ENDROOT
BRANCH   1   2
ATOM      2  C   UNL     1      83.939 -24.654  86.537  1.00  0.00     0.004 C 
BRANCH   2   3
ATOM      3  C   UNL     1      84.079 -23.982  87.940  1.00  0.00    -0.009 C 
BRANCH   3   4
ATOM      4  C   UNL     1      82.808 -24.187  88.807  1.00  0.00     0.000 C 
ATOM      5  C   UNL     1      81.679 -23.222  88.448  1.00  0.00     0.004 C 
ENDBRANCH   3   4
BRANCH   3   6
ATOM      6  C   UNL     1      85.357 -24.435  88.717  1.00  0.00    -0.014 C 
ATOM      7  C   UNL     1      86.593 -23.563  88.438  1.00  0.00     0.007 C 
ATOM      8  C   UNL     1      85.101 -24.546  90.229  1.00  0.00     0.007 C 
ENDBRANCH   3   6
ENDBRANCH   2   3
ENDBRANCH   1   2
BRANCH   1   9
ATOM      9  C   UNL     1      83.623 -27.085  85.640  1.00  0.00    -0.011 C 
ATOM     10  C   UNL     1      84.452 -28.347  85.331  1.00  0.00     0.008 C 
BRANCH   9  11
ATOM     11  C   UNL     1      82.212 -27.427  86.235  1.00  0.00    -0.002 C 
ATOM     12  C   UNL     1      82.160 -27.239  87.776  1.00  0.00     0.005 C 
ATOM     13  C   UNL     1      80.981 -26.616  85.726  1.00  0.00    -0.026 C 
ATOM     14  C   UNL     1      80.736 -26.793  88.133  1.00  0.00     0.005 C 
ATOM     15  C   UNL     1      79.965 -26.946  86.833  1.00  0.00    -0.001 C 
ATOM     16  C   UNL     1      80.359 -27.111  84.396  1.00  0.00     0.007 C 
ATOM     17  C   UNL     1      81.321 -25.094  85.642  1.00  0.00     0.012 C 
ATOM     18  C   UNL     1      78.621 -26.201  86.686  1.00  0.00     0.000 C 
ATOM     19  C   UNL     1      78.990 -26.443  84.128  1.00  0.00     0.005 C 
ATOM     20  C   UNL     1      77.983 -26.580  85.316  1.00  0.00     0.003 C 
ATOM     21  C   UNL     1      77.661 -26.599  87.818  1.00  0.00     0.031 C 
ATOM     22  C   UNL     1      76.616 -25.826  85.088  1.00  0.00    -0.008 C 
ATOM     23  C   UNL     1      76.252 -26.137  87.577  1.00  0.00    -0.027 C 
ATOM     24  C   UNL     1      75.737 -25.913  86.348  1.00  0.00    -0.065 C 
ATOM     25  C   UNL     1      75.856 -26.503  83.904  1.00  0.00     0.014 C 
ATOM     26  C   UNL     1      76.843 -24.324  84.759  1.00  0.00     0.016 C 
ATOM     27  C   UNL     1      74.264 -25.564  86.237  1.00  0.00     0.063 C 
ATOM     28  C   UNL     1      74.395 -26.050  83.766  1.00  0.00     0.033 C 
ATOM     29  C   UNL     1      73.615 -26.304  85.063  1.00  0.00     0.118 C 
BRANCH  29  30
ATOM     30  O   UNL     1      72.292 -25.861  84.918  1.00  0.00    -0.393 OA
ATOM     31  H   UNL     1      71.714 -26.667  84.945  1.00  0.00     0.210 HD
ENDBRANCH  29  30
ENDBRANCH   9  11
ENDBRANCH   1   9
TORSDOF 7
ENDMDL
MODEL 6
REMARK VINA RESULT:    -5.518      1.649      3.874
REMARK INTER + INTRA:          -8.407
REMARK INTER:                  -7.523
REMARK INTRA:                  -0.884
REMARK UNBOUND:                -0.793
REMARK SMILES CC[C@H](CC[C@@H](C)[C@H]1CC[C@H]2[C@@H]3CC=C4C[C@@H](O)CC[C@]4(C)[C@H]3CC[C@]12C)C(C)C
REMARK SMILES IDX 5 1 4 2 3 3 2 4 1 5 28 6 29 7 30 8 6 9 7 10 8 11 9 12 26 13
REMARK SMILES IDX 10 14 11 15 25 16 27 17 12 18 24 19 23 20 13 21 21 22 14 23
REMARK SMILES IDX 15 24 20 25 22 26 16 27 19 28 17 29 18 30
REMARK H PARENT 18 31
REMARK Flexibility Score: inf
ROOT
ATOM      1  C   UNL     1      76.527 -27.819  84.145  1.00  0.00     0.004 C 
ENDROOT
BRANCH   1   2
ATOM      2  C   UNL     1      76.625 -28.043  82.621  1.00  0.00     0.004 C 
BRANCH   2   3
ATOM      3  C   UNL     1      77.230 -29.441  82.271  1.00  0.00    -0.009 C 
BRANCH   3   4
ATOM      4  C   UNL     1      78.246 -29.353  81.102  1.00  0.00     0.000 C 
ATOM      5  C   UNL     1      78.292 -27.969  80.454  1.00  0.00     0.004 C 
ENDBRANCH   3   4
BRANCH   3   6
ATOM      6  C   UNL     1      77.864 -30.165  83.502  1.00  0.00    -0.014 C 
ATOM      7  C   UNL     1      77.244 -31.541  83.799  1.00  0.00     0.007 C 
ATOM      8  C   UNL     1      79.393 -30.273  83.380  1.00  0.00     0.007 C 
ENDBRANCH   3   6
ENDBRANCH   2   3
ENDBRANCH   1   2
BRANCH   1   9
ATOM      9  C   UNL     1      77.277 -26.560  84.666  1.00  0.00    -0.011 C 
ATOM     10  C   UNL     1      76.630 -26.060  85.973  1.00  0.00     0.008 C 
BRANCH   9  11
ATOM     11  C   UNL     1      78.822 -26.786  84.813  1.00  0.00    -0.002 C 
ATOM     12  C   UNL     1      79.559 -26.735  83.446  1.00  0.00     0.005 C 
ATOM     13  C   UNL     1      79.632 -25.791  85.701  1.00  0.00    -0.026 C 
ATOM     14  C   UNL     1      80.957 -26.158  83.702  1.00  0.00     0.005 C 
ATOM     15  C   UNL     1      81.060 -26.099  85.217  1.00  0.00    -0.001 C 
ATOM     16  C   UNL     1      79.611 -26.085  87.223  1.00  0.00     0.007 C 
ATOM     17  C   UNL     1      79.194 -24.319  85.418  1.00  0.00     0.012 C 
ATOM     18  C   UNL     1      82.139 -25.190  85.842  1.00  0.00     0.000 C 
ATOM     19  C   UNL     1      80.662 -25.238  87.977  1.00  0.00     0.005 C 
ATOM     20  C   UNL     1      82.106 -25.362  87.391  1.00  0.00     0.003 C 
ATOM     21  C   UNL     1      83.532 -25.573  85.321  1.00  0.00     0.031 C 
ATOM     22  C   UNL     1      83.168 -24.435  88.098  1.00  0.00    -0.008 C 
ATOM     23  C   UNL     1      84.643 -24.927  86.098  1.00  0.00    -0.027 C 
ATOM     24  C   UNL     1      84.527 -24.532  87.385  1.00  0.00    -0.065 C 
ATOM     25  C   UNL     1      83.346 -24.905  89.576  1.00  0.00     0.014 C 
ATOM     26  C   UNL     1      82.720 -22.946  88.085  1.00  0.00     0.016 C 
ATOM     27  C   UNL     1      85.762 -24.002  88.090  1.00  0.00     0.063 C 
ATOM     28  C   UNL     1      84.552 -24.271  90.286  1.00  0.00     0.033 C 
ATOM     29  C   UNL     1      85.852 -24.549  89.518  1.00  0.00     0.118 C 
BRANCH  29  30
ATOM     30  O   UNL     1      86.932 -23.941  90.175  1.00  0.00    -0.393 OA
ATOM     31  H   UNL     1      86.547 -23.343  90.868  1.00  0.00     0.210 HD
ENDBRANCH  29  30
ENDBRANCH   9  11
ENDBRANCH   1   9
TORSDOF 7
ENDMDL
MODEL 7
REMARK VINA RESULT:    -5.508      3.087      8.741
REMARK INTER + INTRA:          -8.393
REMARK INTER:                  -8.221
REMARK INTRA:                  -0.173
REMARK UNBOUND:                -0.793
REMARK SMILES CC[C@H](CC[C@@H](C)[C@H]1CC[C@H]2[C@@H]3CC=C4C[C@@H](O)CC[C@]4(C)[C@H]3CC[C@]12C)C(C)C
REMARK SMILES IDX 5 1 4 2 3 3 2 4 1 5 28 6 29 7 30 8 6 9 7 10 8 11 9 12 26 13
REMARK SMILES IDX 10 14 11 15 25 16 27 17 12 18 24 19 23 20 13 21 21 22 14 23
REMARK SMILES IDX 15 24 20 25 22 26 16 27 19 28 17 29 18 30
REMARK H PARENT 18 31
REMARK Flexibility Score: inf
ROOT
ATOM      1  C   UNL     1      84.634 -24.508  87.240  1.00  0.00     0.004 C 
ENDROOT
BRANCH   1   2
ATOM      2  C   UNL     1      86.047 -24.037  87.646  1.00  0.00     0.004 C 
BRANCH   2   3
ATOM      3  C   UNL     1      86.129 -23.662  89.161  1.00  0.00    -0.009 C 
BRANCH   3   4
ATOM      4  C   UNL     1      85.634 -24.819  90.068  1.00  0.00     0.000 C 
ATOM      5  C   UNL     1      84.337 -24.486  90.806  1.00  0.00     0.004 C 
ENDBRANCH   3   4
BRANCH   3   6
ATOM      6  C   UNL     1      87.548 -23.181  89.602  1.00  0.00    -0.014 C 
ATOM      7  C   UNL     1      87.569 -22.481  90.971  1.00  0.00     0.007 C 
ATOM      8  C   UNL     1      88.580 -24.321  89.560  1.00  0.00     0.007 C 
ENDBRANCH   3   6
ENDBRANCH   2   3
ENDBRANCH   1   2
BRANCH   1   9
ATOM      9  C   UNL     1      83.488 -23.527  87.620  1.00  0.00    -0.011 C 
ATOM     10  C   UNL     1      83.570 -22.255  86.754  1.00  0.00     0.008 C 
BRANCH   9  11
ATOM     11  C   UNL     1      82.069 -24.194  87.570  1.00  0.00    -0.002 C 
ATOM     12  C   UNL     1      80.934 -23.195  87.923  1.00  0.00     0.005 C 
ATOM     13  C   UNL     1      81.597 -24.822  86.222  1.00  0.00    -0.026 C 
ATOM     14  C   UNL     1      79.697 -23.604  87.112  1.00  0.00     0.005 C 
ATOM     15  C   UNL     1      80.087 -24.935  86.493  1.00  0.00    -0.001 C 
ATOM     16  C   UNL     1      82.103 -26.260  85.941  1.00  0.00     0.007 C 
ATOM     17  C   UNL     1      81.935 -23.876  85.026  1.00  0.00     0.012 C 
ATOM     18  C   UNL     1      79.274 -25.445  85.283  1.00  0.00     0.000 C 
ATOM     19  C   UNL     1      81.358 -26.899  84.746  1.00  0.00     0.005 C 
ATOM     20  C   UNL     1      79.801 -26.856  84.883  1.00  0.00     0.003 C 
ATOM     21  C   UNL     1      77.784 -25.544  85.642  1.00  0.00     0.031 C 
ATOM     22  C   UNL     1      79.031 -27.425  83.629  1.00  0.00    -0.008 C 
ATOM     23  C   UNL     1      76.987 -26.299  84.616  1.00  0.00    -0.027 C 
ATOM     24  C   UNL     1      77.513 -27.237  83.797  1.00  0.00    -0.065 C 
ATOM     25  C   UNL     1      79.331 -28.952  83.501  1.00  0.00     0.014 C 
ATOM     26  C   UNL     1      79.465 -26.706  82.321  1.00  0.00     0.016 C 
ATOM     27  C   UNL     1      76.576 -28.009  82.888  1.00  0.00     0.063 C 
ATOM     28  C   UNL     1      78.423 -29.679  82.498  1.00  0.00     0.033 C 
ATOM     29  C   UNL     1      76.943 -29.495  82.860  1.00  0.00     0.118 C 
BRANCH  29  30
ATOM     30  O   UNL     1      76.137 -30.149  81.917  1.00  0.00    -0.393 OA
ATOM     31  H   UNL     1      75.482 -30.693  82.427  1.00  0.00     0.210 HD
ENDBRANCH  29  30
ENDBRANCH   9  11
ENDBRANCH   1   9
TORSDOF 7
ENDMDL
MODEL 8
REMARK VINA RESULT:    -5.468      1.401      3.179
REMARK INTER + INTRA:          -8.339
REMARK INTER:                  -7.892
REMARK INTRA:                  -0.447
REMARK UNBOUND:                -0.793
REMARK SMILES CC[C@H](CC[C@@H](C)[C@H]1CC[C@H]2[C@@H]3CC=C4C[C@@H](O)CC[C@]4(C)[C@H]3CC[C@]12C)C(C)C
REMARK SMILES IDX 5 1 4 2 3 3 2 4 1 5 28 6 29 7 30 8 6 9 7 10 8 11 9 12 26 13
REMARK SMILES IDX 10 14 11 15 25 16 27 17 12 18 24 19 23 20 13 21 21 22 14 23
REMARK SMILES IDX 15 24 20 25 22 26 16 27 19 28 17 29 18 30
REMARK H PARENT 18 31
REMARK Flexibility Score: inf
ROOT
ATOM      1  C   UNL     1      76.439 -27.101  83.847  1.00  0.00     0.004 C 
ENDROOT
BRANCH   1   2
ATOM      2  C   UNL     1      75.805 -25.710  83.627  1.00  0.00     0.004 C 
BRANCH   2   3
ATOM      3  C   UNL     1      75.534 -24.969  84.976  1.00  0.00    -0.009 C 
BRANCH   3   4
ATOM      4  C   UNL     1      75.580 -23.427  84.805  1.00  0.00     0.000 C 
ATOM      5  C   UNL     1      75.236 -22.973  83.387  1.00  0.00     0.004 C 
ENDBRANCH   3   4
BRANCH   3   6
ATOM      6  C   UNL     1      74.203 -25.410  85.665  1.00  0.00    -0.014 C 
ATOM      7  C   UNL     1      73.330 -26.332  84.796  1.00  0.00     0.007 C 
ATOM      8  C   UNL     1      74.452 -26.041  87.045  1.00  0.00     0.007 C 
ENDBRANCH   3   6
ENDBRANCH   2   3
ENDBRANCH   1   2
BRANCH   1   9
ATOM      9  C   UNL     1      77.995 -27.109  83.868  1.00  0.00    -0.011 C 
ATOM     10  C   UNL     1      78.546 -26.768  82.470  1.00  0.00     0.008 C 
BRANCH   9  11
ATOM     11  C   UNL     1      78.596 -26.190  84.989  1.00  0.00    -0.002 C 
ATOM     12  C   UNL     1      77.837 -26.329  86.337  1.00  0.00     0.005 C 
ATOM     13  C   UNL     1      80.090 -26.395  85.388  1.00  0.00    -0.026 C 
ATOM     14  C   UNL     1      78.860 -26.117  87.461  1.00  0.00     0.005 C 
ATOM     15  C   UNL     1      80.113 -25.653  86.736  1.00  0.00    -0.001 C 
ATOM     16  C   UNL     1      81.127 -25.687  84.479  1.00  0.00     0.007 C 
ATOM     17  C   UNL     1      80.421 -27.915  85.520  1.00  0.00     0.012 C 
ATOM     18  C   UNL     1      81.464 -25.748  87.476  1.00  0.00     0.000 C 
ATOM     19  C   UNL     1      82.538 -25.702  85.112  1.00  0.00     0.005 C 
ATOM     20  C   UNL     1      82.577 -25.139  86.570  1.00  0.00     0.003 C 
ATOM     21  C   UNL     1      81.407 -24.970  88.799  1.00  0.00     0.031 C 
ATOM     22  C   UNL     1      83.994 -25.232  87.257  1.00  0.00    -0.008 C 
ATOM     23  C   UNL     1      82.760 -24.782  89.424  1.00  0.00    -0.027 C 
ATOM     24  C   UNL     1      83.915 -24.769  88.722  1.00  0.00    -0.065 C 
ATOM     25  C   UNL     1      84.988 -24.300  86.494  1.00  0.00     0.014 C 
ATOM     26  C   UNL     1      84.540 -26.687  87.238  1.00  0.00     0.016 C 
ATOM     27  C   UNL     1      85.203 -24.451  89.458  1.00  0.00     0.063 C 
ATOM     28  C   UNL     1      86.319 -24.081  87.228  1.00  0.00     0.033 C 
ATOM     29  C   UNL     1      86.085 -23.509  88.633  1.00  0.00     0.118 C 
BRANCH  29  30
ATOM     30  O   UNL     1      87.314 -23.341  89.289  1.00  0.00    -0.393 OA
ATOM     31  H   UNL     1      87.750 -24.232  89.315  1.00  0.00     0.210 HD
ENDBRANCH  29  30
ENDBRANCH   9  11
ENDBRANCH   1   9
TORSDOF 7
ENDMDL
MODEL 9
REMARK VINA RESULT:    -5.250      2.685      7.524
REMARK INTER + INTRA:          -8.037
REMARK INTER:                  -7.513
REMARK INTRA:                  -0.525
REMARK UNBOUND:                -0.793
REMARK SMILES CC[C@H](CC[C@@H](C)[C@H]1CC[C@H]2[C@@H]3CC=C4C[C@@H](O)CC[C@]4(C)[C@H]3CC[C@]12C)C(C)C
REMARK SMILES IDX 5 1 4 2 3 3 2 4 1 5 28 6 29 7 30 8 6 9 7 10 8 11 9 12 26 13
REMARK SMILES IDX 10 14 11 15 25 16 27 17 12 18 24 19 23 20 13 21 21 22 14 23
REMARK SMILES IDX 15 24 20 25 22 26 16 27 19 28 17 29 18 30
REMARK H PARENT 18 31
REMARK Flexibility Score: inf
ROOT
ATOM      1  C   UNL     1      83.985 -26.605  87.219  1.00  0.00     0.004 C 
ENDROOT
BRANCH   1   2
ATOM      2  C   UNL     1      84.250 -25.116  86.904  1.00  0.00     0.004 C 
BRANCH   2   3
ATOM      3  C   UNL     1      84.170 -24.222  88.183  1.00  0.00    -0.009 C 
BRANCH   3   4
ATOM      4  C   UNL     1      82.761 -24.266  88.830  1.00  0.00     0.000 C 
ATOM      5  C   UNL     1      81.804 -23.226  88.248  1.00  0.00     0.004 C 
ENDBRANCH   3   4
BRANCH   3   6
ATOM      6  C   UNL     1      85.274 -24.555  89.238  1.00  0.00    -0.014 C 
ATOM      7  C   UNL     1      86.546 -23.702  89.094  1.00  0.00     0.007 C 
ATOM      8  C   UNL     1      84.734 -24.485  90.676  1.00  0.00     0.007 C 
ENDBRANCH   3   6
ENDBRANCH   2   3
ENDBRANCH   1   2
BRANCH   1   9
ATOM      9  C   UNL     1      84.178 -27.568  86.013  1.00  0.00    -0.011 C 
ATOM     10  C   UNL     1      84.436 -29.002  86.516  1.00  0.00     0.008 C 
BRANCH   9  11
ATOM     11  C   UNL     1      82.999 -27.500  84.981  1.00  0.00    -0.002 C 
ATOM     12  C   UNL     1      82.803 -28.839  84.218  1.00  0.00     0.005 C 
ATOM     13  C   UNL     1      81.570 -27.171  85.513  1.00  0.00    -0.026 C 
ATOM     14  C   UNL     1      81.305 -28.978  83.916  1.00  0.00     0.005 C 
ATOM     15  C   UNL     1      80.723 -27.632  84.314  1.00  0.00    -0.001 C 
ATOM     16  C   UNL     1      81.263 -25.665  85.715  1.00  0.00     0.007 C 
ATOM     17  C   UNL     1      81.271 -27.974  86.819  1.00  0.00     0.012 C 
ATOM     18  C   UNL     1      79.202 -27.535  84.554  1.00  0.00     0.000 C 
ATOM     19  C   UNL     1      79.755 -25.423  85.958  1.00  0.00     0.005 C 
ATOM     20  C   UNL     1      78.835 -26.053  84.863  1.00  0.00     0.003 C 
ATOM     21  C   UNL     1      78.432 -27.998  83.307  1.00  0.00     0.031 C 
ATOM     22  C   UNL     1      77.292 -25.887  85.148  1.00  0.00    -0.008 C 
ATOM     23  C   UNL     1      76.969 -27.660  83.367  1.00  0.00    -0.027 C 
ATOM     24  C   UNL     1      76.465 -26.635  84.088  1.00  0.00    -0.065 C 
ATOM     25  C   UNL     1      76.926 -24.371  85.086  1.00  0.00     0.014 C 
ATOM     26  C   UNL     1      76.910 -26.450  86.545  1.00  0.00     0.016 C 
ATOM     27  C   UNL     1      74.983 -26.329  83.968  1.00  0.00     0.063 C 
ATOM     28  C   UNL     1      75.414 -24.099  85.063  1.00  0.00     0.033 C 
ATOM     29  C   UNL     1      74.743 -24.818  83.885  1.00  0.00     0.118 C 
BRANCH  29  30
ATOM     30  O   UNL     1      73.362 -24.573  83.902  1.00  0.00    -0.393 OA
ATOM     31  H   UNL     1      73.218 -23.711  83.430  1.00  0.00     0.210 HD
ENDBRANCH  29  30
ENDBRANCH   9  11
ENDBRANCH   1   9
TORSDOF 7
ENDMDL
