MODEL 1
REMARK VINA RESULT:    -4.214      0.000      0.000
REMARK INTER + INTRA:          -7.793
REMARK INTER:                  -6.677
REMARK INTRA:                  -1.116
REMARK UNBOUND:                -1.116
REMARK SMILES CCCCCCCCCCCC(=O)[O-]
REMARK SMILES IDX 7 1 8 2 9 3 10 4 11 5 12 6 13 7 14 8 6 9 5 10 4 11 3 12 2 13
REMARK SMILES IDX 1 14
REMARK H PARENT
REMARK Flexibility Score: inf
ROOT
ATOM      1  C   UNL     1     -22.941  20.077 -23.132  1.00  0.00     0.000 C 
ENDROOT
BRANCH   1   2
ATOM      2  C   UNL     1     -23.576  18.951 -22.296  1.00  0.00     0.000 C 
BRANCH   2   3
ATOM      3  C   UNL     1     -23.505  17.581 -22.985  1.00  0.00     0.000 C 
BRANCH   3   4
ATOM      4  C   UNL     1     -22.843  16.539 -22.070  1.00  0.00     0.006 C 
BRANCH   4   5
ATOM      5  C   UNL     1     -21.316  16.678 -22.040  1.00  0.00     0.053 C 
BRANCH   5   6
ATOM      6  C   UNL     1     -20.634  15.441 -22.538  1.00  0.00     0.041 C 
ATOM      7  O   UNL     1     -20.637  15.168 -23.767  1.00  0.00    -0.550 OA
ATOM      8  O   UNL     1     -19.963  14.610 -21.649  1.00  0.00    -0.550 OA
ENDBRANCH   5   6
ENDBRANCH   4   5
ENDBRANCH   3   4
ENDBRANCH   2   3
ENDBRANCH   1   2
BRANCH   1   9
ATOM      9  C   UNL     1     -22.801  19.772 -24.635  1.00  0.00     0.000 C 
BRANCH   9  10
ATOM     10  C   UNL     1     -21.366  19.951 -25.153  1.00  0.00    -0.000 C 
BRANCH  10  11
ATOM     11  C   UNL     1     -20.599  18.621 -25.109  1.00  0.00    -0.000 C 
BRANCH  11  12
ATOM     12  C   UNL     1     -21.107  17.609 -26.149  1.00  0.00    -0.000 C 
BRANCH  12  13
ATOM     13  C   UNL     1     -21.039  18.153 -27.584  1.00  0.00    -0.003 C 
ATOM     14  C   UNL     1     -20.536  17.086 -28.552  1.00  0.00     0.004 C 
ENDBRANCH  12  13
ENDBRANCH  11  12
ENDBRANCH  10  11
ENDBRANCH   9  10
ENDBRANCH   1   9
TORSDOF 10
ENDMDL
MODEL 2
REMARK VINA RESULT:    -4.206      1.958      4.492
REMARK INTER + INTRA:          -7.781
REMARK INTER:                  -6.787
REMARK INTRA:                  -0.994
REMARK UNBOUND:                -1.116
REMARK SMILES CCCCCCCCCCCC(=O)[O-]
REMARK SMILES IDX 7 1 8 2 9 3 10 4 11 5 12 6 13 7 14 8 6 9 5 10 4 11 3 12 2 13
REMARK SMILES IDX 1 14
REMARK H PARENT
REMARK Flexibility Score: inf
ROOT
ATOM      1  C   UNL     1     -23.298  21.306 -22.634  1.00  0.00     0.000 C 
ENDROOT
BRANCH   1   2
ATOM      2  C   UNL     1     -23.021  20.517 -23.927  1.00  0.00     0.000 C 
BRANCH   2   3
ATOM      3  C   UNL     1     -22.073  21.251 -24.886  1.00  0.00     0.000 C 
BRANCH   3   4
ATOM      4  C   UNL     1     -21.447  20.276 -25.894  1.00  0.00     0.006 C 
BRANCH   4   5
ATOM      5  C   UNL     1     -21.231  18.880 -25.295  1.00  0.00     0.053 C 
BRANCH   5   6
ATOM      6  C   UNL     1     -21.742  17.800 -26.198  1.00  0.00     0.041 C 
ATOM      7  O   UNL     1     -22.364  16.817 -25.720  1.00  0.00    -0.550 OA
ATOM      8  O   UNL     1     -21.563  17.899 -27.573  1.00  0.00    -0.550 OA
ENDBRANCH   5   6
ENDBRANCH   4   5
ENDBRANCH   3   4
ENDBRANCH   2   3
ENDBRANCH   1   2
BRANCH   1   9
ATOM      9  C   UNL     1     -23.349  20.455 -21.351  1.00  0.00     0.000 C 
BRANCH   9  10
ATOM     10  C   UNL     1     -22.573  19.136 -21.475  1.00  0.00    -0.000 C 
BRANCH  10  11
ATOM     11  C   UNL     1     -23.530  17.958 -21.717  1.00  0.00    -0.000 C 
BRANCH  11  12
ATOM     12  C   UNL     1     -22.803  16.698 -22.215  1.00  0.00    -0.000 C 
BRANCH  12  13
ATOM     13  C   UNL     1     -21.275  16.826 -22.133  1.00  0.00    -0.003 C 
ATOM     14  C   UNL     1     -20.588  15.721 -22.931  1.00  0.00     0.004 C 
ENDBRANCH  12  13
ENDBRANCH  11  12
ENDBRANCH  10  11
ENDBRANCH   9  10
ENDBRANCH   1   9
TORSDOF 10
ENDMDL
MODEL 3
REMARK VINA RESULT:    -4.205      3.865      6.135
REMARK INTER + INTRA:          -7.780
REMARK INTER:                  -6.579
REMARK INTRA:                  -1.201
REMARK UNBOUND:                -1.116
REMARK SMILES CCCCCCCCCCCC(=O)[O-]
REMARK SMILES IDX 7 1 8 2 9 3 10 4 11 5 12 6 13 7 14 8 6 9 5 10 4 11 3 12 2 13
REMARK SMILES IDX 1 14
REMARK H PARENT
REMARK Flexibility Score: inf
ROOT
ATOM      1  C   UNL     1     -21.289  17.366 -24.474  1.00  0.00     0.000 C 
ENDROOT
BRANCH   1   2
ATOM      2  C   UNL     1     -20.570  18.603 -25.043  1.00  0.00     0.000 C 
BRANCH   2   3
ATOM      3  C   UNL     1     -21.433  19.393 -26.037  1.00  0.00     0.000 C 
BRANCH   3   4
ATOM      4  C   UNL     1     -21.494  20.879 -25.652  1.00  0.00     0.006 C 
BRANCH   4   5
ATOM      5  C   UNL     1     -22.626  21.176 -24.660  1.00  0.00     0.053 C 
BRANCH   5   6
ATOM      6  C   UNL     1     -23.015  22.623 -24.677  1.00  0.00     0.041 C 
ATOM      7  O   UNL     1     -24.217  22.956 -24.512  1.00  0.00    -0.550 OA
ATOM      8  O   UNL     1     -22.044  23.603 -24.838  1.00  0.00    -0.550 OA
ENDBRANCH   5   6
ENDBRANCH   4   5
ENDBRANCH   3   4
ENDBRANCH   2   3
ENDBRANCH   1   2
BRANCH   1   9
ATOM      9  C   UNL     1     -22.805  17.314 -24.743  1.00  0.00     0.000 C 
BRANCH   9  10
ATOM     10  C   UNL     1     -23.644  17.759 -23.536  1.00  0.00    -0.000 C 
BRANCH  10  11
ATOM     11  C   UNL     1     -22.840  17.630 -22.233  1.00  0.00    -0.000 C 
BRANCH  11  12
ATOM     12  C   UNL     1     -22.531  18.992 -21.591  1.00  0.00    -0.000 C 
BRANCH  12  13
ATOM     13  C   UNL     1     -23.766  19.903 -21.515  1.00  0.00    -0.003 C 
ATOM     14  C   UNL     1     -23.394  21.291 -21.000  1.00  0.00     0.004 C 
ENDBRANCH  12  13
ENDBRANCH  11  12
ENDBRANCH  10  11
ENDBRANCH   9  10
ENDBRANCH   1   9
TORSDOF 10
ENDMDL
MODEL 4
REMARK VINA RESULT:    -4.204      3.746      5.092
REMARK INTER + INTRA:          -7.777
REMARK INTER:                  -6.600
REMARK INTRA:                  -1.177
REMARK UNBOUND:                -1.116
REMARK SMILES CCCCCCCCCCCC(=O)[O-]
REMARK SMILES IDX 7 1 8 2 9 3 10 4 11 5 12 6 13 7 14 8 6 9 5 10 4 11 3 12 2 13
REMARK SMILES IDX 1 14
REMARK H PARENT
REMARK Flexibility Score: inf
ROOT
ATOM      1  C   UNL     1     -22.504  19.159 -21.661  1.00  0.00     0.000 C 
ENDROOT
BRANCH   1   2
ATOM      2  C   UNL     1     -23.467  19.855 -22.639  1.00  0.00     0.000 C 
BRANCH   2   3
ATOM      3  C   UNL     1     -22.949  21.218 -23.122  1.00  0.00     0.000 C 
BRANCH   3   4
ATOM      4  C   UNL     1     -22.878  21.268 -24.656  1.00  0.00     0.006 C 
BRANCH   4   5
ATOM      5  C   UNL     1     -21.548  21.842 -25.158  1.00  0.00     0.053 C 
BRANCH   5   6
ATOM      6  C   UNL     1     -21.513  23.337 -25.061  1.00  0.00     0.041 C 
ATOM      7  O   UNL     1     -22.533  24.014 -25.353  1.00  0.00    -0.550 OA
ATOM      8  O   UNL     1     -20.365  23.979 -24.615  1.00  0.00    -0.550 OA
ENDBRANCH   5   6
ENDBRANCH   4   5
ENDBRANCH   3   4
ENDBRANCH   2   3
ENDBRANCH   1   2
BRANCH   1   9
ATOM      9  C   UNL     1     -22.183  17.691 -21.998  1.00  0.00     0.000 C 
BRANCH   9  10
ATOM     10  C   UNL     1     -22.123  17.422 -23.508  1.00  0.00    -0.000 C 
BRANCH  10  11
ATOM     11  C   UNL     1     -20.672  17.450 -24.012  1.00  0.00    -0.000 C 
BRANCH  11  12
ATOM     12  C   UNL     1     -20.478  18.396 -25.208  1.00  0.00    -0.000 C 
BRANCH  12  13
ATOM     13  C   UNL     1     -21.495  18.144 -26.331  1.00  0.00    -0.003 C 
ATOM     14  C   UNL     1     -20.798  18.015 -27.683  1.00  0.00     0.004 C 
ENDBRANCH  12  13
ENDBRANCH  11  12
ENDBRANCH  10  11
ENDBRANCH   9  10
ENDBRANCH   1   9
TORSDOF 10
ENDMDL
MODEL 5
REMARK VINA RESULT:    -4.196      1.315      2.045
REMARK INTER + INTRA:          -7.765
REMARK INTER:                  -6.515
REMARK INTRA:                  -1.250
REMARK UNBOUND:                -1.116
REMARK SMILES CCCCCCCCCCCC(=O)[O-]
REMARK SMILES IDX 7 1 8 2 9 3 10 4 11 5 12 6 13 7 14 8 6 9 5 10 4 11 3 12 2 13
REMARK SMILES IDX 1 14
REMARK H PARENT
REMARK Flexibility Score: inf
ROOT
ATOM      1  C   UNL     1     -22.862  19.503 -21.581  1.00  0.00     0.000 C 
ENDROOT
BRANCH   1   2
ATOM      2  C   UNL     1     -23.614  18.160 -21.619  1.00  0.00     0.000 C 
BRANCH   2   3
ATOM      3  C   UNL     1     -22.878  17.083 -22.430  1.00  0.00     0.000 C 
BRANCH   3   4
ATOM      4  C   UNL     1     -21.405  16.988 -22.007  1.00  0.00     0.006 C 
BRANCH   4   5
ATOM      5  C   UNL     1     -20.708  15.758 -22.601  1.00  0.00     0.053 C 
BRANCH   5   6
ATOM      6  C   UNL     1     -20.490  14.690 -21.573  1.00  0.00     0.041 C 
ATOM      7  O   UNL     1     -19.505  13.913 -21.666  1.00  0.00    -0.550 OA
ATOM      8  O   UNL     1     -21.356  14.578 -20.492  1.00  0.00    -0.550 OA
ENDBRANCH   5   6
ENDBRANCH   4   5
ENDBRANCH   3   4
ENDBRANCH   2   3
ENDBRANCH   1   2
BRANCH   1   9
ATOM      9  C   UNL     1     -23.529  20.643 -22.373  1.00  0.00     0.000 C 
BRANCH   9  10
ATOM     10  C   UNL     1     -22.703  21.093 -23.586  1.00  0.00    -0.000 C 
BRANCH  10  11
ATOM     11  C   UNL     1     -22.685  20.004 -24.670  1.00  0.00    -0.000 C 
BRANCH  11  12
ATOM     12  C   UNL     1     -21.326  19.899 -25.381  1.00  0.00    -0.000 C 
BRANCH  12  13
ATOM     13  C   UNL     1     -20.728  18.487 -25.307  1.00  0.00    -0.003 C 
ATOM     14  C   UNL     1     -21.661  17.461 -25.945  1.00  0.00     0.004 C 
ENDBRANCH  12  13
ENDBRANCH  11  12
ENDBRANCH  10  11
ENDBRANCH   9  10
ENDBRANCH   1   9
TORSDOF 10
ENDMDL
MODEL 6
REMARK VINA RESULT:    -4.162      2.537      4.438
REMARK INTER + INTRA:          -7.712
REMARK INTER:                  -6.647
REMARK INTRA:                  -1.064
REMARK UNBOUND:                -1.116
REMARK SMILES CCCCCCCCCCCC(=O)[O-]
REMARK SMILES IDX 7 1 8 2 9 3 10 4 11 5 12 6 13 7 14 8 6 9 5 10 4 11 3 12 2 13
REMARK SMILES IDX 1 14
REMARK H PARENT
REMARK Flexibility Score: inf
ROOT
ATOM      1  C   UNL     1     -22.833  19.048 -21.737  1.00  0.00     0.000 C 
ENDROOT
BRANCH   1   2
ATOM      2  C   UNL     1     -24.079  18.282 -22.219  1.00  0.00     0.000 C 
BRANCH   2   3
ATOM      3  C   UNL     1     -23.840  17.513 -23.526  1.00  0.00     0.000 C 
BRANCH   3   4
ATOM      4  C   UNL     1     -23.070  18.374 -24.539  1.00  0.00     0.006 C 
BRANCH   4   5
ATOM      5  C   UNL     1     -22.536  17.549 -25.716  1.00  0.00     0.053 C 
BRANCH   5   6
ATOM      6  C   UNL     1     -21.227  18.076 -26.218  1.00  0.00     0.041 C 
ATOM      7  O   UNL     1     -20.329  18.419 -25.406  1.00  0.00    -0.550 OA
ATOM      8  O   UNL     1     -20.986  18.156 -27.584  1.00  0.00    -0.550 OA
ENDBRANCH   5   6
ENDBRANCH   4   5
ENDBRANCH   3   4
ENDBRANCH   2   3
ENDBRANCH   1   2
BRANCH   1   9
ATOM      9  C   UNL     1     -23.112  20.456 -21.177  1.00  0.00     0.000 C 
BRANCH   9  10
ATOM     10  C   UNL     1     -23.929  21.333 -22.136  1.00  0.00    -0.000 C 
BRANCH  10  11
ATOM     11  C   UNL     1     -23.356  22.757 -22.197  1.00  0.00    -0.000 C 
BRANCH  11  12
ATOM     12  C   UNL     1     -22.812  23.118 -23.589  1.00  0.00    -0.000 C 
BRANCH  12  13
ATOM     13  C   UNL     1     -22.943  21.962 -24.592  1.00  0.00    -0.003 C 
ATOM     14  C   UNL     1     -21.630  21.729 -25.336  1.00  0.00     0.004 C 
ENDBRANCH  12  13
ENDBRANCH  11  12
ENDBRANCH  10  11
ENDBRANCH   9  10
ENDBRANCH   1   9
TORSDOF 10
ENDMDL
MODEL 7
REMARK VINA RESULT:    -4.138      3.226      4.279
REMARK INTER + INTRA:          -7.674
REMARK INTER:                  -6.521
REMARK INTRA:                  -1.153
REMARK UNBOUND:                -1.116
REMARK SMILES CCCCCCCCCCCC(=O)[O-]
REMARK SMILES IDX 7 1 8 2 9 3 10 4 11 5 12 6 13 7 14 8 6 9 5 10 4 11 3 12 2 13
REMARK SMILES IDX 1 14
REMARK H PARENT
REMARK Flexibility Score: inf
ROOT
ATOM      1  C   UNL     1     -21.596  16.713 -21.894  1.00  0.00     0.000 C 
ENDROOT
BRANCH   1   2
ATOM      2  C   UNL     1     -22.892  16.773 -22.724  1.00  0.00     0.000 C 
BRANCH   2   3
ATOM      3  C   UNL     1     -23.759  17.997 -22.393  1.00  0.00     0.000 C 
BRANCH   3   4
ATOM      4  C   UNL     1     -22.949  19.296 -22.519  1.00  0.00     0.006 C 
BRANCH   4   5
ATOM      5  C   UNL     1     -22.852  20.052 -21.188  1.00  0.00     0.053 C 
BRANCH   5   6
ATOM      6  C   UNL     1     -23.357  21.456 -21.306  1.00  0.00     0.041 C 
ATOM      7  O   UNL     1     -23.600  21.948 -22.439  1.00  0.00    -0.550 OA
ATOM      8  O   UNL     1     -23.594  22.210 -20.163  1.00  0.00    -0.550 OA
ENDBRANCH   5   6
ENDBRANCH   4   5
ENDBRANCH   3   4
ENDBRANCH   2   3
ENDBRANCH   1   2
BRANCH   1   9
ATOM      9  C   UNL     1     -20.311  16.486 -22.712  1.00  0.00     0.000 C 
BRANCH   9  10
ATOM     10  C   UNL     1     -20.504  16.729 -24.215  1.00  0.00    -0.000 C 
BRANCH  10  11
ATOM     11  C   UNL     1     -19.956  18.105 -24.622  1.00  0.00    -0.000 C 
BRANCH  11  12
ATOM     12  C   UNL     1     -20.880  18.845 -25.603  1.00  0.00    -0.000 C 
BRANCH  12  13
ATOM     13  C   UNL     1     -21.720  17.886 -26.460  1.00  0.00    -0.003 C 
ATOM     14  C   UNL     1     -21.144  17.762 -27.868  1.00  0.00     0.004 C 
ENDBRANCH  12  13
ENDBRANCH  11  12
ENDBRANCH  10  11
ENDBRANCH   9  10
ENDBRANCH   1   9
TORSDOF 10
ENDMDL
MODEL 8
REMARK VINA RESULT:    -4.138      2.491      4.293
REMARK INTER + INTRA:          -7.673
REMARK INTER:                  -6.723
REMARK INTRA:                  -0.949
REMARK UNBOUND:                -1.116
REMARK SMILES CCCCCCCCCCCC(=O)[O-]
REMARK SMILES IDX 7 1 8 2 9 3 10 4 11 5 12 6 13 7 14 8 6 9 5 10 4 11 3 12 2 13
REMARK SMILES IDX 1 14
REMARK H PARENT
REMARK Flexibility Score: inf
ROOT
ATOM      1  C   UNL     1     -20.269  16.773 -23.493  1.00  0.00     0.000 C 
ENDROOT
BRANCH   1   2
ATOM      2  C   UNL     1     -20.935  16.699 -22.108  1.00  0.00     0.000 C 
BRANCH   2   3
ATOM      3  C   UNL     1     -22.408  16.269 -22.173  1.00  0.00     0.000 C 
BRANCH   3   4
ATOM      4  C   UNL     1     -22.661  15.039 -21.288  1.00  0.00     0.006 C 
BRANCH   4   5
ATOM      5  C   UNL     1     -24.123  14.941 -20.833  1.00  0.00     0.053 C 
BRANCH   5   6
ATOM      6  C   UNL     1     -24.255  14.205 -19.536  1.00  0.00     0.041 C 
ATOM      7  O   UNL     1     -23.555  13.183 -19.313  1.00  0.00    -0.550 OA
ATOM      8  O   UNL     1     -25.125  14.670 -18.557  1.00  0.00    -0.550 OA
ENDBRANCH   5   6
ENDBRANCH   4   5
ENDBRANCH   3   4
ENDBRANCH   2   3
ENDBRANCH   1   2
BRANCH   1   9
ATOM      9  C   UNL     1     -21.157  17.351 -24.612  1.00  0.00     0.000 C 
BRANCH   9  10
ATOM     10  C   UNL     1     -20.595  18.646 -25.216  1.00  0.00    -0.000 C 
BRANCH  10  11
ATOM     11  C   UNL     1     -21.556  19.821 -24.980  1.00  0.00    -0.000 C 
BRANCH  11  12
ATOM     12  C   UNL     1     -22.723  19.455 -24.050  1.00  0.00    -0.000 C 
BRANCH  12  13
ATOM     13  C   UNL     1     -22.948  20.498 -22.945  1.00  0.00    -0.003 C 
ATOM     14  C   UNL     1     -23.030  19.836 -21.572  1.00  0.00     0.004 C 
ENDBRANCH  12  13
ENDBRANCH  11  12
ENDBRANCH  10  11
ENDBRANCH   9  10
ENDBRANCH   1   9
TORSDOF 10
ENDMDL
MODEL 9
REMARK VINA RESULT:    -4.074      3.914      5.440
REMARK INTER + INTRA:          -7.573
REMARK INTER:                  -6.422
REMARK INTRA:                  -1.150
REMARK UNBOUND:                -1.116
REMARK SMILES CCCCCCCCCCCC(=O)[O-]
REMARK SMILES IDX 7 1 8 2 9 3 10 4 11 5 12 6 13 7 14 8 6 9 5 10 4 11 3 12 2 13
REMARK SMILES IDX 1 14
REMARK H PARENT
REMARK Flexibility Score: inf
ROOT
ATOM      1  C   UNL     1     -22.861  19.008 -21.623  1.00  0.00     0.000 C 
ENDROOT
BRANCH   1   2
ATOM      2  C   UNL     1     -23.138  20.472 -21.237  1.00  0.00     0.000 C 
BRANCH   2   3
ATOM      3  C   UNL     1     -23.753  21.288 -22.384  1.00  0.00     0.000 C 
BRANCH   3   4
ATOM      4  C   UNL     1     -22.833  21.287 -23.614  1.00  0.00     0.006 C 
BRANCH   4   5
ATOM      5  C   UNL     1     -23.202  22.387 -24.617  1.00  0.00     0.053 C 
BRANCH   5   6
ATOM      6  C   UNL     1     -22.081  23.361 -24.813  1.00  0.00     0.041 C 
ATOM      7  O   UNL     1     -21.856  24.250 -23.952  1.00  0.00    -0.550 OA
ATOM      8  O   UNL     1     -21.262  23.264 -25.932  1.00  0.00    -0.550 OA
ENDBRANCH   5   6
ENDBRANCH   4   5
ENDBRANCH   3   4
ENDBRANCH   2   3
ENDBRANCH   1   2
BRANCH   1   9
ATOM      9  C   UNL     1     -24.117  18.144 -21.840  1.00  0.00     0.000 C 
BRANCH   9  10
ATOM     10  C   UNL     1     -23.970  17.154 -23.005  1.00  0.00    -0.000 C 
BRANCH  10  11
ATOM     11  C   UNL     1     -23.615  17.889 -24.306  1.00  0.00    -0.000 C 
BRANCH  11  12
ATOM     12  C   UNL     1     -22.416  17.260 -25.034  1.00  0.00    -0.000 C 
BRANCH  12  13
ATOM     13  C   UNL     1     -21.091  17.968 -24.712  1.00  0.00    -0.003 C 
ATOM     14  C   UNL     1     -20.255  17.150 -23.732  1.00  0.00     0.004 C 
ENDBRANCH  12  13
ENDBRANCH  11  12
ENDBRANCH  10  11
ENDBRANCH   9  10
ENDBRANCH   1   9
TORSDOF 10
ENDMDL
