MODEL 1
REMARK VINA RESULT:    -4.147      0.000      0.000
REMARK INTER + INTRA:         -16.882
REMARK INTER:                 -10.936
REMARK INTRA:                  -5.946
REMARK UNBOUND:                -5.946
REMARK SMILES CCCCCCCCCCCCCCCCCCCCCCCCCCCCCC(=O)[O-]
REMARK SMILES IDX 16 1 17 2 18 3 19 4 20 5 21 6 22 7 23 8 24 9 25 10 26 11
REMARK SMILES IDX 27 12 28 13 29 14 30 15 31 16 32 17 15 18 14 19 13 20 12 21
REMARK SMILES IDX 11 22 10 23 9 24 8 25 7 26 6 27 5 28 4 29 3 30 2 31 1 32
REMARK H PARENT
REMARK Flexibility Score: inf
ROOT
ATOM      1  C   UNL     1      -5.591  -3.966   9.142  1.00  0.00     0.000 C 
ENDROOT
BRANCH   1   2
ATOM      2  C   UNL     1      -4.207  -4.522   9.520  1.00  0.00     0.000 C 
BRANCH   2   3
ATOM      3  C   UNL     1      -3.299  -4.879   8.326  1.00  0.00     0.000 C 
BRANCH   3   4
ATOM      4  C   UNL     1      -1.864  -4.327   8.404  1.00  0.00     0.000 C 
BRANCH   4   5
ATOM      5  C   UNL     1      -1.519  -3.763   9.792  1.00  0.00     0.000 C 
BRANCH   5   6
ATOM      6  C   UNL     1      -0.894  -2.358   9.733  1.00  0.00     0.000 C 
BRANCH   6   7
ATOM      7  C   UNL     1      -1.654  -1.340   8.863  1.00  0.00     0.000 C 
BRANCH   7   8
ATOM      8  C   UNL     1      -2.960  -0.849   9.512  1.00  0.00     0.000 C 
BRANCH   8   9
ATOM      9  C   UNL     1      -4.077  -0.603   8.485  1.00  0.00     0.000 C 
BRANCH   9  10
ATOM     10  C   UNL     1      -3.825  -1.323   7.148  1.00  0.00     0.000 C 
BRANCH  10  11
ATOM     11  C   UNL     1      -5.135  -1.692   6.419  1.00  0.00     0.000 C 
BRANCH  11  12
ATOM     12  C   UNL     1      -5.011  -2.915   5.489  1.00  0.00     0.000 C 
BRANCH  12  13
ATOM     13  C   UNL     1      -5.146  -2.609   3.988  1.00  0.00     0.006 C 
BRANCH  13  14
ATOM     14  C   UNL     1      -3.914  -1.890   3.415  1.00  0.00     0.053 C 
BRANCH  14  15
ATOM     15  C   UNL     1      -4.301  -0.657   2.657  1.00  0.00     0.041 C 
ATOM     16  O   UNL     1      -3.421   0.048   2.093  1.00  0.00    -0.550 OA
ATOM     17  O   UNL     1      -5.628  -0.239   2.644  1.00  0.00    -0.550 OA
ENDBRANCH  14  15
ENDBRANCH  13  14
ENDBRANCH  12  13
ENDBRANCH  11  12
ENDBRANCH  10  11
ENDBRANCH   9  10
ENDBRANCH   8   9
ENDBRANCH   7   8
ENDBRANCH   6   7
ENDBRANCH   5   6
ENDBRANCH   4   5
ENDBRANCH   3   4
ENDBRANCH   2   3
ENDBRANCH   1   2
BRANCH   1  18
ATOM     18  C   UNL     1      -6.388  -4.918   8.239  1.00  0.00     0.000 C 
BRANCH  18  19
ATOM     19  C   UNL     1      -7.799  -4.378   7.977  1.00  0.00     0.000 C 
BRANCH  19  20
ATOM     20  C   UNL     1      -8.373  -3.714   9.239  1.00  0.00     0.000 C 
BRANCH  20  21
ATOM     21  C   UNL     1      -9.550  -2.772   8.934  1.00  0.00     0.000 C 
BRANCH  21  22
ATOM     22  C   UNL     1      -9.291  -1.332   9.410  1.00  0.00     0.000 C 
BRANCH  22  23
ATOM     23  C   UNL     1      -7.819  -0.905   9.259  1.00  0.00     0.000 C 
BRANCH  23  24
ATOM     24  C   UNL     1      -7.587   0.336   8.377  1.00  0.00    -0.000 C 
BRANCH  24  25
ATOM     25  C   UNL     1      -8.583   0.429   7.207  1.00  0.00    -0.000 C 
BRANCH  25  26
ATOM     26  C   UNL     1      -7.884   0.500   5.840  1.00  0.00    -0.000 C 
BRANCH  26  27
ATOM     27  C   UNL     1      -8.380  -0.584   4.866  1.00  0.00    -0.000 C 
BRANCH  27  28
ATOM     28  C   UNL     1      -8.832  -1.863   5.591  1.00  0.00    -0.000 C 
BRANCH  28  29
ATOM     29  C   UNL     1      -9.550  -2.849   4.655  1.00  0.00    -0.000 C 
BRANCH  29  30
ATOM     30  C   UNL     1      -8.584  -3.826   3.961  1.00  0.00    -0.000 C 
BRANCH  30  31
ATOM     31  C   UNL     1      -9.266  -4.917   3.115  1.00  0.00    -0.003 C 
ATOM     32  C   UNL     1      -8.299  -5.999   2.639  1.00  0.00     0.004 C 
ENDBRANCH  30  31
ENDBRANCH  29  30
ENDBRANCH  28  29
ENDBRANCH  27  28
ENDBRANCH  26  27
ENDBRANCH  25  26
ENDBRANCH  24  25
ENDBRANCH  23  24
ENDBRANCH  22  23
ENDBRANCH  21  22
ENDBRANCH  20  21
ENDBRANCH  19  20
ENDBRANCH  18  19
ENDBRANCH   1  18
TORSDOF 28
ENDMDL
MODEL 2
REMARK VINA RESULT:    -4.011      7.831     11.623
REMARK INTER + INTRA:         -16.523
REMARK INTER:                 -10.436
REMARK INTRA:                  -6.087
REMARK UNBOUND:                -5.946
REMARK SMILES CCCCCCCCCCCCCCCCCCCCCCCCCCCCCC(=O)[O-]
REMARK SMILES IDX 16 1 17 2 18 3 19 4 20 5 21 6 22 7 23 8 24 9 25 10 26 11
REMARK SMILES IDX 27 12 28 13 29 14 30 15 31 16 32 17 15 18 14 19 13 20 12 21
REMARK SMILES IDX 11 22 10 23 9 24 8 25 7 26 6 27 5 28 4 29 3 30 2 31 1 32
REMARK H PARENT
REMARK Flexibility Score: inf
ROOT
ATOM      1  C   UNL     1       4.151   5.581   9.137  1.00  0.00     0.000 C 
ENDROOT
BRANCH   1   2
ATOM      2  C   UNL     1       5.205   5.004   8.176  1.00  0.00     0.000 C 
BRANCH   2   3
ATOM      3  C   UNL     1       6.620   5.598   8.326  1.00  0.00     0.000 C 
BRANCH   3   4
ATOM      4  C   UNL     1       7.757   4.566   8.430  1.00  0.00     0.000 C 
BRANCH   4   5
ATOM      5  C   UNL     1       7.316   3.262   9.113  1.00  0.00     0.000 C 
BRANCH   5   6
ATOM      6  C   UNL     1       7.468   2.026   8.209  1.00  0.00     0.000 C 
BRANCH   6   7
ATOM      7  C   UNL     1       8.673   2.061   7.251  1.00  0.00     0.000 C 
BRANCH   7   8
ATOM      8  C   UNL     1       8.267   1.962   5.769  1.00  0.00     0.000 C 
BRANCH   8   9
ATOM      9  C   UNL     1       8.524   3.265   4.995  1.00  0.00     0.000 C 
BRANCH   9  10
ATOM     10  C   UNL     1       7.223   3.953   4.542  1.00  0.00     0.000 C 
BRANCH  10  11
ATOM     11  C   UNL     1       5.962   3.265   5.109  1.00  0.00     0.000 C 
BRANCH  11  12
ATOM     12  C   UNL     1       5.162   2.464   4.062  1.00  0.00     0.000 C 
BRANCH  12  13
ATOM     13  C   UNL     1       3.661   2.793   3.999  1.00  0.00     0.006 C 
BRANCH  13  14
ATOM     14  C   UNL     1       2.794   1.558   3.708  1.00  0.00     0.053 C 
BRANCH  14  15
ATOM     15  C   UNL     1       3.118   0.962   2.371  1.00  0.00     0.041 C 
ATOM     16  O   UNL     1       3.438  -0.253   2.274  1.00  0.00    -0.550 OA
ATOM     17  O   UNL     1       3.146   1.772   1.241  1.00  0.00    -0.550 OA
ENDBRANCH  14  15
ENDBRANCH  13  14
ENDBRANCH  12  13
ENDBRANCH  11  12
ENDBRANCH  10  11
ENDBRANCH   9  10
ENDBRANCH   8   9
ENDBRANCH   7   8
ENDBRANCH   6   7
ENDBRANCH   5   6
ENDBRANCH   4   5
ENDBRANCH   3   4
ENDBRANCH   2   3
ENDBRANCH   1   2
BRANCH   1  18
ATOM     18  C   UNL     1       2.713   5.372   8.639  1.00  0.00     0.000 C 
BRANCH  18  19
ATOM     19  C   UNL     1       2.689   4.514   7.368  1.00  0.00     0.000 C 
BRANCH  19  20
ATOM     20  C   UNL     1       1.506   3.532   7.395  1.00  0.00     0.000 C 
BRANCH  20  21
ATOM     21  C   UNL     1       1.947   2.066   7.259  1.00  0.00     0.000 C 
BRANCH  21  22
ATOM     22  C   UNL     1       3.444   1.869   7.555  1.00  0.00     0.000 C 
BRANCH  22  23
ATOM     23  C   UNL     1       3.702   1.131   8.882  1.00  0.00     0.000 C 
BRANCH  23  24
ATOM     24  C   UNL     1       3.951   2.043  10.097  1.00  0.00    -0.000 C 
BRANCH  24  25
ATOM     25  C   UNL     1       2.905   1.852  11.209  1.00  0.00    -0.000 C 
BRANCH  25  26
ATOM     26  C   UNL     1       1.692   2.782  11.046  1.00  0.00    -0.000 C 
BRANCH  26  27
ATOM     27  C   UNL     1       0.431   2.031  10.583  1.00  0.00    -0.000 C 
BRANCH  27  28
ATOM     28  C   UNL     1       0.439   0.553  11.005  1.00  0.00    -0.000 C 
BRANCH  28  29
ATOM     29  C   UNL     1       0.260  -0.403   9.813  1.00  0.00    -0.000 C 
BRANCH  29  30
ATOM     30  C   UNL     1      -0.610   0.196   8.692  1.00  0.00    -0.000 C 
BRANCH  30  31
ATOM     31  C   UNL     1      -2.089  -0.229   8.728  1.00  0.00    -0.003 C 
ATOM     32  C   UNL     1      -3.002   0.830   9.344  1.00  0.00     0.004 C 
ENDBRANCH  30  31
ENDBRANCH  29  30
ENDBRANCH  28  29
ENDBRANCH  27  28
ENDBRANCH  26  27
ENDBRANCH  25  26
ENDBRANCH  24  25
ENDBRANCH  23  24
ENDBRANCH  22  23
ENDBRANCH  21  22
ENDBRANCH  20  21
ENDBRANCH  19  20
ENDBRANCH  18  19
ENDBRANCH   1  18
TORSDOF 28
ENDMDL
MODEL 3
REMARK VINA RESULT:    -3.969      2.578      6.659
REMARK INTER + INTRA:         -16.412
REMARK INTER:                 -10.236
REMARK INTRA:                  -6.177
REMARK UNBOUND:                -5.946
REMARK SMILES CCCCCCCCCCCCCCCCCCCCCCCCCCCCCC(=O)[O-]
REMARK SMILES IDX 16 1 17 2 18 3 19 4 20 5 21 6 22 7 23 8 24 9 25 10 26 11
REMARK SMILES IDX 27 12 28 13 29 14 30 15 31 16 32 17 15 18 14 19 13 20 12 21
REMARK SMILES IDX 11 22 10 23 9 24 8 25 7 26 6 27 5 28 4 29 3 30 2 31 1 32
REMARK H PARENT
REMARK Flexibility Score: inf
ROOT
ATOM      1  C   UNL     1      -3.905  -1.855   5.692  1.00  0.00     0.000 C 
ENDROOT
BRANCH   1   2
ATOM      2  C   UNL     1      -3.055  -1.625   4.430  1.00  0.00     0.000 C 
BRANCH   2   3
ATOM      3  C   UNL     1      -3.083  -2.777   3.406  1.00  0.00     0.000 C 
BRANCH   3   4
ATOM      4  C   UNL     1      -3.637  -2.409   2.018  1.00  0.00     0.000 C 
BRANCH   4   5
ATOM      5  C   UNL     1      -5.141  -2.698   1.883  1.00  0.00     0.000 C 
BRANCH   5   6
ATOM      6  C   UNL     1      -5.953  -1.472   1.429  1.00  0.00     0.000 C 
BRANCH   6   7
ATOM      7  C   UNL     1      -6.133  -0.375   2.495  1.00  0.00     0.000 C 
BRANCH   7   8
ATOM      8  C   UNL     1      -7.607  -0.132   2.866  1.00  0.00     0.000 C 
BRANCH   8   9
ATOM      9  C   UNL     1      -8.569  -1.076   2.127  1.00  0.00     0.000 C 
BRANCH   9  10
ATOM     10  C   UNL     1      -9.664  -1.648   3.045  1.00  0.00     0.000 C 
BRANCH  10  11
ATOM     11  C   UNL     1      -9.323  -3.061   3.563  1.00  0.00     0.000 C 
BRANCH  11  12
ATOM     12  C   UNL     1      -8.543  -3.927   2.554  1.00  0.00     0.000 C 
BRANCH  12  13
ATOM     13  C   UNL     1      -8.174  -5.335   3.050  1.00  0.00     0.006 C 
BRANCH  13  14
ATOM     14  C   UNL     1      -8.289  -5.476   4.575  1.00  0.00     0.053 C 
BRANCH  14  15
ATOM     15  C   UNL     1      -8.315  -6.914   4.995  1.00  0.00     0.041 C 
ATOM     16  O   UNL     1      -8.989  -7.756   4.344  1.00  0.00    -0.550 OA
ATOM     17  O   UNL     1      -7.659  -7.309   6.156  1.00  0.00    -0.550 OA
ENDBRANCH  14  15
ENDBRANCH  13  14
ENDBRANCH  12  13
ENDBRANCH  11  12
ENDBRANCH  10  11
ENDBRANCH   9  10
ENDBRANCH   8   9
ENDBRANCH   7   8
ENDBRANCH   6   7
ENDBRANCH   5   6
ENDBRANCH   4   5
ENDBRANCH   3   4
ENDBRANCH   2   3
ENDBRANCH   1   2
BRANCH   1  18
ATOM     18  C   UNL     1      -4.876  -3.036   5.550  1.00  0.00     0.000 C 
BRANCH  18  19
ATOM     19  C   UNL     1      -6.326  -2.549   5.443  1.00  0.00     0.000 C 
BRANCH  19  20
ATOM     20  C   UNL     1      -6.550  -1.304   6.316  1.00  0.00     0.000 C 
BRANCH  20  21
ATOM     21  C   UNL     1      -8.028  -0.886   6.389  1.00  0.00     0.000 C 
BRANCH  21  22
ATOM     22  C   UNL     1      -8.918  -1.972   7.018  1.00  0.00     0.000 C 
BRANCH  22  23
ATOM     23  C   UNL     1      -8.789  -2.042   8.551  1.00  0.00     0.000 C 
BRANCH  23  24
ATOM     24  C   UNL     1      -8.551  -3.452   9.122  1.00  0.00    -0.000 C 
BRANCH  24  25
ATOM     25  C   UNL     1      -7.951  -4.420   8.088  1.00  0.00    -0.000 C 
BRANCH  25  26
ATOM     26  C   UNL     1      -6.533  -4.881   8.462  1.00  0.00    -0.000 C 
BRANCH  26  27
ATOM     27  C   UNL     1      -5.743  -3.801   9.223  1.00  0.00    -0.000 C 
BRANCH  27  28
ATOM     28  C   UNL     1      -4.223  -3.983   9.090  1.00  0.00    -0.000 C 
BRANCH  28  29
ATOM     29  C   UNL     1      -3.435  -2.764   9.601  1.00  0.00    -0.000 C 
BRANCH  29  30
ATOM     30  C   UNL     1      -1.991  -3.113  10.007  1.00  0.00    -0.000 C 
BRANCH  30  31
ATOM     31  C   UNL     1      -1.082  -3.550   8.843  1.00  0.00    -0.003 C 
ATOM     32  C   UNL     1      -1.010  -2.517   7.719  1.00  0.00     0.004 C 
ENDBRANCH  30  31
ENDBRANCH  29  30
ENDBRANCH  28  29
ENDBRANCH  27  28
ENDBRANCH  26  27
ENDBRANCH  25  26
ENDBRANCH  24  25
ENDBRANCH  23  24
ENDBRANCH  22  23
ENDBRANCH  21  22
ENDBRANCH  20  21
ENDBRANCH  19  20
ENDBRANCH  18  19
ENDBRANCH   1  18
TORSDOF 28
ENDMDL
MODEL 4
REMARK VINA RESULT:    -3.936      2.410      7.002
REMARK INTER + INTRA:         -16.323
REMARK INTER:                  -9.946
REMARK INTRA:                  -6.377
REMARK UNBOUND:                -5.946
REMARK SMILES CCCCCCCCCCCCCCCCCCCCCCCCCCCCCC(=O)[O-]
REMARK SMILES IDX 16 1 17 2 18 3 19 4 20 5 21 6 22 7 23 8 24 9 25 10 26 11
REMARK SMILES IDX 27 12 28 13 29 14 30 15 31 16 32 17 15 18 14 19 13 20 12 21
REMARK SMILES IDX 11 22 10 23 9 24 8 25 7 26 6 27 5 28 4 29 3 30 2 31 1 32
REMARK H PARENT
REMARK Flexibility Score: inf
ROOT
ATOM      1  C   UNL     1      -5.465  -2.162   9.242  1.00  0.00     0.000 C 
ENDROOT
BRANCH   1   2
ATOM      2  C   UNL     1      -6.350  -3.399   9.011  1.00  0.00     0.000 C 
BRANCH   2   3
ATOM      3  C   UNL     1      -5.585  -4.726   8.834  1.00  0.00     0.000 C 
BRANCH   3   4
ATOM      4  C   UNL     1      -4.177  -4.760   9.454  1.00  0.00     0.000 C 
BRANCH   4   5
ATOM      5  C   UNL     1      -3.065  -4.862   8.397  1.00  0.00     0.000 C 
BRANCH   5   6
ATOM      6  C   UNL     1      -1.685  -4.439   8.931  1.00  0.00     0.000 C 
BRANCH   6   7
ATOM      7  C   UNL     1      -0.989  -3.321   8.133  1.00  0.00     0.000 C 
BRANCH   7   8
ATOM      8  C   UNL     1      -1.850  -2.051   7.998  1.00  0.00     0.000 C 
BRANCH   8   9
ATOM      9  C   UNL     1      -2.142  -1.685   6.535  1.00  0.00     0.000 C 
BRANCH   9  10
ATOM     10  C   UNL     1      -3.647  -1.694   6.209  1.00  0.00     0.000 C 
BRANCH  10  11
ATOM     11  C   UNL     1      -4.068  -2.940   5.400  1.00  0.00     0.000 C 
BRANCH  11  12
ATOM     12  C   UNL     1      -5.592  -3.170   5.353  1.00  0.00     0.000 C 
BRANCH  12  13
ATOM     13  C   UNL     1      -6.448  -1.904   5.527  1.00  0.00     0.006 C 
BRANCH  13  14
ATOM     14  C   UNL     1      -7.905  -2.219   5.898  1.00  0.00     0.053 C 
BRANCH  14  15
ATOM     15  C   UNL     1      -8.492  -3.256   4.989  1.00  0.00     0.041 C 
ATOM     16  O   UNL     1      -8.629  -4.445   5.382  1.00  0.00    -0.550 OA
ATOM     17  O   UNL     1      -8.811  -2.926   3.676  1.00  0.00    -0.550 OA
ENDBRANCH  14  15
ENDBRANCH  13  14
ENDBRANCH  12  13
ENDBRANCH  11  12
ENDBRANCH  10  11
ENDBRANCH   9  10
ENDBRANCH   8   9
ENDBRANCH   7   8
ENDBRANCH   6   7
ENDBRANCH   5   6
ENDBRANCH   4   5
ENDBRANCH   3   4
ENDBRANCH   2   3
ENDBRANCH   1   2
BRANCH   1  18
ATOM     18  C   UNL     1      -6.223  -0.842   9.043  1.00  0.00     0.000 C 
BRANCH  18  19
ATOM     19  C   UNL     1      -5.380   0.354   9.502  1.00  0.00     0.000 C 
BRANCH  19  20
ATOM     20  C   UNL     1      -4.033  -0.116  10.076  1.00  0.00     0.000 C 
BRANCH  20  21
ATOM     21  C   UNL     1      -3.777   0.408  11.498  1.00  0.00     0.000 C 
BRANCH  21  22
ATOM     22  C   UNL     1      -2.993  -0.595  12.363  1.00  0.00     0.000 C 
BRANCH  22  23
ATOM     23  C   UNL     1      -2.660  -1.901  11.617  1.00  0.00     0.000 C 
BRANCH  23  24
ATOM     24  C   UNL     1      -2.455  -3.132  12.518  1.00  0.00    -0.000 C 
BRANCH  24  25
ATOM     25  C   UNL     1      -0.979  -3.361  12.888  1.00  0.00    -0.000 C 
BRANCH  25  26
ATOM     26  C   UNL     1      -0.018  -2.984  11.750  1.00  0.00    -0.000 C 
BRANCH  26  27
ATOM     27  C   UNL     1       1.266  -2.308  12.261  1.00  0.00    -0.000 C 
BRANCH  27  28
ATOM     28  C   UNL     1       1.576  -0.997  11.520  1.00  0.00    -0.000 C 
BRANCH  28  29
ATOM     29  C   UNL     1       0.651  -0.768  10.313  1.00  0.00    -0.000 C 
BRANCH  29  30
ATOM     30  C   UNL     1      -0.131   0.555  10.402  1.00  0.00    -0.000 C 
BRANCH  30  31
ATOM     31  C   UNL     1      -0.453   1.207   9.044  1.00  0.00    -0.003 C 
ATOM     32  C   UNL     1      -0.409   2.733   9.087  1.00  0.00     0.004 C 
ENDBRANCH  30  31
ENDBRANCH  29  30
ENDBRANCH  28  29
ENDBRANCH  27  28
ENDBRANCH  26  27
ENDBRANCH  25  26
ENDBRANCH  24  25
ENDBRANCH  23  24
ENDBRANCH  22  23
ENDBRANCH  21  22
ENDBRANCH  20  21
ENDBRANCH  19  20
ENDBRANCH  18  19
ENDBRANCH   1  18
TORSDOF 28
ENDMDL
MODEL 5
REMARK VINA RESULT:    -3.912      2.885      6.869
REMARK INTER + INTRA:         -16.262
REMARK INTER:                 -11.417
REMARK INTRA:                  -4.845
REMARK UNBOUND:                -5.946
REMARK SMILES CCCCCCCCCCCCCCCCCCCCCCCCCCCCCC(=O)[O-]
REMARK SMILES IDX 16 1 17 2 18 3 19 4 20 5 21 6 22 7 23 8 24 9 25 10 26 11
REMARK SMILES IDX 27 12 28 13 29 14 30 15 31 16 32 17 15 18 14 19 13 20 12 21
REMARK SMILES IDX 11 22 10 23 9 24 8 25 7 26 6 27 5 28 4 29 3 30 2 31 1 32
REMARK H PARENT
REMARK Flexibility Score: inf
ROOT
ATOM      1  C   UNL     1      -9.748  -2.407   8.962  1.00  0.00     0.000 C 
ENDROOT
BRANCH   1   2
ATOM      2  C   UNL     1      -8.636  -3.212   8.268  1.00  0.00     0.000 C 
BRANCH   2   3
ATOM      3  C   UNL     1      -7.649  -3.917   9.220  1.00  0.00     0.000 C 
BRANCH   3   4
ATOM      4  C   UNL     1      -6.161  -3.624   8.958  1.00  0.00     0.000 C 
BRANCH   4   5
ATOM      5  C   UNL     1      -5.319  -4.903   8.824  1.00  0.00     0.000 C 
BRANCH   5   6
ATOM      6  C   UNL     1      -3.921  -4.774   9.455  1.00  0.00     0.000 C 
BRANCH   6   7
ATOM      7  C   UNL     1      -2.744  -4.938   8.476  1.00  0.00     0.000 C 
BRANCH   7   8
ATOM      8  C   UNL     1      -1.935  -3.642   8.283  1.00  0.00     0.000 C 
BRANCH   8   9
ATOM      9  C   UNL     1      -2.764  -2.516   7.644  1.00  0.00     0.000 C 
BRANCH   9  10
ATOM     10  C   UNL     1      -2.904  -2.673   6.119  1.00  0.00     0.000 C 
BRANCH  10  11
ATOM     11  C   UNL     1      -4.333  -3.075   5.695  1.00  0.00     0.000 C 
BRANCH  11  12
ATOM     12  C   UNL     1      -5.340  -1.907   5.701  1.00  0.00     0.000 C 
BRANCH  12  13
ATOM     13  C   UNL     1      -6.792  -2.298   5.377  1.00  0.00     0.006 C 
BRANCH  13  14
ATOM     14  C   UNL     1      -6.886  -3.519   4.450  1.00  0.00     0.053 C 
BRANCH  14  15
ATOM     15  C   UNL     1      -7.893  -4.511   4.947  1.00  0.00     0.041 C 
ATOM     16  O   UNL     1      -9.084  -4.470   4.539  1.00  0.00    -0.550 OA
ATOM     17  O   UNL     1      -7.533  -5.430   5.927  1.00  0.00    -0.550 OA
ENDBRANCH  14  15
ENDBRANCH  13  14
ENDBRANCH  12  13
ENDBRANCH  11  12
ENDBRANCH  10  11
ENDBRANCH   9  10
ENDBRANCH   8   9
ENDBRANCH   7   8
ENDBRANCH   6   7
ENDBRANCH   5   6
ENDBRANCH   4   5
ENDBRANCH   3   4
ENDBRANCH   2   3
ENDBRANCH   1   2
BRANCH   1  18
ATOM     18  C   UNL     1      -9.748  -2.584  10.488  1.00  0.00     0.000 C 
BRANCH  18  19
ATOM     19  C   UNL     1      -9.435  -1.260  11.197  1.00  0.00     0.000 C 
BRANCH  19  20
ATOM     20  C   UNL     1      -8.838  -0.241  10.213  1.00  0.00     0.000 C 
BRANCH  20  21
ATOM     21  C   UNL     1      -7.344   0.021  10.461  1.00  0.00     0.000 C 
BRANCH  21  22
ATOM     22  C   UNL     1      -6.541   0.140   9.153  1.00  0.00     0.000 C 
BRANCH  22  23
ATOM     23  C   UNL     1      -5.035  -0.118   9.346  1.00  0.00     0.000 C 
BRANCH  23  24
ATOM     24  C   UNL     1      -4.358   0.752  10.421  1.00  0.00    -0.000 C 
BRANCH  24  25
ATOM     25  C   UNL     1      -3.363  -0.040  11.289  1.00  0.00    -0.000 C 
BRANCH  25  26
ATOM     26  C   UNL     1      -3.476  -1.558  11.082  1.00  0.00    -0.000 C 
BRANCH  26  27
ATOM     27  C   UNL     1      -2.408  -2.342  11.865  1.00  0.00    -0.000 C 
BRANCH  27  28
ATOM     28  C   UNL     1      -2.768  -2.500  13.352  1.00  0.00    -0.000 C 
BRANCH  28  29
ATOM     29  C   UNL     1      -1.529  -2.702  14.241  1.00  0.00    -0.000 C 
BRANCH  29  30
ATOM     30  C   UNL     1      -1.002  -4.148  14.210  1.00  0.00    -0.000 C 
BRANCH  30  31
ATOM     31  C   UNL     1      -0.023  -4.502  15.345  1.00  0.00    -0.003 C 
ATOM     32  C   UNL     1      -0.036  -3.487  16.486  1.00  0.00     0.004 C 
ENDBRANCH  30  31
ENDBRANCH  29  30
ENDBRANCH  28  29
ENDBRANCH  27  28
ENDBRANCH  26  27
ENDBRANCH  25  26
ENDBRANCH  24  25
ENDBRANCH  23  24
ENDBRANCH  22  23
ENDBRANCH  21  22
ENDBRANCH  20  21
ENDBRANCH  19  20
ENDBRANCH  18  19
ENDBRANCH   1  18
TORSDOF 28
ENDMDL
MODEL 6
REMARK VINA RESULT:    -3.893     10.180     13.939
REMARK INTER + INTRA:         -16.211
REMARK INTER:                 -11.103
REMARK INTRA:                  -5.108
REMARK UNBOUND:                -5.946
REMARK SMILES CCCCCCCCCCCCCCCCCCCCCCCCCCCCCC(=O)[O-]
REMARK SMILES IDX 16 1 17 2 18 3 19 4 20 5 21 6 22 7 23 8 24 9 25 10 26 11
REMARK SMILES IDX 27 12 28 13 29 14 30 15 31 16 32 17 15 18 14 19 13 20 12 21
REMARK SMILES IDX 11 22 10 23 9 24 8 25 7 26 6 27 5 28 4 29 3 30 2 31 1 32
REMARK H PARENT
REMARK Flexibility Score: inf
ROOT
ATOM      1  C   UNL     1       7.325   4.128   8.804  1.00  0.00     0.000 C 
ENDROOT
BRANCH   1   2
ATOM      2  C   UNL     1       6.674   5.462   8.396  1.00  0.00     0.000 C 
BRANCH   2   3
ATOM      3  C   UNL     1       5.194   5.365   7.976  1.00  0.00     0.000 C 
BRANCH   3   4
ATOM      4  C   UNL     1       4.202   5.094   9.121  1.00  0.00     0.000 C 
BRANCH   4   5
ATOM      5  C   UNL     1       2.744   5.374   8.723  1.00  0.00     0.000 C 
BRANCH   5   6
ATOM      6  C   UNL     1       2.026   4.136   8.156  1.00  0.00     0.000 C 
BRANCH   6   7
ATOM      7  C   UNL     1       2.938   2.936   7.843  1.00  0.00     0.000 C 
BRANCH   7   8
ATOM      8  C   UNL     1       2.311   1.945   6.846  1.00  0.00     0.000 C 
BRANCH   8   9
ATOM      9  C   UNL     1       2.444   2.407   5.386  1.00  0.00     0.000 C 
BRANCH   9  10
ATOM     10  C   UNL     1       3.608   3.393   5.179  1.00  0.00     0.000 C 
BRANCH  10  11
ATOM     11  C   UNL     1       4.886   2.699   4.662  1.00  0.00     0.000 C 
BRANCH  11  12
ATOM     12  C   UNL     1       5.939   2.430   5.755  1.00  0.00     0.000 C 
BRANCH  12  13
ATOM     13  C   UNL     1       7.392   2.726   5.348  1.00  0.00     0.006 C 
BRANCH  13  14
ATOM     14  C   UNL     1       7.611   4.195   4.955  1.00  0.00     0.053 C 
BRANCH  14  15
ATOM     15  C   UNL     1       8.417   4.313   3.697  1.00  0.00     0.041 C 
ATOM     16  O   UNL     1       9.640   4.612   3.749  1.00  0.00    -0.550 OA
ATOM     17  O   UNL     1       7.795   4.174   2.461  1.00  0.00    -0.550 OA
ENDBRANCH  14  15
ENDBRANCH  13  14
ENDBRANCH  12  13
ENDBRANCH  11  12
ENDBRANCH  10  11
ENDBRANCH   9  10
ENDBRANCH   8   9
ENDBRANCH   7   8
ENDBRANCH   6   7
ENDBRANCH   5   6
ENDBRANCH   4   5
ENDBRANCH   3   4
ENDBRANCH   2   3
ENDBRANCH   1   2
BRANCH   1  18
ATOM     18  C   UNL     1       8.835   4.095   8.531  1.00  0.00     0.000 C 
BRANCH  18  19
ATOM     19  C   UNL     1       9.541   3.094   9.454  1.00  0.00     0.000 C 
BRANCH  19  20
ATOM     20  C   UNL     1       8.528   2.127  10.088  1.00  0.00     0.000 C 
BRANCH  20  21
ATOM     21  C   UNL     1       8.611   0.709   9.502  1.00  0.00     0.000 C 
BRANCH  21  22
ATOM     22  C   UNL     1       7.450   0.399   8.541  1.00  0.00     0.000 C 
BRANCH  22  23
ATOM     23  C   UNL     1       6.074   0.785   9.117  1.00  0.00     0.000 C 
BRANCH  23  24
ATOM     24  C   UNL     1       5.517  -0.183  10.177  1.00  0.00    -0.000 C 
BRANCH  24  25
ATOM     25  C   UNL     1       4.452   0.468  11.077  1.00  0.00    -0.000 C 
BRANCH  25  26
ATOM     26  C   UNL     1       3.031   0.324  10.512  1.00  0.00    -0.000 C 
BRANCH  26  27
ATOM     27  C   UNL     1       2.059   1.371  11.083  1.00  0.00    -0.000 C 
BRANCH  27  28
ATOM     28  C   UNL     1       2.767   2.679  11.473  1.00  0.00    -0.000 C 
BRANCH  28  29
ATOM     29  C   UNL     1       1.899   3.576  12.372  1.00  0.00    -0.000 C 
BRANCH  29  30
ATOM     30  C   UNL     1       2.552   3.863  13.737  1.00  0.00    -0.000 C 
BRANCH  30  31
ATOM     31  C   UNL     1       2.536   2.680  14.722  1.00  0.00    -0.003 C 
ATOM     32  C   UNL     1       3.931   2.141  15.034  1.00  0.00     0.004 C 
ENDBRANCH  30  31
ENDBRANCH  29  30
ENDBRANCH  28  29
ENDBRANCH  27  28
ENDBRANCH  26  27
ENDBRANCH  25  26
ENDBRANCH  24  25
ENDBRANCH  23  24
ENDBRANCH  22  23
ENDBRANCH  21  22
ENDBRANCH  20  21
ENDBRANCH  19  20
ENDBRANCH  18  19
ENDBRANCH   1  18
TORSDOF 28
ENDMDL
MODEL 7
REMARK VINA RESULT:    -3.862      3.267      5.621
REMARK INTER + INTRA:         -16.128
REMARK INTER:                 -10.357
REMARK INTRA:                  -5.771
REMARK UNBOUND:                -5.946
REMARK SMILES CCCCCCCCCCCCCCCCCCCCCCCCCCCCCC(=O)[O-]
REMARK SMILES IDX 16 1 17 2 18 3 19 4 20 5 21 6 22 7 23 8 24 9 25 10 26 11
REMARK SMILES IDX 27 12 28 13 29 14 30 15 31 16 32 17 15 18 14 19 13 20 12 21
REMARK SMILES IDX 11 22 10 23 9 24 8 25 7 26 6 27 5 28 4 29 3 30 2 31 1 32
REMARK H PARENT
REMARK Flexibility Score: inf
ROOT
ATOM      1  C   UNL     1      -2.758  -5.061   8.779  1.00  0.00     0.000 C 
ENDROOT
BRANCH   1   2
ATOM      2  C   UNL     1      -1.484  -4.293   8.385  1.00  0.00     0.000 C 
BRANCH   2   3
ATOM      3  C   UNL     1      -1.700  -2.810   8.027  1.00  0.00     0.000 C 
BRANCH   3   4
ATOM      4  C   UNL     1      -1.545  -1.822   9.198  1.00  0.00     0.000 C 
BRANCH   4   5
ATOM      5  C   UNL     1      -2.890  -1.252   9.677  1.00  0.00     0.000 C 
BRANCH   5   6
ATOM      6  C   UNL     1      -3.176  -1.548  11.160  1.00  0.00     0.000 C 
BRANCH   6   7
ATOM      7  C   UNL     1      -2.664  -2.909  11.666  1.00  0.00     0.000 C 
BRANCH   7   8
ATOM      8  C   UNL     1      -2.433  -2.938  13.188  1.00  0.00     0.000 C 
BRANCH   8   9
ATOM      9  C   UNL     1      -1.013  -3.394  13.563  1.00  0.00     0.000 C 
BRANCH   9  10
ATOM     10  C   UNL     1       0.033  -3.015  12.500  1.00  0.00     0.000 C 
BRANCH  10  11
ATOM     11  C   UNL     1       0.754  -1.690  12.826  1.00  0.00     0.000 C 
BRANCH  11  12
ATOM     12  C   UNL     1       0.619  -0.617  11.727  1.00  0.00     0.000 C 
BRANCH  12  13
ATOM     13  C   UNL     1      -0.016   0.708  12.185  1.00  0.00     0.006 C 
BRANCH  13  14
ATOM     14  C   UNL     1      -0.826   1.393  11.074  1.00  0.00     0.053 C 
BRANCH  14  15
ATOM     15  C   UNL     1      -0.571   2.869  11.038  1.00  0.00     0.041 C 
ATOM     16  O   UNL     1      -0.062   3.405  10.017  1.00  0.00    -0.550 OA
ATOM     17  O   UNL     1      -0.819   3.642  12.167  1.00  0.00    -0.550 OA
ENDBRANCH  14  15
ENDBRANCH  13  14
ENDBRANCH  12  13
ENDBRANCH  11  12
ENDBRANCH  10  11
ENDBRANCH   9  10
ENDBRANCH   8   9
ENDBRANCH   7   8
ENDBRANCH   6   7
ENDBRANCH   5   6
ENDBRANCH   4   5
ENDBRANCH   3   4
ENDBRANCH   2   3
ENDBRANCH   1   2
BRANCH   1  18
ATOM     18  C   UNL     1      -4.021  -4.501   8.110  1.00  0.00     0.000 C 
BRANCH  18  19
ATOM     19  C   UNL     1      -5.114  -4.214   9.148  1.00  0.00     0.000 C 
BRANCH  19  20
ATOM     20  C   UNL     1      -6.402  -4.981   8.811  1.00  0.00     0.000 C 
BRANCH  20  21
ATOM     21  C   UNL     1      -7.035  -4.529   7.485  1.00  0.00     0.000 C 
BRANCH  21  22
ATOM     22  C   UNL     1      -8.318  -3.705   7.695  1.00  0.00     0.000 C 
BRANCH  22  23
ATOM     23  C   UNL     1      -8.776  -3.670   9.166  1.00  0.00     0.000 C 
BRANCH  23  24
ATOM     24  C   UNL     1      -9.287  -2.303   9.657  1.00  0.00    -0.000 C 
BRANCH  24  25
ATOM     25  C   UNL     1      -8.199  -1.215   9.627  1.00  0.00    -0.000 C 
BRANCH  25  26
ATOM     26  C   UNL     1      -8.463  -0.143   8.558  1.00  0.00    -0.000 C 
BRANCH  26  27
ATOM     27  C   UNL     1      -7.312  -0.027   7.543  1.00  0.00    -0.000 C 
BRANCH  27  28
ATOM     28  C   UNL     1      -6.039  -0.751   8.011  1.00  0.00    -0.000 C 
BRANCH  28  29
ATOM     29  C   UNL     1      -5.189  -1.269   6.839  1.00  0.00    -0.000 C 
BRANCH  29  30
ATOM     30  C   UNL     1      -6.030  -1.608   5.594  1.00  0.00    -0.000 C 
BRANCH  30  31
ATOM     31  C   UNL     1      -5.397  -2.649   4.653  1.00  0.00    -0.003 C 
ATOM     32  C   UNL     1      -3.930  -2.931   4.970  1.00  0.00     0.004 C 
ENDBRANCH  30  31
ENDBRANCH  29  30
ENDBRANCH  28  29
ENDBRANCH  27  28
ENDBRANCH  26  27
ENDBRANCH  25  26
ENDBRANCH  24  25
ENDBRANCH  23  24
ENDBRANCH  22  23
ENDBRANCH  21  22
ENDBRANCH  20  21
ENDBRANCH  19  20
ENDBRANCH  18  19
ENDBRANCH   1  18
TORSDOF 28
ENDMDL
MODEL 8
REMARK VINA RESULT:    -3.857      8.792     12.595
REMARK INTER + INTRA:         -16.116
REMARK INTER:                 -10.550
REMARK INTRA:                  -5.566
REMARK UNBOUND:                -5.946
REMARK SMILES CCCCCCCCCCCCCCCCCCCCCCCCCCCCCC(=O)[O-]
REMARK SMILES IDX 16 1 17 2 18 3 19 4 20 5 21 6 22 7 23 8 24 9 25 10 26 11
REMARK SMILES IDX 27 12 28 13 29 14 30 15 31 16 32 17 15 18 14 19 13 20 12 21
REMARK SMILES IDX 11 22 10 23 9 24 8 25 7 26 6 27 5 28 4 29 3 30 2 31 1 32
REMARK H PARENT
REMARK Flexibility Score: inf
ROOT
ATOM      1  C   UNL     1       8.489   4.286   7.777  1.00  0.00     0.000 C 
ENDROOT
BRANCH   1   2
ATOM      2  C   UNL     1       9.627   3.480   8.429  1.00  0.00     0.000 C 
BRANCH   2   3
ATOM      3  C   UNL     1       9.713   3.595   9.964  1.00  0.00     0.000 C 
BRANCH   3   4
ATOM      4  C   UNL     1       9.375   2.310  10.739  1.00  0.00     0.000 C 
BRANCH   4   5
ATOM      5  C   UNL     1       9.054   1.125   9.814  1.00  0.00     0.000 C 
BRANCH   5   6
ATOM      6  C   UNL     1       7.544   0.854   9.683  1.00  0.00     0.000 C 
BRANCH   6   7
ATOM      7  C   UNL     1       7.034   0.680   8.241  1.00  0.00     0.000 C 
BRANCH   7   8
ATOM      8  C   UNL     1       8.100   0.109   7.289  1.00  0.00     0.000 C 
BRANCH   8   9
ATOM      9  C   UNL     1       8.336   1.001   6.060  1.00  0.00     0.000 C 
BRANCH   9  10
ATOM     10  C   UNL     1       7.186   0.924   5.039  1.00  0.00     0.000 C 
BRANCH  10  11
ATOM     11  C   UNL     1       6.974   2.255   4.287  1.00  0.00     0.000 C 
BRANCH  11  12
ATOM     12  C   UNL     1       6.127   3.284   5.062  1.00  0.00     0.000 C 
BRANCH  12  13
ATOM     13  C   UNL     1       4.936   2.696   5.838  1.00  0.00     0.006 C 
BRANCH  13  14
ATOM     14  C   UNL     1       3.582   3.215   5.331  1.00  0.00     0.053 C 
BRANCH  14  15
ATOM     15  C   UNL     1       2.728   2.101   4.805  1.00  0.00     0.041 C 
ATOM     16  O   UNL     1       3.028   1.522   3.727  1.00  0.00    -0.550 OA
ATOM     17  O   UNL     1       1.553   1.759   5.465  1.00  0.00    -0.550 OA
ENDBRANCH  14  15
ENDBRANCH  13  14
ENDBRANCH  12  13
ENDBRANCH  11  12
ENDBRANCH  10  11
ENDBRANCH   9  10
ENDBRANCH   8   9
ENDBRANCH   7   8
ENDBRANCH   6   7
ENDBRANCH   5   6
ENDBRANCH   4   5
ENDBRANCH   3   4
ENDBRANCH   2   3
ENDBRANCH   1   2
BRANCH   1  18
ATOM     18  C   UNL     1       7.213   4.309   8.630  1.00  0.00     0.000 C 
BRANCH  18  19
ATOM     19  C   UNL     1       6.371   5.556   8.330  1.00  0.00     0.000 C 
BRANCH  19  20
ATOM     20  C   UNL     1       4.878   5.276   8.561  1.00  0.00     0.000 C 
BRANCH  20  21
ATOM     21  C   UNL     1       4.618   3.882   9.157  1.00  0.00     0.000 C 
BRANCH  21  22
ATOM     22  C   UNL     1       3.215   3.758   9.776  1.00  0.00     0.000 C 
BRANCH  22  23
ATOM     23  C   UNL     1       2.155   3.271   8.769  1.00  0.00     0.000 C 
BRANCH  23  24
ATOM     24  C   UNL     1       0.706   3.668   9.106  1.00  0.00    -0.000 C 
BRANCH  24  25
ATOM     25  C   UNL     1       0.444   3.737  10.620  1.00  0.00    -0.000 C 
BRANCH  25  26
ATOM     26  C   UNL     1      -0.817   2.964  11.038  1.00  0.00    -0.000 C 
BRANCH  26  27
ATOM     27  C   UNL     1      -0.508   1.812  12.011  1.00  0.00    -0.000 C 
BRANCH  27  28
ATOM     28  C   UNL     1       0.986   1.451  12.039  1.00  0.00    -0.000 C 
BRANCH  28  29
ATOM     29  C   UNL     1       1.262   0.035  11.505  1.00  0.00    -0.000 C 
BRANCH  29  30
ATOM     30  C   UNL     1       1.493   0.005   9.983  1.00  0.00    -0.000 C 
BRANCH  30  31
ATOM     31  C   UNL     1       2.923  -0.372   9.556  1.00  0.00    -0.003 C 
ATOM     32  C   UNL     1       3.996   0.191  10.487  1.00  0.00     0.004 C 
ENDBRANCH  30  31
ENDBRANCH  29  30
ENDBRANCH  28  29
ENDBRANCH  27  28
ENDBRANCH  26  27
ENDBRANCH  25  26
ENDBRANCH  24  25
ENDBRANCH  23  24
ENDBRANCH  22  23
ENDBRANCH  21  22
ENDBRANCH  20  21
ENDBRANCH  19  20
ENDBRANCH  18  19
ENDBRANCH   1  18
TORSDOF 28
ENDMDL
MODEL 9
REMARK VINA RESULT:    -3.835     11.584     15.708
REMARK INTER + INTRA:         -16.058
REMARK INTER:                 -11.025
REMARK INTRA:                  -5.032
REMARK UNBOUND:                -5.946
REMARK SMILES CCCCCCCCCCCCCCCCCCCCCCCCCCCCCC(=O)[O-]
REMARK SMILES IDX 16 1 17 2 18 3 19 4 20 5 21 6 22 7 23 8 24 9 25 10 26 11
REMARK SMILES IDX 27 12 28 13 29 14 30 15 31 16 32 17 15 18 14 19 13 20 12 21
REMARK SMILES IDX 11 22 10 23 9 24 8 25 7 26 6 27 5 28 4 29 3 30 2 31 1 32
REMARK H PARENT
REMARK Flexibility Score: inf
ROOT
ATOM      1  C   UNL     1       8.228   5.172   4.434  1.00  0.00     0.000 C 
ENDROOT
BRANCH   1   2
ATOM      2  C   UNL     1       8.501   3.670   4.632  1.00  0.00     0.000 C 
BRANCH   2   3
ATOM      3  C   UNL     1       9.877   3.186   4.133  1.00  0.00     0.000 C 
BRANCH   3   4
ATOM      4  C   UNL     1       9.989   1.672   3.882  1.00  0.00     0.000 C 
BRANCH   4   5
ATOM      5  C   UNL     1       8.785   0.888   4.429  1.00  0.00     0.000 C 
BRANCH   5   6
ATOM      6  C   UNL     1       9.192  -0.270   5.359  1.00  0.00     0.000 C 
BRANCH   6   7
ATOM      7  C   UNL     1       8.554  -0.239   6.760  1.00  0.00     0.000 C 
BRANCH   7   8
ATOM      8  C   UNL     1       7.707   1.022   7.009  1.00  0.00     0.000 C 
BRANCH   8   9
ATOM      9  C   UNL     1       8.396   2.023   7.951  1.00  0.00     0.000 C 
BRANCH   9  10
ATOM     10  C   UNL     1       7.422   3.067   8.525  1.00  0.00     0.000 C 
BRANCH  10  11
ATOM     11  C   UNL     1       7.894   4.516   8.276  1.00  0.00     0.000 C 
BRANCH  11  12
ATOM     12  C   UNL     1       6.748   5.508   7.993  1.00  0.00     0.000 C 
BRANCH  12  13
ATOM     13  C   UNL     1       5.337   4.897   8.015  1.00  0.00     0.006 C 
BRANCH  13  14
ATOM     14  C   UNL     1       4.462   5.463   9.144  1.00  0.00     0.053 C 
BRANCH  14  15
ATOM     15  C   UNL     1       3.324   4.545   9.471  1.00  0.00     0.041 C 
ATOM     16  O   UNL     1       3.545   3.393   9.931  1.00  0.00    -0.550 OA
ATOM     17  O   UNL     1       2.018   4.933   9.187  1.00  0.00    -0.550 OA
ENDBRANCH  14  15
ENDBRANCH  13  14
ENDBRANCH  12  13
ENDBRANCH  11  12
ENDBRANCH  10  11
ENDBRANCH   9  10
ENDBRANCH   8   9
ENDBRANCH   7   8
ENDBRANCH   6   7
ENDBRANCH   5   6
ENDBRANCH   4   5
ENDBRANCH   3   4
ENDBRANCH   2   3
ENDBRANCH   1   2
BRANCH   1  18
ATOM     18  C   UNL     1       8.605   5.665   3.029  1.00  0.00     0.000 C 
BRANCH  18  19
ATOM     19  C   UNL     1       8.643   7.198   2.975  1.00  0.00     0.000 C 
BRANCH  19  20
ATOM     20  C   UNL     1       8.914   7.686   1.543  1.00  0.00     0.000 C 
BRANCH  20  21
ATOM     21  C   UNL     1       9.400   6.563   0.612  1.00  0.00     0.000 C 
BRANCH  21  22
ATOM     22  C   UNL     1       8.586   6.485  -0.692  1.00  0.00     0.000 C 
BRANCH  22  23
ATOM     23  C   UNL     1       8.213   5.042  -1.082  1.00  0.00     0.000 C 
BRANCH  23  24
ATOM     24  C   UNL     1       7.347   4.292  -0.053  1.00  0.00    -0.000 C 
BRANCH  24  25
ATOM     25  C   UNL     1       8.100   3.136   0.629  1.00  0.00    -0.000 C 
BRANCH  25  26
ATOM     26  C   UNL     1       7.165   2.206   1.418  1.00  0.00    -0.000 C 
BRANCH  26  27
ATOM     27  C   UNL     1       5.698   2.666   1.371  1.00  0.00    -0.000 C 
BRANCH  27  28
ATOM     28  C   UNL     1       4.793   1.841   2.302  1.00  0.00    -0.000 C 
BRANCH  28  29
ATOM     29  C   UNL     1       5.410   1.638   3.697  1.00  0.00    -0.000 C 
BRANCH  29  30
ATOM     30  C   UNL     1       5.011   2.742   4.693  1.00  0.00    -0.000 C 
BRANCH  30  31
ATOM     31  C   UNL     1       3.515   3.108   4.685  1.00  0.00    -0.003 C 
ATOM     32  C   UNL     1       2.879   3.063   6.073  1.00  0.00     0.004 C 
ENDBRANCH  30  31
ENDBRANCH  29  30
ENDBRANCH  28  29
ENDBRANCH  27  28
ENDBRANCH  26  27
ENDBRANCH  25  26
ENDBRANCH  24  25
ENDBRANCH  23  24
ENDBRANCH  22  23
ENDBRANCH  21  22
ENDBRANCH  20  21
ENDBRANCH  19  20
ENDBRANCH  18  19
ENDBRANCH   1  18
TORSDOF 28
ENDMDL
