MODEL 1
REMARK VINA RESULT:    -5.459      0.000      0.000
REMARK INTER + INTRA:         -13.465
REMARK INTER:                 -11.841
REMARK INTRA:                  -1.624
REMARK UNBOUND:                -1.624
REMARK SMILES CCCCCCCCCCCCCCCCCCCCCC(=O)[O-]
REMARK SMILES IDX 12 1 11 2 10 3 9 4 8 5 7 6 6 7 5 8 4 9 3 10 2 11 1 12 13 13
REMARK SMILES IDX 14 14 15 15 16 16 17 17 18 18 19 19 20 20 21 21 22 22 23 23
REMARK SMILES IDX 24 24
REMARK H PARENT
REMARK Flexibility Score: inf
ROOT
ATOM      1  C   UNL     1     -22.115 -28.225  38.282  1.00  0.00     0.000 C 
ENDROOT
BRANCH   1   2
ATOM      2  C   UNL     1     -21.164 -27.131  37.763  1.00  0.00     0.000 C 
BRANCH   2   3
ATOM      3  C   UNL     1     -20.455 -26.358  38.899  1.00  0.00     0.000 C 
BRANCH   3   4
ATOM      4  C   UNL     1     -18.916 -26.414  38.818  1.00  0.00    -0.000 C 
BRANCH   4   5
ATOM      5  C   UNL     1     -18.359 -27.034  37.526  1.00  0.00    -0.000 C 
BRANCH   5   6
ATOM      6  C   UNL     1     -16.827 -26.916  37.422  1.00  0.00    -0.000 C 
BRANCH   6   7
ATOM      7  C   UNL     1     -16.197 -28.088  36.651  1.00  0.00    -0.000 C 
BRANCH   7   8
ATOM      8  C   UNL     1     -16.242 -29.407  37.437  1.00  0.00    -0.000 C 
BRANCH   8   9
ATOM      9  C   UNL     1     -15.197 -30.397  36.907  1.00  0.00    -0.000 C 
BRANCH   9  10
ATOM     10  C   UNL     1     -15.572 -30.892  35.501  1.00  0.00    -0.000 C 
BRANCH  10  11
ATOM     11  C   UNL     1     -14.374 -30.902  34.540  1.00  0.00    -0.003 C 
ATOM     12  C   UNL     1     -14.293 -29.641  33.682  1.00  0.00     0.004 C 
ENDBRANCH  10  11
ENDBRANCH   9  10
ENDBRANCH   8   9
ENDBRANCH   7   8
ENDBRANCH   6   7
ENDBRANCH   5   6
ENDBRANCH   4   5
ENDBRANCH   3   4
ENDBRANCH   2   3
ENDBRANCH   1   2
BRANCH   1  13
ATOM     13  C   UNL     1     -22.442 -28.068  39.783  1.00  0.00     0.000 C 
BRANCH  13  14
ATOM     14  C   UNL     1     -23.011 -29.343  40.436  1.00  0.00     0.000 C 
BRANCH  14  15
ATOM     15  C   UNL     1     -24.525 -29.282  40.734  1.00  0.00     0.000 C 
BRANCH  15  16
ATOM     16  C   UNL     1     -25.236 -27.983  40.296  1.00  0.00     0.000 C 
BRANCH  16  17
ATOM     17  C   UNL     1     -26.095 -27.298  41.377  1.00  0.00     0.000 C 
BRANCH  17  18
ATOM     18  C   UNL     1     -25.761 -25.807  41.557  1.00  0.00     0.000 C 
BRANCH  18  19
ATOM     19  C   UNL     1     -24.249 -25.531  41.518  1.00  0.00     0.000 C 
BRANCH  19  20
ATOM     20  C   UNL     1     -23.927 -24.086  41.099  1.00  0.00     0.006 C 
BRANCH  20  21
ATOM     21  C   UNL     1     -22.460 -23.719  41.365  1.00  0.00     0.053 C 
BRANCH  21  22
ATOM     22  C   UNL     1     -22.173 -22.288  41.029  1.00  0.00     0.041 C 
ATOM     23  O   UNL     1     -21.431 -22.004  40.051  1.00  0.00    -0.550 OA
ATOM     24  O   UNL     1     -22.711 -21.268  41.804  1.00  0.00    -0.550 OA
ENDBRANCH  21  22
ENDBRANCH  20  21
ENDBRANCH  19  20
ENDBRANCH  18  19
ENDBRANCH  17  18
ENDBRANCH  16  17
ENDBRANCH  15  16
ENDBRANCH  14  15
ENDBRANCH  13  14
ENDBRANCH   1  13
TORSDOF 20
ENDMDL
MODEL 2
REMARK VINA RESULT:    -5.376      1.919      4.372
REMARK INTER + INTRA:         -13.285
REMARK INTER:                 -10.834
REMARK INTRA:                  -2.451
REMARK UNBOUND:                -1.624
REMARK SMILES CCCCCCCCCCCCCCCCCCCCCC(=O)[O-]
REMARK SMILES IDX 12 1 11 2 10 3 9 4 8 5 7 6 6 7 5 8 4 9 3 10 2 11 1 12 13 13
REMARK SMILES IDX 14 14 15 15 16 16 17 17 18 18 19 19 20 20 21 21 22 22 23 23
REMARK SMILES IDX 24 24
REMARK H PARENT
REMARK Flexibility Score: inf
ROOT
ATOM      1  C   UNL     1     -25.383 -28.332  40.240  1.00  0.00     0.000 C 
ENDROOT
BRANCH   1   2
ATOM      2  C   UNL     1     -24.449 -29.296  40.995  1.00  0.00     0.000 C 
BRANCH   2   3
ATOM      3  C   UNL     1     -22.995 -29.264  40.469  1.00  0.00     0.000 C 
BRANCH   3   4
ATOM      4  C   UNL     1     -22.542 -27.871  39.988  1.00  0.00    -0.000 C 
BRANCH   4   5
ATOM      5  C   UNL     1     -21.866 -27.852  38.607  1.00  0.00    -0.000 C 
BRANCH   5   6
ATOM      6  C   UNL     1     -20.991 -26.603  38.391  1.00  0.00    -0.000 C 
BRANCH   6   7
ATOM      7  C   UNL     1     -20.183 -26.227  39.645  1.00  0.00    -0.000 C 
BRANCH   7   8
ATOM      8  C   UNL     1     -19.193 -25.080  39.388  1.00  0.00    -0.000 C 
BRANCH   8   9
ATOM      9  C   UNL     1     -17.750 -25.600  39.347  1.00  0.00    -0.000 C 
BRANCH   9  10
ATOM     10  C   UNL     1     -17.279 -25.796  37.897  1.00  0.00    -0.000 C 
BRANCH  10  11
ATOM     11  C   UNL     1     -17.403 -27.253  37.427  1.00  0.00    -0.003 C 
ATOM     12  C   UNL     1     -16.195 -27.718  36.616  1.00  0.00     0.004 C 
ENDBRANCH  10  11
ENDBRANCH   9  10
ENDBRANCH   8   9
ENDBRANCH   7   8
ENDBRANCH   6   7
ENDBRANCH   5   6
ENDBRANCH   4   5
ENDBRANCH   3   4
ENDBRANCH   2   3
ENDBRANCH   1   2
BRANCH   1  13
ATOM     13  C   UNL     1     -26.243 -27.469  41.190  1.00  0.00     0.000 C 
BRANCH  13  14
ATOM     14  C   UNL     1     -25.442 -26.406  41.964  1.00  0.00     0.000 C 
BRANCH  14  15
ATOM     15  C   UNL     1     -25.779 -24.949  41.577  1.00  0.00     0.000 C 
BRANCH  15  16
ATOM     16  C   UNL     1     -24.580 -24.086  41.130  1.00  0.00     0.000 C 
BRANCH  16  17
ATOM     17  C   UNL     1     -23.194 -24.588  41.583  1.00  0.00     0.000 C 
BRANCH  17  18
ATOM     18  C   UNL     1     -22.064 -23.587  41.286  1.00  0.00     0.000 C 
BRANCH  18  19
ATOM     19  C   UNL     1     -22.134 -23.020  39.859  1.00  0.00     0.000 C 
BRANCH  19  20
ATOM     20  C   UNL     1     -22.170 -21.482  39.839  1.00  0.00     0.006 C 
BRANCH  20  21
ATOM     21  C   UNL     1     -22.767 -20.900  41.127  1.00  0.00     0.053 C 
BRANCH  21  22
ATOM     22  C   UNL     1     -24.058 -20.185  40.872  1.00  0.00     0.041 C 
ATOM     23  O   UNL     1     -24.556 -19.441  41.757  1.00  0.00    -0.550 OA
ATOM     24  O   UNL     1     -24.721 -20.354  39.662  1.00  0.00    -0.550 OA
ENDBRANCH  21  22
ENDBRANCH  20  21
ENDBRANCH  19  20
ENDBRANCH  18  19
ENDBRANCH  17  18
ENDBRANCH  16  17
ENDBRANCH  15  16
ENDBRANCH  14  15
ENDBRANCH  13  14
ENDBRANCH   1  13
TORSDOF 20
ENDMDL
MODEL 3
REMARK VINA RESULT:    -5.373      4.780      7.313
REMARK INTER + INTRA:         -13.278
REMARK INTER:                 -10.961
REMARK INTRA:                  -2.316
REMARK UNBOUND:                -1.624
REMARK SMILES CCCCCCCCCCCCCCCCCCCCCC(=O)[O-]
REMARK SMILES IDX 12 1 11 2 10 3 9 4 8 5 7 6 6 7 5 8 4 9 3 10 2 11 1 12 13 13
REMARK SMILES IDX 14 14 15 15 16 16 17 17 18 18 19 19 20 20 21 21 22 22 23 23
REMARK SMILES IDX 24 24
REMARK H PARENT
REMARK Flexibility Score: inf
ROOT
ATOM      1  C   UNL     1     -22.460 -28.665  39.222  1.00  0.00     0.000 C 
ENDROOT
BRANCH   1   2
ATOM      2  C   UNL     1     -21.856 -27.776  38.118  1.00  0.00     0.000 C 
BRANCH   2   3
ATOM      3  C   UNL     1     -20.859 -26.728  38.665  1.00  0.00     0.000 C 
BRANCH   3   4
ATOM      4  C   UNL     1     -21.227 -26.197  40.065  1.00  0.00    -0.000 C 
BRANCH   4   5
ATOM      5  C   UNL     1     -20.940 -24.702  40.285  1.00  0.00    -0.000 C 
BRANCH   5   6
ATOM      6  C   UNL     1     -21.901 -24.055  41.299  1.00  0.00    -0.000 C 
BRANCH   6   7
ATOM      7  C   UNL     1     -23.349 -23.995  40.782  1.00  0.00    -0.000 C 
BRANCH   7   8
ATOM      8  C   UNL     1     -23.908 -22.564  40.753  1.00  0.00    -0.000 C 
BRANCH   8   9
ATOM      9  C   UNL     1     -22.904 -21.596  40.114  1.00  0.00    -0.000 C 
BRANCH   9  10
ATOM     10  C   UNL     1     -22.929 -21.711  38.581  1.00  0.00    -0.000 C 
BRANCH  10  11
ATOM     11  C   UNL     1     -21.522 -21.718  37.966  1.00  0.00    -0.003 C 
ATOM     12  C   UNL     1     -20.438 -21.313  38.964  1.00  0.00     0.004 C 
ENDBRANCH  10  11
ENDBRANCH   9  10
ENDBRANCH   8   9
ENDBRANCH   7   8
ENDBRANCH   6   7
ENDBRANCH   5   6
ENDBRANCH   4   5
ENDBRANCH   3   4
ENDBRANCH   2   3
ENDBRANCH   1   2
BRANCH   1  13
ATOM     13  C   UNL     1     -23.965 -28.942  39.007  1.00  0.00     0.000 C 
BRANCH  13  14
ATOM     14  C   UNL     1     -24.731 -29.268  40.303  1.00  0.00     0.000 C 
BRANCH  14  15
ATOM     15  C   UNL     1     -25.483 -28.065  40.916  1.00  0.00     0.000 C 
BRANCH  15  16
ATOM     16  C   UNL     1     -24.641 -27.154  41.835  1.00  0.00     0.000 C 
BRANCH  16  17
ATOM     17  C   UNL     1     -25.443 -26.214  42.755  1.00  0.00     0.000 C 
BRANCH  17  18
ATOM     18  C   UNL     1     -26.410 -25.298  41.986  1.00  0.00     0.000 C 
BRANCH  18  19
ATOM     19  C   UNL     1     -27.764 -25.136  42.696  1.00  0.00     0.000 C 
BRANCH  19  20
ATOM     20  C   UNL     1     -28.700 -26.333  42.458  1.00  0.00     0.006 C 
BRANCH  20  21
ATOM     21  C   UNL     1     -30.124 -26.064  42.962  1.00  0.00     0.053 C 
BRANCH  21  22
ATOM     22  C   UNL     1     -31.000 -25.501  41.885  1.00  0.00     0.041 C 
ATOM     23  O   UNL     1     -31.922 -24.693  42.177  1.00  0.00    -0.550 OA
ATOM     24  O   UNL     1     -30.810 -25.879  40.562  1.00  0.00    -0.550 OA
ENDBRANCH  21  22
ENDBRANCH  20  21
ENDBRANCH  19  20
ENDBRANCH  18  19
ENDBRANCH  17  18
ENDBRANCH  16  17
ENDBRANCH  15  16
ENDBRANCH  14  15
ENDBRANCH  13  14
ENDBRANCH   1  13
TORSDOF 20
ENDMDL
MODEL 4
REMARK VINA RESULT:    -5.371      2.003      4.387
REMARK INTER + INTRA:         -13.275
REMARK INTER:                 -11.057
REMARK INTRA:                  -2.218
REMARK UNBOUND:                -1.624
REMARK SMILES CCCCCCCCCCCCCCCCCCCCCC(=O)[O-]
REMARK SMILES IDX 12 1 11 2 10 3 9 4 8 5 7 6 6 7 5 8 4 9 3 10 2 11 1 12 13 13
REMARK SMILES IDX 14 14 15 15 16 16 17 17 18 18 19 19 20 20 21 21 22 22 23 23
REMARK SMILES IDX 24 24
REMARK H PARENT
REMARK Flexibility Score: inf
ROOT
ATOM      1  C   UNL     1     -25.432 -28.455  40.143  1.00  0.00     0.000 C 
ENDROOT
BRANCH   1   2
ATOM      2  C   UNL     1     -24.490 -29.452  40.845  1.00  0.00     0.000 C 
BRANCH   2   3
ATOM      3  C   UNL     1     -23.044 -29.403  40.300  1.00  0.00     0.000 C 
BRANCH   3   4
ATOM      4  C   UNL     1     -22.603 -27.998  39.843  1.00  0.00    -0.000 C 
BRANCH   4   5
ATOM      5  C   UNL     1     -21.866 -27.959  38.493  1.00  0.00    -0.000 C 
BRANCH   5   6
ATOM      6  C   UNL     1     -21.028 -26.681  38.311  1.00  0.00    -0.000 C 
BRANCH   6   7
ATOM      7  C   UNL     1     -20.284 -26.276  39.595  1.00  0.00    -0.000 C 
BRANCH   7   8
ATOM      8  C   UNL     1     -19.290 -25.127  39.366  1.00  0.00    -0.000 C 
BRANCH   8   9
ATOM      9  C   UNL     1     -17.844 -25.641  39.387  1.00  0.00    -0.000 C 
BRANCH   9  10
ATOM     10  C   UNL     1     -17.297 -25.798  37.959  1.00  0.00    -0.000 C 
BRANCH  10  11
ATOM     11  C   UNL     1     -17.485 -27.219  37.408  1.00  0.00    -0.003 C 
ATOM     12  C   UNL     1     -16.246 -27.742  36.684  1.00  0.00     0.004 C 
ENDBRANCH  10  11
ENDBRANCH   9  10
ENDBRANCH   8   9
ENDBRANCH   7   8
ENDBRANCH   6   7
ENDBRANCH   5   6
ENDBRANCH   4   5
ENDBRANCH   3   4
ENDBRANCH   2   3
ENDBRANCH   1   2
BRANCH   1  13
ATOM     13  C   UNL     1     -26.229 -27.584  41.140  1.00  0.00     0.000 C 
BRANCH  13  14
ATOM     14  C   UNL     1     -25.381 -26.515  41.852  1.00  0.00     0.000 C 
BRANCH  14  15
ATOM     15  C   UNL     1     -25.836 -25.062  41.588  1.00  0.00     0.000 C 
BRANCH  15  16
ATOM     16  C   UNL     1     -24.710 -24.069  41.228  1.00  0.00     0.000 C 
BRANCH  16  17
ATOM     17  C   UNL     1     -23.293 -24.669  41.156  1.00  0.00     0.000 C 
BRANCH  17  18
ATOM     18  C   UNL     1     -22.188 -23.643  41.460  1.00  0.00     0.000 C 
BRANCH  18  19
ATOM     19  C   UNL     1     -22.642 -22.194  41.219  1.00  0.00     0.000 C 
BRANCH  19  20
ATOM     20  C   UNL     1     -22.508 -21.773  39.745  1.00  0.00     0.006 C 
BRANCH  20  21
ATOM     21  C   UNL     1     -21.307 -22.438  39.060  1.00  0.00     0.053 C 
BRANCH  21  22
ATOM     22  C   UNL     1     -20.513 -21.458  38.251  1.00  0.00     0.041 C 
ATOM     23  O   UNL     1     -21.005 -20.953  37.207  1.00  0.00    -0.550 OA
ATOM     24  O   UNL     1     -19.224 -21.114  38.641  1.00  0.00    -0.550 OA
ENDBRANCH  21  22
ENDBRANCH  20  21
ENDBRANCH  19  20
ENDBRANCH  18  19
ENDBRANCH  17  18
ENDBRANCH  16  17
ENDBRANCH  15  16
ENDBRANCH  14  15
ENDBRANCH  13  14
ENDBRANCH   1  13
TORSDOF 20
ENDMDL
MODEL 5
REMARK VINA RESULT:    -5.369      4.605      7.802
REMARK INTER + INTRA:         -13.270
REMARK INTER:                 -11.016
REMARK INTRA:                  -2.254
REMARK UNBOUND:                -1.624
REMARK SMILES CCCCCCCCCCCCCCCCCCCCCC(=O)[O-]
REMARK SMILES IDX 12 1 11 2 10 3 9 4 8 5 7 6 6 7 5 8 4 9 3 10 2 11 1 12 13 13
REMARK SMILES IDX 14 14 15 15 16 16 17 17 18 18 19 19 20 20 21 21 22 22 23 23
REMARK SMILES IDX 24 24
REMARK H PARENT
REMARK Flexibility Score: inf
ROOT
ATOM      1  C   UNL     1     -22.265 -28.261  39.605  1.00  0.00     0.000 C 
ENDROOT
BRANCH   1   2
ATOM      2  C   UNL     1     -21.904 -28.045  38.124  1.00  0.00     0.000 C 
BRANCH   2   3
ATOM      3  C   UNL     1     -20.770 -27.012  37.923  1.00  0.00     0.000 C 
BRANCH   3   4
ATOM      4  C   UNL     1     -20.178 -26.480  39.243  1.00  0.00    -0.000 C 
BRANCH   4   5
ATOM      5  C   UNL     1     -19.714 -25.014  39.199  1.00  0.00    -0.000 C 
BRANCH   5   6
ATOM      6  C   UNL     1     -20.731 -24.049  39.835  1.00  0.00    -0.000 C 
BRANCH   6   7
ATOM      7  C   UNL     1     -21.693 -24.761  40.802  1.00  0.00    -0.000 C 
BRANCH   7   8
ATOM      8  C   UNL     1     -22.657 -23.789  41.501  1.00  0.00    -0.000 C 
BRANCH   8   9
ATOM      9  C   UNL     1     -22.386 -22.342  41.068  1.00  0.00    -0.000 C 
BRANCH   9  10
ATOM     10  C   UNL     1     -23.695 -21.540  40.985  1.00  0.00    -0.000 C 
BRANCH  10  11
ATOM     11  C   UNL     1     -24.854 -22.360  40.399  1.00  0.00    -0.003 C 
ATOM     12  C   UNL     1     -26.214 -21.698  40.612  1.00  0.00     0.004 C 
ENDBRANCH  10  11
ENDBRANCH   9  10
ENDBRANCH   8   9
ENDBRANCH   7   8
ENDBRANCH   6   7
ENDBRANCH   5   6
ENDBRANCH   4   5
ENDBRANCH   3   4
ENDBRANCH   2   3
ENDBRANCH   1   2
BRANCH   1  13
ATOM     13  C   UNL     1     -23.515 -29.149  39.791  1.00  0.00     0.000 C 
BRANCH  13  14
ATOM     14  C   UNL     1     -24.524 -28.601  40.818  1.00  0.00     0.000 C 
BRANCH  14  15
ATOM     15  C   UNL     1     -24.279 -27.131  41.227  1.00  0.00     0.000 C 
BRANCH  15  16
ATOM     16  C   UNL     1     -25.106 -26.631  42.431  1.00  0.00     0.000 C 
BRANCH  16  17
ATOM     17  C   UNL     1     -26.031 -25.431  42.151  1.00  0.00     0.000 C 
BRANCH  17  18
ATOM     18  C   UNL     1     -27.467 -25.646  42.659  1.00  0.00     0.000 C 
BRANCH  18  19
ATOM     19  C   UNL     1     -28.358 -24.408  42.459  1.00  0.00     0.000 C 
BRANCH  19  20
ATOM     20  C   UNL     1     -29.804 -24.643  42.927  1.00  0.00     0.006 C 
BRANCH  20  21
ATOM     21  C   UNL     1     -30.149 -26.136  43.017  1.00  0.00     0.053 C 
BRANCH  21  22
ATOM     22  C   UNL     1     -31.042 -26.572  41.896  1.00  0.00     0.041 C 
ATOM     23  O   UNL     1     -31.001 -25.978  40.786  1.00  0.00    -0.550 OA
ATOM     24  O   UNL     1     -31.932 -27.623  42.082  1.00  0.00    -0.550 OA
ENDBRANCH  21  22
ENDBRANCH  20  21
ENDBRANCH  19  20
ENDBRANCH  18  19
ENDBRANCH  17  18
ENDBRANCH  16  17
ENDBRANCH  15  16
ENDBRANCH  14  15
ENDBRANCH  13  14
ENDBRANCH   1  13
TORSDOF 20
ENDMDL
MODEL 6
REMARK VINA RESULT:    -5.364      3.807      9.082
REMARK INTER + INTRA:         -13.260
REMARK INTER:                 -11.328
REMARK INTRA:                  -1.931
REMARK UNBOUND:                -1.624
REMARK SMILES CCCCCCCCCCCCCCCCCCCCCC(=O)[O-]
REMARK SMILES IDX 12 1 11 2 10 3 9 4 8 5 7 6 6 7 5 8 4 9 3 10 2 11 1 12 13 13
REMARK SMILES IDX 14 14 15 15 16 16 17 17 18 18 19 19 20 20 21 21 22 22 23 23
REMARK SMILES IDX 24 24
REMARK H PARENT
REMARK Flexibility Score: inf
ROOT
ATOM      1  C   UNL     1     -22.333 -28.114  39.780  1.00  0.00     0.000 C 
ENDROOT
BRANCH   1   2
ATOM      2  C   UNL     1     -23.328 -29.258  40.049  1.00  0.00     0.000 C 
BRANCH   2   3
ATOM      3  C   UNL     1     -24.742 -28.972  39.492  1.00  0.00     0.000 C 
BRANCH   3   4
ATOM      4  C   UNL     1     -25.631 -28.157  40.452  1.00  0.00    -0.000 C 
BRANCH   4   5
ATOM      5  C   UNL     1     -24.914 -27.633  41.709  1.00  0.00    -0.000 C 
BRANCH   5   6
ATOM      6  C   UNL     1     -25.024 -26.105  41.862  1.00  0.00    -0.000 C 
BRANCH   6   7
ATOM      7  C   UNL     1     -26.453 -25.590  41.618  1.00  0.00    -0.000 C 
BRANCH   7   8
ATOM      8  C   UNL     1     -27.198 -25.269  42.923  1.00  0.00    -0.000 C 
BRANCH   8   9
ATOM      9  C   UNL     1     -28.152 -24.084  42.733  1.00  0.00    -0.000 C 
BRANCH   9  10
ATOM     10  C   UNL     1     -29.618 -24.543  42.796  1.00  0.00    -0.000 C 
BRANCH  10  11
ATOM     11  C   UNL     1     -29.753 -26.053  43.046  1.00  0.00    -0.003 C 
ATOM     12  C   UNL     1     -30.921 -26.676  42.284  1.00  0.00     0.004 C 
ENDBRANCH  10  11
ENDBRANCH   9  10
ENDBRANCH   8   9
ENDBRANCH   7   8
ENDBRANCH   6   7
ENDBRANCH   5   6
ENDBRANCH   4   5
ENDBRANCH   3   4
ENDBRANCH   2   3
ENDBRANCH   1   2
BRANCH   1  13
ATOM     13  C   UNL     1     -21.933 -28.008  38.292  1.00  0.00     0.000 C 
BRANCH  13  14
ATOM     14  C   UNL     1     -20.875 -26.926  38.005  1.00  0.00     0.000 C 
BRANCH  14  15
ATOM     15  C   UNL     1     -20.105 -26.443  39.254  1.00  0.00     0.000 C 
BRANCH  15  16
ATOM     16  C   UNL     1     -20.226 -24.936  39.566  1.00  0.00     0.000 C 
BRANCH  16  17
ATOM     17  C   UNL     1     -21.663 -24.399  39.707  1.00  0.00     0.000 C 
BRANCH  17  18
ATOM     18  C   UNL     1     -22.046 -24.075  41.161  1.00  0.00     0.000 C 
BRANCH  18  19
ATOM     19  C   UNL     1     -22.771 -22.726  41.297  1.00  0.00     0.000 C 
BRANCH  19  20
ATOM     20  C   UNL     1     -23.717 -22.446  40.116  1.00  0.00     0.006 C 
BRANCH  20  21
ATOM     21  C   UNL     1     -25.172 -22.264  40.569  1.00  0.00     0.053 C 
BRANCH  21  22
ATOM     22  C   UNL     1     -25.593 -20.827  40.534  1.00  0.00     0.041 C 
ATOM     23  O   UNL     1     -26.486 -20.410  41.319  1.00  0.00    -0.550 OA
ATOM     24  O   UNL     1     -25.011 -19.952  39.625  1.00  0.00    -0.550 OA
ENDBRANCH  21  22
ENDBRANCH  20  21
ENDBRANCH  19  20
ENDBRANCH  18  19
ENDBRANCH  17  18
ENDBRANCH  16  17
ENDBRANCH  15  16
ENDBRANCH  14  15
ENDBRANCH  13  14
ENDBRANCH   1  13
TORSDOF 20
ENDMDL
MODEL 7
REMARK VINA RESULT:    -5.342      4.007      8.809
REMARK INTER + INTRA:         -13.211
REMARK INTER:                 -10.838
REMARK INTRA:                  -2.372
REMARK UNBOUND:                -1.624
REMARK SMILES CCCCCCCCCCCCCCCCCCCCCC(=O)[O-]
REMARK SMILES IDX 12 1 11 2 10 3 9 4 8 5 7 6 6 7 5 8 4 9 3 10 2 11 1 12 13 13
REMARK SMILES IDX 14 14 15 15 16 16 17 17 18 18 19 19 20 20 21 21 22 22 23 23
REMARK SMILES IDX 24 24
REMARK H PARENT
REMARK Flexibility Score: inf
ROOT
ATOM      1  C   UNL     1     -21.967 -28.123  38.195  1.00  0.00     0.000 C 
ENDROOT
BRANCH   1   2
ATOM      2  C   UNL     1     -22.617 -28.730  39.452  1.00  0.00     0.000 C 
BRANCH   2   3
ATOM      3  C   UNL     1     -24.081 -29.173  39.221  1.00  0.00     0.000 C 
BRANCH   3   4
ATOM      4  C   UNL     1     -25.088 -28.501  40.176  1.00  0.00    -0.000 C 
BRANCH   4   5
ATOM      5  C   UNL     1     -24.494 -28.031  41.514  1.00  0.00    -0.000 C 
BRANCH   5   6
ATOM      6  C   UNL     1     -25.167 -26.751  42.046  1.00  0.00    -0.000 C 
BRANCH   6   7
ATOM      7  C   UNL     1     -26.357 -26.308  41.178  1.00  0.00    -0.000 C 
BRANCH   7   8
ATOM      8  C   UNL     1     -27.703 -26.442  41.906  1.00  0.00    -0.000 C 
BRANCH   8   9
ATOM      9  C   UNL     1     -27.765 -25.506  43.121  1.00  0.00    -0.000 C 
BRANCH   9  10
ATOM     10  C   UNL     1     -27.696 -24.034  42.684  1.00  0.00    -0.000 C 
BRANCH  10  11
ATOM     11  C   UNL     1     -29.054 -23.324  42.786  1.00  0.00    -0.003 C 
ATOM     12  C   UNL     1     -30.208 -24.289  43.053  1.00  0.00     0.004 C 
ENDBRANCH  10  11
ENDBRANCH   9  10
ENDBRANCH   8   9
ENDBRANCH   7   8
ENDBRANCH   6   7
ENDBRANCH   5   6
ENDBRANCH   4   5
ENDBRANCH   3   4
ENDBRANCH   2   3
ENDBRANCH   1   2
BRANCH   1  13
ATOM     13  C   UNL     1     -21.178 -26.829  38.497  1.00  0.00     0.000 C 
BRANCH  13  14
ATOM     14  C   UNL     1     -21.041 -26.518  40.000  1.00  0.00     0.000 C 
BRANCH  14  15
ATOM     15  C   UNL     1     -21.137 -25.015  40.348  1.00  0.00     0.000 C 
BRANCH  15  16
ATOM     16  C   UNL     1     -22.415 -24.590  41.102  1.00  0.00     0.000 C 
BRANCH  16  17
ATOM     17  C   UNL     1     -23.147 -23.361  40.529  1.00  0.00     0.000 C 
BRANCH  17  18
ATOM     18  C   UNL     1     -24.607 -23.253  41.003  1.00  0.00     0.000 C 
BRANCH  18  19
ATOM     19  C   UNL     1     -25.366 -22.101  40.326  1.00  0.00     0.000 C 
BRANCH  19  20
ATOM     20  C   UNL     1     -24.440 -21.191  39.500  1.00  0.00     0.006 C 
BRANCH  20  21
ATOM     21  C   UNL     1     -24.536 -19.722  39.932  1.00  0.00     0.053 C 
BRANCH  21  22
ATOM     22  C   UNL     1     -24.123 -19.530  41.359  1.00  0.00     0.041 C 
ATOM     23  O   UNL     1     -23.052 -20.042  41.782  1.00  0.00    -0.550 OA
ATOM     24  O   UNL     1     -24.927 -18.800  42.226  1.00  0.00    -0.550 OA
ENDBRANCH  21  22
ENDBRANCH  20  21
ENDBRANCH  19  20
ENDBRANCH  18  19
ENDBRANCH  17  18
ENDBRANCH  16  17
ENDBRANCH  15  16
ENDBRANCH  14  15
ENDBRANCH  13  14
ENDBRANCH   1  13
TORSDOF 20
ENDMDL
MODEL 8
REMARK VINA RESULT:    -5.320      3.603      9.316
REMARK INTER + INTRA:         -13.163
REMARK INTER:                 -11.121
REMARK INTRA:                  -2.042
REMARK UNBOUND:                -1.624
REMARK SMILES CCCCCCCCCCCCCCCCCCCCCC(=O)[O-]
REMARK SMILES IDX 12 1 11 2 10 3 9 4 8 5 7 6 6 7 5 8 4 9 3 10 2 11 1 12 13 13
REMARK SMILES IDX 14 14 15 15 16 16 17 17 18 18 19 19 20 20 21 21 22 22 23 23
REMARK SMILES IDX 24 24
REMARK H PARENT
REMARK Flexibility Score: inf
ROOT
ATOM      1  C   UNL     1     -24.526 -29.111  39.311  1.00  0.00     0.000 C 
ENDROOT
BRANCH   1   2
ATOM      2  C   UNL     1     -25.742 -28.530  40.057  1.00  0.00     0.000 C 
BRANCH   2   3
ATOM      3  C   UNL     1     -25.345 -27.614  41.238  1.00  0.00     0.000 C 
BRANCH   3   4
ATOM      4  C   UNL     1     -26.165 -26.310  41.312  1.00  0.00    -0.000 C 
BRANCH   4   5
ATOM      5  C   UNL     1     -25.332 -25.033  41.510  1.00  0.00    -0.000 C 
BRANCH   5   6
ATOM      6  C   UNL     1     -23.816 -25.297  41.456  1.00  0.00    -0.000 C 
BRANCH   6   7
ATOM      7  C   UNL     1     -22.990 -24.000  41.508  1.00  0.00    -0.000 C 
BRANCH   7   8
ATOM      8  C   UNL     1     -22.474 -23.571  40.125  1.00  0.00    -0.000 C 
BRANCH   8   9
ATOM      9  C   UNL     1     -23.376 -22.491  39.514  1.00  0.00    -0.000 C 
BRANCH   9  10
ATOM     10  C   UNL     1     -24.064 -21.664  40.612  1.00  0.00    -0.000 C 
BRANCH  10  11
ATOM     11  C   UNL     1     -25.575 -21.518  40.382  1.00  0.00    -0.003 C 
ATOM     12  C   UNL     1     -26.148 -20.246  41.006  1.00  0.00     0.004 C 
ENDBRANCH  10  11
ENDBRANCH   9  10
ENDBRANCH   8   9
ENDBRANCH   7   8
ENDBRANCH   6   7
ENDBRANCH   5   6
ENDBRANCH   4   5
ENDBRANCH   3   4
ENDBRANCH   2   3
ENDBRANCH   1   2
BRANCH   1  13
ATOM     13  C   UNL     1     -23.185 -28.755  39.989  1.00  0.00     0.000 C 
BRANCH  13  14
ATOM     14  C   UNL     1     -22.188 -28.034  39.063  1.00  0.00     0.000 C 
BRANCH  14  15
ATOM     15  C   UNL     1     -21.290 -26.999  39.777  1.00  0.00     0.000 C 
BRANCH  15  16
ATOM     16  C   UNL     1     -20.291 -26.250  38.870  1.00  0.00     0.000 C 
BRANCH  16  17
ATOM     17  C   UNL     1     -19.081 -25.622  39.590  1.00  0.00     0.000 C 
BRANCH  17  18
ATOM     18  C   UNL     1     -17.748 -25.879  38.866  1.00  0.00     0.000 C 
BRANCH  18  19
ATOM     19  C   UNL     1     -17.900 -26.824  37.663  1.00  0.00     0.000 C 
BRANCH  19  20
ATOM     20  C   UNL     1     -16.617 -27.623  37.377  1.00  0.00     0.006 C 
BRANCH  20  21
ATOM     21  C   UNL     1     -16.207 -27.551  35.900  1.00  0.00     0.053 C 
BRANCH  21  22
ATOM     22  C   UNL     1     -15.323 -28.695  35.510  1.00  0.00     0.041 C 
ATOM     23  O   UNL     1     -15.410 -29.798  36.114  1.00  0.00    -0.550 OA
ATOM     24  O   UNL     1     -14.392 -28.541  34.490  1.00  0.00    -0.550 OA
ENDBRANCH  21  22
ENDBRANCH  20  21
ENDBRANCH  19  20
ENDBRANCH  18  19
ENDBRANCH  17  18
ENDBRANCH  16  17
ENDBRANCH  15  16
ENDBRANCH  14  15
ENDBRANCH  13  14
ENDBRANCH   1  13
TORSDOF 20
ENDMDL
MODEL 9
REMARK VINA RESULT:    -5.255      5.113      8.733
REMARK INTER + INTRA:         -13.022
REMARK INTER:                 -10.670
REMARK INTRA:                  -2.352
REMARK UNBOUND:                -1.624
REMARK SMILES CCCCCCCCCCCCCCCCCCCCCC(=O)[O-]
REMARK SMILES IDX 12 1 11 2 10 3 9 4 8 5 7 6 6 7 5 8 4 9 3 10 2 11 1 12 13 13
REMARK SMILES IDX 14 14 15 15 16 16 17 17 18 18 19 19 20 20 21 21 22 22 23 23
REMARK SMILES IDX 24 24
REMARK H PARENT
REMARK Flexibility Score: inf
ROOT
ATOM      1  C   UNL     1     -22.297 -28.133  39.310  1.00  0.00     0.000 C 
ENDROOT
BRANCH   1   2
ATOM      2  C   UNL     1     -21.951 -27.084  40.383  1.00  0.00     0.000 C 
BRANCH   2   3
ATOM      3  C   UNL     1     -20.920 -26.039  39.896  1.00  0.00     0.000 C 
BRANCH   3   4
ATOM      4  C   UNL     1     -21.295 -24.587  40.254  1.00  0.00    -0.000 C 
BRANCH   4   5
ATOM      5  C   UNL     1     -22.602 -24.434  41.050  1.00  0.00    -0.000 C 
BRANCH   5   6
ATOM      6  C   UNL     1     -23.126 -22.987  41.061  1.00  0.00    -0.000 C 
BRANCH   6   7
ATOM      7  C   UNL     1     -23.353 -22.432  39.645  1.00  0.00    -0.000 C 
BRANCH   7   8
ATOM      8  C   UNL     1     -24.543 -21.463  39.572  1.00  0.00    -0.000 C 
BRANCH   8   9
ATOM      9  C   UNL     1     -25.684 -21.926  40.486  1.00  0.00    -0.000 C 
BRANCH   9  10
ATOM     10  C   UNL     1     -26.482 -20.726  41.020  1.00  0.00    -0.000 C 
BRANCH  10  11
ATOM     11  C   UNL     1     -27.965 -21.057  41.247  1.00  0.00    -0.003 C 
ATOM     12  C   UNL     1     -28.806 -20.907  39.980  1.00  0.00     0.004 C 
ENDBRANCH  10  11
ENDBRANCH   9  10
ENDBRANCH   8   9
ENDBRANCH   7   8
ENDBRANCH   6   7
ENDBRANCH   5   6
ENDBRANCH   4   5
ENDBRANCH   3   4
ENDBRANCH   2   3
ENDBRANCH   1   2
BRANCH   1  13
ATOM     13  C   UNL     1     -22.931 -29.409  39.906  1.00  0.00     0.000 C 
BRANCH  13  14
ATOM     14  C   UNL     1     -24.006 -29.132  40.974  1.00  0.00     0.000 C 
BRANCH  14  15
ATOM     15  C   UNL     1     -25.401 -28.801  40.400  1.00  0.00     0.000 C 
BRANCH  15  16
ATOM     16  C   UNL     1     -25.998 -27.449  40.846  1.00  0.00     0.000 C 
BRANCH  16  17
ATOM     17  C   UNL     1     -25.247 -26.734  41.986  1.00  0.00     0.000 C 
BRANCH  17  18
ATOM     18  C   UNL     1     -26.146 -25.788  42.800  1.00  0.00     0.000 C 
BRANCH  18  19
ATOM     19  C   UNL     1     -27.113 -24.983  41.917  1.00  0.00     0.000 C 
BRANCH  19  20
ATOM     20  C   UNL     1     -28.391 -24.572  42.668  1.00  0.00     0.006 C 
BRANCH  20  21
ATOM     21  C   UNL     1     -29.269 -25.780  43.022  1.00  0.00     0.053 C 
BRANCH  21  22
ATOM     22  C   UNL     1     -30.387 -25.963  42.042  1.00  0.00     0.041 C 
ATOM     23  O   UNL     1     -30.979 -27.072  41.958  1.00  0.00    -0.550 OA
ATOM     24  O   UNL     1     -30.766 -24.916  41.212  1.00  0.00    -0.550 OA
ENDBRANCH  21  22
ENDBRANCH  20  21
ENDBRANCH  19  20
ENDBRANCH  18  19
ENDBRANCH  17  18
ENDBRANCH  16  17
ENDBRANCH  15  16
ENDBRANCH  14  15
ENDBRANCH  13  14
ENDBRANCH   1  13
TORSDOF 20
ENDMDL
