MODEL 1
REMARK VINA RESULT:    -3.872      0.000      0.000
REMARK INTER + INTRA:          -4.273
REMARK INTER:                  -4.212
REMARK INTRA:                  -0.061
REMARK UNBOUND:                -0.061
REMARK SMILES COc1cc2ccc(=O)oc2cc1O
REMARK SMILES IDX 3 1 13 2 12 3 11 4 5 5 4 6 6 7 7 8 8 9 9 10 10 11 2 12 1 13
REMARK SMILES IDX 14 14
REMARK H PARENT 14 15
REMARK Flexibility Score: inf
ROOT
ATOM      1  C   UNL     1      19.039   1.312 -10.442  1.00  0.00     0.161 A 
ATOM      2  C   UNL     1      20.391   1.656 -10.282  1.00  0.00     0.161 A 
ATOM      3  C   UNL     1      21.265   0.793  -9.606  1.00  0.00     0.098 A 
ATOM      4  C   UNL     1      20.800  -0.417  -9.087  1.00  0.00     0.142 A 
ATOM      5  C   UNL     1      19.444  -0.771  -9.243  1.00  0.00     0.022 A 
ATOM      6  C   UNL     1      18.568   0.091  -9.918  1.00  0.00     0.062 A 
ATOM      7  C   UNL     1      19.006  -1.989  -8.712  1.00  0.00     0.019 A 
ATOM      8  C   UNL     1      19.916  -2.812  -8.048  1.00  0.00     0.094 A 
ATOM      9  C   UNL     1      21.247  -2.395  -7.932  1.00  0.00     0.336 A 
ATOM     10  O   UNL     1      22.083  -3.124  -7.337  1.00  0.00    -0.246 OA
ATOM     11  O   UNL     1      21.635  -1.232  -8.446  1.00  0.00    -0.423 OA
ENDROOT
BRANCH   1  12
ATOM     12  O   UNL     1      18.199   2.206 -11.125  1.00  0.00    -0.493 OA
ATOM     13  C   UNL     1      17.070   2.853 -10.547  1.00  0.00     0.278 C 
ENDBRANCH   1  12
BRANCH   2  14
ATOM     14  O   UNL     1      20.858   2.863 -10.799  1.00  0.00    -0.504 OA
ATOM     15  H   UNL     1      21.394   3.511 -10.233  1.00  0.00     0.293 HD
ENDBRANCH   2  14
TORSDOF 2
ENDMDL
MODEL 2
REMARK VINA RESULT:    -3.355      1.174      4.828
REMARK INTER + INTRA:          -3.710
REMARK INTER:                  -3.646
REMARK INTRA:                  -0.064
REMARK UNBOUND:                -0.061
REMARK SMILES COc1cc2ccc(=O)oc2cc1O
REMARK SMILES IDX 3 1 13 2 12 3 11 4 5 5 4 6 6 7 7 8 8 9 9 10 10 11 2 12 1 13
REMARK SMILES IDX 14 14
REMARK H PARENT 14 15
REMARK Flexibility Score: inf
ROOT
ATOM      1  C   UNL     1      21.056  -1.325  -8.724  1.00  0.00     0.161 A 
ATOM      2  C   UNL     1      21.787  -0.128  -8.809  1.00  0.00     0.161 A 
ATOM      3  C   UNL     1      21.187   1.031  -9.324  1.00  0.00     0.098 A 
ATOM      4  C   UNL     1      19.859   1.004  -9.757  1.00  0.00     0.142 A 
ATOM      5  C   UNL     1      19.120  -0.193  -9.675  1.00  0.00     0.022 A 
ATOM      6  C   UNL     1      19.717  -1.352  -9.160  1.00  0.00     0.062 A 
ATOM      7  C   UNL     1      17.792  -0.189 -10.117  1.00  0.00     0.019 A 
ATOM      8  C   UNL     1      17.243   0.990 -10.621  1.00  0.00     0.094 A 
ATOM      9  C   UNL     1      18.038   2.140 -10.672  1.00  0.00     0.336 A 
ATOM     10  O   UNL     1      17.560   3.214 -11.124  1.00  0.00    -0.246 OA
ATOM     11  O   UNL     1      19.297   2.108 -10.246  1.00  0.00    -0.423 OA
ENDROOT
BRANCH   1  12
ATOM     12  O   UNL     1      21.696  -2.460  -8.201  1.00  0.00    -0.493 OA
ATOM     13  C   UNL     1      21.404  -3.038  -6.933  1.00  0.00     0.278 C 
ENDBRANCH   1  12
BRANCH   2  14
ATOM     14  O   UNL     1      23.111  -0.099  -8.378  1.00  0.00    -0.504 OA
ATOM     15  H   UNL     1      23.412  -0.609  -7.555  1.00  0.00     0.293 HD
ENDBRANCH   2  14
TORSDOF 2
ENDMDL
MODEL 3
REMARK VINA RESULT:    -3.040      1.317      2.495
REMARK INTER + INTRA:          -3.368
REMARK INTER:                  -3.430
REMARK INTRA:                   0.062
REMARK UNBOUND:                -0.061
REMARK SMILES COc1cc2ccc(=O)oc2cc1O
REMARK SMILES IDX 3 1 13 2 12 3 11 4 5 5 4 6 6 7 7 8 8 9 9 10 10 11 2 12 1 13
REMARK SMILES IDX 14 14
REMARK H PARENT 14 15
REMARK Flexibility Score: inf
ROOT
ATOM      1  C   UNL     1      19.306   1.077 -10.357  1.00  0.00     0.161 A 
ATOM      2  C   UNL     1      18.730  -0.187 -10.146  1.00  0.00     0.161 A 
ATOM      3  C   UNL     1      19.406  -1.154  -9.387  1.00  0.00     0.098 A 
ATOM      4  C   UNL     1      20.657  -0.869  -8.834  1.00  0.00     0.142 A 
ATOM      5  C   UNL     1      21.241   0.397  -9.041  1.00  0.00     0.022 A 
ATOM      6  C   UNL     1      20.568   1.365  -9.799  1.00  0.00     0.062 A 
ATOM      7  C   UNL     1      22.495   0.653  -8.476  1.00  0.00     0.019 A 
ATOM      8  C   UNL     1      23.125  -0.342  -7.729  1.00  0.00     0.094 A 
ATOM      9  C   UNL     1      22.484  -1.575  -7.566  1.00  0.00     0.336 A 
ATOM     10  O   UNL     1      23.037  -2.486  -6.897  1.00  0.00    -0.246 OA
ATOM     11  O   UNL     1      21.292  -1.792  -8.116  1.00  0.00    -0.423 OA
ENDROOT
BRANCH   1  12
ATOM     12  O   UNL     1      18.595   2.015 -11.122  1.00  0.00    -0.493 OA
ATOM     13  C   UNL     1      17.478   2.760 -10.649  1.00  0.00     0.278 C 
ENDBRANCH   1  12
BRANCH   2  14
ATOM     14  O   UNL     1      17.483  -0.474 -10.697  1.00  0.00    -0.504 OA
ATOM     15  H   UNL     1      17.284  -0.303 -11.676  1.00  0.00     0.293 HD
ENDBRANCH   2  14
TORSDOF 2
ENDMDL
MODEL 4
REMARK VINA RESULT:    -2.580      9.548     11.199
REMARK INTER + INTRA:          -2.868
REMARK INTER:                  -2.805
REMARK INTRA:                  -0.062
REMARK UNBOUND:                -0.061
REMARK SMILES COc1cc2ccc(=O)oc2cc1O
REMARK SMILES IDX 3 1 13 2 12 3 11 4 5 5 4 6 6 7 7 8 8 9 9 10 10 11 2 12 1 13
REMARK SMILES IDX 14 14
REMARK H PARENT 14 15
REMARK Flexibility Score: inf
ROOT
ATOM      1  C   UNL     1      20.587  12.333 -10.208  1.00  0.00     0.161 A 
ATOM      2  C   UNL     1      21.865  11.751 -10.217  1.00  0.00     0.161 A 
ATOM      3  C   UNL     1      22.179  10.721  -9.318  1.00  0.00     0.098 A 
ATOM      4  C   UNL     1      21.224  10.265  -8.407  1.00  0.00     0.142 A 
ATOM      5  C   UNL     1      19.939  10.844  -8.391  1.00  0.00     0.022 A 
ATOM      6  C   UNL     1      19.623  11.874  -9.289  1.00  0.00     0.062 A 
ATOM      7  C   UNL     1      19.004  10.367  -7.467  1.00  0.00     0.019 A 
ATOM      8  C   UNL     1      19.366   9.341  -6.595  1.00  0.00     0.094 A 
ATOM      9  C   UNL     1      20.660   8.814  -6.668  1.00  0.00     0.336 A 
ATOM     10  O   UNL     1      21.006   7.888  -5.889  1.00  0.00    -0.246 OA
ATOM     11  O   UNL     1      21.530   9.287  -7.556  1.00  0.00    -0.423 OA
ENDROOT
BRANCH   1  12
ATOM     12  O   UNL     1      20.316  13.361 -11.125  1.00  0.00    -0.493 OA
ATOM     13  C   UNL     1      20.038  14.710 -10.765  1.00  0.00     0.278 C 
ENDBRANCH   1  12
BRANCH   2  14
ATOM     14  O   UNL     1      22.820  12.205 -11.125  1.00  0.00    -0.504 OA
ATOM     15  H   UNL     1      22.690  13.065 -11.645  1.00  0.00     0.293 HD
ENDBRANCH   2  14
TORSDOF 2
ENDMDL
MODEL 5
REMARK VINA RESULT:    -2.558     11.530     14.403
REMARK INTER + INTRA:          -2.844
REMARK INTER:                  -2.787
REMARK INTRA:                  -0.057
REMARK UNBOUND:                -0.061
REMARK SMILES COc1cc2ccc(=O)oc2cc1O
REMARK SMILES IDX 3 1 13 2 12 3 11 4 5 5 4 6 6 7 7 8 8 9 9 10 10 11 2 12 1 13
REMARK SMILES IDX 14 14
REMARK H PARENT 14 15
REMARK Flexibility Score: inf
ROOT
ATOM      1  C   UNL     1      19.486  15.558  -9.699  1.00  0.00     0.161 A 
ATOM      2  C   UNL     1      18.486  15.824 -10.648  1.00  0.00     0.161 A 
ATOM      3  C   UNL     1      17.661  14.790 -11.113  1.00  0.00     0.098 A 
ATOM      4  C   UNL     1      17.826  13.487 -10.638  1.00  0.00     0.142 A 
ATOM      5  C   UNL     1      18.829  13.212  -9.684  1.00  0.00     0.022 A 
ATOM      6  C   UNL     1      19.654  14.245  -9.218  1.00  0.00     0.062 A 
ATOM      7  C   UNL     1      18.971  11.898  -9.227  1.00  0.00     0.019 A 
ATOM      8  C   UNL     1      18.125  10.906  -9.722  1.00  0.00     0.094 A 
ATOM      9  C   UNL     1      17.153  11.253 -10.666  1.00  0.00     0.336 A 
ATOM     10  O   UNL     1      16.380  10.372 -11.125  1.00  0.00    -0.246 OA
ATOM     11  O   UNL     1      17.040  12.511 -11.085  1.00  0.00    -0.423 OA
ENDROOT
BRANCH   1  12
ATOM     12  O   UNL     1      20.289  16.624  -9.260  1.00  0.00    -0.493 OA
ATOM     13  C   UNL     1      21.713  16.621  -9.279  1.00  0.00     0.278 C 
ENDBRANCH   1  12
BRANCH   2  14
ATOM     14  O   UNL     1      18.319  17.123 -11.124  1.00  0.00    -0.504 OA
ATOM     15  H   UNL     1      17.408  17.474 -11.398  1.00  0.00     0.293 HD
ENDBRANCH   2  14
TORSDOF 2
ENDMDL
MODEL 6
REMARK VINA RESULT:    -2.532     10.041     13.295
REMARK INTER + INTRA:          -2.816
REMARK INTER:                  -2.898
REMARK INTRA:                   0.082
REMARK UNBOUND:                -0.061
REMARK SMILES COc1cc2ccc(=O)oc2cc1O
REMARK SMILES IDX 3 1 13 2 12 3 11 4 5 5 4 6 6 7 7 8 8 9 9 10 10 11 2 12 1 13
REMARK SMILES IDX 14 14
REMARK H PARENT 14 15
REMARK Flexibility Score: inf
ROOT
ATOM      1  C   UNL     1      20.284  10.357  -8.840  1.00  0.00     0.161 A 
ATOM      2  C   UNL     1      18.940  10.589  -8.504  1.00  0.00     0.161 A 
ATOM      3  C   UNL     1      18.303  11.770  -8.913  1.00  0.00     0.098 A 
ATOM      4  C   UNL     1      18.999  12.725  -9.657  1.00  0.00     0.142 A 
ATOM      5  C   UNL     1      20.348  12.500  -9.998  1.00  0.00     0.022 A 
ATOM      6  C   UNL     1      20.987  11.320  -9.591  1.00  0.00     0.062 A 
ATOM      7  C   UNL     1      21.019  13.475 -10.744  1.00  0.00     0.019 A 
ATOM      8  C   UNL     1      20.341  14.632 -11.125  1.00  0.00     0.094 A 
ATOM      9  C   UNL     1      19.002  14.787 -10.750  1.00  0.00     0.336 A 
ATOM     10  O   UNL     1      18.372  15.825 -11.084  1.00  0.00    -0.246 OA
ATOM     11  O   UNL     1      18.388  13.844 -10.040  1.00  0.00    -0.423 OA
ENDROOT
BRANCH   1  12
ATOM     12  O   UNL     1      20.882   9.161  -8.411  1.00  0.00    -0.493 OA
ATOM     13  C   UNL     1      21.284   8.896  -7.071  1.00  0.00     0.278 C 
ENDBRANCH   1  12
BRANCH   2  14
ATOM     14  O   UNL     1      18.244   9.637  -7.762  1.00  0.00    -0.504 OA
ATOM     15  H   UNL     1      18.602   9.287  -6.881  1.00  0.00     0.293 HD
ENDBRANCH   2  14
TORSDOF 2
ENDMDL
MODEL 7
REMARK VINA RESULT:    -2.236      9.504     11.369
REMARK INTER + INTRA:          -2.493
REMARK INTER:                  -2.429
REMARK INTRA:                  -0.064
REMARK UNBOUND:                -0.061
REMARK SMILES COc1cc2ccc(=O)oc2cc1O
REMARK SMILES IDX 3 1 13 2 12 3 11 4 5 5 4 6 6 7 7 8 8 9 9 10 10 11 2 12 1 13
REMARK SMILES IDX 14 14
REMARK H PARENT 14 15
REMARK Flexibility Score: inf
ROOT
ATOM      1  C   UNL     1      20.157  12.387 -10.106  1.00  0.00     0.161 A 
ATOM      2  C   UNL     1      18.938  12.295  -9.413  1.00  0.00     0.161 A 
ATOM      3  C   UNL     1      18.778  11.351  -8.388  1.00  0.00     0.098 A 
ATOM      4  C   UNL     1      19.827  10.495  -8.048  1.00  0.00     0.142 A 
ATOM      5  C   UNL     1      21.054  10.581  -8.739  1.00  0.00     0.022 A 
ATOM      6  C   UNL     1      21.216  11.524  -9.764  1.00  0.00     0.062 A 
ATOM      7  C   UNL     1      22.086   9.710  -8.376  1.00  0.00     0.019 A 
ATOM      8  C   UNL     1      21.876   8.789  -7.350  1.00  0.00     0.094 A 
ATOM      9  C   UNL     1      20.632   8.761  -6.709  1.00  0.00     0.336 A 
ATOM     10  O   UNL     1      20.423   7.937  -5.781  1.00  0.00    -0.246 OA
ATOM     11  O   UNL     1      19.668   9.601  -7.075  1.00  0.00    -0.423 OA
ENDROOT
BRANCH   1  12
ATOM     12  O   UNL     1      20.273  13.347 -11.125  1.00  0.00    -0.493 OA
ATOM     13  C   UNL     1      20.909  14.612 -10.971  1.00  0.00     0.278 C 
ENDBRANCH   1  12
BRANCH   2  14
ATOM     14  O   UNL     1      17.890  13.148  -9.751  1.00  0.00    -0.504 OA
ATOM     15  H   UNL     1      18.016  14.153  -9.791  1.00  0.00     0.293 HD
ENDBRANCH   2  14
TORSDOF 2
ENDMDL
MODEL 8
REMARK VINA RESULT:    -2.236     13.265     14.794
REMARK INTER + INTRA:          -2.493
REMARK INTER:                  -2.448
REMARK INTRA:                  -0.045
REMARK UNBOUND:                -0.061
REMARK SMILES COc1cc2ccc(=O)oc2cc1O
REMARK SMILES IDX 3 1 13 2 12 3 11 4 5 5 4 6 6 7 7 8 8 9 9 10 10 11 2 12 1 13
REMARK SMILES IDX 14 14
REMARK H PARENT 14 15
REMARK Flexibility Score: inf
ROOT
ATOM      1  C   UNL     1      17.096  14.807 -11.096  1.00  0.00     0.161 A 
ATOM      2  C   UNL     1      17.168  13.404 -11.096  1.00  0.00     0.161 A 
ATOM      3  C   UNL     1      18.414  12.761 -11.067  1.00  0.00     0.098 A 
ATOM      4  C   UNL     1      19.593  13.509 -11.039  1.00  0.00     0.142 A 
ATOM      5  C   UNL     1      19.529  14.917 -11.038  1.00  0.00     0.022 A 
ATOM      6  C   UNL     1      18.285  15.562 -11.067  1.00  0.00     0.062 A 
ATOM      7  C   UNL     1      20.727  15.639 -11.010  1.00  0.00     0.019 A 
ATOM      8  C   UNL     1      21.940  14.951 -10.982  1.00  0.00     0.094 A 
ATOM      9  C   UNL     1      21.925  13.552 -10.984  1.00  0.00     0.336 A 
ATOM     10  O   UNL     1      23.010  12.913 -10.959  1.00  0.00    -0.246 OA
ATOM     11  O   UNL     1      20.772  12.891 -11.012  1.00  0.00    -0.423 OA
ENDROOT
BRANCH   1  12
ATOM     12  O   UNL     1      15.828  15.410 -11.125  1.00  0.00    -0.493 OA
ATOM     13  C   UNL     1      15.590  16.799 -10.922  1.00  0.00     0.278 C 
ENDBRANCH   1  12
BRANCH   2  14
ATOM     14  O   UNL     1      15.993  12.656 -11.125  1.00  0.00    -0.504 OA
ATOM     15  H   UNL     1      15.266  12.837 -11.808  1.00  0.00     0.293 HD
ENDBRANCH   2  14
TORSDOF 2
ENDMDL
MODEL 9
REMARK VINA RESULT:    -2.097      9.376     12.084
REMARK INTER + INTRA:          -2.342
REMARK INTER:                  -2.277
REMARK INTRA:                  -0.065
REMARK UNBOUND:                -0.061
REMARK SMILES COc1cc2ccc(=O)oc2cc1O
REMARK SMILES IDX 3 1 13 2 12 3 11 4 5 5 4 6 6 7 7 8 8 9 9 10 10 11 2 12 1 13
REMARK SMILES IDX 14 14
REMARK H PARENT 14 15
REMARK Flexibility Score: inf
ROOT
ATOM      1  C   UNL     1      20.805   9.277  -7.730  1.00  0.00     0.161 A 
ATOM      2  C   UNL     1      21.983   9.629  -8.410  1.00  0.00     0.161 A 
ATOM      3  C   UNL     1      22.009  10.761  -9.238  1.00  0.00     0.098 A 
ATOM      4  C   UNL     1      20.865  11.547  -9.394  1.00  0.00     0.142 A 
ATOM      5  C   UNL     1      19.679  11.200  -8.715  1.00  0.00     0.022 A 
ATOM      6  C   UNL     1      19.651  10.070  -7.886  1.00  0.00     0.062 A 
ATOM      7  C   UNL     1      18.550  12.006  -8.890  1.00  0.00     0.019 A 
ATOM      8  C   UNL     1      18.628  13.121  -9.725  1.00  0.00     0.094 A 
ATOM      9  C   UNL     1      19.839  13.403 -10.367  1.00  0.00     0.336 A 
ATOM     10  O   UNL     1      19.929  14.404 -11.125  1.00  0.00    -0.246 OA
ATOM     11  O   UNL     1      20.897  12.619 -10.183  1.00  0.00    -0.423 OA
ENDROOT
BRANCH   1  12
ATOM     12  O   UNL     1      20.824   8.136  -6.911  1.00  0.00    -0.493 OA
ATOM     13  C   UNL     1      20.865   8.167  -5.488  1.00  0.00     0.278 C 
ENDBRANCH   1  12
BRANCH   2  14
ATOM     14  O   UNL     1      23.125   8.846  -8.257  1.00  0.00    -0.504 OA
ATOM     15  H   UNL     1      23.093   7.837  -8.352  1.00  0.00     0.293 HD
ENDBRANCH   2  14
TORSDOF 2
ENDMDL
