MODEL 1
REMARK VINA RESULT:    52.773      0.000      0.000
REMARK INTER + INTRA:          79.596
REMARK INTER:                  75.912
REMARK INTRA:                   3.685
REMARK UNBOUND:                 3.685
REMARK SMILES O=c1cc(-c2ccc(O)c(O)c2)oc2cc(O[C@H]3O[C@@H](CO)[C@H](O)[C@@H](O)[C@H]3O)cc(O)c12
REMARK SMILES IDX 17 1 16 2 4 3 3 4 13 5 2 6 14 7 1 8 32 9 15 10 30 11 29 12
REMARK SMILES IDX 5 13 6 14 7 15 8 16 12 17 10 18 9 19 11 21 31 23 18 25 27 26
REMARK SMILES IDX 19 27 25 28 20 29 23 30 28 31 26 33 21 35 22 36 24 38
REMARK H PARENT 9 20 11 22 31 24 28 32 26 34 22 37 24 39
REMARK Flexibility Score: inf
ROOT
ATOM      1  O   UNL     1       8.843   8.313  31.194  1.00  0.00    -0.462 OA
ENDROOT
BRANCH   1   2
ATOM      2  C   UNL     1       9.726   9.405  31.216  1.00  0.00     0.130 A 
ATOM      3  C   UNL     1      11.542  13.085  28.787  1.00  0.00     0.138 A 
ATOM      4  C   UNL     1      12.332  13.495  29.874  1.00  0.00     0.100 A 
ATOM      5  O   UNL     1      10.757  12.018  28.913  1.00  0.00    -0.456 OA
ATOM      6  C   UNL     1      12.289  12.768  31.065  1.00  0.00     0.197 A 
ATOM      7  C   UNL     1      10.683  11.294  30.026  1.00  0.00     0.146 A 
ATOM      8  O   UNL     1      13.001  13.144  32.035  1.00  0.00    -0.289 OA
ATOM      9  C   UNL     1      11.455  11.638  31.161  1.00  0.00     0.107 A 
ATOM     10  C   UNL     1       9.831  10.188  30.063  1.00  0.00     0.094 A 
ATOM     11  C   UNL     1      11.352  10.847  32.329  1.00  0.00     0.134 A 
ATOM     12  C   UNL     1      10.492   9.739  32.347  1.00  0.00     0.093 A 
BRANCH   3  13
ATOM     13  C   UNL     1      11.545  13.820  27.496  1.00  0.00     0.021 A 
ATOM     14  C   UNL     1      12.659  14.599  27.148  1.00  0.00     0.016 A 
ATOM     15  C   UNL     1      12.683  15.304  25.944  1.00  0.00     0.051 A 
ATOM     16  C   UNL     1      11.595  15.257  25.066  1.00  0.00     0.157 A 
ATOM     17  C   UNL     1      10.443  13.784  26.621  1.00  0.00     0.062 A 
ATOM     18  C   UNL     1      10.457  14.491  25.412  1.00  0.00     0.158 A 
BRANCH  16  19
ATOM     19  O   UNL     1      11.686  15.980  23.875  1.00  0.00    -0.504 OA
ATOM     20  H   UNL     1      11.357  16.929  23.764  1.00  0.00     0.293 HD
ENDBRANCH  16  19
BRANCH  18  21
ATOM     21  O   UNL     1       9.328  14.409  24.595  1.00  0.00    -0.504 OA
ATOM     22  H   UNL     1       9.058  13.580  24.086  1.00  0.00     0.293 HD
ENDBRANCH  18  21
ENDBRANCH   3  13
BRANCH  11  23
ATOM     23  O   UNL     1      12.098  11.152  33.468  1.00  0.00    -0.507 OA
ATOM     24  H   UNL     1      12.025  12.053  33.928  1.00  0.00     0.293 HD
ENDBRANCH  11  23
ENDBRANCH   1   2
BRANCH   1  25
ATOM     25  C   UNL     1       7.422   8.406  31.079  1.00  0.00     0.339 C 
ATOM     26  C   UNL     1       6.920   9.779  31.562  1.00  0.00     0.214 C 
ATOM     27  O   UNL     1       6.767   7.325  31.732  1.00  0.00    -0.332 OA
ATOM     28  C   UNL     1       7.050   9.913  33.082  1.00  0.00     0.180 C 
ATOM     29  C   UNL     1       6.869   7.345  33.152  1.00  0.00     0.179 C 
ATOM     30  C   UNL     1       6.421   8.693  33.785  1.00  0.00     0.177 C 
BRANCH  26  31
ATOM     31  O   UNL     1       7.641  10.811  30.937  1.00  0.00    -0.384 OA
ATOM     32  H   UNL     1       7.670  11.570  31.576  1.00  0.00     0.211 HD
ENDBRANCH  26  31
BRANCH  28  33
ATOM     33  O   UNL     1       8.403  10.046  33.439  1.00  0.00    -0.387 OA
ATOM     34  H   UNL     1       8.512  10.957  33.820  1.00  0.00     0.211 HD
ENDBRANCH  28  33
BRANCH  29  35
ATOM     35  C   UNL     1       8.239   6.838  33.651  1.00  0.00     0.191 C 
BRANCH  35  36
ATOM     36  O   UNL     1       8.072   5.831  34.613  1.00  0.00    -0.394 OA
ATOM     37  H   UNL     1       7.454   5.157  34.227  1.00  0.00     0.210 HD
ENDBRANCH  35  36
ENDBRANCH  29  35
BRANCH  30  38
ATOM     38  O   UNL     1       5.018   8.801  33.788  1.00  0.00    -0.387 OA
ATOM     39  H   UNL     1       4.776   9.700  34.132  1.00  0.00     0.211 HD
ENDBRANCH  30  38
ENDBRANCH   1  25
TORSDOF 11
ENDMDL
MODEL 2
REMARK VINA RESULT:    53.736      1.736      8.702
REMARK INTER + INTRA:          80.981
REMARK INTER:                  81.276
REMARK INTRA:                  -0.295
REMARK UNBOUND:                 3.685
REMARK SMILES O=c1cc(-c2ccc(O)c(O)c2)oc2cc(O[C@H]3O[C@@H](CO)[C@H](O)[C@@H](O)[C@H]3O)cc(O)c12
REMARK SMILES IDX 17 1 16 2 4 3 3 4 13 5 2 6 14 7 1 8 32 9 15 10 30 11 29 12
REMARK SMILES IDX 5 13 6 14 7 15 8 16 12 17 10 18 9 19 11 21 31 23 18 25 27 26
REMARK SMILES IDX 19 27 25 28 20 29 23 30 28 31 26 33 21 35 22 36 24 38
REMARK H PARENT 9 20 11 22 31 24 28 32 26 34 22 37 24 39
REMARK Flexibility Score: inf
ROOT
ATOM      1  O   UNL     1      11.242  13.048  27.606  1.00  0.00    -0.462 OA
ENDROOT
BRANCH   1   2
ATOM      2  C   UNL     1      11.095  12.503  28.891  1.00  0.00     0.130 A 
ATOM      3  C   UNL     1       8.558   9.604  31.702  1.00  0.00     0.138 A 
ATOM      4  C   UNL     1       9.394   9.839  32.807  1.00  0.00     0.100 A 
ATOM      5  O   UNL     1       8.820  10.203  30.544  1.00  0.00    -0.456 OA
ATOM      6  C   UNL     1      10.478  10.708  32.673  1.00  0.00     0.197 A 
ATOM      7  C   UNL     1       9.839  11.038  30.368  1.00  0.00     0.146 A 
ATOM      8  O   UNL     1      11.223  10.912  33.670  1.00  0.00    -0.289 OA
ATOM      9  C   UNL     1      10.720  11.333  31.435  1.00  0.00     0.107 A 
ATOM     10  C   UNL     1      10.033  11.622  29.114  1.00  0.00     0.094 A 
ATOM     11  C   UNL     1      11.795  12.226  31.214  1.00  0.00     0.134 A 
ATOM     12  C   UNL     1      11.972  12.803  29.949  1.00  0.00     0.093 A 
BRANCH   3  13
ATOM     13  C   UNL     1       7.392   8.688  31.784  1.00  0.00     0.021 A 
ATOM     14  C   UNL     1       6.515   8.783  32.876  1.00  0.00     0.016 A 
ATOM     15  C   UNL     1       5.416   7.930  32.980  1.00  0.00     0.051 A 
ATOM     16  C   UNL     1       5.170   6.958  32.004  1.00  0.00     0.157 A 
ATOM     17  C   UNL     1       7.154   7.701  30.810  1.00  0.00     0.062 A 
ATOM     18  C   UNL     1       6.055   6.838  30.907  1.00  0.00     0.158 A 
BRANCH  16  19
ATOM     19  O   UNL     1       4.050   6.141  32.164  1.00  0.00    -0.504 OA
ATOM     20  H   UNL     1       4.022   5.164  31.910  1.00  0.00     0.293 HD
ENDBRANCH  16  19
BRANCH  18  21
ATOM     21  O   UNL     1       5.885   5.883  29.903  1.00  0.00    -0.504 OA
ATOM     22  H   UNL     1       6.079   6.049  28.926  1.00  0.00     0.293 HD
ENDBRANCH  18  21
ENDBRANCH   3  13
BRANCH  11  23
ATOM     23  O   UNL     1      12.684  12.543  32.241  1.00  0.00    -0.507 OA
ATOM     24  H   UNL     1      12.458  12.375  33.215  1.00  0.00     0.293 HD
ENDBRANCH  11  23
ENDBRANCH   1   2
BRANCH   1  25
ATOM     25  C   UNL     1      11.147  14.437  27.285  1.00  0.00     0.339 C 
ATOM     26  C   UNL     1      10.982  14.641  25.767  1.00  0.00     0.214 C 
ATOM     27  O   UNL     1      12.237  15.179  27.819  1.00  0.00    -0.332 OA
ATOM     28  C   UNL     1      12.276  14.307  25.020  1.00  0.00     0.180 C 
ATOM     29  C   UNL     1      13.494  14.903  27.209  1.00  0.00     0.179 C 
ATOM     30  C   UNL     1      13.472  15.039  25.660  1.00  0.00     0.177 C 
BRANCH  26  31
ATOM     31  O   UNL     1       9.937  13.838  25.278  1.00  0.00    -0.384 OA
ATOM     32  H   UNL     1      10.297  12.917  25.190  1.00  0.00     0.211 HD
ENDBRANCH  26  31
BRANCH  28  33
ATOM     33  O   UNL     1      12.488  12.917  25.024  1.00  0.00    -0.387 OA
ATOM     34  H   UNL     1      11.922  12.541  25.748  1.00  0.00     0.211 HD
ENDBRANCH  28  33
BRANCH  29  35
ATOM     35  C   UNL     1      14.119  13.586  27.717  1.00  0.00     0.191 C 
BRANCH  35  36
ATOM     36  O   UNL     1      14.978  13.833  28.799  1.00  0.00    -0.394 OA
ATOM     37  H   UNL     1      15.905  13.695  28.474  1.00  0.00     0.210 HD
ENDBRANCH  35  36
ENDBRANCH  29  35
BRANCH  30  38
ATOM     38  O   UNL     1      13.475  16.394  25.278  1.00  0.00    -0.387 OA
ATOM     39  H   UNL     1      14.115  16.504  24.528  1.00  0.00     0.211 HD
ENDBRANCH  30  38
ENDBRANCH   1  25
TORSDOF 11
ENDMDL
MODEL 3
REMARK VINA RESULT:    54.067      1.112      1.972
REMARK INTER + INTRA:          81.458
REMARK INTER:                  82.341
REMARK INTRA:                  -0.883
REMARK UNBOUND:                 3.685
REMARK SMILES O=c1cc(-c2ccc(O)c(O)c2)oc2cc(O[C@H]3O[C@@H](CO)[C@H](O)[C@@H](O)[C@H]3O)cc(O)c12
REMARK SMILES IDX 17 1 16 2 4 3 3 4 13 5 2 6 14 7 1 8 32 9 15 10 30 11 29 12
REMARK SMILES IDX 5 13 6 14 7 15 8 16 12 17 10 18 9 19 11 21 31 23 18 25 27 26
REMARK SMILES IDX 19 27 25 28 20 29 23 30 28 31 26 33 21 35 22 36 24 38
REMARK H PARENT 9 20 11 22 31 24 28 32 26 34 22 37 24 39
REMARK Flexibility Score: inf
ROOT
ATOM      1  O   UNL     1       7.896   9.030  31.426  1.00  0.00    -0.462 OA
ENDROOT
BRANCH   1   2
ATOM      2  C   UNL     1       9.016   9.874  31.356  1.00  0.00     0.130 A 
ATOM      3  C   UNL     1      11.421  13.066  28.755  1.00  0.00     0.138 A 
ATOM      4  C   UNL     1      12.392  13.243  29.754  1.00  0.00     0.100 A 
ATOM      5  O   UNL     1      10.416  12.218  28.961  1.00  0.00    -0.456 OA
ATOM      6  C   UNL     1      12.294  12.517  30.942  1.00  0.00     0.197 A 
ATOM      7  C   UNL     1      10.280  11.505  30.075  1.00  0.00     0.146 A 
ATOM      8  O   UNL     1      13.170  12.684  31.833  1.00  0.00    -0.289 OA
ATOM      9  C   UNL     1      11.223  11.621  31.124  1.00  0.00     0.107 A 
ATOM     10  C   UNL     1       9.192  10.638  30.200  1.00  0.00     0.094 A 
ATOM     11  C   UNL     1      11.049  10.848  32.295  1.00  0.00     0.134 A 
ATOM     12  C   UNL     1       9.951   9.982  32.401  1.00  0.00     0.093 A 
BRANCH   3  13
ATOM     13  C   UNL     1      11.472  13.812  27.471  1.00  0.00     0.021 A 
ATOM     14  C   UNL     1      12.603  14.585  27.168  1.00  0.00     0.016 A 
ATOM     15  C   UNL     1      12.673  15.301  25.972  1.00  0.00     0.051 A 
ATOM     16  C   UNL     1      11.615  15.269  25.057  1.00  0.00     0.157 A 
ATOM     17  C   UNL     1      10.401  13.791  26.559  1.00  0.00     0.062 A 
ATOM     18  C   UNL     1      10.461  14.509  25.357  1.00  0.00     0.158 A 
BRANCH  16  19
ATOM     19  O   UNL     1      11.751  16.002  23.876  1.00  0.00    -0.504 OA
ATOM     20  H   UNL     1      12.415  16.754  23.751  1.00  0.00     0.293 HD
ENDBRANCH  16  19
BRANCH  18  21
ATOM     21  O   UNL     1       9.360  14.442  24.502  1.00  0.00    -0.504 OA
ATOM     22  H   UNL     1       9.161  15.122  23.782  1.00  0.00     0.293 HD
ENDBRANCH  18  21
ENDBRANCH   3  13
BRANCH  11  23
ATOM     23  O   UNL     1      11.957  10.934  33.351  1.00  0.00    -0.507 OA
ATOM     24  H   UNL     1      11.665  11.190  34.287  1.00  0.00     0.293 HD
ENDBRANCH  11  23
ENDBRANCH   1   2
BRANCH   1  25
ATOM     25  C   UNL     1       7.927   7.649  31.796  1.00  0.00     0.339 C 
ATOM     26  C   UNL     1       7.132   6.793  30.793  1.00  0.00     0.214 C 
ATOM     27  O   UNL     1       7.502   7.453  33.139  1.00  0.00    -0.332 OA
ATOM     28  C   UNL     1       5.627   7.045  30.922  1.00  0.00     0.180 C 
ATOM     29  C   UNL     1       6.119   7.704  33.363  1.00  0.00     0.179 C 
ATOM     30  C   UNL     1       5.184   6.924  32.394  1.00  0.00     0.177 C 
BRANCH  26  31
ATOM     31  O   UNL     1       7.544   7.072  29.479  1.00  0.00    -0.384 OA
ATOM     32  H   UNL     1       6.912   7.747  29.116  1.00  0.00     0.211 HD
ENDBRANCH  26  31
BRANCH  28  33
ATOM     33  O   UNL     1       5.307   8.316  30.413  1.00  0.00    -0.387 OA
ATOM     34  H   UNL     1       5.961   8.955  30.801  1.00  0.00     0.211 HD
ENDBRANCH  28  33
BRANCH  29  35
ATOM     35  C   UNL     1       5.802   9.211  33.465  1.00  0.00     0.191 C 
BRANCH  35  36
ATOM     36  O   UNL     1       4.845   9.447  34.464  1.00  0.00    -0.394 OA
ATOM     37  H   UNL     1       3.957   9.239  34.072  1.00  0.00     0.210 HD
ENDBRANCH  35  36
ENDBRANCH  29  35
BRANCH  30  38
ATOM     38  O   UNL     1       5.098   5.569  32.767  1.00  0.00    -0.387 OA
ATOM     39  H   UNL     1       5.075   5.020  31.941  1.00  0.00     0.211 HD
ENDBRANCH  30  38
ENDBRANCH   1  25
TORSDOF 11
ENDMDL
