MODEL 1
REMARK VINA RESULT:    -0.178      0.000      0.000
REMARK INTER + INTRA:          -0.475
REMARK INTER:                  -0.193
REMARK INTRA:                  -0.282
REMARK UNBOUND:                -0.282
REMARK SMILES CC1(C)CC[C@]2(C(=O)[O-])CC[C@]3(C)C(=CC[C@@H]4[C@]5(C)CC[C@@H](O)C(C)(C)[C@@H]5CC[C@@]43C)[C@@H]2C1
REMARK SMILES IDX 6 1 5 2 10 3 32 4 4 5 11 6 14 7 33 8 2 9 12 10 15 11 1 12
REMARK SMILES IDX 3 13 13 14 30 15 16 16 17 17 29 18 31 19 18 20 28 21 27 22
REMARK SMILES IDX 20 23 19 24 24 25 21 26 22 27 25 28 26 29 7 30 8 31 9 32
REMARK SMILES IDX 23 33
REMARK H PARENT 23 34
REMARK Flexibility Score: inf
ROOT
ATOM      1  C   UNL     1      24.785  25.859  47.691  1.00  0.00     0.017 C 
ATOM      2  C   UNL     1      23.436  25.882  46.911  1.00  0.00     0.014 C 
ATOM      3  C   UNL     1      25.885  25.086  46.876  1.00  0.00     0.014 C 
ATOM      4  C   UNL     1      24.571  25.244  49.109  1.00  0.00     0.028 C 
ATOM      5  C   UNL     1      22.680  24.546  46.925  1.00  0.00     0.007 C 
ATOM      6  C   UNL     1      26.706  24.007  47.626  1.00  0.00     0.013 C 
ATOM      7  C   UNL     1      25.911  25.039  49.809  1.00  0.00    -0.064 C 
ATOM      8  C   UNL     1      23.746  23.932  49.125  1.00  0.00     0.015 C 
ATOM      9  C   UNL     1      22.408  24.023  48.354  1.00  0.00    -0.035 C 
ATOM     10  C   UNL     1      27.052  24.251  49.150  1.00  0.00    -0.006 C 
ATOM     11  C   UNL     1      26.093  25.570  51.029  1.00  0.00    -0.027 C 
ATOM     12  C   UNL     1      21.392  24.923  49.100  1.00  0.00     0.011 C 
ATOM     13  C   UNL     1      21.797  22.608  48.251  1.00  0.00     0.011 C 
ATOM     14  C   UNL     1      27.096  22.831  49.803  1.00  0.00     0.017 C 
ATOM     15  C   UNL     1      28.459  25.020  49.390  1.00  0.00    -0.020 C 
ATOM     16  C   UNL     1      27.354  25.333  51.787  1.00  0.00     0.032 C 
ATOM     17  C   UNL     1      28.630  25.521  50.905  1.00  0.00     0.006 C 
ATOM     18  C   UNL     1      28.547  26.237  48.454  1.00  0.00     0.008 C 
ATOM     19  C   UNL     1      29.652  24.072  49.023  1.00  0.00     0.012 C 
ATOM     20  C   UNL     1      29.340  26.939  51.167  1.00  0.00    -0.025 C 
ATOM     21  C   UNL     1      29.803  27.095  48.606  1.00  0.00     0.005 C 
ATOM     22  C   UNL     1      30.400  27.263  50.043  1.00  0.00     0.003 C 
ATOM     23  C   UNL     1      28.326  28.134  51.226  1.00  0.00     0.010 C 
ATOM     24  C   UNL     1      30.038  26.794  52.566  1.00  0.00     0.012 C 
ATOM     25  C   UNL     1      31.121  28.680  50.176  1.00  0.00    -0.006 C 
ATOM     26  C   UNL     1      28.987  29.520  51.369  1.00  0.00     0.033 C 
ATOM     27  C   UNL     1      30.049  29.814  50.297  1.00  0.00     0.120 C 
ATOM     28  C   UNL     1      32.008  28.953  48.919  1.00  0.00     0.014 C 
ATOM     29  C   UNL     1      32.110  28.728  51.377  1.00  0.00     0.014 C 
ENDROOT
BRANCH   1  30
ATOM     30  C   UNL     1      25.207  27.325  47.814  1.00  0.00     0.048 C 
ATOM     31  O   UNL     1      25.930  27.850  46.926  1.00  0.00    -0.550 OA
ATOM     32  O   UNL     1      24.758  28.124  48.860  1.00  0.00    -0.550 OA
ENDBRANCH   1  30
BRANCH  27  33
ATOM     33  O   UNL     1      30.657  31.044  50.601  1.00  0.00    -0.393 OA
ATOM     34  H   UNL     1      31.332  30.875  51.308  1.00  0.00     0.210 HD
ENDBRANCH  27  33
TORSDOF 2
ENDMDL
MODEL 2
REMARK VINA RESULT:    -0.177      2.422      7.082
REMARK INTER + INTRA:          -0.475
REMARK INTER:                  -0.193
REMARK INTRA:                  -0.282
REMARK UNBOUND:                -0.282
REMARK SMILES CC1(C)CC[C@]2(C(=O)[O-])CC[C@]3(C)C(=CC[C@@H]4[C@]5(C)CC[C@@H](O)C(C)(C)[C@@H]5CC[C@@]43C)[C@@H]2C1
REMARK SMILES IDX 6 1 5 2 10 3 32 4 4 5 11 6 14 7 33 8 2 9 12 10 15 11 1 12
REMARK SMILES IDX 3 13 13 14 30 15 16 16 17 17 29 18 31 19 18 20 28 21 27 22
REMARK SMILES IDX 20 23 19 24 24 25 21 26 22 27 25 28 26 29 7 30 8 31 9 32
REMARK SMILES IDX 23 33
REMARK H PARENT 23 34
REMARK Flexibility Score: inf
ROOT
ATOM      1  C   UNL     1      28.030  25.864  51.892  1.00  0.00     0.017 C 
ATOM      2  C   UNL     1      29.332  26.277  52.642  1.00  0.00     0.014 C 
ATOM      3  C   UNL     1      26.914  25.433  52.912  1.00  0.00     0.014 C 
ATOM      4  C   UNL     1      28.344  24.734  50.861  1.00  0.00     0.028 C 
ATOM      5  C   UNL     1      30.133  25.097  53.207  1.00  0.00     0.007 C 
ATOM      6  C   UNL     1      26.173  24.098  52.643  1.00  0.00     0.013 C 
ATOM      7  C   UNL     1      27.053  24.188  50.259  1.00  0.00    -0.064 C 
ATOM      8  C   UNL     1      29.214  23.579  51.417  1.00  0.00     0.015 C 
ATOM      9  C   UNL     1      30.502  24.050  52.130  1.00  0.00    -0.035 C 
ATOM     10  C   UNL     1      25.905  23.678  51.142  1.00  0.00    -0.006 C 
ATOM     11  C   UNL     1      26.921  24.162  48.923  1.00  0.00    -0.027 C 
ATOM     12  C   UNL     1      31.527  24.620  51.118  1.00  0.00     0.011 C 
ATOM     13  C   UNL     1      31.156  22.837  52.828  1.00  0.00     0.011 C 
ATOM     14  C   UNL     1      25.947  22.115  51.129  1.00  0.00     0.017 C 
ATOM     15  C   UNL     1      24.488  24.203  50.555  1.00  0.00    -0.020 C 
ATOM     16  C   UNL     1      25.713  23.568  48.284  1.00  0.00     0.032 C 
ATOM     17  C   UNL     1      24.385  24.030  48.963  1.00  0.00     0.006 C 
ATOM     18  C   UNL     1      24.305  25.690  50.903  1.00  0.00     0.008 C 
ATOM     19  C   UNL     1      23.309  23.425  51.236  1.00  0.00     0.012 C 
ATOM     20  C   UNL     1      23.641  25.175  48.115  1.00  0.00    -0.025 C 
ATOM     21  C   UNL     1      23.031  26.340  50.366  1.00  0.00     0.005 C 
ATOM     22  C   UNL     1      22.509  25.872  48.967  1.00  0.00     0.003 C 
ATOM     23  C   UNL     1      24.615  26.295  47.607  1.00  0.00     0.010 C 
ATOM     24  C   UNL     1      23.028  24.432  46.875  1.00  0.00     0.012 C 
ATOM     25  C   UNL     1      21.748  27.069  48.236  1.00  0.00    -0.006 C 
ATOM     26  C   UNL     1      23.914  27.462  46.881  1.00  0.00     0.033 C 
ATOM     27  C   UNL     1      22.785  28.111  47.698  1.00  0.00     0.120 C 
ATOM     28  C   UNL     1      20.784  27.783  49.235  1.00  0.00     0.014 C 
ATOM     29  C   UNL     1      20.826  26.567  47.086  1.00  0.00     0.014 C 
ENDROOT
BRANCH   1  30
ATOM     30  C   UNL     1      27.564  27.125  51.161  1.00  0.00     0.048 C 
ATOM     31  O   UNL     1      26.787  27.935  51.733  1.00  0.00    -0.550 OA
ATOM     32  O   UNL     1      28.030  27.440  49.888  1.00  0.00    -0.550 OA
ENDBRANCH   1  30
BRANCH  27  33
ATOM     33  O   UNL     1      22.152  29.074  46.893  1.00  0.00    -0.393 OA
ATOM     34  H   UNL     1      22.679  29.912  46.963  1.00  0.00     0.210 HD
ENDBRANCH  27  33
TORSDOF 2
ENDMDL
MODEL 3
REMARK VINA RESULT:    -0.175      2.469      7.906
REMARK INTER + INTRA:          -0.473
REMARK INTER:                  -0.191
REMARK INTRA:                  -0.281
REMARK UNBOUND:                -0.282
REMARK SMILES CC1(C)CC[C@]2(C(=O)[O-])CC[C@]3(C)C(=CC[C@@H]4[C@]5(C)CC[C@@H](O)C(C)(C)[C@@H]5CC[C@@]43C)[C@@H]2C1
REMARK SMILES IDX 6 1 5 2 10 3 32 4 4 5 11 6 14 7 33 8 2 9 12 10 15 11 1 12
REMARK SMILES IDX 3 13 13 14 30 15 16 16 17 17 29 18 31 19 18 20 28 21 27 22
REMARK SMILES IDX 20 23 19 24 24 25 21 26 22 27 25 28 26 29 7 30 8 31 9 32
REMARK SMILES IDX 23 33
REMARK H PARENT 23 34
REMARK Flexibility Score: inf
ROOT
ATOM      1  C   UNL     1      27.339  27.523  48.344  1.00  0.00     0.017 C 
ATOM      2  C   UNL     1      28.894  27.569  48.253  1.00  0.00     0.014 C 
ATOM      3  C   UNL     1      26.690  27.924  46.970  1.00  0.00     0.014 C 
ATOM      4  C   UNL     1      26.846  28.437  49.510  1.00  0.00     0.028 C 
ATOM      5  C   UNL     1      29.482  28.986  48.250  1.00  0.00     0.007 C 
ATOM      6  C   UNL     1      25.555  28.980  46.994  1.00  0.00     0.013 C 
ATOM      7  C   UNL     1      25.326  28.553  49.490  1.00  0.00    -0.064 C 
ATOM      8  C   UNL     1      27.497  29.844  49.545  1.00  0.00     0.015 C 
ATOM      9  C   UNL     1      29.041  29.823  49.473  1.00  0.00    -0.035 C 
ATOM     10  C   UNL     1      24.568  28.992  48.229  1.00  0.00    -0.006 C 
ATOM     11  C   UNL     1      24.638  28.255  50.604  1.00  0.00    -0.027 C 
ATOM     12  C   UNL     1      29.656  29.272  50.784  1.00  0.00     0.011 C 
ATOM     13  C   UNL     1      29.550  31.270  49.287  1.00  0.00     0.011 C 
ATOM     14  C   UNL     1      24.148  30.488  48.417  1.00  0.00     0.017 C 
ATOM     15  C   UNL     1      23.253  28.065  48.029  1.00  0.00    -0.020 C 
ATOM     16  C   UNL     1      23.159  28.427  50.661  1.00  0.00     0.032 C 
ATOM     17  C   UNL     1      22.439  27.857  49.397  1.00  0.00     0.006 C 
ATOM     18  C   UNL     1      23.672  26.688  47.489  1.00  0.00     0.008 C 
ATOM     19  C   UNL     1      22.306  28.709  46.959  1.00  0.00     0.012 C 
ATOM     20  C   UNL     1      21.771  26.423  49.680  1.00  0.00    -0.025 C 
ATOM     21  C   UNL     1      22.537  25.682  47.300  1.00  0.00     0.005 C 
ATOM     22  C   UNL     1      21.361  25.709  48.332  1.00  0.00     0.003 C 
ATOM     23  C   UNL     1      22.713  25.449  50.468  1.00  0.00     0.010 C 
ATOM     24  C   UNL     1      20.504  26.728  50.556  1.00  0.00     0.012 C 
ATOM     25  C   UNL     1      20.742  24.248  48.498  1.00  0.00    -0.006 C 
ATOM     26  C   UNL     1      22.140  24.030  50.661  1.00  0.00     0.033 C 
ATOM     27  C   UNL     1      21.704  23.355  49.350  1.00  0.00     0.120 C 
ATOM     28  C   UNL     1      20.543  23.585  47.098  1.00  0.00     0.014 C 
ATOM     29  C   UNL     1      19.318  24.279  49.127  1.00  0.00     0.014 C 
ENDROOT
BRANCH   1  30
ATOM     30  C   UNL     1      26.992  26.063  48.642  1.00  0.00     0.048 C 
ATOM     31  O   UNL     1      26.806  25.253  47.695  1.00  0.00    -0.550 OA
ATOM     32  O   UNL     1      26.938  25.581  49.946  1.00  0.00    -0.550 OA
ENDBRANCH   1  30
BRANCH  27  33
ATOM     33  O   UNL     1      21.096  22.127  49.665  1.00  0.00    -0.393 OA
ATOM     34  H   UNL     1      20.224  22.329  50.094  1.00  0.00     0.210 HD
ENDBRANCH  27  33
TORSDOF 2
ENDMDL
MODEL 4
REMARK VINA RESULT:    -0.170      2.490      3.861
REMARK INTER + INTRA:          -0.467
REMARK INTER:                  -0.185
REMARK INTRA:                  -0.282
REMARK UNBOUND:                -0.282
REMARK SMILES CC1(C)CC[C@]2(C(=O)[O-])CC[C@]3(C)C(=CC[C@@H]4[C@]5(C)CC[C@@H](O)C(C)(C)[C@@H]5CC[C@@]43C)[C@@H]2C1
REMARK SMILES IDX 6 1 5 2 10 3 32 4 4 5 11 6 14 7 33 8 2 9 12 10 15 11 1 12
REMARK SMILES IDX 3 13 13 14 30 15 16 16 17 17 29 18 31 19 18 20 28 21 27 22
REMARK SMILES IDX 20 23 19 24 24 25 21 26 22 27 25 28 26 29 7 30 8 31 9 32
REMARK SMILES IDX 23 33
REMARK H PARENT 23 34
REMARK Flexibility Score: inf
ROOT
ATOM      1  C   UNL     1      24.639  27.270  47.788  1.00  0.00     0.017 C 
ATOM      2  C   UNL     1      24.028  28.485  47.027  1.00  0.00     0.014 C 
ATOM      3  C   UNL     1      24.645  25.990  46.876  1.00  0.00     0.014 C 
ATOM      4  C   UNL     1      23.866  27.032  49.122  1.00  0.00     0.028 C 
ATOM      5  C   UNL     1      22.501  28.433  46.884  1.00  0.00     0.007 C 
ATOM      6  C   UNL     1      24.089  24.676  47.483  1.00  0.00     0.013 C 
ATOM      7  C   UNL     1      24.326  25.737  49.782  1.00  0.00    -0.064 C 
ATOM      8  C   UNL     1      22.322  27.052  48.985  1.00  0.00     0.015 C 
ATOM      9  C   UNL     1      21.774  28.291  48.241  1.00  0.00    -0.035 C 
ATOM     10  C   UNL     1      24.326  24.402  49.023  1.00  0.00    -0.006 C 
ATOM     11  C   UNL     1      24.750  25.772  51.056  1.00  0.00    -0.027 C 
ATOM     12  C   UNL     1      21.926  29.572  49.098  1.00  0.00     0.011 C 
ATOM     13  C   UNL     1      20.267  28.082  47.971  1.00  0.00     0.011 C 
ATOM     14  C   UNL     1      23.084  23.579  49.499  1.00  0.00     0.017 C 
ATOM     15  C   UNL     1      25.690  23.588  49.344  1.00  0.00    -0.020 C 
ATOM     16  C   UNL     1      25.136  24.523  51.770  1.00  0.00     0.032 C 
ATOM     17  C   UNL     1      26.052  23.597  50.907  1.00  0.00     0.006 C 
ATOM     18  C   UNL     1      26.858  24.212  48.563  1.00  0.00     0.008 C 
ATOM     19  C   UNL     1      25.552  22.105  48.855  1.00  0.00     0.012 C 
ATOM     20  C   UNL     1      27.598  23.712  51.335  1.00  0.00    -0.025 C 
ATOM     21  C   UNL     1      28.228  23.579  48.809  1.00  0.00     0.005 C 
ATOM     22  C   UNL     1      28.540  23.057  50.250  1.00  0.00     0.003 C 
ATOM     23  C   UNL     1      28.069  25.192  51.546  1.00  0.00     0.010 C 
ATOM     24  C   UNL     1      27.702  22.943  52.700  1.00  0.00     0.012 C 
ATOM     25  C   UNL     1      30.103  23.172  50.549  1.00  0.00    -0.006 C 
ATOM     26  C   UNL     1      29.574  25.340  51.852  1.00  0.00     0.033 C 
ATOM     27  C   UNL     1      30.486  24.665  50.816  1.00  0.00     0.120 C 
ATOM     28  C   UNL     1      30.924  22.647  49.329  1.00  0.00     0.014 C 
ATOM     29  C   UNL     1      30.543  22.270  51.740  1.00  0.00     0.014 C 
ENDROOT
BRANCH   1  30
ATOM     30  C   UNL     1      26.088  27.665  48.086  1.00  0.00     0.048 C 
ATOM     31  O   UNL     1      26.998  27.399  47.255  1.00  0.00    -0.550 OA
ATOM     32  O   UNL     1      26.425  28.376  49.233  1.00  0.00    -0.550 OA
ENDBRANCH   1  30
BRANCH  27  33
ATOM     33  O   UNL     1      31.816  24.767  51.262  1.00  0.00    -0.393 OA
ATOM     34  H   UNL     1      32.037  25.732  51.318  1.00  0.00     0.210 HD
ENDBRANCH  27  33
TORSDOF 2
ENDMDL
MODEL 5
REMARK VINA RESULT:    -0.164      3.611      5.102
REMARK INTER + INTRA:          -0.461
REMARK INTER:                  -0.179
REMARK INTRA:                  -0.282
REMARK UNBOUND:                -0.282
REMARK SMILES CC1(C)CC[C@]2(C(=O)[O-])CC[C@]3(C)C(=CC[C@@H]4[C@]5(C)CC[C@@H](O)C(C)(C)[C@@H]5CC[C@@]43C)[C@@H]2C1
REMARK SMILES IDX 6 1 5 2 10 3 32 4 4 5 11 6 14 7 33 8 2 9 12 10 15 11 1 12
REMARK SMILES IDX 3 13 13 14 30 15 16 16 17 17 29 18 31 19 18 20 28 21 27 22
REMARK SMILES IDX 20 23 19 24 24 25 21 26 22 27 25 28 26 29 7 30 8 31 9 32
REMARK SMILES IDX 23 33
REMARK H PARENT 23 34
REMARK Flexibility Score: inf
ROOT
ATOM      1  C   UNL     1      23.890  26.482  47.887  1.00  0.00     0.017 C 
ATOM      2  C   UNL     1      23.186  25.298  47.159  1.00  0.00     0.014 C 
ATOM      3  C   UNL     1      24.824  27.268  46.897  1.00  0.00     0.014 C 
ATOM      4  C   UNL     1      24.672  25.953  49.131  1.00  0.00     0.028 C 
ATOM      5  C   UNL     1      24.102  24.099  46.879  1.00  0.00     0.007 C 
ATOM      6  C   UNL     1      26.271  27.571  47.365  1.00  0.00     0.013 C 
ATOM      7  C   UNL     1      25.519  27.065  49.741  1.00  0.00    -0.064 C 
ATOM      8  C   UNL     1      25.541  24.698  48.860  1.00  0.00     0.015 C 
ATOM      9  C   UNL     1      24.782  23.550  48.155  1.00  0.00    -0.035 C 
ATOM     10  C   UNL     1      26.517  27.873  48.897  1.00  0.00    -0.006 C 
ATOM     11  C   UNL     1      25.378  27.346  51.046  1.00  0.00    -0.027 C 
ATOM     12  C   UNL     1      23.750  22.894  49.106  1.00  0.00     0.011 C 
ATOM     13  C   UNL     1      25.798  22.463  47.741  1.00  0.00     0.011 C 
ATOM     14  C   UNL     1      27.953  27.337  49.207  1.00  0.00     0.017 C 
ATOM     15  C   UNL     1      26.413  29.444  49.282  1.00  0.00    -0.020 C 
ATOM     16  C   UNL     1      26.236  28.370  51.706  1.00  0.00     0.032 C 
ATOM     17  C   UNL     1      26.360  29.682  50.868  1.00  0.00     0.006 C 
ATOM     18  C   UNL     1      25.148  30.048  48.649  1.00  0.00     0.008 C 
ATOM     19  C   UNL     1      27.638  30.220  48.686  1.00  0.00     0.012 C 
ATOM     20  C   UNL     1      25.413  30.851  51.436  1.00  0.00    -0.025 C 
ATOM     21  C   UNL     1      24.888  31.519  48.971  1.00  0.00     0.005 C 
ATOM     22  C   UNL     1      25.279  32.032  50.397  1.00  0.00     0.003 C 
ATOM     23  C   UNL     1      23.967  30.356  51.786  1.00  0.00     0.010 C 
ATOM     24  C   UNL     1      26.115  31.343  52.751  1.00  0.00     0.012 C 
ATOM     25  C   UNL     1      24.308  33.219  50.839  1.00  0.00    -0.006 C 
ATOM     26  C   UNL     1      23.004  31.475  52.232  1.00  0.00     0.033 C 
ATOM     27  C   UNL     1      22.909  32.643  51.236  1.00  0.00     0.120 C 
ATOM     28  C   UNL     1      24.125  34.230  49.663  1.00  0.00     0.014 C 
ATOM     29  C   UNL     1      24.905  34.067  52.001  1.00  0.00     0.014 C 
ENDROOT
BRANCH   1  30
ATOM     30  C   UNL     1      22.761  27.412  48.337  1.00  0.00     0.048 C 
ATOM     31  O   UNL     1      22.368  28.339  47.579  1.00  0.00    -0.550 OA
ATOM     32  O   UNL     1      22.102  27.221  49.547  1.00  0.00    -0.550 OA
ENDBRANCH   1  30
BRANCH  27  33
ATOM     33  O   UNL     1      22.101  33.645  51.803  1.00  0.00    -0.393 OA
ATOM     34  H   UNL     1      22.631  34.483  51.814  1.00  0.00     0.210 HD
ENDBRANCH  27  33
TORSDOF 2
ENDMDL
MODEL 6
REMARK VINA RESULT:    -0.161      1.686      2.007
REMARK INTER + INTRA:          -0.456
REMARK INTER:                  -0.175
REMARK INTRA:                  -0.281
REMARK UNBOUND:                -0.282
REMARK SMILES CC1(C)CC[C@]2(C(=O)[O-])CC[C@]3(C)C(=CC[C@@H]4[C@]5(C)CC[C@@H](O)C(C)(C)[C@@H]5CC[C@@]43C)[C@@H]2C1
REMARK SMILES IDX 6 1 5 2 10 3 32 4 4 5 11 6 14 7 33 8 2 9 12 10 15 11 1 12
REMARK SMILES IDX 3 13 13 14 30 15 16 16 17 17 29 18 31 19 18 20 28 21 27 22
REMARK SMILES IDX 20 23 19 24 24 25 21 26 22 27 25 28 26 29 7 30 8 31 9 32
REMARK SMILES IDX 23 33
REMARK H PARENT 23 34
REMARK Flexibility Score: inf
ROOT
ATOM      1  C   UNL     1      25.449  27.237  48.170  1.00  0.00     0.017 C 
ATOM      2  C   UNL     1      24.160  27.949  47.657  1.00  0.00     0.014 C 
ATOM      3  C   UNL     1      26.426  26.931  46.978  1.00  0.00     0.014 C 
ATOM      4  C   UNL     1      25.066  25.944  48.956  1.00  0.00     0.028 C 
ATOM      5  C   UNL     1      23.178  27.022  46.929  1.00  0.00     0.007 C 
ATOM      6  C   UNL     1      27.007  25.497  46.878  1.00  0.00     0.013 C 
ATOM      7  C   UNL     1      26.314  25.139  49.298  1.00  0.00    -0.064 C 
ATOM      8  C   UNL     1      24.018  25.047  48.250  1.00  0.00     0.015 C 
ATOM      9  C   UNL     1      22.754  25.805  47.784  1.00  0.00    -0.035 C 
ATOM     10  C   UNL     1      27.324  24.721  48.219  1.00  0.00    -0.006 C 
ATOM     11  C   UNL     1      26.536  24.796  50.578  1.00  0.00    -0.027 C 
ATOM     12  C   UNL     1      21.884  26.238  48.990  1.00  0.00     0.011 C 
ATOM     13  C   UNL     1      21.904  24.861  46.905  1.00  0.00     0.011 C 
ATOM     14  C   UNL     1      27.084  23.209  47.896  1.00  0.00     0.017 C 
ATOM     15  C   UNL     1      28.834  24.941  48.766  1.00  0.00    -0.020 C 
ATOM     16  C   UNL     1      27.699  23.944  50.953  1.00  0.00     0.032 C 
ATOM     17  C   UNL     1      29.025  24.401  50.265  1.00  0.00     0.006 C 
ATOM     18  C   UNL     1      29.180  26.439  48.733  1.00  0.00     0.008 C 
ATOM     19  C   UNL     1      29.853  24.214  47.822  1.00  0.00     0.012 C 
ATOM     20  C   UNL     1      29.966  25.236  51.266  1.00  0.00    -0.025 C 
ATOM     21  C   UNL     1      30.561  26.808  49.273  1.00  0.00     0.005 C 
ATOM     22  C   UNL     1      31.115  25.981  50.480  1.00  0.00     0.003 C 
ATOM     23  C   UNL     1      29.181  26.310  52.096  1.00  0.00     0.010 C 
ATOM     24  C   UNL     1      30.565  24.168  52.249  1.00  0.00     0.012 C 
ATOM     25  C   UNL     1      32.073  26.891  51.376  1.00  0.00    -0.006 C 
ATOM     26  C   UNL     1      30.074  27.199  52.986  1.00  0.00     0.033 C 
ATOM     27  C   UNL     1      31.217  27.889  52.224  1.00  0.00     0.120 C 
ATOM     28  C   UNL     1      33.048  27.703  50.467  1.00  0.00     0.014 C 
ATOM     29  C   UNL     1      33.001  26.043  52.295  1.00  0.00     0.014 C 
ENDROOT
BRANCH   1  30
ATOM     30  C   UNL     1      26.121  28.241  49.109  1.00  0.00     0.048 C 
ATOM     31  O   UNL     1      26.959  29.065  48.655  1.00  0.00    -0.550 OA
ATOM     32  O   UNL     1      25.783  28.314  50.456  1.00  0.00    -0.550 OA
ENDBRANCH   1  30
BRANCH  27  33
ATOM     33  O   UNL     1      32.023  28.570  53.154  1.00  0.00    -0.393 OA
ATOM     34  H   UNL     1      31.857  29.541  53.036  1.00  0.00     0.210 HD
ENDBRANCH  27  33
TORSDOF 2
ENDMDL
MODEL 7
REMARK VINA RESULT:    -0.161      2.449      7.818
REMARK INTER + INTRA:          -0.456
REMARK INTER:                  -0.176
REMARK INTRA:                  -0.281
REMARK UNBOUND:                -0.282
REMARK SMILES CC1(C)CC[C@]2(C(=O)[O-])CC[C@]3(C)C(=CC[C@@H]4[C@]5(C)CC[C@@H](O)C(C)(C)[C@@H]5CC[C@@]43C)[C@@H]2C1
REMARK SMILES IDX 6 1 5 2 10 3 32 4 4 5 11 6 14 7 33 8 2 9 12 10 15 11 1 12
REMARK SMILES IDX 3 13 13 14 30 15 16 16 17 17 29 18 31 19 18 20 28 21 27 22
REMARK SMILES IDX 20 23 19 24 24 25 21 26 22 27 25 28 26 29 7 30 8 31 9 32
REMARK SMILES IDX 23 33
REMARK H PARENT 23 34
REMARK Flexibility Score: inf
ROOT
ATOM      1  C   UNL     1      25.726  29.303  49.632  1.00  0.00     0.017 C 
ATOM      2  C   UNL     1      26.383  30.698  49.861  1.00  0.00     0.014 C 
ATOM      3  C   UNL     1      25.892  28.395  50.904  1.00  0.00     0.014 C 
ATOM      4  C   UNL     1      26.327  28.634  48.356  1.00  0.00     0.028 C 
ATOM      5  C   UNL     1      27.917  30.687  49.803  1.00  0.00     0.007 C 
ATOM      6  C   UNL     1      26.415  26.952  50.691  1.00  0.00     0.013 C 
ATOM      7  C   UNL     1      25.836  27.196  48.227  1.00  0.00    -0.064 C 
ATOM      8  C   UNL     1      27.873  28.689  48.267  1.00  0.00     0.015 C 
ATOM      9  C   UNL     1      28.465  30.101  48.481  1.00  0.00    -0.035 C 
ATOM     10  C   UNL     1      25.990  26.186  49.374  1.00  0.00    -0.006 C 
ATOM     11  C   UNL     1      25.249  26.811  47.082  1.00  0.00    -0.027 C 
ATOM     12  C   UNL     1      28.150  31.028  47.280  1.00  0.00     0.011 C 
ATOM     13  C   UNL     1      30.001  29.985  48.595  1.00  0.00     0.011 C 
ATOM     14  C   UNL     1      27.191  25.246  49.028  1.00  0.00     0.017 C 
ATOM     15  C   UNL     1      24.629  25.319  49.527  1.00  0.00    -0.020 C 
ATOM     16  C   UNL     1      24.822  25.398  46.877  1.00  0.00     0.032 C 
ATOM     17  C   UNL     1      24.065  24.813  48.112  1.00  0.00     0.006 C 
ATOM     18  C   UNL     1      23.549  26.173  50.213  1.00  0.00     0.008 C 
ATOM     19  C   UNL     1      24.889  24.080  50.451  1.00  0.00     0.012 C 
ATOM     20  C   UNL     1      22.473  24.789  47.887  1.00  0.00    -0.025 C 
ATOM     21  C   UNL     1      22.186  25.502  50.378  1.00  0.00     0.005 C 
ATOM     22  C   UNL     1      21.709  24.534  49.244  1.00  0.00     0.003 C 
ATOM     23  C   UNL     1      21.919  26.120  47.269  1.00  0.00     0.010 C 
ATOM     24  C   UNL     1      22.222  23.614  46.876  1.00  0.00     0.012 C 
ATOM     25  C   UNL     1      20.116  24.553  49.141  1.00  0.00    -0.006 C 
ATOM     26  C   UNL     1      20.383  26.167  47.140  1.00  0.00     0.033 C 
ATOM     27  C   UNL     1      19.642  25.877  48.455  1.00  0.00     0.120 C 
ATOM     28  C   UNL     1      19.484  24.465  50.566  1.00  0.00     0.014 C 
ATOM     29  C   UNL     1      19.561  23.311  48.384  1.00  0.00     0.014 C 
ENDROOT
BRANCH   1  30
ATOM     30  C   UNL     1      24.237  29.585  49.422  1.00  0.00     0.048 C 
ATOM     31  O   UNL     1      23.455  29.609  50.410  1.00  0.00    -0.550 OA
ATOM     32  O   UNL     1      23.724  29.883  48.164  1.00  0.00    -0.550 OA
ENDBRANCH   1  30
BRANCH  27  33
ATOM     33  O   UNL     1      18.263  25.832  48.187  1.00  0.00    -0.393 OA
ATOM     34  H   UNL     1      18.134  26.121  47.246  1.00  0.00     0.210 HD
ENDBRANCH  27  33
TORSDOF 2
ENDMDL
MODEL 8
REMARK VINA RESULT:    -0.159      3.210      6.151
REMARK INTER + INTRA:          -0.455
REMARK INTER:                  -0.173
REMARK INTRA:                  -0.282
REMARK UNBOUND:                -0.282
REMARK SMILES CC1(C)CC[C@]2(C(=O)[O-])CC[C@]3(C)C(=CC[C@@H]4[C@]5(C)CC[C@@H](O)C(C)(C)[C@@H]5CC[C@@]43C)[C@@H]2C1
REMARK SMILES IDX 6 1 5 2 10 3 32 4 4 5 11 6 14 7 33 8 2 9 12 10 15 11 1 12
REMARK SMILES IDX 3 13 13 14 30 15 16 16 17 17 29 18 31 19 18 20 28 21 27 22
REMARK SMILES IDX 20 23 19 24 24 25 21 26 22 27 25 28 26 29 7 30 8 31 9 32
REMARK SMILES IDX 23 33
REMARK H PARENT 23 34
REMARK Flexibility Score: inf
ROOT
ATOM      1  C   UNL     1      25.943  24.601  49.920  1.00  0.00     0.017 C 
ATOM      2  C   UNL     1      26.890  23.423  50.298  1.00  0.00     0.014 C 
ATOM      3  C   UNL     1      24.454  24.259  50.292  1.00  0.00     0.014 C 
ATOM      4  C   UNL     1      26.100  24.948  48.406  1.00  0.00     0.028 C 
ATOM      5  C   UNL     1      26.803  22.218  49.350  1.00  0.00     0.007 C 
ATOM      6  C   UNL     1      23.372  24.500  49.209  1.00  0.00     0.013 C 
ATOM      7  C   UNL     1      25.047  25.966  47.980  1.00  0.00    -0.064 C 
ATOM      8  C   UNL     1      26.084  23.722  47.459  1.00  0.00     0.015 C 
ATOM      9  C   UNL     1      27.059  22.596  47.873  1.00  0.00    -0.035 C 
ATOM     10  C   UNL     1      23.551  25.729  48.229  1.00  0.00    -0.006 C 
ATOM     11  C   UNL     1      25.446  27.099  47.380  1.00  0.00    -0.027 C 
ATOM     12  C   UNL     1      28.531  23.018  47.646  1.00  0.00     0.011 C 
ATOM     13  C   UNL     1      26.786  21.354  46.995  1.00  0.00     0.011 C 
ATOM     14  C   UNL     1      22.903  25.285  46.876  1.00  0.00     0.017 C 
ATOM     15  C   UNL     1      22.860  27.096  48.757  1.00  0.00    -0.020 C 
ATOM     16  C   UNL     1      24.453  28.088  46.875  1.00  0.00     0.032 C 
ATOM     17  C   UNL     1      23.316  28.378  47.906  1.00  0.00     0.006 C 
ATOM     18  C   UNL     1      23.230  27.325  50.232  1.00  0.00     0.008 C 
ATOM     19  C   UNL     1      21.299  26.964  48.691  1.00  0.00     0.012 C 
ATOM     20  C   UNL     1      23.544  29.769  48.679  1.00  0.00    -0.025 C 
ATOM     21  C   UNL     1      22.690  28.613  50.854  1.00  0.00     0.005 C 
ATOM     22  C   UNL     1      22.603  29.881  49.942  1.00  0.00     0.003 C 
ATOM     23  C   UNL     1      25.022  29.967  49.166  1.00  0.00     0.010 C 
ATOM     24  C   UNL     1      23.200  30.883  47.627  1.00  0.00     0.012 C 
ATOM     25  C   UNL     1      22.794  31.201  50.818  1.00  0.00    -0.006 C 
ATOM     26  C   UNL     1      25.247  31.242  50.004  1.00  0.00     0.033 C 
ATOM     27  C   UNL     1      24.301  31.368  51.208  1.00  0.00     0.120 C 
ATOM     28  C   UNL     1      21.939  31.111  52.121  1.00  0.00     0.014 C 
ATOM     29  C   UNL     1      22.271  32.473  50.088  1.00  0.00     0.014 C 
ENDROOT
BRANCH   1  30
ATOM     30  C   UNL     1      26.402  25.782  50.778  1.00  0.00     0.048 C 
ATOM     31  O   UNL     1      25.906  25.962  51.922  1.00  0.00    -0.550 OA
ATOM     32  O   UNL     1      27.412  26.639  50.353  1.00  0.00    -0.550 OA
ENDBRANCH   1  30
BRANCH  27  33
ATOM     33  O   UNL     1      24.522  32.615  51.819  1.00  0.00    -0.393 OA
ATOM     34  H   UNL     1      23.638  33.053  51.927  1.00  0.00     0.210 HD
ENDBRANCH  27  33
TORSDOF 2
ENDMDL
MODEL 9
REMARK VINA RESULT:     0.213      2.695      4.995
REMARK INTER + INTRA:          -0.050
REMARK INTER:                   0.231
REMARK INTRA:                  -0.281
REMARK UNBOUND:                -0.282
REMARK SMILES CC1(C)CC[C@]2(C(=O)[O-])CC[C@]3(C)C(=CC[C@@H]4[C@]5(C)CC[C@@H](O)C(C)(C)[C@@H]5CC[C@@]43C)[C@@H]2C1
REMARK SMILES IDX 6 1 5 2 10 3 32 4 4 5 11 6 14 7 33 8 2 9 12 10 15 11 1 12
REMARK SMILES IDX 3 13 13 14 30 15 16 16 17 17 29 18 31 19 18 20 28 21 27 22
REMARK SMILES IDX 20 23 19 24 24 25 21 26 22 27 25 28 26 29 7 30 8 31 9 32
REMARK SMILES IDX 23 33
REMARK H PARENT 23 34
REMARK Flexibility Score: inf
ROOT
ATOM      1  C   UNL     1      24.101  26.671  49.697  1.00  0.00     0.017 C 
ATOM      2  C   UNL     1      23.489  25.253  49.905  1.00  0.00     0.014 C 
ATOM      3  C   UNL     1      23.284  27.752  50.494  1.00  0.00     0.014 C 
ATOM      4  C   UNL     1      24.174  27.002  48.173  1.00  0.00     0.028 C 
ATOM      5  C   UNL     1      22.185  25.013  49.132  1.00  0.00     0.007 C 
ATOM      6  C   UNL     1      22.861  29.035  49.734  1.00  0.00     0.013 C 
ATOM      7  C   UNL     1      24.590  28.454  47.963  1.00  0.00    -0.064 C 
ATOM      8  C   UNL     1      22.878  26.690  47.384  1.00  0.00     0.015 C 
ATOM      9  C   UNL     1      22.331  25.263  47.614  1.00  0.00    -0.035 C 
ATOM     10  C   UNL     1      23.840  29.613  48.635  1.00  0.00    -0.006 C 
ATOM     11  C   UNL     1      25.645  28.719  47.175  1.00  0.00    -0.027 C 
ATOM     12  C   UNL     1      23.243  24.200  46.952  1.00  0.00     0.011 C 
ATOM     13  C   UNL     1      20.934  25.155  46.962  1.00  0.00     0.011 C 
ATOM     14  C   UNL     1      22.919  30.278  47.560  1.00  0.00     0.017 C 
ATOM     15  C   UNL     1      24.903  30.696  49.205  1.00  0.00    -0.020 C 
ATOM     16  C   UNL     1      26.044  30.123  46.875  1.00  0.00     0.032 C 
ATOM     17  C   UNL     1      26.064  31.027  48.149  1.00  0.00     0.006 C 
ATOM     18  C   UNL     1      25.546  30.157  50.494  1.00  0.00     0.008 C 
ATOM     19  C   UNL     1      24.158  32.023  49.585  1.00  0.00     0.012 C 
ATOM     20  C   UNL     1      27.557  31.261  48.698  1.00  0.00    -0.025 C 
ATOM     21  C   UNL     1      26.615  31.053  51.121  1.00  0.00     0.005 C 
ATOM     22  C   UNL     1      27.539  31.868  50.156  1.00  0.00     0.003 C 
ATOM     23  C   UNL     1      28.410  29.946  48.739  1.00  0.00     0.010 C 
ATOM     24  C   UNL     1      28.213  32.264  47.685  1.00  0.00     0.012 C 
ATOM     25  C   UNL     1      28.974  32.082  50.821  1.00  0.00    -0.006 C 
ATOM     26  C   UNL     1      29.811  30.119  49.362  1.00  0.00     0.033 C 
ATOM     27  C   UNL     1      29.791  30.749  50.764  1.00  0.00     0.120 C 
ATOM     28  C   UNL     1      28.816  32.517  52.312  1.00  0.00     0.014 C 
ATOM     29  C   UNL     1      29.766  33.242  50.150  1.00  0.00     0.014 C 
ENDROOT
BRANCH   1  30
ATOM     30  C   UNL     1      25.513  26.594  50.283  1.00  0.00     0.048 C 
ATOM     31  O   UNL     1      25.707  26.870  51.498  1.00  0.00    -0.550 OA
ATOM     32  O   UNL     1      26.593  26.161  49.521  1.00  0.00    -0.550 OA
ENDBRANCH   1  30
BRANCH  27  33
ATOM     33  O   UNL     1      31.120  30.961  51.173  1.00  0.00    -0.393 OA
ATOM     34  H   UNL     1      31.090  31.374  52.075  1.00  0.00     0.210 HD
ENDBRANCH  27  33
TORSDOF 2
ENDMDL
