MODEL 1
REMARK VINA RESULT:    48.642      0.000      0.000
REMARK INTER + INTRA:          53.300
REMARK INTER:                  52.908
REMARK INTRA:                   0.392
REMARK UNBOUND:                 0.392
REMARK SMILES C[C@@H]1[C@H](C)CC[C@]2(C(=O)[O-])CC[C@]3(C)C(=CC[C@@H]4[C@@]5(C)CC[C@H](O)C(C)(C)[C@@H]5CC[C@@]43C)[C@@H]12
REMARK SMILES IDX 7 1 6 2 11 3 33 4 5 5 12 6 15 7 2 8 3 9 13 10 16 11 1 12
REMARK SMILES IDX 4 13 14 14 31 15 17 16 18 17 30 18 32 19 19 20 29 21 28 22
REMARK SMILES IDX 21 23 20 24 25 25 22 26 23 27 26 28 27 29 8 30 9 31 10 32
REMARK SMILES IDX 24 33
REMARK H PARENT 24 34
REMARK Flexibility Score: inf
ROOT
ATOM      1  C   UNL     1     -10.856 -21.710  13.591  1.00  0.00     0.017 C 
ATOM      2  C   UNL     1     -10.697 -23.124  14.207  1.00  0.00     0.014 C 
ATOM      3  C   UNL     1     -11.045 -21.786  12.049  1.00  0.00     0.014 C 
ATOM      4  C   UNL     1      -9.538 -20.918  13.946  1.00  0.00     0.030 C 
ATOM      5  C   UNL     1     -10.494 -23.059  15.735  1.00  0.00     0.004 C 
ATOM      6  C   UNL     1     -10.847 -20.431  11.269  1.00  0.00     0.013 C 
ATOM      7  C   UNL     1      -9.582 -19.575  13.219  1.00  0.00    -0.063 C 
ATOM      8  C   UNL     1      -9.248 -20.843  15.465  1.00  0.00    -0.003 C 
ATOM      9  C   UNL     1      -9.236 -22.251  16.125  1.00  0.00    -0.011 C 
ATOM     10  C   UNL     1      -9.549 -19.641  11.669  1.00  0.00    -0.006 C 
ATOM     11  C   UNL     1     -10.109 -18.506  13.845  1.00  0.00    -0.027 C 
ATOM     12  C   UNL     1      -7.976 -20.014  15.786  1.00  0.00     0.008 C 
ATOM     13  C   UNL     1      -7.947 -23.058  15.871  1.00  0.00     0.008 C 
ATOM     14  C   UNL     1      -8.354 -20.532  11.172  1.00  0.00     0.017 C 
ATOM     15  C   UNL     1      -9.384 -18.152  11.047  1.00  0.00    -0.020 C 
ATOM     16  C   UNL     1     -10.949 -17.542  13.112  1.00  0.00     0.032 C 
ATOM     17  C   UNL     1     -10.221 -17.021  11.870  1.00  0.00     0.006 C 
ATOM     18  C   UNL     1      -9.690 -18.122   9.495  1.00  0.00     0.008 C 
ATOM     19  C   UNL     1      -7.876 -17.738  11.212  1.00  0.00     0.012 C 
ATOM     20  C   UNL     1     -11.141 -16.086  11.005  1.00  0.00    -0.025 C 
ATOM     21  C   UNL     1     -10.145 -16.805   8.813  1.00  0.00     0.005 C 
ATOM     22  C   UNL     1     -10.262 -15.631   9.792  1.00  0.00     0.003 C 
ATOM     23  C   UNL     1     -11.566 -14.830  11.802  1.00  0.00     0.010 C 
ATOM     24  C   UNL     1     -12.447 -16.857  10.588  1.00  0.00     0.012 C 
ATOM     25  C   UNL     1     -10.523 -14.175   9.191  1.00  0.00    -0.006 C 
ATOM     26  C   UNL     1     -12.368 -13.790  11.001  1.00  0.00     0.033 C 
ATOM     27  C   UNL     1     -11.964 -13.661   9.514  1.00  0.00     0.120 C 
ATOM     28  C   UNL     1     -10.329 -14.154   7.640  1.00  0.00     0.014 C 
ATOM     29  C   UNL     1      -9.492 -13.133   9.778  1.00  0.00     0.014 C 
ENDROOT
BRANCH   1  30
ATOM     30  C   UNL     1     -12.165 -21.120  14.145  1.00  0.00     0.048 C 
ATOM     31  O   UNL     1     -12.193 -20.245  15.053  1.00  0.00    -0.550 OA
ATOM     32  O   UNL     1     -13.370 -21.675  13.739  1.00  0.00    -0.550 OA
ENDBRANCH   1  30
BRANCH  27  33
ATOM     33  O   UNL     1     -12.921 -14.315   8.703  1.00  0.00    -0.393 OA
ATOM     34  H   UNL     1     -12.477 -14.540   7.847  1.00  0.00     0.210 HD
ENDBRANCH  27  33
TORSDOF 2
ENDMDL
