MODEL 1
REMARK VINA RESULT:   108.441      0.000      0.000
REMARK INTER + INTRA:         119.456
REMARK INTER:                 117.950
REMARK INTRA:                   1.505
REMARK UNBOUND:                 1.505
REMARK SMILES C[C@@H]1[C@H](C)CC[C@@]2(C(=O)[O-])CC[C@]3(C)C(=CC[C@@H]4[C@@]5(C)CC[C@@H](O)C(C)(C)[C@H]5CC[C@]43C)[C@H]12
REMARK SMILES IDX 7 1 6 2 11 3 33 4 5 5 12 6 15 7 2 8 3 9 13 10 16 11 1 12
REMARK SMILES IDX 4 13 14 14 31 15 17 16 18 17 30 18 32 19 19 20 29 21 28 22
REMARK SMILES IDX 21 23 20 24 25 25 22 26 23 27 26 28 27 29 8 30 9 31 10 32
REMARK SMILES IDX 24 33
REMARK H PARENT 24 34
REMARK Flexibility Score: inf
ROOT
ATOM      1  C   UNL     1      44.759 -23.614  -0.875  1.00  0.00     0.017 C 
ATOM      2  C   UNL     1      46.125 -23.725  -1.622  1.00  0.00     0.014 C 
ATOM      3  C   UNL     1      44.866 -22.436   0.156  1.00  0.00     0.014 C 
ATOM      4  C   UNL     1      43.646 -23.333  -1.947  1.00  0.00     0.030 C 
ATOM      5  C   UNL     1      46.123 -24.784  -2.731  1.00  0.00     0.004 C 
ATOM      6  C   UNL     1      43.764 -21.359   0.056  1.00  0.00     0.013 C 
ATOM      7  C   UNL     1      42.298 -22.901  -1.324  1.00  0.00    -0.063 C 
ATOM      8  C   UNL     1      43.621 -24.384  -3.119  1.00  0.00    -0.003 C 
ATOM      9  C   UNL     1      45.030 -24.485  -3.771  1.00  0.00    -0.011 C 
ATOM     10  C   UNL     1      42.313 -21.914  -0.143  1.00  0.00    -0.006 C 
ATOM     11  C   UNL     1      41.128 -23.148  -1.968  1.00  0.00    -0.027 C 
ATOM     12  C   UNL     1      43.041 -25.767  -2.744  1.00  0.00     0.008 C 
ATOM     13  C   UNL     1      45.087 -25.495  -4.928  1.00  0.00     0.008 C 
ATOM     14  C   UNL     1      41.942 -22.719   1.145  1.00  0.00     0.017 C 
ATOM     15  C   UNL     1      41.278 -20.713  -0.449  1.00  0.00    -0.020 C 
ATOM     16  C   UNL     1      39.860 -22.344  -1.804  1.00  0.00     0.032 C 
ATOM     17  C   UNL     1      39.844 -21.307  -0.642  1.00  0.00     0.006 C 
ATOM     18  C   UNL     1      41.180 -19.730   0.742  1.00  0.00     0.008 C 
ATOM     19  C   UNL     1      41.734 -19.942  -1.738  1.00  0.00     0.012 C 
ATOM     20  C   UNL     1      38.601 -20.257  -0.606  1.00  0.00    -0.025 C 
ATOM     21  C   UNL     1      40.252 -18.537   0.511  1.00  0.00     0.005 C 
ATOM     22  C   UNL     1      39.048 -18.733  -0.465  1.00  0.00     0.003 C 
ATOM     23  C   UNL     1      37.709 -20.602   0.630  1.00  0.00     0.010 C 
ATOM     24  C   UNL     1      37.739 -20.443  -1.894  1.00  0.00     0.012 C 
ATOM     25  C   UNL     1      37.874 -17.688  -0.147  1.00  0.00    -0.006 C 
ATOM     26  C   UNL     1      36.530 -19.647   0.867  1.00  0.00     0.033 C 
ATOM     27  C   UNL     1      36.975 -18.187   1.036  1.00  0.00     0.120 C 
ATOM     28  C   UNL     1      36.977 -17.421  -1.403  1.00  0.00     0.014 C 
ATOM     29  C   UNL     1      38.458 -16.284   0.212  1.00  0.00     0.014 C 
ENDROOT
BRANCH   1  30
ATOM     30  C   UNL     1      44.515 -24.904  -0.094  1.00  0.00     0.048 C 
ATOM     31  O   UNL     1      43.727 -25.788  -0.521  1.00  0.00    -0.550 OA
ATOM     32  O   UNL     1      45.084 -25.078   1.164  1.00  0.00    -0.550 OA
ENDBRANCH   1  30
BRANCH  27  33
ATOM     33  O   UNL     1      37.632 -18.067   2.274  1.00  0.00    -0.393 OA
ATOM     34  H   UNL     1      37.421 -17.167   2.640  1.00  0.00     0.210 HD
ENDBRANCH  27  33
TORSDOF 2
ENDMDL
MODEL 2
REMARK VINA RESULT:   109.531      1.209      8.262
REMARK INTER + INTRA:         120.641
REMARK INTER:                 119.330
REMARK INTRA:                   1.311
REMARK UNBOUND:                 1.505
REMARK SMILES C[C@@H]1[C@H](C)CC[C@@]2(C(=O)[O-])CC[C@]3(C)C(=CC[C@@H]4[C@@]5(C)CC[C@@H](O)C(C)(C)[C@H]5CC[C@]43C)[C@H]12
REMARK SMILES IDX 7 1 6 2 11 3 33 4 5 5 12 6 15 7 2 8 3 9 13 10 16 11 1 12
REMARK SMILES IDX 4 13 14 14 31 15 17 16 18 17 30 18 32 19 19 20 29 21 28 22
REMARK SMILES IDX 21 23 20 24 25 25 22 26 23 27 26 28 27 29 8 30 9 31 10 32
REMARK SMILES IDX 24 33
REMARK H PARENT 24 34
REMARK Flexibility Score: inf
ROOT
ATOM      1  C   UNL     1      37.627 -19.094  -0.195  1.00  0.00     0.017 C 
ATOM      2  C   UNL     1      36.636 -18.156  -0.952  1.00  0.00     0.014 C 
ATOM      3  C   UNL     1      37.387 -20.560  -0.700  1.00  0.00     0.014 C 
ATOM      4  C   UNL     1      39.088 -18.613  -0.521  1.00  0.00     0.030 C 
ATOM      5  C   UNL     1      36.833 -16.672  -0.618  1.00  0.00     0.004 C 
ATOM      6  C   UNL     1      38.639 -21.304  -1.215  1.00  0.00     0.013 C 
ATOM      7  C   UNL     1      40.172 -19.626  -0.088  1.00  0.00    -0.063 C 
ATOM      8  C   UNL     1      39.330 -17.087  -0.214  1.00  0.00    -0.003 C 
ATOM      9  C   UNL     1      38.266 -16.222  -0.949  1.00  0.00    -0.011 C 
ATOM     10  C   UNL     1      39.922 -21.126  -0.335  1.00  0.00    -0.006 C 
ATOM     11  C   UNL     1      41.423 -19.206   0.234  1.00  0.00    -0.027 C 
ATOM     12  C   UNL     1      39.448 -16.733   1.287  1.00  0.00     0.008 C 
ATOM     13  C   UNL     1      38.437 -14.716  -0.698  1.00  0.00     0.008 C 
ATOM     14  C   UNL     1      39.631 -21.787   1.052  1.00  0.00     0.017 C 
ATOM     15  C   UNL     1      41.213 -21.758  -1.070  1.00  0.00    -0.020 C 
ATOM     16  C   UNL     1      42.675 -20.042   0.123  1.00  0.00     0.032 C 
ATOM     17  C   UNL     1      42.471 -21.560  -0.162  1.00  0.00     0.006 C 
ATOM     18  C   UNL     1      41.062 -23.285  -1.269  1.00  0.00     0.008 C 
ATOM     19  C   UNL     1      41.420 -21.060  -2.461  1.00  0.00     0.012 C 
ATOM     20  C   UNL     1      43.796 -22.426  -0.540  1.00  0.00    -0.025 C 
ATOM     21  C   UNL     1      42.226 -23.953  -2.001  1.00  0.00     0.005 C 
ATOM     22  C   UNL     1      43.639 -23.300  -1.864  1.00  0.00     0.003 C 
ATOM     23  C   UNL     1      44.089 -23.407   0.641  1.00  0.00     0.010 C 
ATOM     24  C   UNL     1      45.014 -21.459  -0.681  1.00  0.00     0.012 C 
ATOM     25  C   UNL     1      44.797 -24.376  -2.131  1.00  0.00    -0.006 C 
ATOM     26  C   UNL     1      45.264 -24.368   0.410  1.00  0.00     0.033 C 
ATOM     27  C   UNL     1      45.086 -25.231  -0.849  1.00  0.00     0.120 C 
ATOM     28  C   UNL     1      46.125 -23.696  -2.609  1.00  0.00     0.014 C 
ATOM     29  C   UNL     1      44.412 -25.332  -3.306  1.00  0.00     0.014 C 
ENDROOT
BRANCH   1  30
ATOM     30  C   UNL     1      37.310 -19.051   1.298  1.00  0.00     0.048 C 
ATOM     31  O   UNL     1      36.159 -19.316   1.731  1.00  0.00    -0.550 OA
ATOM     32  O   UNL     1      38.271 -18.611   2.204  1.00  0.00    -0.550 OA
ENDBRANCH   1  30
BRANCH  27  33
ATOM     33  O   UNL     1      44.060 -26.161  -0.604  1.00  0.00    -0.393 OA
ATOM     34  H   UNL     1      43.633 -26.374  -1.475  1.00  0.00     0.210 HD
ENDBRANCH  27  33
TORSDOF 2
ENDMDL
MODEL 3
REMARK VINA RESULT:   110.559      1.735      3.564
REMARK INTER + INTRA:         121.760
REMARK INTER:                 120.784
REMARK INTRA:                   0.976
REMARK UNBOUND:                 1.505
REMARK SMILES C[C@@H]1[C@H](C)CC[C@@]2(C(=O)[O-])CC[C@]3(C)C(=CC[C@@H]4[C@@]5(C)CC[C@@H](O)C(C)(C)[C@H]5CC[C@]43C)[C@H]12
REMARK SMILES IDX 7 1 6 2 11 3 33 4 5 5 12 6 15 7 2 8 3 9 13 10 16 11 1 12
REMARK SMILES IDX 4 13 14 14 31 15 17 16 18 17 30 18 32 19 19 20 29 21 28 22
REMARK SMILES IDX 21 23 20 24 25 25 22 26 23 27 26 28 27 29 8 30 9 31 10 32
REMARK SMILES IDX 24 33
REMARK H PARENT 24 34
REMARK Flexibility Score: inf
ROOT
ATOM      1  C   UNL     1      44.283 -24.560  -1.389  1.00  0.00     0.017 C 
ATOM      2  C   UNL     1      44.578 -26.084  -1.226  1.00  0.00     0.014 C 
ATOM      3  C   UNL     1      43.153 -24.398  -2.466  1.00  0.00     0.014 C 
ATOM      4  C   UNL     1      43.821 -24.008   0.007  1.00  0.00     0.030 C 
ATOM      5  C   UNL     1      45.603 -26.387  -0.127  1.00  0.00     0.004 C 
ATOM      6  C   UNL     1      41.925 -23.572  -2.027  1.00  0.00     0.013 C 
ATOM      7  C   UNL     1      43.209 -22.590  -0.073  1.00  0.00    -0.063 C 
ATOM      8  C   UNL     1      44.834 -24.316   1.172  1.00  0.00    -0.003 C 
ATOM      9  C   UNL     1      45.128 -25.843   1.231  1.00  0.00    -0.011 C 
ATOM     10  C   UNL     1      42.257 -22.261  -1.238  1.00  0.00    -0.006 C 
ATOM     11  C   UNL     1      43.269 -21.749   0.993  1.00  0.00    -0.027 C 
ATOM     12  C   UNL     1      46.125 -23.464   1.159  1.00  0.00     0.008 C 
ATOM     13  C   UNL     1      46.112 -26.225   2.347  1.00  0.00     0.008 C 
ATOM     14  C   UNL     1      43.025 -21.311  -2.215  1.00  0.00     0.017 C 
ATOM     15  C   UNL     1      40.913 -21.592  -0.645  1.00  0.00    -0.020 C 
ATOM     16  C   UNL     1      42.292 -20.633   1.275  1.00  0.00     0.032 C 
ATOM     17  C   UNL     1      41.286 -20.289   0.136  1.00  0.00     0.006 C 
ATOM     18  C   UNL     1      39.949 -21.157  -1.774  1.00  0.00     0.008 C 
ATOM     19  C   UNL     1      40.191 -22.616   0.303  1.00  0.00     0.012 C 
ATOM     20  C   UNL     1      40.067 -19.278   0.507  1.00  0.00    -0.025 C 
ATOM     21  C   UNL     1      38.629 -20.556  -1.291  1.00  0.00     0.005 C 
ATOM     22  C   UNL     1      38.628 -19.822   0.088  1.00  0.00     0.003 C 
ATOM     23  C   UNL     1      40.302 -17.933  -0.255  1.00  0.00     0.010 C 
ATOM     24  C   UNL     1      40.099 -18.981   2.039  1.00  0.00     0.012 C 
ATOM     25  C   UNL     1      37.429 -18.761   0.174  1.00  0.00    -0.006 C 
ATOM     26  C   UNL     1      39.189 -16.888  -0.085  1.00  0.00     0.033 C 
ATOM     27  C   UNL     1      37.813 -17.411  -0.524  1.00  0.00     0.120 C 
ATOM     28  C   UNL     1      37.009 -18.476   1.656  1.00  0.00     0.014 C 
ATOM     29  C   UNL     1      36.132 -19.328  -0.489  1.00  0.00     0.014 C 
ENDROOT
BRANCH   1  30
ATOM     30  C   UNL     1      45.538 -23.865  -1.913  1.00  0.00     0.048 C 
ATOM     31  O   UNL     1      46.010 -22.848  -1.341  1.00  0.00    -0.550 OA
ATOM     32  O   UNL     1      46.125 -24.286  -3.102  1.00  0.00    -0.550 OA
ENDBRANCH   1  30
BRANCH  27  33
ATOM     33  O   UNL     1      37.815 -17.534  -1.925  1.00  0.00    -0.393 OA
ATOM     34  H   UNL     1      36.913 -17.270  -2.251  1.00  0.00     0.210 HD
ENDBRANCH  27  33
TORSDOF 2
ENDMDL
