MODEL 1
REMARK VINA RESULT:    -5.900      0.000      0.000
REMARK INTER + INTRA:          -6.483
REMARK INTER:                  -6.418
REMARK INTRA:                  -0.065
REMARK UNBOUND:                -0.065
REMARK SMILES COc1cc2ccc(=O)oc2cc1O
REMARK SMILES IDX 3 1 13 2 12 3 11 4 5 5 4 6 6 7 7 8 8 9 9 10 10 11 2 12 1 13
REMARK SMILES IDX 14 14
REMARK H PARENT 14 15
REMARK Flexibility Score: inf
ROOT
ATOM      1  C   UNL     1      53.624  62.409  -0.008  1.00  0.00     0.161 A 
ATOM      2  C   UNL     1      52.759  62.991  -0.956  1.00  0.00     0.161 A 
ATOM      3  C   UNL     1      52.046  64.154  -0.641  1.00  0.00     0.098 A 
ATOM      4  C   UNL     1      52.184  64.748   0.616  1.00  0.00     0.142 A 
ATOM      5  C   UNL     1      53.047  64.174   1.571  1.00  0.00     0.022 A 
ATOM      6  C   UNL     1      53.762  63.010   1.260  1.00  0.00     0.062 A 
ATOM      7  C   UNL     1      53.163  64.792   2.820  1.00  0.00     0.019 A 
ATOM      8  C   UNL     1      52.430  65.949   3.082  1.00  0.00     0.094 A 
ATOM      9  C   UNL     1      51.594  66.462   2.086  1.00  0.00     0.336 A 
ATOM     10  O   UNL     1      50.924  67.505   2.303  1.00  0.00    -0.246 OA
ATOM     11  O   UNL     1      51.501  65.854   0.906  1.00  0.00    -0.423 OA
ENDROOT
BRANCH   1  12
ATOM     12  O   UNL     1      54.324  61.243  -0.358  1.00  0.00    -0.493 OA
ATOM     13  C   UNL     1      53.923  59.924  -0.003  1.00  0.00     0.278 C 
ENDBRANCH   1  12
BRANCH   2  14
ATOM     14  O   UNL     1      52.595  62.427  -2.221  1.00  0.00    -0.504 OA
ATOM     15  H   UNL     1      52.434  62.990  -3.047  1.00  0.00     0.293 HD
ENDBRANCH   2  14
TORSDOF 2
ENDMDL
MODEL 2
REMARK VINA RESULT:    -5.856      8.813      9.760
REMARK INTER + INTRA:          -6.435
REMARK INTER:                  -6.378
REMARK INTRA:                  -0.057
REMARK UNBOUND:                -0.065
REMARK SMILES COc1cc2ccc(=O)oc2cc1O
REMARK SMILES IDX 3 1 13 2 12 3 11 4 5 5 4 6 6 7 7 8 8 9 9 10 10 11 2 12 1 13
REMARK SMILES IDX 14 14
REMARK H PARENT 14 15
REMARK Flexibility Score: inf
ROOT
ATOM      1  C   UNL     1      50.488  57.781   6.799  1.00  0.00     0.161 A 
ATOM      2  C   UNL     1      49.558  58.327   7.704  1.00  0.00     0.161 A 
ATOM      3  C   UNL     1      48.215  58.474   7.334  1.00  0.00     0.098 A 
ATOM      4  C   UNL     1      47.786  58.082   6.064  1.00  0.00     0.142 A 
ATOM      5  C   UNL     1      48.710  57.534   5.151  1.00  0.00     0.022 A 
ATOM      6  C   UNL     1      50.054  57.385   5.517  1.00  0.00     0.062 A 
ATOM      7  C   UNL     1      48.249  57.151   3.887  1.00  0.00     0.019 A 
ATOM      8  C   UNL     1      46.902  57.319   3.569  1.00  0.00     0.094 A 
ATOM      9  C   UNL     1      46.044  57.869   4.526  1.00  0.00     0.336 A 
ATOM     10  O   UNL     1      44.824  58.030   4.259  1.00  0.00    -0.246 OA
ATOM     11  O   UNL     1      46.508  58.226   5.721  1.00  0.00    -0.423 OA
ENDROOT
BRANCH   1  12
ATOM     12  O   UNL     1      51.826  57.648   7.203  1.00  0.00    -0.493 OA
ATOM     13  C   UNL     1      52.933  58.260   6.549  1.00  0.00     0.278 C 
ENDBRANCH   1  12
BRANCH   2  14
ATOM     14  O   UNL     1      49.948  58.730   8.981  1.00  0.00    -0.504 OA
ATOM     15  H   UNL     1      50.510  59.558   9.138  1.00  0.00     0.293 HD
ENDBRANCH   2  14
TORSDOF 2
ENDMDL
MODEL 3
REMARK VINA RESULT:    -5.855      8.979      9.907
REMARK INTER + INTRA:          -6.434
REMARK INTER:                  -6.369
REMARK INTRA:                  -0.065
REMARK UNBOUND:                -0.065
REMARK SMILES COc1cc2ccc(=O)oc2cc1O
REMARK SMILES IDX 3 1 13 2 12 3 11 4 5 5 4 6 6 7 7 8 8 9 9 10 10 11 2 12 1 13
REMARK SMILES IDX 14 14
REMARK H PARENT 14 15
REMARK Flexibility Score: inf
ROOT
ATOM      1  C   UNL     1      50.294  57.771   7.296  1.00  0.00     0.161 A 
ATOM      2  C   UNL     1      49.078  58.238   7.832  1.00  0.00     0.161 A 
ATOM      3  C   UNL     1      47.922  58.264   7.041  1.00  0.00     0.098 A 
ATOM      4  C   UNL     1      47.964  57.827   5.715  1.00  0.00     0.142 A 
ATOM      5  C   UNL     1      49.176  57.358   5.170  1.00  0.00     0.022 A 
ATOM      6  C   UNL     1      50.335  57.331   5.957  1.00  0.00     0.062 A 
ATOM      7  C   UNL     1      49.186  56.928   3.839  1.00  0.00     0.019 A 
ATOM      8  C   UNL     1      48.006  56.974   3.096  1.00  0.00     0.094 A 
ATOM      9  C   UNL     1      46.841  57.452   3.704  1.00  0.00     0.336 A 
ATOM     10  O   UNL     1      45.767  57.503   3.050  1.00  0.00    -0.246 OA
ATOM     11  O   UNL     1      46.860  57.856   4.971  1.00  0.00    -0.423 OA
ENDROOT
BRANCH   1  12
ATOM     12  O   UNL     1      51.434  57.760   8.117  1.00  0.00    -0.493 OA
ATOM     13  C   UNL     1      52.470  58.735   8.073  1.00  0.00     0.278 C 
ENDBRANCH   1  12
BRANCH   2  14
ATOM     14  O   UNL     1      48.996  58.682   9.151  1.00  0.00    -0.504 OA
ATOM     15  H   UNL     1      49.811  58.749   9.750  1.00  0.00     0.293 HD
ENDBRANCH   2  14
TORSDOF 2
ENDMDL
MODEL 4
REMARK VINA RESULT:    -5.795      9.045      9.760
REMARK INTER + INTRA:          -6.369
REMARK INTER:                  -6.304
REMARK INTRA:                  -0.064
REMARK UNBOUND:                -0.065
REMARK SMILES COc1cc2ccc(=O)oc2cc1O
REMARK SMILES IDX 3 1 13 2 12 3 11 4 5 5 4 6 6 7 7 8 8 9 9 10 10 11 2 12 1 13
REMARK SMILES IDX 14 14
REMARK H PARENT 14 15
REMARK Flexibility Score: inf
ROOT
ATOM      1  C   UNL     1      46.112  58.043   4.429  1.00  0.00     0.161 A 
ATOM      2  C   UNL     1      46.874  57.381   3.447  1.00  0.00     0.161 A 
ATOM      3  C   UNL     1      48.210  57.045   3.698  1.00  0.00     0.098 A 
ATOM      4  C   UNL     1      48.800  57.363   4.923  1.00  0.00     0.142 A 
ATOM      5  C   UNL     1      48.046  58.025   5.913  1.00  0.00     0.022 A 
ATOM      6  C   UNL     1      46.708  58.363   5.665  1.00  0.00     0.062 A 
ATOM      7  C   UNL     1      48.665  58.330   7.129  1.00  0.00     0.019 A 
ATOM      8  C   UNL     1      49.998  57.972   7.327  1.00  0.00     0.094 A 
ATOM      9  C   UNL     1      50.684  57.317   6.300  1.00  0.00     0.336 A 
ATOM     10  O   UNL     1      51.888  56.986   6.459  1.00  0.00    -0.246 OA
ATOM     11  O   UNL     1      50.071  57.039   5.152  1.00  0.00    -0.423 OA
ENDROOT
BRANCH   1  12
ATOM     12  O   UNL     1      44.775  58.365   4.144  1.00  0.00    -0.493 OA
ATOM     13  C   UNL     1      44.307  59.675   3.839  1.00  0.00     0.278 C 
ENDBRANCH   1  12
BRANCH   2  14
ATOM     14  O   UNL     1      46.320  57.046   2.211  1.00  0.00    -0.504 OA
ATOM     15  H   UNL     1      46.459  56.138   1.784  1.00  0.00     0.293 HD
ENDBRANCH   2  14
TORSDOF 2
ENDMDL
MODEL 5
REMARK VINA RESULT:    -5.751      1.271      5.414
REMARK INTER + INTRA:          -6.321
REMARK INTER:                  -6.256
REMARK INTRA:                  -0.065
REMARK UNBOUND:                -0.065
REMARK SMILES COc1cc2ccc(=O)oc2cc1O
REMARK SMILES IDX 3 1 13 2 12 3 11 4 5 5 4 6 6 7 7 8 8 9 9 10 10 11 2 12 1 13
REMARK SMILES IDX 14 14
REMARK H PARENT 14 15
REMARK Flexibility Score: inf
ROOT
ATOM      1  C   UNL     1      51.811  66.095   1.967  1.00  0.00     0.161 A 
ATOM      2  C   UNL     1      52.685  65.576   2.942  1.00  0.00     0.161 A 
ATOM      3  C   UNL     1      53.436  64.424   2.676  1.00  0.00     0.098 A 
ATOM      4  C   UNL     1      53.325  63.778   1.443  1.00  0.00     0.142 A 
ATOM      5  C   UNL     1      52.453  64.290   0.460  1.00  0.00     0.022 A 
ATOM      6  C   UNL     1      51.700  65.442   0.723  1.00  0.00     0.062 A 
ATOM      7  C   UNL     1      52.364  63.620  -0.765  1.00  0.00     0.019 A 
ATOM      8  C   UNL     1      53.134  62.478  -0.978  1.00  0.00     0.094 A 
ATOM      9  C   UNL     1      53.977  62.029   0.042  1.00  0.00     0.336 A 
ATOM     10  O   UNL     1      54.680  60.999  -0.130  1.00  0.00    -0.246 OA
ATOM     11  O   UNL     1      54.042  62.684   1.199  1.00  0.00    -0.423 OA
ENDROOT
BRANCH   1  12
ATOM     12  O   UNL     1      51.073  67.251   2.268  1.00  0.00    -0.493 OA
ATOM     13  C   UNL     1      49.691  67.261   2.612  1.00  0.00     0.278 C 
ENDBRANCH   1  12
BRANCH   2  14
ATOM     14  O   UNL     1      52.823  66.192   4.186  1.00  0.00    -0.504 OA
ATOM     15  H   UNL     1      52.353  65.849   5.015  1.00  0.00     0.293 HD
ENDBRANCH   2  14
TORSDOF 2
ENDMDL
MODEL 6
REMARK VINA RESULT:    -5.433      4.878      6.779
REMARK INTER + INTRA:          -5.975
REMARK INTER:                  -5.917
REMARK INTRA:                  -0.058
REMARK UNBOUND:                -0.065
REMARK SMILES COc1cc2ccc(=O)oc2cc1O
REMARK SMILES IDX 3 1 13 2 12 3 11 4 5 5 4 6 6 7 7 8 8 9 9 10 10 11 2 12 1 13
REMARK SMILES IDX 14 14
REMARK H PARENT 14 15
REMARK Flexibility Score: inf
ROOT
ATOM      1  C   UNL     1      48.977  65.570   2.510  1.00  0.00     0.161 A 
ATOM      2  C   UNL     1      49.252  66.951   2.556  1.00  0.00     0.161 A 
ATOM      3  C   UNL     1      48.266  67.853   2.973  1.00  0.00     0.098 A 
ATOM      4  C   UNL     1      47.001  67.394   3.346  1.00  0.00     0.142 A 
ATOM      5  C   UNL     1      46.715  66.014   3.303  1.00  0.00     0.022 A 
ATOM      6  C   UNL     1      47.699  65.108   2.886  1.00  0.00     0.062 A 
ATOM      7  C   UNL     1      45.439  65.586   3.682  1.00  0.00     0.019 A 
ATOM      8  C   UNL     1      44.494  66.527   4.090  1.00  0.00     0.094 A 
ATOM      9  C   UNL     1      44.849  67.880   4.108  1.00  0.00     0.336 A 
ATOM     10  O   UNL     1      44.010  68.745   4.472  1.00  0.00    -0.246 OA
ATOM     11  O   UNL     1      46.070  68.260   3.741  1.00  0.00    -0.423 OA
ENDROOT
BRANCH   1  12
ATOM     12  O   UNL     1      49.989  64.693   2.086  1.00  0.00    -0.493 OA
ATOM     13  C   UNL     1      49.897  63.843   0.948  1.00  0.00     0.278 C 
ENDBRANCH   1  12
BRANCH   2  14
ATOM     14  O   UNL     1      50.503  67.448   2.192  1.00  0.00    -0.504 OA
ATOM     15  H   UNL     1      50.622  68.366   1.782  1.00  0.00     0.293 HD
ENDBRANCH   2  14
TORSDOF 2
ENDMDL
MODEL 7
REMARK VINA RESULT:    -5.361      7.002      8.357
REMARK INTER + INTRA:          -5.896
REMARK INTER:                  -5.852
REMARK INTRA:                  -0.044
REMARK UNBOUND:                -0.065
REMARK SMILES COc1cc2ccc(=O)oc2cc1O
REMARK SMILES IDX 3 1 13 2 12 3 11 4 5 5 4 6 6 7 7 8 8 9 9 10 10 11 2 12 1 13
REMARK SMILES IDX 14 14
REMARK H PARENT 14 15
REMARK Flexibility Score: inf
ROOT
ATOM      1  C   UNL     1      45.787  64.002   2.735  1.00  0.00     0.161 A 
ATOM      2  C   UNL     1      44.406  63.943   3.009  1.00  0.00     0.161 A 
ATOM      3  C   UNL     1      43.740  65.062   3.522  1.00  0.00     0.098 A 
ATOM      4  C   UNL     1      44.437  66.248   3.768  1.00  0.00     0.142 A 
ATOM      5  C   UNL     1      45.819  66.317   3.497  1.00  0.00     0.022 A 
ATOM      6  C   UNL     1      46.489  65.199   2.984  1.00  0.00     0.062 A 
ATOM      7  C   UNL     1      46.488  67.518   3.754  1.00  0.00     0.019 A 
ATOM      8  C   UNL     1      45.776  68.603   4.265  1.00  0.00     0.094 A 
ATOM      9  C   UNL     1      44.407  68.461   4.508  1.00  0.00     0.336 A 
ATOM     10  O   UNL     1      43.746  69.428   4.970  1.00  0.00    -0.246 OA
ATOM     11  O   UNL     1      43.794  67.307   4.256  1.00  0.00    -0.423 OA
ENDROOT
BRANCH   1  12
ATOM     12  O   UNL     1      46.424  62.861   2.222  1.00  0.00    -0.493 OA
ATOM     13  C   UNL     1      46.987  61.823   3.018  1.00  0.00     0.278 C 
ENDBRANCH   1  12
BRANCH   2  14
ATOM     14  O   UNL     1      43.677  62.777   2.777  1.00  0.00    -0.504 OA
ATOM     15  H   UNL     1      43.496  62.098   3.507  1.00  0.00     0.293 HD
ENDBRANCH   2  14
TORSDOF 2
ENDMDL
MODEL 8
REMARK VINA RESULT:    -5.346      2.342      3.739
REMARK INTER + INTRA:          -5.880
REMARK INTER:                  -5.837
REMARK INTRA:                  -0.043
REMARK UNBOUND:                -0.065
REMARK SMILES COc1cc2ccc(=O)oc2cc1O
REMARK SMILES IDX 3 1 13 2 12 3 11 4 5 5 4 6 6 7 7 8 8 9 9 10 10 11 2 12 1 13
REMARK SMILES IDX 14 14
REMARK H PARENT 14 15
REMARK Flexibility Score: inf
ROOT
ATOM      1  C   UNL     1      53.959  59.069  -0.149  1.00  0.00     0.161 A 
ATOM      2  C   UNL     1      52.587  58.756  -0.205  1.00  0.00     0.161 A 
ATOM      3  C   UNL     1      51.627  59.768  -0.085  1.00  0.00     0.098 A 
ATOM      4  C   UNL     1      52.019  61.097   0.092  1.00  0.00     0.142 A 
ATOM      5  C   UNL     1      53.390  61.421   0.149  1.00  0.00     0.022 A 
ATOM      6  C   UNL     1      54.354  60.411   0.030  1.00  0.00     0.062 A 
ATOM      7  C   UNL     1      53.751  62.760   0.328  1.00  0.00     0.019 A 
ATOM      8  C   UNL     1      52.754  63.729   0.442  1.00  0.00     0.094 A 
ATOM      9  C   UNL     1      51.415  63.333   0.375  1.00  0.00     0.336 A 
ATOM     10  O   UNL     1      50.500  64.192   0.476  1.00  0.00    -0.246 OA
ATOM     11  O   UNL     1      51.099  62.052   0.205  1.00  0.00    -0.423 OA
ENDROOT
BRANCH   1  12
ATOM     12  O   UNL     1      54.895  58.030  -0.273  1.00  0.00    -0.493 OA
ATOM     13  C   UNL     1      55.414  57.553  -1.510  1.00  0.00     0.278 C 
ENDBRANCH   1  12
BRANCH   2  14
ATOM     14  O   UNL     1      52.156  57.441  -0.381  1.00  0.00    -0.504 OA
ATOM     15  H   UNL     1      52.318  56.722   0.313  1.00  0.00     0.293 HD
ENDBRANCH   2  14
TORSDOF 2
ENDMDL
MODEL 9
REMARK VINA RESULT:    -5.325      8.628      9.522
REMARK INTER + INTRA:          -5.857
REMARK INTER:                  -5.810
REMARK INTRA:                  -0.047
REMARK UNBOUND:                -0.065
REMARK SMILES COc1cc2ccc(=O)oc2cc1O
REMARK SMILES IDX 3 1 13 2 12 3 11 4 5 5 4 6 6 7 7 8 8 9 9 10 10 11 2 12 1 13
REMARK SMILES IDX 14 14
REMARK H PARENT 14 15
REMARK Flexibility Score: inf
ROOT
ATOM      1  C   UNL     1      48.274  57.708   4.945  1.00  0.00     0.161 A 
ATOM      2  C   UNL     1      47.640  57.791   6.201  1.00  0.00     0.161 A 
ATOM      3  C   UNL     1      48.400  57.969   7.363  1.00  0.00     0.098 A 
ATOM      4  C   UNL     1      49.791  58.064   7.291  1.00  0.00     0.142 A 
ATOM      5  C   UNL     1      50.435  57.981   6.039  1.00  0.00     0.022 A 
ATOM      6  C   UNL     1      49.678  57.803   4.873  1.00  0.00     0.062 A 
ATOM      7  C   UNL     1      51.829  58.079   5.999  1.00  0.00     0.019 A 
ATOM      8  C   UNL     1      52.537  58.256   7.188  1.00  0.00     0.094 A 
ATOM      9  C   UNL     1      51.832  58.330   8.392  1.00  0.00     0.336 A 
ATOM     10  O   UNL     1      52.452  58.488   9.476  1.00  0.00    -0.246 OA
ATOM     11  O   UNL     1      50.505  58.232   8.402  1.00  0.00    -0.423 OA
ENDROOT
BRANCH   1  12
ATOM     12  O   UNL     1      47.482  57.529   3.799  1.00  0.00    -0.493 OA
ATOM     13  C   UNL     1      47.847  56.727   2.681  1.00  0.00     0.278 C 
ENDBRANCH   1  12
BRANCH   2  14
ATOM     14  O   UNL     1      46.253  57.701   6.314  1.00  0.00    -0.504 OA
ATOM     15  H   UNL     1      45.631  58.388   5.903  1.00  0.00     0.293 HD
ENDBRANCH   2  14
TORSDOF 2
ENDMDL
