MODEL 1
REMARK VINA RESULT:    -4.506      0.000      0.000
REMARK INTER + INTRA:          -4.506
REMARK INTER:                  -4.506
REMARK INTRA:                   0.000
REMARK UNBOUND:                 0.000
REMARK SMILES C=C1CC[C@@H]2C[C@H]1C2(C)C
REMARK SMILES IDX 9 1 8 2 5 3 4 4 3 5 2 6 1 7 7 8 6 9 10 10
REMARK H PARENT
REMARK Flexibility Score: inf
ROOT
ATOM      1  C   UNL     1      -3.240   2.337  14.931  1.00  0.00     0.012 C 
ATOM      2  C   UNL     1      -1.828   1.909  14.445  1.00  0.00    -0.026 C 
ATOM      3  C   UNL     1      -0.587   2.609  15.058  1.00  0.00    -0.004 C 
ATOM      4  C   UNL     1      -0.872   4.121  15.327  1.00  0.00     0.008 C 
ATOM      5  C   UNL     1      -1.456   4.861  14.065  1.00  0.00     0.031 C 
ATOM      6  C   UNL     1      -1.770   3.893  12.914  1.00  0.00    -0.074 C 
ATOM      7  C   UNL     1      -2.402   4.306  11.809  1.00  0.00     0.008 C 
ATOM      8  C   UNL     1      -1.326   2.444  13.084  1.00  0.00     0.021 C 
ATOM      9  C   UNL     1       0.089   2.529  13.679  1.00  0.00     0.012 C 
ATOM     10  C   UNL     1      -1.726   0.366  14.536  1.00  0.00     0.012 C 
ENDROOT
TORSDOF 0
ENDMDL
MODEL 2
REMARK VINA RESULT:    -4.445      1.129      2.993
REMARK INTER + INTRA:          -4.445
REMARK INTER:                  -4.445
REMARK INTRA:                   0.000
REMARK UNBOUND:                 0.000
REMARK SMILES C=C1CC[C@@H]2C[C@H]1C2(C)C
REMARK SMILES IDX 9 1 8 2 5 3 4 4 3 5 2 6 1 7 7 8 6 9 10 10
REMARK H PARENT
REMARK Flexibility Score: inf
ROOT
ATOM      1  C   UNL     1       0.715   3.296  14.464  1.00  0.00     0.012 C 
ATOM      2  C   UNL     1      -0.785   3.675  14.609  1.00  0.00    -0.026 C 
ATOM      3  C   UNL     1      -1.750   2.654  15.264  1.00  0.00    -0.004 C 
ATOM      4  C   UNL     1      -1.371   1.191  14.870  1.00  0.00     0.008 C 
ATOM      5  C   UNL     1      -1.215   1.003  13.313  1.00  0.00     0.031 C 
ATOM      6  C   UNL     1      -1.305   2.336  12.554  1.00  0.00    -0.074 C 
ATOM      7  C   UNL     1      -1.058   2.407  11.241  1.00  0.00     0.008 C 
ATOM      8  C   UNL     1      -1.692   3.571  13.361  1.00  0.00     0.021 C 
ATOM      9  C   UNL     1      -2.837   3.106  14.275  1.00  0.00     0.012 C 
ATOM     10  C   UNL     1      -0.875   5.069  15.278  1.00  0.00     0.012 C 
ENDROOT
TORSDOF 0
ENDMDL
MODEL 3
REMARK VINA RESULT:    -4.434      1.208      3.015
REMARK INTER + INTRA:          -4.434
REMARK INTER:                  -4.434
REMARK INTRA:                   0.000
REMARK UNBOUND:                 0.000
REMARK SMILES C=C1CC[C@@H]2C[C@H]1C2(C)C
REMARK SMILES IDX 9 1 8 2 5 3 4 4 3 5 2 6 1 7 7 8 6 9 10 10
REMARK H PARENT
REMARK Flexibility Score: inf
ROOT
ATOM      1  C   UNL     1      -0.699   1.536  12.180  1.00  0.00     0.012 C 
ATOM      2  C   UNL     1      -0.917   3.073  12.262  1.00  0.00    -0.026 C 
ATOM      3  C   UNL     1       0.092   3.924  13.075  1.00  0.00    -0.004 C 
ATOM      4  C   UNL     1       0.577   3.157  14.346  1.00  0.00     0.008 C 
ATOM      5  C   UNL     1      -0.617   2.597  15.209  1.00  0.00     0.031 C 
ATOM      6  C   UNL     1      -1.975   2.786  14.517  1.00  0.00    -0.074 C 
ATOM      7  C   UNL     1      -3.094   2.255  15.022  1.00  0.00     0.008 C 
ATOM      8  C   UNL     1      -1.992   3.611  13.234  1.00  0.00     0.021 C 
ATOM      9  C   UNL     1      -1.080   4.814  13.522  1.00  0.00     0.012 C 
ATOM     10  C   UNL     1      -1.108   3.617  10.825  1.00  0.00     0.012 C 
ENDROOT
TORSDOF 0
ENDMDL
MODEL 4
REMARK VINA RESULT:    -4.429      1.174      3.135
REMARK INTER + INTRA:          -4.429
REMARK INTER:                  -4.429
REMARK INTRA:                   0.000
REMARK UNBOUND:                 0.000
REMARK SMILES C=C1CC[C@@H]2C[C@H]1C2(C)C
REMARK SMILES IDX 9 1 8 2 5 3 4 4 3 5 2 6 1 7 7 8 6 9 10 10
REMARK H PARENT
REMARK Flexibility Score: inf
ROOT
ATOM      1  C   UNL     1      -2.440   4.077  13.380  1.00  0.00     0.012 C 
ATOM      2  C   UNL     1      -1.155   3.864  14.227  1.00  0.00    -0.026 C 
ATOM      3  C   UNL     1       0.179   3.568  13.494  1.00  0.00    -0.004 C 
ATOM      4  C   UNL     1      -0.059   2.671  12.237  1.00  0.00     0.008 C 
ATOM      5  C   UNL     1      -0.901   1.380  12.564  1.00  0.00     0.031 C 
ATOM      6  C   UNL     1      -1.437   1.383  14.004  1.00  0.00    -0.074 C 
ATOM      7  C   UNL     1      -2.289   0.444  14.432  1.00  0.00     0.008 C 
ATOM      8  C   UNL     1      -0.952   2.499  14.924  1.00  0.00     0.021 C 
ATOM      9  C   UNL     1       0.554   2.618  14.644  1.00  0.00     0.012 C 
ATOM     10  C   UNL     1      -1.021   5.048  15.217  1.00  0.00     0.012 C 
ENDROOT
TORSDOF 0
ENDMDL
MODEL 5
REMARK VINA RESULT:    -4.187      1.129      2.751
REMARK INTER + INTRA:          -4.187
REMARK INTER:                  -4.187
REMARK INTRA:                   0.000
REMARK UNBOUND:                 0.000
REMARK SMILES C=C1CC[C@@H]2C[C@H]1C2(C)C
REMARK SMILES IDX 9 1 8 2 5 3 4 4 3 5 2 6 1 7 7 8 6 9 10 10
REMARK H PARENT
REMARK Flexibility Score: inf
ROOT
ATOM      1  C   UNL     1      -2.740   4.598  12.919  1.00  0.00     0.012 C 
ATOM      2  C   UNL     1      -1.591   3.610  12.578  1.00  0.00    -0.026 C 
ATOM      3  C   UNL     1      -1.487   2.285  13.377  1.00  0.00    -0.004 C 
ATOM      4  C   UNL     1      -1.886   2.498  14.872  1.00  0.00     0.008 C 
ATOM      5  C   UNL     1      -1.116   3.700  15.539  1.00  0.00     0.031 C 
ATOM      6  C   UNL     1      -0.276   4.491  14.523  1.00  0.00    -0.074 C 
ATOM      7  C   UNL     1       0.340   5.628  14.864  1.00  0.00     0.008 C 
ATOM      8  C   UNL     1      -0.173   3.919  13.113  1.00  0.00     0.021 C 
ATOM      9  C   UNL     1       0.044   2.410  13.310  1.00  0.00     0.012 C 
ATOM     10  C   UNL     1      -1.594   3.365  11.049  1.00  0.00     0.012 C 
ENDROOT
TORSDOF 0
ENDMDL
MODEL 6
REMARK VINA RESULT:    -3.983      1.371      2.381
REMARK INTER + INTRA:          -3.983
REMARK INTER:                  -3.983
REMARK INTRA:                   0.000
REMARK UNBOUND:                 0.000
REMARK SMILES C=C1CC[C@@H]2C[C@H]1C2(C)C
REMARK SMILES IDX 9 1 8 2 5 3 4 4 3 5 2 6 1 7 7 8 6 9 10 10
REMARK H PARENT
REMARK Flexibility Score: inf
ROOT
ATOM      1  C   UNL     1      -1.318   2.916  11.504  1.00  0.00     0.012 C 
ATOM      2  C   UNL     1      -1.057   2.146  12.828  1.00  0.00    -0.026 C 
ATOM      3  C   UNL     1      -2.037   2.350  14.013  1.00  0.00    -0.004 C 
ATOM      4  C   UNL     1      -2.537   3.828  14.079  1.00  0.00     0.008 C 
ATOM      5  C   UNL     1      -1.354   4.869  14.051  1.00  0.00     0.031 C 
ATOM      6  C   UNL     1       0.006   4.201  13.794  1.00  0.00    -0.074 C 
ATOM      7  C   UNL     1       1.112   4.926  13.596  1.00  0.00     0.008 C 
ATOM      8  C   UNL     1       0.039   2.676  13.782  1.00  0.00     0.021 C 
ATOM      9  C   UNL     1      -0.838   2.249  14.970  1.00  0.00     0.012 C 
ATOM     10  C   UNL     1      -0.859   0.647  12.491  1.00  0.00     0.012 C 
ENDROOT
TORSDOF 0
ENDMDL
MODEL 7
REMARK VINA RESULT:    -3.872      1.453      3.377
REMARK INTER + INTRA:          -3.872
REMARK INTER:                  -3.872
REMARK INTRA:                   0.000
REMARK UNBOUND:                 0.000
REMARK SMILES C=C1CC[C@@H]2C[C@H]1C2(C)C
REMARK SMILES IDX 9 1 8 2 5 3 4 4 3 5 2 6 1 7 7 8 6 9 10 10
REMARK H PARENT
REMARK Flexibility Score: inf
ROOT
ATOM      1  C   UNL     1      -0.602   5.245  15.327  1.00  0.00     0.012 C 
ATOM      2  C   UNL     1      -0.038   4.754  13.965  1.00  0.00    -0.026 C 
ATOM      3  C   UNL     1      -0.927   4.886  12.701  1.00  0.00    -0.004 C 
ATOM      4  C   UNL     1      -2.428   4.623  13.041  1.00  0.00     0.008 C 
ATOM      5  C   UNL     1      -2.644   3.274  13.827  1.00  0.00     0.031 C 
ATOM      6  C   UNL     1      -1.316   2.613  14.226  1.00  0.00    -0.074 C 
ATOM      7  C   UNL     1      -1.285   1.535  15.018  1.00  0.00     0.008 C 
ATOM      8  C   UNL     1      -0.037   3.235  13.676  1.00  0.00     0.021 C 
ATOM      9  C   UNL     1      -0.349   3.550  12.204  1.00  0.00     0.012 C 
ATOM     10  C   UNL     1       1.360   5.386  13.758  1.00  0.00     0.012 C 
ENDROOT
TORSDOF 0
ENDMDL
MODEL 8
REMARK VINA RESULT:    -3.816      2.019      3.694
REMARK INTER + INTRA:          -3.816
REMARK INTER:                  -3.816
REMARK INTRA:                   0.000
REMARK UNBOUND:                 0.000
REMARK SMILES C=C1CC[C@@H]2C[C@H]1C2(C)C
REMARK SMILES IDX 9 1 8 2 5 3 4 4 3 5 2 6 1 7 7 8 6 9 10 10
REMARK H PARENT
REMARK Flexibility Score: inf
ROOT
ATOM      1  C   UNL     1      -2.604   3.536  13.729  1.00  0.00     0.012 C 
ATOM      2  C   UNL     1      -2.422   4.378  12.437  1.00  0.00    -0.026 C 
ATOM      3  C   UNL     1      -2.079   3.647  11.114  1.00  0.00    -0.004 C 
ATOM      4  C   UNL     1      -1.125   2.437  11.373  1.00  0.00     0.008 C 
ATOM      5  C   UNL     1       0.142   2.836  12.221  1.00  0.00     0.031 C 
ATOM      6  C   UNL     1       0.064   4.279  12.742  1.00  0.00    -0.074 C 
ATOM      7  C   UNL     1       0.974   4.761  13.596  1.00  0.00     0.008 C 
ATOM      8  C   UNL     1      -1.090   5.139  12.238  1.00  0.00     0.021 C 
ATOM      9  C   UNL     1      -1.183   4.837  10.733  1.00  0.00     0.012 C 
ATOM     10  C   UNL     1      -3.651   5.309  12.282  1.00  0.00     0.012 C 
ENDROOT
TORSDOF 0
ENDMDL
MODEL 9
REMARK VINA RESULT:    -3.775      1.768      4.178
REMARK INTER + INTRA:          -3.775
REMARK INTER:                  -3.775
REMARK INTRA:                   0.000
REMARK UNBOUND:                 0.000
REMARK SMILES C=C1CC[C@@H]2C[C@H]1C2(C)C
REMARK SMILES IDX 9 1 8 2 5 3 4 4 3 5 2 6 1 7 7 8 6 9 10 10
REMARK H PARENT
REMARK Flexibility Score: inf
ROOT
ATOM      1  C   UNL     1      -0.454   6.146  12.472  1.00  0.00     0.012 C 
ATOM      2  C   UNL     1      -0.986   5.288  11.292  1.00  0.00    -0.026 C 
ATOM      3  C   UNL     1      -2.498   4.950  11.240  1.00  0.00    -0.004 C 
ATOM      4  C   UNL     1      -3.068   4.706  12.674  1.00  0.00     0.008 C 
ATOM      5  C   UNL     1      -2.216   3.665  13.495  1.00  0.00     0.031 C 
ATOM      6  C   UNL     1      -0.928   3.258  12.762  1.00  0.00    -0.074 C 
ATOM      7  C   UNL     1      -0.003   2.493  13.353  1.00  0.00     0.008 C 
ATOM      8  C   UNL     1      -0.754   3.759  11.333  1.00  0.00     0.021 C 
ATOM      9  C   UNL     1      -2.130   3.568  10.674  1.00  0.00     0.012 C 
ATOM     10  C   UNL     1      -0.487   5.916   9.967  1.00  0.00     0.012 C 
ENDROOT
TORSDOF 0
ENDMDL
