MODEL 1
REMARK VINA RESULT:    -2.726      0.000      0.000
REMARK INTER + INTRA:          -6.195
REMARK INTER:                  -5.116
REMARK INTRA:                  -1.079
REMARK UNBOUND:                -1.079
REMARK SMILES CCCCCCCCC=CCCCCCCCC(=O)[O-]
REMARK SMILES IDX 10 1 9 2 11 3 12 4 13 5 14 6 15 7 16 8 17 9 18 10 19 11
REMARK SMILES IDX 20 12 8 13 7 14 6 15 5 16 4 17 3 18 2 19 1 20
REMARK H PARENT
REMARK Flexibility Score: inf
ROOT
ATOM      1  C   UNL     1       3.428  10.642  18.396  1.00  0.00    -0.031 C 
ATOM      2  C   UNL     1       2.779  11.746  17.976  1.00  0.00    -0.031 C 
ENDROOT
BRANCH   1   3
ATOM      3  C   UNL     1       4.283  10.569  19.634  1.00  0.00     0.027 C 
BRANCH   3   4
ATOM      4  C   UNL     1       5.520  11.461  19.490  1.00  0.00     0.004 C 
BRANCH   4   5
ATOM      5  C   UNL     1       6.462  10.926  18.405  1.00  0.00     0.000 C 
BRANCH   5   6
ATOM      6  C   UNL     1       6.682  11.973  17.303  1.00  0.00     0.000 C 
BRANCH   6   7
ATOM      7  C   UNL     1       5.859  11.685  16.038  1.00  0.00     0.000 C 
BRANCH   7   8
ATOM      8  C   UNL     1       5.219  12.953  15.446  1.00  0.00     0.006 C 
BRANCH   8   9
ATOM      9  C   UNL     1       4.430  12.658  14.163  1.00  0.00     0.053 C 
BRANCH   9  10
ATOM     10  C   UNL     1       2.954  12.816  14.368  1.00  0.00     0.041 C 
ATOM     11  O   UNL     1       2.509  13.782  15.044  1.00  0.00    -0.550 OA
ATOM     12  O   UNL     1       2.074  11.882  13.837  1.00  0.00    -0.550 OA
ENDBRANCH   9  10
ENDBRANCH   8   9
ENDBRANCH   7   8
ENDBRANCH   6   7
ENDBRANCH   5   6
ENDBRANCH   4   5
ENDBRANCH   3   4
ENDBRANCH   1   3
BRANCH   2  13
ATOM     13  C   UNL     1       2.735  13.053  18.727  1.00  0.00     0.027 C 
BRANCH  13  14
ATOM     14  C   UNL     1       2.380  14.231  17.808  1.00  0.00     0.004 C 
BRANCH  14  15
ATOM     15  C   UNL     1       0.928  14.700  18.001  1.00  0.00     0.000 C 
BRANCH  15  16
ATOM     16  C   UNL     1       0.806  16.229  18.119  1.00  0.00     0.000 C 
BRANCH  16  17
ATOM     17  C   UNL     1      -0.531  16.693  18.737  1.00  0.00    -0.000 C 
BRANCH  17  18
ATOM     18  C   UNL     1      -1.562  15.556  18.803  1.00  0.00    -0.000 C 
BRANCH  18  19
ATOM     19  C   UNL     1      -2.120  15.401  20.223  1.00  0.00    -0.003 C 
ATOM     20  C   UNL     1      -2.123  13.939  20.660  1.00  0.00     0.004 C 
ENDBRANCH  18  19
ENDBRANCH  17  18
ENDBRANCH  16  17
ENDBRANCH  15  16
ENDBRANCH  14  15
ENDBRANCH  13  14
ENDBRANCH   2  13
TORSDOF 15
ENDMDL
MODEL 2
REMARK VINA RESULT:    -2.675      2.483      7.414
REMARK INTER + INTRA:          -6.099
REMARK INTER:                  -4.661
REMARK INTRA:                  -1.437
REMARK UNBOUND:                -1.079
REMARK SMILES CCCCCCCCC=CCCCCCCCC(=O)[O-]
REMARK SMILES IDX 10 1 9 2 11 3 12 4 13 5 14 6 15 7 16 8 17 9 18 10 19 11
REMARK SMILES IDX 20 12 8 13 7 14 6 15 5 16 4 17 3 18 2 19 1 20
REMARK H PARENT
REMARK Flexibility Score: inf
ROOT
ATOM      1  C   UNL     1       1.601  14.349  17.934  1.00  0.00    -0.031 C 
ATOM      2  C   UNL     1       2.411  13.669  17.100  1.00  0.00    -0.031 C 
ENDROOT
BRANCH   1   3
ATOM      3  C   UNL     1       0.887  15.629  17.583  1.00  0.00     0.027 C 
BRANCH   3   4
ATOM      4  C   UNL     1       1.461  16.805  18.378  1.00  0.00     0.004 C 
BRANCH   4   5
ATOM      5  C   UNL     1       0.803  18.126  17.961  1.00  0.00     0.000 C 
BRANCH   5   6
ATOM      6  C   UNL     1      -0.110  18.661  19.074  1.00  0.00     0.000 C 
BRANCH   6   7
ATOM      7  C   UNL     1      -1.601  18.560  18.719  1.00  0.00     0.000 C 
BRANCH   7   8
ATOM      8  C   UNL     1      -2.125  17.113  18.767  1.00  0.00     0.006 C 
BRANCH   8   9
ATOM      9  C   UNL     1      -2.034  16.512  20.176  1.00  0.00     0.053 C 
BRANCH   9  10
ATOM     10  C   UNL     1      -2.036  15.014  20.144  1.00  0.00     0.041 C 
ATOM     11  O   UNL     1      -2.125  14.405  19.044  1.00  0.00    -0.550 OA
ATOM     12  O   UNL     1      -1.969  14.293  21.328  1.00  0.00    -0.550 OA
ENDBRANCH   9  10
ENDBRANCH   8   9
ENDBRANCH   7   8
ENDBRANCH   6   7
ENDBRANCH   5   6
ENDBRANCH   4   5
ENDBRANCH   3   4
ENDBRANCH   1   3
BRANCH   2  13
ATOM     13  C   UNL     1       2.657  14.032  15.656  1.00  0.00     0.027 C 
BRANCH  13  14
ATOM     14  C   UNL     1       2.996  12.799  14.805  1.00  0.00     0.004 C 
BRANCH  14  15
ATOM     15  C   UNL     1       4.491  12.731  14.455  1.00  0.00     0.000 C 
BRANCH  15  16
ATOM     16  C   UNL     1       5.394  12.699  15.700  1.00  0.00     0.000 C 
BRANCH  16  17
ATOM     17  C   UNL     1       5.174  11.455  16.588  1.00  0.00    -0.000 C 
BRANCH  17  18
ATOM     18  C   UNL     1       5.983  11.524  17.891  1.00  0.00    -0.000 C 
BRANCH  18  19
ATOM     19  C   UNL     1       5.058  11.593  19.111  1.00  0.00    -0.003 C 
ATOM     20  C   UNL     1       3.949  10.548  19.025  1.00  0.00     0.004 C 
ENDBRANCH  18  19
ENDBRANCH  17  18
ENDBRANCH  16  17
ENDBRANCH  15  16
ENDBRANCH  14  15
ENDBRANCH  13  14
ENDBRANCH   2  13
TORSDOF 15
ENDMDL
MODEL 3
REMARK VINA RESULT:    -2.608      1.545      3.371
REMARK INTER + INTRA:          -5.973
REMARK INTER:                  -4.864
REMARK INTRA:                  -1.109
REMARK UNBOUND:                -1.079
REMARK SMILES CCCCCCCCC=CCCCCCCCC(=O)[O-]
REMARK SMILES IDX 10 1 9 2 11 3 12 4 13 5 14 6 15 7 16 8 17 9 18 10 19 11
REMARK SMILES IDX 20 12 8 13 7 14 6 15 5 16 4 17 3 18 2 19 1 20
REMARK H PARENT
REMARK Flexibility Score: inf
ROOT
ATOM      1  C   UNL     1       3.100  13.265  15.262  1.00  0.00    -0.031 C 
ATOM      2  C   UNL     1       2.105  13.965  15.841  1.00  0.00    -0.031 C 
ENDROOT
BRANCH   1   3
ATOM      3  C   UNL     1       4.542  13.301  15.701  1.00  0.00     0.027 C 
BRANCH   3   4
ATOM      4  C   UNL     1       5.334  12.163  15.049  1.00  0.00     0.004 C 
BRANCH   4   5
ATOM      5  C   UNL     1       5.841  11.172  16.103  1.00  0.00     0.000 C 
BRANCH   5   6
ATOM      6  C   UNL     1       6.593  11.901  17.226  1.00  0.00     0.000 C 
BRANCH   6   7
ATOM      7  C   UNL     1       6.635  11.094  18.534  1.00  0.00     0.000 C 
BRANCH   7   8
ATOM      8  C   UNL     1       5.511  11.489  19.509  1.00  0.00     0.006 C 
BRANCH   8   9
ATOM      9  C   UNL     1       4.357  10.477  19.501  1.00  0.00     0.053 C 
BRANCH   9  10
ATOM     10  C   UNL     1       3.191  10.971  18.700  1.00  0.00     0.041 C 
ATOM     11  O   UNL     1       2.547  10.177  17.963  1.00  0.00    -0.550 OA
ATOM     12  O   UNL     1       2.834  12.312  18.747  1.00  0.00    -0.550 OA
ENDBRANCH   9  10
ENDBRANCH   8   9
ENDBRANCH   7   8
ENDBRANCH   6   7
ENDBRANCH   5   6
ENDBRANCH   4   5
ENDBRANCH   3   4
ENDBRANCH   1   3
BRANCH   2  13
ATOM     13  C   UNL     1       2.261  14.821  17.073  1.00  0.00     0.027 C 
BRANCH  13  14
ATOM     14  C   UNL     1       0.912  15.099  17.753  1.00  0.00     0.004 C 
BRANCH  14  15
ATOM     15  C   UNL     1       0.732  16.587  18.096  1.00  0.00     0.000 C 
BRANCH  15  16
ATOM     16  C   UNL     1      -0.632  16.889  18.740  1.00  0.00     0.000 C 
BRANCH  16  17
ATOM     17  C   UNL     1      -1.619  15.703  18.674  1.00  0.00    -0.000 C 
BRANCH  17  18
ATOM     18  C   UNL     1      -2.118  15.289  20.066  1.00  0.00    -0.000 C 
BRANCH  18  19
ATOM     19  C   UNL     1      -2.048  13.768  20.246  1.00  0.00    -0.003 C 
ATOM     20  C   UNL     1      -1.985  13.387  21.723  1.00  0.00     0.004 C 
ENDBRANCH  18  19
ENDBRANCH  17  18
ENDBRANCH  16  17
ENDBRANCH  15  16
ENDBRANCH  14  15
ENDBRANCH  13  14
ENDBRANCH   2  13
TORSDOF 15
ENDMDL
MODEL 4
REMARK VINA RESULT:    -2.413      2.694      6.988
REMARK INTER + INTRA:          -5.607
REMARK INTER:                  -4.626
REMARK INTRA:                  -0.981
REMARK UNBOUND:                -1.079
REMARK SMILES CCCCCCCCC=CCCCCCCCC(=O)[O-]
REMARK SMILES IDX 10 1 9 2 11 3 12 4 13 5 14 6 15 7 16 8 17 9 18 10 19 11
REMARK SMILES IDX 20 12 8 13 7 14 6 15 5 16 4 17 3 18 2 19 1 20
REMARK H PARENT
REMARK Flexibility Score: inf
ROOT
ATOM      1  C   UNL     1       2.800  11.741  18.354  1.00  0.00    -0.031 C 
ATOM      2  C   UNL     1       3.854  10.998  18.744  1.00  0.00    -0.031 C 
ENDROOT
BRANCH   1   3
ATOM      3  C   UNL     1       2.625  13.207  18.656  1.00  0.00     0.027 C 
BRANCH   3   4
ATOM      4  C   UNL     1       2.093  13.952  17.427  1.00  0.00     0.004 C 
BRANCH   4   5
ATOM      5  C   UNL     1       1.388  15.252  17.835  1.00  0.00     0.000 C 
BRANCH   5   6
ATOM      6  C   UNL     1       0.041  14.957  18.512  1.00  0.00     0.000 C 
BRANCH   6   7
ATOM      7  C   UNL     1      -0.998  16.064  18.272  1.00  0.00     0.000 C 
BRANCH   7   8
ATOM      8  C   UNL     1      -1.777  16.431  19.548  1.00  0.00     0.006 C 
BRANCH   8   9
ATOM      9  C   UNL     1      -2.091  17.932  19.621  1.00  0.00     0.053 C 
BRANCH   9  10
ATOM     10  C   UNL     1      -1.287  18.718  18.631  1.00  0.00     0.041 C 
ATOM     11  O   UNL     1      -1.802  19.072  17.536  1.00  0.00    -0.550 OA
ATOM     12  O   UNL     1       0.037  19.033  18.904  1.00  0.00    -0.550 OA
ENDBRANCH   9  10
ENDBRANCH   8   9
ENDBRANCH   7   8
ENDBRANCH   6   7
ENDBRANCH   5   6
ENDBRANCH   4   5
ENDBRANCH   3   4
ENDBRANCH   1   3
BRANCH   2  13
ATOM     13  C   UNL     1       5.065  11.537  19.464  1.00  0.00     0.027 C 
BRANCH  13  14
ATOM     14  C   UNL     1       6.374  10.995  18.872  1.00  0.00     0.004 C 
BRANCH  14  15
ATOM     15  C   UNL     1       6.827  11.793  17.639  1.00  0.00     0.000 C 
BRANCH  15  16
ATOM     16  C   UNL     1       5.947  11.533  16.404  1.00  0.00     0.000 C 
BRANCH  16  17
ATOM     17  C   UNL     1       5.310  12.815  15.823  1.00  0.00    -0.000 C 
BRANCH  17  18
ATOM     18  C   UNL     1       4.657  12.567  14.455  1.00  0.00    -0.000 C 
BRANCH  18  19
ATOM     19  C   UNL     1       3.258  13.192  14.392  1.00  0.00    -0.003 C 
ATOM     20  C   UNL     1       2.188  12.130  14.152  1.00  0.00     0.004 C 
ENDBRANCH  18  19
ENDBRANCH  17  18
ENDBRANCH  16  17
ENDBRANCH  15  16
ENDBRANCH  14  15
ENDBRANCH  13  14
ENDBRANCH   2  13
TORSDOF 15
ENDMDL
MODEL 5
REMARK VINA RESULT:    -2.363      1.480      2.573
REMARK INTER + INTRA:          -5.515
REMARK INTER:                  -4.483
REMARK INTRA:                  -1.032
REMARK UNBOUND:                -1.079
REMARK SMILES CCCCCCCCC=CCCCCCCCC(=O)[O-]
REMARK SMILES IDX 10 1 9 2 11 3 12 4 13 5 14 6 15 7 16 8 17 9 18 10 19 11
REMARK SMILES IDX 20 12 8 13 7 14 6 15 5 16 4 17 3 18 2 19 1 20
REMARK H PARENT
REMARK Flexibility Score: inf
ROOT
ATOM      1  C   UNL     1       2.630  13.505  17.201  1.00  0.00    -0.031 C 
ATOM      2  C   UNL     1       1.939  14.647  17.019  1.00  0.00    -0.031 C 
ENDROOT
BRANCH   1   3
ATOM      3  C   UNL     1       2.783  12.797  18.523  1.00  0.00     0.027 C 
BRANCH   3   4
ATOM      4  C   UNL     1       2.956  11.290  18.312  1.00  0.00     0.004 C 
BRANCH   4   5
ATOM      5  C   UNL     1       4.131  10.750  19.137  1.00  0.00     0.000 C 
BRANCH   5   6
ATOM      6  C   UNL     1       5.338  11.696  19.058  1.00  0.00     0.000 C 
BRANCH   6   7
ATOM      7  C   UNL     1       6.319  11.313  17.939  1.00  0.00     0.000 C 
BRANCH   7   8
ATOM      8  C   UNL     1       5.670  11.350  16.543  1.00  0.00     0.006 C 
BRANCH   8   9
ATOM      9  C   UNL     1       5.684  12.760  15.937  1.00  0.00     0.053 C 
BRANCH   9  10
ATOM     10  C   UNL     1       5.120  12.774  14.549  1.00  0.00     0.041 C 
ATOM     11  O   UNL     1       5.865  13.025  13.565  1.00  0.00    -0.550 OA
ATOM     12  O   UNL     1       3.766  12.539  14.347  1.00  0.00    -0.550 OA
ENDBRANCH   9  10
ENDBRANCH   8   9
ENDBRANCH   7   8
ENDBRANCH   6   7
ENDBRANCH   5   6
ENDBRANCH   4   5
ENDBRANCH   3   4
ENDBRANCH   1   3
BRANCH   2  13
ATOM     13  C   UNL     1       1.137  15.346  18.088  1.00  0.00     0.027 C 
BRANCH  13  14
ATOM     14  C   UNL     1       1.615  16.788  18.315  1.00  0.00     0.004 C 
BRANCH  14  15
ATOM     15  C   UNL     1       0.549  17.821  17.915  1.00  0.00     0.000 C 
BRANCH  15  16
ATOM     16  C   UNL     1       0.221  18.808  19.048  1.00  0.00     0.000 C 
BRANCH  16  17
ATOM     17  C   UNL     1      -1.295  18.998  19.277  1.00  0.00    -0.000 C 
BRANCH  17  18
ATOM     18  C   UNL     1      -2.100  17.748  18.893  1.00  0.00    -0.000 C 
BRANCH  18  19
ATOM     19  C   UNL     1      -2.031  16.688  19.998  1.00  0.00    -0.003 C 
ATOM     20  C   UNL     1      -1.946  15.281  19.412  1.00  0.00     0.004 C 
ENDBRANCH  18  19
ENDBRANCH  17  18
ENDBRANCH  16  17
ENDBRANCH  15  16
ENDBRANCH  14  15
ENDBRANCH  13  14
ENDBRANCH   2  13
TORSDOF 15
ENDMDL
MODEL 6
REMARK VINA RESULT:    -2.271      1.892      3.853
REMARK INTER + INTRA:          -5.342
REMARK INTER:                  -4.808
REMARK INTRA:                  -0.534
REMARK UNBOUND:                -1.079
REMARK SMILES CCCCCCCCC=CCCCCCCCC(=O)[O-]
REMARK SMILES IDX 10 1 9 2 11 3 12 4 13 5 14 6 15 7 16 8 17 9 18 10 19 11
REMARK SMILES IDX 20 12 8 13 7 14 6 15 5 16 4 17 3 18 2 19 1 20
REMARK H PARENT
REMARK Flexibility Score: inf
ROOT
ATOM      1  C   UNL     1       2.657  13.503  15.116  1.00  0.00    -0.031 C 
ATOM      2  C   UNL     1       1.965  14.383  15.866  1.00  0.00    -0.031 C 
ENDROOT
BRANCH   1   3
ATOM      3  C   UNL     1       3.598  12.462  15.665  1.00  0.00     0.027 C 
BRANCH   3   4
ATOM      4  C   UNL     1       5.028  12.714  15.177  1.00  0.00     0.004 C 
BRANCH   4   5
ATOM      5  C   UNL     1       6.031  12.605  16.331  1.00  0.00     0.000 C 
BRANCH   5   6
ATOM      6  C   UNL     1       5.903  11.251  17.045  1.00  0.00     0.000 C 
BRANCH   6   7
ATOM      7  C   UNL     1       6.532  11.258  18.447  1.00  0.00     0.000 C 
BRANCH   7   8
ATOM      8  C   UNL     1       5.498  11.511  19.560  1.00  0.00     0.006 C 
BRANCH   8   9
ATOM      9  C   UNL     1       4.392  10.446  19.573  1.00  0.00     0.053 C 
BRANCH   9  10
ATOM     10  C   UNL     1       3.167  10.908  18.844  1.00  0.00     0.041 C 
ATOM     11  O   UNL     1       2.468  10.085  18.195  1.00  0.00    -0.550 OA
ATOM     12  O   UNL     1       2.815  12.251  18.858  1.00  0.00    -0.550 OA
ENDBRANCH   9  10
ENDBRANCH   8   9
ENDBRANCH   7   8
ENDBRANCH   6   7
ENDBRANCH   5   6
ENDBRANCH   4   5
ENDBRANCH   3   4
ENDBRANCH   1   3
BRANCH   2  13
ATOM     13  C   UNL     1       1.954  14.403  17.374  1.00  0.00     0.027 C 
BRANCH  13  14
ATOM     14  C   UNL     1       1.047  15.514  17.926  1.00  0.00     0.004 C 
BRANCH  14  15
ATOM     15  C   UNL     1      -0.215  14.950  18.598  1.00  0.00     0.000 C 
BRANCH  15  16
ATOM     16  C   UNL     1      -1.151  16.051  19.127  1.00  0.00     0.000 C 
BRANCH  16  17
ATOM     17  C   UNL     1      -1.785  16.907  18.009  1.00  0.00    -0.000 C 
BRANCH  17  18
ATOM     18  C   UNL     1      -1.553  18.410  18.228  1.00  0.00    -0.000 C 
BRANCH  18  19
ATOM     19  C   UNL     1      -0.224  18.662  18.950  1.00  0.00    -0.003 C 
ATOM     20  C   UNL     1       0.856  19.124  17.975  1.00  0.00     0.004 C 
ENDBRANCH  18  19
ENDBRANCH  17  18
ENDBRANCH  16  17
ENDBRANCH  15  16
ENDBRANCH  14  15
ENDBRANCH  13  14
ENDBRANCH   2  13
TORSDOF 15
ENDMDL
MODEL 7
REMARK VINA RESULT:    -2.190      1.538      3.157
REMARK INTER + INTRA:          -5.190
REMARK INTER:                  -3.684
REMARK INTRA:                  -1.506
REMARK UNBOUND:                -1.079
REMARK SMILES CCCCCCCCC=CCCCCCCCC(=O)[O-]
REMARK SMILES IDX 10 1 9 2 11 3 12 4 13 5 14 6 15 7 16 8 17 9 18 10 19 11
REMARK SMILES IDX 20 12 8 13 7 14 6 15 5 16 4 17 3 18 2 19 1 20
REMARK H PARENT
REMARK Flexibility Score: inf
ROOT
ATOM      1  C   UNL     1       2.426  13.741  17.635  1.00  0.00    -0.031 C 
ATOM      2  C   UNL     1       1.618  14.819  17.586  1.00  0.00    -0.031 C 
ENDROOT
BRANCH   1   3
ATOM      3  C   UNL     1       2.511  12.785  18.797  1.00  0.00     0.027 C 
BRANCH   3   4
ATOM      4  C   UNL     1       2.881  11.379  18.314  1.00  0.00     0.004 C 
BRANCH   4   5
ATOM      5  C   UNL     1       4.195  10.907  18.950  1.00  0.00     0.000 C 
BRANCH   5   6
ATOM      6  C   UNL     1       5.319  11.926  18.710  1.00  0.00     0.000 C 
BRANCH   6   7
ATOM      7  C   UNL     1       6.446  11.368  17.827  1.00  0.00     0.000 C 
BRANCH   7   8
ATOM      8  C   UNL     1       6.150  11.517  16.324  1.00  0.00     0.006 C 
BRANCH   8   9
ATOM      9  C   UNL     1       5.334  12.781  16.018  1.00  0.00     0.053 C 
BRANCH   9  10
ATOM     10  C   UNL     1       4.734  12.737  14.646  1.00  0.00     0.041 C 
ATOM     11  O   UNL     1       3.503  12.953  14.486  1.00  0.00    -0.550 OA
ATOM     12  O   UNL     1       5.528  12.430  13.549  1.00  0.00    -0.550 OA
ENDBRANCH   9  10
ENDBRANCH   8   9
ENDBRANCH   7   8
ENDBRANCH   6   7
ENDBRANCH   5   6
ENDBRANCH   4   5
ENDBRANCH   3   4
ENDBRANCH   1   3
BRANCH   2  13
ATOM     13  C   UNL     1       0.610  15.184  18.646  1.00  0.00     0.027 C 
BRANCH  13  14
ATOM     14  C   UNL     1      -0.736  15.605  18.037  1.00  0.00     0.004 C 
BRANCH  14  15
ATOM     15  C   UNL     1      -1.894  15.464  19.038  1.00  0.00     0.000 C 
BRANCH  15  16
ATOM     16  C   UNL     1      -2.069  16.707  19.927  1.00  0.00     0.000 C 
BRANCH  16  17
ATOM     17  C   UNL     1      -2.013  18.036  19.142  1.00  0.00    -0.000 C 
BRANCH  17  18
ATOM     18  C   UNL     1      -1.018  19.030  19.758  1.00  0.00    -0.000 C 
BRANCH  18  19
ATOM     19  C   UNL     1       0.333  18.978  19.035  1.00  0.00    -0.003 C 
ATOM     20  C   UNL     1       0.158  19.125  17.526  1.00  0.00     0.004 C 
ENDBRANCH  18  19
ENDBRANCH  17  18
ENDBRANCH  16  17
ENDBRANCH  15  16
ENDBRANCH  14  15
ENDBRANCH  13  14
ENDBRANCH   2  13
TORSDOF 15
ENDMDL
MODEL 8
REMARK VINA RESULT:    -0.818      2.255      4.174
REMARK INTER + INTRA:          -2.613
REMARK INTER:                  -1.133
REMARK INTRA:                  -1.480
REMARK UNBOUND:                -1.079
REMARK SMILES CCCCCCCCC=CCCCCCCCC(=O)[O-]
REMARK SMILES IDX 10 1 9 2 11 3 12 4 13 5 14 6 15 7 16 8 17 9 18 10 19 11
REMARK SMILES IDX 20 12 8 13 7 14 6 15 5 16 4 17 3 18 2 19 1 20
REMARK H PARENT
REMARK Flexibility Score: inf
ROOT
ATOM      1  C   UNL     1       2.768  13.258  16.751  1.00  0.00    -0.031 C 
ATOM      2  C   UNL     1       2.207  13.950  17.761  1.00  0.00    -0.031 C 
ENDROOT
BRANCH   1   3
ATOM      3  C   UNL     1       2.440  13.452  15.293  1.00  0.00     0.027 C 
BRANCH   3   4
ATOM      4  C   UNL     1       3.534  12.848  14.407  1.00  0.00     0.004 C 
BRANCH   4   5
ATOM      5  C   UNL     1       4.928  13.260  14.897  1.00  0.00     0.000 C 
BRANCH   5   6
ATOM      6  C   UNL     1       5.748  12.031  15.316  1.00  0.00     0.000 C 
BRANCH   6   7
ATOM      7  C   UNL     1       6.356  12.175  16.720  1.00  0.00     0.000 C 
BRANCH   7   8
ATOM      8  C   UNL     1       5.997  10.998  17.645  1.00  0.00     0.006 C 
BRANCH   8   9
ATOM      9  C   UNL     1       5.575  11.470  19.043  1.00  0.00     0.053 C 
BRANCH   9  10
ATOM     10  C   UNL     1       4.370  10.730  19.539  1.00  0.00     0.041 C 
ATOM     11  O   UNL     1       4.364  10.232  20.696  1.00  0.00    -0.550 OA
ATOM     12  O   UNL     1       3.265  10.568  18.714  1.00  0.00    -0.550 OA
ENDBRANCH   9  10
ENDBRANCH   8   9
ENDBRANCH   7   8
ENDBRANCH   6   7
ENDBRANCH   5   6
ENDBRANCH   4   5
ENDBRANCH   3   4
ENDBRANCH   1   3
BRANCH   2  13
ATOM     13  C   UNL     1       1.231  15.087  17.586  1.00  0.00     0.027 C 
BRANCH  13  14
ATOM     14  C   UNL     1       0.091  15.029  18.614  1.00  0.00     0.004 C 
BRANCH  14  15
ATOM     15  C   UNL     1      -1.195  15.688  18.090  1.00  0.00     0.000 C 
BRANCH  15  16
ATOM     16  C   UNL     1      -2.122  16.167  19.221  1.00  0.00     0.000 C 
BRANCH  16  17
ATOM     17  C   UNL     1      -1.725  17.543  19.799  1.00  0.00    -0.000 C 
BRANCH  17  18
ATOM     18  C   UNL     1      -1.306  18.532  18.702  1.00  0.00    -0.000 C 
BRANCH  18  19
ATOM     19  C   UNL     1       0.077  19.125  18.994  1.00  0.00    -0.003 C 
ATOM     20  C   UNL     1       1.120  18.610  18.005  1.00  0.00     0.004 C 
ENDBRANCH  18  19
ENDBRANCH  17  18
ENDBRANCH  16  17
ENDBRANCH  15  16
ENDBRANCH  14  15
ENDBRANCH  13  14
ENDBRANCH   2  13
TORSDOF 15
ENDMDL
