MODEL 1
REMARK VINA RESULT:    -4.895      0.000      0.000
REMARK INTER + INTRA:         -16.167
REMARK INTER:                 -12.336
REMARK INTRA:                  -3.831
REMARK UNBOUND:                -3.831
REMARK SMILES CCCCCCCCCCCCCCCCCCCCCCCCCCCC(=O)[O-]
REMARK SMILES IDX 15 1 16 2 17 3 18 4 19 5 20 6 21 7 22 8 23 9 24 10 25 11
REMARK SMILES IDX 26 12 27 13 28 14 29 15 30 16 14 17 13 18 12 19 11 20 10 21
REMARK SMILES IDX 9 22 8 23 7 24 6 25 5 26 4 27 3 28 2 29 1 30
REMARK H PARENT
REMARK Flexibility Score: inf
ROOT
ATOM      1  C   UNL     1      59.577  29.076  11.398  1.00  0.00     0.000 C 
ENDROOT
BRANCH   1   2
ATOM      2  C   UNL     1      59.796  28.151  12.614  1.00  0.00     0.000 C 
BRANCH   2   3
ATOM      3  C   UNL     1      61.069  28.505  13.397  1.00  0.00     0.000 C 
BRANCH   3   4
ATOM      4  C   UNL     1      62.284  28.602  12.463  1.00  0.00     0.000 C 
BRANCH   4   5
ATOM      5  C   UNL     1      63.267  29.710  12.874  1.00  0.00     0.000 C 
BRANCH   5   6
ATOM      6  C   UNL     1      62.561  30.948  13.447  1.00  0.00     0.000 C 
BRANCH   6   7
ATOM      7  C   UNL     1      61.849  31.741  12.342  1.00  0.00     0.000 C 
BRANCH   7   8
ATOM      8  C   UNL     1      60.519  32.360  12.806  1.00  0.00     0.000 C 
BRANCH   8   9
ATOM      9  C   UNL     1      60.252  32.213  14.319  1.00  0.00     0.000 C 
BRANCH   9  10
ATOM     10  C   UNL     1      60.600  33.487  15.110  1.00  0.00     0.000 C 
BRANCH  10  11
ATOM     11  C   UNL     1      62.097  33.542  15.484  1.00  0.00     0.000 C 
BRANCH  11  12
ATOM     12  C   UNL     1      62.368  34.147  16.874  1.00  0.00     0.006 C 
BRANCH  12  13
ATOM     13  C   UNL     1      61.110  34.296  17.750  1.00  0.00     0.053 C 
BRANCH  13  14
ATOM     14  C   UNL     1      61.325  33.853  19.169  1.00  0.00     0.041 C 
ATOM     15  O   UNL     1      62.468  33.927  19.695  1.00  0.00    -0.550 OA
ATOM     16  O   UNL     1      60.275  33.303  19.891  1.00  0.00    -0.550 OA
ENDBRANCH  13  14
ENDBRANCH  12  13
ENDBRANCH  11  12
ENDBRANCH  10  11
ENDBRANCH   9  10
ENDBRANCH   8   9
ENDBRANCH   7   8
ENDBRANCH   6   7
ENDBRANCH   5   6
ENDBRANCH   4   5
ENDBRANCH   3   4
ENDBRANCH   2   3
ENDBRANCH   1   2
BRANCH   1  17
ATOM     17  C   UNL     1      59.642  28.353  10.042  1.00  0.00     0.000 C 
BRANCH  17  18
ATOM     18  C   UNL     1      59.977  29.297   8.875  1.00  0.00     0.000 C 
BRANCH  18  19
ATOM     19  C   UNL     1      61.415  29.844   8.935  1.00  0.00     0.000 C 
BRANCH  19  20
ATOM     20  C   UNL     1      62.525  28.776   8.968  1.00  0.00     0.000 C 
BRANCH  20  21
ATOM     21  C   UNL     1      63.930  29.369   9.160  1.00  0.00     0.000 C 
BRANCH  21  22
ATOM     22  C   UNL     1      63.868  30.896   9.288  1.00  0.00    -0.000 C 
BRANCH  22  23
ATOM     23  C   UNL     1      65.149  31.451   9.928  1.00  0.00    -0.000 C 
BRANCH  23  24
ATOM     24  C   UNL     1      64.875  32.580  10.939  1.00  0.00    -0.000 C 
BRANCH  24  25
ATOM     25  C   UNL     1      66.130  33.296  11.472  1.00  0.00    -0.000 C 
BRANCH  25  26
ATOM     26  C   UNL     1      65.984  34.827  11.496  1.00  0.00    -0.000 C 
BRANCH  26  27
ATOM     27  C   UNL     1      66.865  35.484  12.582  1.00  0.00    -0.000 C 
BRANCH  27  28
ATOM     28  C   UNL     1      66.980  34.653  13.875  1.00  0.00    -0.000 C 
BRANCH  28  29
ATOM     29  C   UNL     1      65.750  34.719  14.795  1.00  0.00    -0.003 C 
ATOM     30  C   UNL     1      65.961  33.993  16.124  1.00  0.00     0.004 C 
ENDBRANCH  28  29
ENDBRANCH  27  28
ENDBRANCH  26  27
ENDBRANCH  25  26
ENDBRANCH  24  25
ENDBRANCH  23  24
ENDBRANCH  22  23
ENDBRANCH  21  22
ENDBRANCH  20  21
ENDBRANCH  19  20
ENDBRANCH  18  19
ENDBRANCH  17  18
ENDBRANCH   1  17
TORSDOF 26
ENDMDL
MODEL 2
REMARK VINA RESULT:    -4.574      1.503      3.537
REMARK INTER + INTRA:         -15.358
REMARK INTER:                 -10.622
REMARK INTRA:                  -4.736
REMARK UNBOUND:                -3.831
REMARK SMILES CCCCCCCCCCCCCCCCCCCCCCCCCCCC(=O)[O-]
REMARK SMILES IDX 15 1 16 2 17 3 18 4 19 5 20 6 21 7 22 8 23 9 24 10 25 11
REMARK SMILES IDX 26 12 27 13 28 14 29 15 30 16 14 17 13 18 12 19 11 20 10 21
REMARK SMILES IDX 9 22 8 23 7 24 6 25 5 26 4 27 3 28 2 29 1 30
REMARK H PARENT
REMARK Flexibility Score: inf
ROOT
ATOM      1  C   UNL     1      59.698  29.210  11.221  1.00  0.00     0.000 C 
ENDROOT
BRANCH   1   2
ATOM      2  C   UNL     1      59.599  28.394  12.527  1.00  0.00     0.000 C 
BRANCH   2   3
ATOM      3  C   UNL     1      60.861  28.519  13.394  1.00  0.00     0.000 C 
BRANCH   3   4
ATOM      4  C   UNL     1      62.131  28.464  12.532  1.00  0.00     0.000 C 
BRANCH   4   5
ATOM      5  C   UNL     1      63.392  28.893  13.300  1.00  0.00     0.000 C 
BRANCH   5   6
ATOM      6  C   UNL     1      63.081  29.822  14.483  1.00  0.00     0.000 C 
BRANCH   6   7
ATOM      7  C   UNL     1      64.345  30.545  14.968  1.00  0.00     0.000 C 
BRANCH   7   8
ATOM      8  C   UNL     1      64.070  31.978  15.455  1.00  0.00     0.000 C 
BRANCH   8   9
ATOM      9  C   UNL     1      65.257  32.945  15.265  1.00  0.00     0.000 C 
BRANCH   9  10
ATOM     10  C   UNL     1      64.811  34.358  14.846  1.00  0.00     0.000 C 
BRANCH  10  11
ATOM     11  C   UNL     1      65.767  35.446  15.379  1.00  0.00     0.000 C 
BRANCH  11  12
ATOM     12  C   UNL     1      65.937  35.429  16.909  1.00  0.00     0.006 C 
BRANCH  12  13
ATOM     13  C   UNL     1      64.608  35.438  17.689  1.00  0.00     0.053 C 
BRANCH  13  14
ATOM     14  C   UNL     1      64.505  34.323  18.689  1.00  0.00     0.041 C 
ATOM     15  O   UNL     1      63.562  34.299  19.526  1.00  0.00    -0.550 OA
ATOM     16  O   UNL     1      65.483  33.339  18.735  1.00  0.00    -0.550 OA
ENDBRANCH  13  14
ENDBRANCH  12  13
ENDBRANCH  11  12
ENDBRANCH  10  11
ENDBRANCH   9  10
ENDBRANCH   8   9
ENDBRANCH   7   8
ENDBRANCH   6   7
ENDBRANCH   5   6
ENDBRANCH   4   5
ENDBRANCH   3   4
ENDBRANCH   2   3
ENDBRANCH   1   2
BRANCH   1  17
ATOM     17  C   UNL     1      59.242  28.442   9.967  1.00  0.00     0.000 C 
BRANCH  17  18
ATOM     18  C   UNL     1      60.362  28.274   8.928  1.00  0.00     0.000 C 
BRANCH  18  19
ATOM     19  C   UNL     1      61.363  29.445   8.923  1.00  0.00     0.000 C 
BRANCH  19  20
ATOM     20  C   UNL     1      62.849  29.041   8.958  1.00  0.00     0.000 C 
BRANCH  20  21
ATOM     21  C   UNL     1      63.805  30.242   8.875  1.00  0.00     0.000 C 
BRANCH  21  22
ATOM     22  C   UNL     1      64.514  30.470  10.215  1.00  0.00    -0.000 C 
BRANCH  22  23
ATOM     23  C   UNL     1      64.668  31.970  10.512  1.00  0.00    -0.000 C 
BRANCH  23  24
ATOM     24  C   UNL     1      63.954  32.404  11.805  1.00  0.00    -0.000 C 
BRANCH  24  25
ATOM     25  C   UNL     1      62.509  31.894  11.955  1.00  0.00    -0.000 C 
BRANCH  25  26
ATOM     26  C   UNL     1      61.640  32.804  12.842  1.00  0.00    -0.000 C 
BRANCH  26  27
ATOM     27  C   UNL     1      60.354  32.096  13.324  1.00  0.00    -0.000 C 
BRANCH  27  28
ATOM     28  C   UNL     1      59.976  32.421  14.783  1.00  0.00    -0.000 C 
BRANCH  28  29
ATOM     29  C   UNL     1      60.336  33.844  15.240  1.00  0.00    -0.003 C 
ATOM     30  C   UNL     1      61.430  33.866  16.308  1.00  0.00     0.004 C 
ENDBRANCH  28  29
ENDBRANCH  27  28
ENDBRANCH  26  27
ENDBRANCH  25  26
ENDBRANCH  24  25
ENDBRANCH  23  24
ENDBRANCH  22  23
ENDBRANCH  21  22
ENDBRANCH  20  21
ENDBRANCH  19  20
ENDBRANCH  18  19
ENDBRANCH  17  18
ENDBRANCH   1  17
TORSDOF 26
ENDMDL
MODEL 3
REMARK VINA RESULT:    -4.485      2.376      5.714
REMARK INTER + INTRA:         -15.132
REMARK INTER:                 -11.472
REMARK INTRA:                  -3.660
REMARK UNBOUND:                -3.831
REMARK SMILES CCCCCCCCCCCCCCCCCCCCCCCCCCCC(=O)[O-]
REMARK SMILES IDX 15 1 16 2 17 3 18 4 19 5 20 6 21 7 22 8 23 9 24 10 25 11
REMARK SMILES IDX 26 12 27 13 28 14 29 15 30 16 14 17 13 18 12 19 11 20 10 21
REMARK SMILES IDX 9 22 8 23 7 24 6 25 5 26 4 27 3 28 2 29 1 30
REMARK H PARENT
REMARK Flexibility Score: inf
ROOT
ATOM      1  C   UNL     1      60.369  28.283  12.056  1.00  0.00     0.000 C 
ENDROOT
BRANCH   1   2
ATOM      2  C   UNL     1      60.031  28.854  10.663  1.00  0.00     0.000 C 
BRANCH   2   3
ATOM      3  C   UNL     1      60.925  28.269   9.558  1.00  0.00     0.000 C 
BRANCH   3   4
ATOM      4  C   UNL     1      61.917  29.319   9.036  1.00  0.00     0.000 C 
BRANCH   4   5
ATOM      5  C   UNL     1      63.127  29.511   9.964  1.00  0.00     0.000 C 
BRANCH   5   6
ATOM      6  C   UNL     1      64.402  29.911   9.205  1.00  0.00     0.000 C 
BRANCH   6   7
ATOM      7  C   UNL     1      64.740  31.391   9.430  1.00  0.00     0.000 C 
BRANCH   7   8
ATOM      8  C   UNL     1      66.246  31.642   9.620  1.00  0.00     0.000 C 
BRANCH   8   9
ATOM      9  C   UNL     1      66.572  32.797  10.590  1.00  0.00     0.000 C 
BRANCH   9  10
ATOM     10  C   UNL     1      65.310  33.456  11.175  1.00  0.00     0.000 C 
BRANCH  10  11
ATOM     11  C   UNL     1      65.347  33.504  12.718  1.00  0.00     0.000 C 
BRANCH  11  12
ATOM     12  C   UNL     1      64.019  33.096  13.383  1.00  0.00     0.006 C 
BRANCH  12  13
ATOM     13  C   UNL     1      63.489  31.721  12.936  1.00  0.00     0.053 C 
BRANCH  13  14
ATOM     14  C   UNL     1      63.663  30.655  13.979  1.00  0.00     0.041 C 
ATOM     15  O   UNL     1      63.825  30.966  15.190  1.00  0.00    -0.550 OA
ATOM     16  O   UNL     1      63.705  29.318  13.606  1.00  0.00    -0.550 OA
ENDBRANCH  13  14
ENDBRANCH  12  13
ENDBRANCH  11  12
ENDBRANCH  10  11
ENDBRANCH   9  10
ENDBRANCH   8   9
ENDBRANCH   7   8
ENDBRANCH   6   7
ENDBRANCH   5   6
ENDBRANCH   4   5
ENDBRANCH   3   4
ENDBRANCH   2   3
ENDBRANCH   1   2
BRANCH   1  17
ATOM     17  C   UNL     1      60.252  29.309  13.198  1.00  0.00     0.000 C 
BRANCH  17  18
ATOM     18  C   UNL     1      59.993  30.739  12.694  1.00  0.00     0.000 C 
BRANCH  18  19
ATOM     19  C   UNL     1      59.427  31.669  13.783  1.00  0.00     0.000 C 
BRANCH  19  20
ATOM     20  C   UNL     1      60.301  32.891  14.123  1.00  0.00     0.000 C 
BRANCH  20  21
ATOM     21  C   UNL     1      60.857  32.857  15.556  1.00  0.00     0.000 C 
BRANCH  21  22
ATOM     22  C   UNL     1      60.664  34.210  16.251  1.00  0.00    -0.000 C 
BRANCH  22  23
ATOM     23  C   UNL     1      61.349  34.230  17.625  1.00  0.00    -0.000 C 
BRANCH  23  24
ATOM     24  C   UNL     1      62.808  33.737  17.578  1.00  0.00    -0.000 C 
BRANCH  24  25
ATOM     25  C   UNL     1      63.764  34.611  16.746  1.00  0.00    -0.000 C 
BRANCH  25  26
ATOM     26  C   UNL     1      65.231  34.156  16.843  1.00  0.00    -0.000 C 
BRANCH  26  27
ATOM     27  C   UNL     1      65.511  33.348  18.129  1.00  0.00    -0.000 C 
BRANCH  27  28
ATOM     28  C   UNL     1      66.552  34.000  19.059  1.00  0.00    -0.000 C 
BRANCH  28  29
ATOM     29  C   UNL     1      65.963  34.702  20.294  1.00  0.00    -0.003 C 
ATOM     30  C   UNL     1      64.547  34.232  20.626  1.00  0.00     0.004 C 
ENDBRANCH  28  29
ENDBRANCH  27  28
ENDBRANCH  26  27
ENDBRANCH  25  26
ENDBRANCH  24  25
ENDBRANCH  23  24
ENDBRANCH  22  23
ENDBRANCH  21  22
ENDBRANCH  20  21
ENDBRANCH  19  20
ENDBRANCH  18  19
ENDBRANCH  17  18
ENDBRANCH   1  17
TORSDOF 26
ENDMDL
MODEL 4
REMARK VINA RESULT:    -4.440      1.423      4.808
REMARK INTER + INTRA:         -15.020
REMARK INTER:                 -10.973
REMARK INTRA:                  -4.047
REMARK UNBOUND:                -3.831
REMARK SMILES CCCCCCCCCCCCCCCCCCCCCCCCCCCC(=O)[O-]
REMARK SMILES IDX 15 1 16 2 17 3 18 4 19 5 20 6 21 7 22 8 23 9 24 10 25 11
REMARK SMILES IDX 26 12 27 13 28 14 29 15 30 16 14 17 13 18 12 19 11 20 10 21
REMARK SMILES IDX 9 22 8 23 7 24 6 25 5 26 4 27 3 28 2 29 1 30
REMARK H PARENT
REMARK Flexibility Score: inf
ROOT
ATOM      1  C   UNL     1      61.945  28.519   9.865  1.00  0.00     0.000 C 
ENDROOT
BRANCH   1   2
ATOM      2  C   UNL     1      63.347  28.947   9.382  1.00  0.00     0.000 C 
BRANCH   2   3
ATOM      3  C   UNL     1      63.405  30.434   8.999  1.00  0.00     0.000 C 
BRANCH   3   4
ATOM      4  C   UNL     1      64.858  30.916   8.875  1.00  0.00     0.000 C 
BRANCH   4   5
ATOM      5  C   UNL     1      65.225  31.979   9.923  1.00  0.00     0.000 C 
BRANCH   5   6
ATOM      6  C   UNL     1      66.707  32.383   9.866  1.00  0.00     0.000 C 
BRANCH   6   7
ATOM      7  C   UNL     1      67.021  33.484  10.889  1.00  0.00     0.000 C 
BRANCH   7   8
ATOM      8  C   UNL     1      65.763  34.044  11.575  1.00  0.00     0.000 C 
BRANCH   8   9
ATOM      9  C   UNL     1      65.929  35.481  12.114  1.00  0.00     0.000 C 
BRANCH   9  10
ATOM     10  C   UNL     1      66.161  35.522  13.636  1.00  0.00     0.000 C 
BRANCH  10  11
ATOM     11  C   UNL     1      65.595  34.269  14.339  1.00  0.00     0.000 C 
BRANCH  11  12
ATOM     12  C   UNL     1      64.734  34.588  15.575  1.00  0.00     0.006 C 
BRANCH  12  13
ATOM     13  C   UNL     1      65.473  35.382  16.669  1.00  0.00     0.053 C 
BRANCH  13  14
ATOM     14  C   UNL     1      64.868  35.209  18.032  1.00  0.00     0.041 C 
ATOM     15  O   UNL     1      63.620  35.088  18.167  1.00  0.00    -0.550 OA
ATOM     16  O   UNL     1      65.677  35.238  19.160  1.00  0.00    -0.550 OA
ENDBRANCH  13  14
ENDBRANCH  12  13
ENDBRANCH  11  12
ENDBRANCH  10  11
ENDBRANCH   9  10
ENDBRANCH   8   9
ENDBRANCH   7   8
ENDBRANCH   6   7
ENDBRANCH   5   6
ENDBRANCH   4   5
ENDBRANCH   3   4
ENDBRANCH   2   3
ENDBRANCH   1   2
BRANCH   1  17
ATOM     17  C   UNL     1      60.868  29.606   9.703  1.00  0.00     0.000 C 
BRANCH  17  18
ATOM     18  C   UNL     1      60.019  29.802  10.970  1.00  0.00     0.000 C 
BRANCH  18  19
ATOM     19  C   UNL     1      59.306  28.514  11.424  1.00  0.00     0.000 C 
BRANCH  19  20
ATOM     20  C   UNL     1      59.854  27.879  12.716  1.00  0.00     0.000 C 
BRANCH  20  21
ATOM     21  C   UNL     1      60.688  28.854  13.563  1.00  0.00     0.000 C 
BRANCH  21  22
ATOM     22  C   UNL     1      62.188  28.628  13.340  1.00  0.00    -0.000 C 
BRANCH  22  23
ATOM     23  C   UNL     1      63.024  29.677  14.089  1.00  0.00    -0.000 C 
BRANCH  23  24
ATOM     24  C   UNL     1      63.728  30.671  13.146  1.00  0.00    -0.000 C 
BRANCH  24  25
ATOM     25  C   UNL     1      62.789  31.638  12.401  1.00  0.00    -0.000 C 
BRANCH  25  26
ATOM     26  C   UNL     1      62.302  32.802  13.282  1.00  0.00    -0.000 C 
BRANCH  26  27
ATOM     27  C   UNL     1      60.925  32.517  13.920  1.00  0.00    -0.000 C 
BRANCH  27  28
ATOM     28  C   UNL     1      60.994  32.183  15.424  1.00  0.00    -0.000 C 
BRANCH  28  29
ATOM     29  C   UNL     1      61.372  33.367  16.330  1.00  0.00    -0.003 C 
ATOM     30  C   UNL     1      60.353  34.505  16.277  1.00  0.00     0.004 C 
ENDBRANCH  28  29
ENDBRANCH  27  28
ENDBRANCH  26  27
ENDBRANCH  25  26
ENDBRANCH  24  25
ENDBRANCH  23  24
ENDBRANCH  22  23
ENDBRANCH  21  22
ENDBRANCH  20  21
ENDBRANCH  19  20
ENDBRANCH  18  19
ENDBRANCH  17  18
ENDBRANCH   1  17
TORSDOF 26
ENDMDL
MODEL 5
REMARK VINA RESULT:    -4.334      5.840     10.951
REMARK INTER + INTRA:         -14.753
REMARK INTER:                 -12.216
REMARK INTRA:                  -2.537
REMARK UNBOUND:                -3.831
REMARK SMILES CCCCCCCCCCCCCCCCCCCCCCCCCCCC(=O)[O-]
REMARK SMILES IDX 15 1 16 2 17 3 18 4 19 5 20 6 21 7 22 8 23 9 24 10 25 11
REMARK SMILES IDX 26 12 27 13 28 14 29 15 30 16 14 17 13 18 12 19 11 20 10 21
REMARK SMILES IDX 9 22 8 23 7 24 6 25 5 26 4 27 3 28 2 29 1 30
REMARK H PARENT
REMARK Flexibility Score: inf
ROOT
ATOM      1  C   UNL     1      63.486  33.840  20.278  1.00  0.00     0.000 C 
ENDROOT
BRANCH   1   2
ATOM      2  C   UNL     1      62.729  33.826  18.932  1.00  0.00     0.000 C 
BRANCH   2   3
ATOM      3  C   UNL     1      63.661  33.566  17.739  1.00  0.00     0.000 C 
BRANCH   3   4
ATOM      4  C   UNL     1      62.891  33.628  16.412  1.00  0.00     0.000 C 
BRANCH   4   5
ATOM      5  C   UNL     1      61.386  33.366  16.582  1.00  0.00     0.000 C 
BRANCH   5   6
ATOM      6  C   UNL     1      60.568  33.770  15.346  1.00  0.00     0.000 C 
BRANCH   6   7
ATOM      7  C   UNL     1      59.949  32.541  14.665  1.00  0.00     0.000 C 
BRANCH   7   8
ATOM      8  C   UNL     1      60.430  32.350  13.217  1.00  0.00     0.000 C 
BRANCH   8   9
ATOM      9  C   UNL     1      61.965  32.349  13.059  1.00  0.00     0.000 C 
BRANCH   9  10
ATOM     10  C   UNL     1      62.523  30.962  12.693  1.00  0.00     0.000 C 
BRANCH  10  11
ATOM     11  C   UNL     1      62.414  29.967  13.868  1.00  0.00     0.000 C 
BRANCH  11  12
ATOM     12  C   UNL     1      61.624  28.689  13.529  1.00  0.00     0.006 C 
BRANCH  12  13
ATOM     13  C   UNL     1      61.213  28.579  12.049  1.00  0.00     0.053 C 
BRANCH  13  14
ATOM     14  C   UNL     1      59.728  28.657  11.843  1.00  0.00     0.041 C 
ATOM     15  O   UNL     1      58.938  28.189  12.707  1.00  0.00    -0.550 OA
ATOM     16  O   UNL     1      59.217  29.197  10.670  1.00  0.00    -0.550 OA
ENDBRANCH  13  14
ENDBRANCH  12  13
ENDBRANCH  11  12
ENDBRANCH  10  11
ENDBRANCH   9  10
ENDBRANCH   8   9
ENDBRANCH   7   8
ENDBRANCH   6   7
ENDBRANCH   5   6
ENDBRANCH   4   5
ENDBRANCH   3   4
ENDBRANCH   2   3
ENDBRANCH   1   2
BRANCH   1  17
ATOM     17  C   UNL     1      64.905  34.428  20.191  1.00  0.00     0.000 C 
BRANCH  17  18
ATOM     18  C   UNL     1      65.984  33.468  20.717  1.00  0.00     0.000 C 
BRANCH  18  19
ATOM     19  C   UNL     1      65.574  32.750  22.016  1.00  0.00     0.000 C 
BRANCH  19  20
ATOM     20  C   UNL     1      66.558  31.675  22.513  1.00  0.00     0.000 C 
BRANCH  20  21
ATOM     21  C   UNL     1      65.911  30.653  23.461  1.00  0.00     0.000 C 
BRANCH  21  22
ATOM     22  C   UNL     1      64.406  30.911  23.600  1.00  0.00    -0.000 C 
BRANCH  22  23
ATOM     23  C   UNL     1      63.851  30.277  24.884  1.00  0.00    -0.000 C 
BRANCH  23  24
ATOM     24  C   UNL     1      62.440  29.687  24.703  1.00  0.00    -0.000 C 
BRANCH  24  25
ATOM     25  C   UNL     1      62.060  28.585  25.710  1.00  0.00    -0.000 C 
BRANCH  25  26
ATOM     26  C   UNL     1      62.298  27.166  25.166  1.00  0.00    -0.000 C 
BRANCH  26  27
ATOM     27  C   UNL     1      63.481  26.461  25.865  1.00  0.00    -0.000 C 
BRANCH  27  28
ATOM     28  C   UNL     1      64.851  26.767  25.228  1.00  0.00    -0.000 C 
BRANCH  28  29
ATOM     29  C   UNL     1      65.117  26.048  23.895  1.00  0.00    -0.003 C 
ATOM     30  C   UNL     1      65.066  26.990  22.692  1.00  0.00     0.004 C 
ENDBRANCH  28  29
ENDBRANCH  27  28
ENDBRANCH  26  27
ENDBRANCH  25  26
ENDBRANCH  24  25
ENDBRANCH  23  24
ENDBRANCH  22  23
ENDBRANCH  21  22
ENDBRANCH  20  21
ENDBRANCH  19  20
ENDBRANCH  18  19
ENDBRANCH  17  18
ENDBRANCH   1  17
TORSDOF 26
ENDMDL
MODEL 6
REMARK VINA RESULT:    -4.316      6.309     11.591
REMARK INTER + INTRA:         -14.708
REMARK INTER:                 -11.764
REMARK INTRA:                  -2.944
REMARK UNBOUND:                -3.831
REMARK SMILES CCCCCCCCCCCCCCCCCCCCCCCCCCCC(=O)[O-]
REMARK SMILES IDX 15 1 16 2 17 3 18 4 19 5 20 6 21 7 22 8 23 9 24 10 25 11
REMARK SMILES IDX 26 12 27 13 28 14 29 15 30 16 14 17 13 18 12 19 11 20 10 21
REMARK SMILES IDX 9 22 8 23 7 24 6 25 5 26 4 27 3 28 2 29 1 30
REMARK H PARENT
REMARK Flexibility Score: inf
ROOT
ATOM      1  C   UNL     1      64.002  33.028  22.384  1.00  0.00     0.000 C 
ENDROOT
BRANCH   1   2
ATOM      2  C   UNL     1      63.836  33.868  21.100  1.00  0.00     0.000 C 
BRANCH   2   3
ATOM      3  C   UNL     1      65.176  34.130  20.394  1.00  0.00     0.000 C 
BRANCH   3   4
ATOM      4  C   UNL     1      64.958  34.550  18.933  1.00  0.00     0.000 C 
BRANCH   4   5
ATOM      5  C   UNL     1      64.933  33.355  17.966  1.00  0.00     0.000 C 
BRANCH   5   6
ATOM      6  C   UNL     1      63.765  33.420  16.971  1.00  0.00     0.000 C 
BRANCH   6   7
ATOM      7  C   UNL     1      62.626  34.296  17.510  1.00  0.00     0.000 C 
BRANCH   7   8
ATOM      8  C   UNL     1      61.232  33.794  17.096  1.00  0.00     0.000 C 
BRANCH   8   9
ATOM      9  C   UNL     1      61.244  32.825  15.895  1.00  0.00     0.000 C 
BRANCH   9  10
ATOM     10  C   UNL     1      60.445  33.359  14.693  1.00  0.00     0.000 C 
BRANCH  10  11
ATOM     11  C   UNL     1      60.084  32.237  13.696  1.00  0.00     0.000 C 
BRANCH  11  12
ATOM     12  C   UNL     1      60.681  30.865  14.062  1.00  0.00     0.006 C 
BRANCH  12  13
ATOM     13  C   UNL     1      61.074  30.006  12.845  1.00  0.00     0.053 C 
BRANCH  13  14
ATOM     14  C   UNL     1      59.891  29.403  12.144  1.00  0.00     0.041 C 
ATOM     15  O   UNL     1      59.124  28.609  12.753  1.00  0.00    -0.550 OA
ATOM     16  O   UNL     1      59.667  29.675  10.801  1.00  0.00    -0.550 OA
ENDBRANCH  13  14
ENDBRANCH  12  13
ENDBRANCH  11  12
ENDBRANCH  10  11
ENDBRANCH   9  10
ENDBRANCH   8   9
ENDBRANCH   7   8
ENDBRANCH   6   7
ENDBRANCH   5   6
ENDBRANCH   4   5
ENDBRANCH   3   4
ENDBRANCH   2   3
ENDBRANCH   1   2
BRANCH   1  17
ATOM     17  C   UNL     1      65.287  32.182  22.417  1.00  0.00     0.000 C 
BRANCH  17  18
ATOM     18  C   UNL     1      65.132  30.889  23.233  1.00  0.00     0.000 C 
BRANCH  18  19
ATOM     19  C   UNL     1      66.456  30.120  23.405  1.00  0.00     0.000 C 
BRANCH  19  20
ATOM     20  C   UNL     1      66.489  29.123  24.578  1.00  0.00     0.000 C 
BRANCH  20  21
ATOM     21  C   UNL     1      66.255  29.787  25.945  1.00  0.00     0.000 C 
BRANCH  21  22
ATOM     22  C   UNL     1      65.010  29.211  26.628  1.00  0.00    -0.000 C 
BRANCH  22  23
ATOM     23  C   UNL     1      63.933  30.290  26.819  1.00  0.00    -0.000 C 
BRANCH  23  24
ATOM     24  C   UNL     1      62.515  29.790  26.487  1.00  0.00    -0.000 C 
BRANCH  24  25
ATOM     25  C   UNL     1      62.188  29.703  24.985  1.00  0.00    -0.000 C 
BRANCH  25  26
ATOM     26  C   UNL     1      61.803  28.282  24.535  1.00  0.00    -0.000 C 
BRANCH  26  27
ATOM     27  C   UNL     1      63.039  27.390  24.286  1.00  0.00    -0.000 C 
BRANCH  27  28
ATOM     28  C   UNL     1      63.553  27.433  22.834  1.00  0.00    -0.000 C 
BRANCH  28  29
ATOM     29  C   UNL     1      64.774  26.540  22.556  1.00  0.00    -0.003 C 
ATOM     30  C   UNL     1      65.220  25.745  23.782  1.00  0.00     0.004 C 
ENDBRANCH  28  29
ENDBRANCH  27  28
ENDBRANCH  26  27
ENDBRANCH  25  26
ENDBRANCH  24  25
ENDBRANCH  23  24
ENDBRANCH  22  23
ENDBRANCH  21  22
ENDBRANCH  20  21
ENDBRANCH  19  20
ENDBRANCH  18  19
ENDBRANCH  17  18
ENDBRANCH   1  17
TORSDOF 26
ENDMDL
MODEL 7
REMARK VINA RESULT:    -4.284      6.688     10.983
REMARK INTER + INTRA:         -14.626
REMARK INTER:                 -11.560
REMARK INTRA:                  -3.066
REMARK UNBOUND:                -3.831
REMARK SMILES CCCCCCCCCCCCCCCCCCCCCCCCCCCC(=O)[O-]
REMARK SMILES IDX 15 1 16 2 17 3 18 4 19 5 20 6 21 7 22 8 23 9 24 10 25 11
REMARK SMILES IDX 26 12 27 13 28 14 29 15 30 16 14 17 13 18 12 19 11 20 10 21
REMARK SMILES IDX 9 22 8 23 7 24 6 25 5 26 4 27 3 28 2 29 1 30
REMARK H PARENT
REMARK Flexibility Score: inf
ROOT
ATOM      1  C   UNL     1      65.594  30.180  23.359  1.00  0.00     0.000 C 
ENDROOT
BRANCH   1   2
ATOM      2  C   UNL     1      66.615  29.838  24.464  1.00  0.00     0.000 C 
BRANCH   2   3
ATOM      3  C   UNL     1      65.958  29.175  25.685  1.00  0.00     0.000 C 
BRANCH   3   4
ATOM      4  C   UNL     1      64.712  29.954  26.132  1.00  0.00     0.000 C 
BRANCH   4   5
ATOM      5  C   UNL     1      63.684  29.071  26.857  1.00  0.00     0.000 C 
BRANCH   5   6
ATOM      6  C   UNL     1      62.279  29.167  26.242  1.00  0.00     0.000 C 
BRANCH   6   7
ATOM      7  C   UNL     1      62.352  29.386  24.724  1.00  0.00     0.000 C 
BRANCH   7   8
ATOM      8  C   UNL     1      62.047  28.113  23.917  1.00  0.00     0.000 C 
BRANCH   8   9
ATOM      9  C   UNL     1      63.303  27.389  23.388  1.00  0.00     0.000 C 
BRANCH   9  10
ATOM     10  C   UNL     1      63.815  26.305  24.355  1.00  0.00     0.000 C 
BRANCH  10  11
ATOM     11  C   UNL     1      65.181  25.738  23.914  1.00  0.00     0.000 C 
BRANCH  11  12
ATOM     12  C   UNL     1      65.879  26.575  22.825  1.00  0.00     0.006 C 
BRANCH  12  13
ATOM     13  C   UNL     1      66.306  25.765  21.587  1.00  0.00     0.053 C 
BRANCH  13  14
ATOM     14  C   UNL     1      66.383  26.595  20.339  1.00  0.00     0.041 C 
ATOM     15  O   UNL     1      66.400  27.854  20.408  1.00  0.00    -0.550 OA
ATOM     16  O   UNL     1      66.378  25.980  19.094  1.00  0.00    -0.550 OA
ENDBRANCH  13  14
ENDBRANCH  12  13
ENDBRANCH  11  12
ENDBRANCH  10  11
ENDBRANCH   9  10
ENDBRANCH   8   9
ENDBRANCH   7   8
ENDBRANCH   6   7
ENDBRANCH   5   6
ENDBRANCH   4   5
ENDBRANCH   3   4
ENDBRANCH   2   3
ENDBRANCH   1   2
BRANCH   1  17
ATOM     17  C   UNL     1      65.746  31.599  22.784  1.00  0.00     0.000 C 
BRANCH  17  18
ATOM     18  C   UNL     1      66.990  31.755  21.895  1.00  0.00     0.000 C 
BRANCH  18  19
ATOM     19  C   UNL     1      66.944  33.012  21.006  1.00  0.00     0.000 C 
BRANCH  19  20
ATOM     20  C   UNL     1      66.521  32.769  19.545  1.00  0.00     0.000 C 
BRANCH  20  21
ATOM     21  C   UNL     1      66.007  34.038  18.844  1.00  0.00     0.000 C 
BRANCH  21  22
ATOM     22  C   UNL     1      64.496  34.200  19.045  1.00  0.00    -0.000 C 
BRANCH  22  23
ATOM     23  C   UNL     1      63.712  33.562  17.888  1.00  0.00    -0.000 C 
BRANCH  23  24
ATOM     24  C   UNL     1      62.336  34.216  17.661  1.00  0.00    -0.000 C 
BRANCH  24  25
ATOM     25  C   UNL     1      61.305  33.330  16.938  1.00  0.00    -0.000 C 
BRANCH  25  26
ATOM     26  C   UNL     1      60.974  33.827  15.520  1.00  0.00    -0.000 C 
BRANCH  26  27
ATOM     27  C   UNL     1      61.218  32.744  14.446  1.00  0.00    -0.000 C 
BRANCH  27  28
ATOM     28  C   UNL     1      60.587  31.380  14.785  1.00  0.00    -0.000 C 
BRANCH  28  29
ATOM     29  C   UNL     1      61.576  30.204  14.826  1.00  0.00    -0.003 C 
ATOM     30  C   UNL     1      63.035  30.656  14.896  1.00  0.00     0.004 C 
ENDBRANCH  28  29
ENDBRANCH  27  28
ENDBRANCH  26  27
ENDBRANCH  25  26
ENDBRANCH  24  25
ENDBRANCH  23  24
ENDBRANCH  22  23
ENDBRANCH  21  22
ENDBRANCH  20  21
ENDBRANCH  19  20
ENDBRANCH  18  19
ENDBRANCH  17  18
ENDBRANCH   1  17
TORSDOF 26
ENDMDL
MODEL 8
REMARK VINA RESULT:    -4.283      7.351     12.818
REMARK INTER + INTRA:         -14.625
REMARK INTER:                 -12.009
REMARK INTRA:                  -2.616
REMARK UNBOUND:                -3.831
REMARK SMILES CCCCCCCCCCCCCCCCCCCCCCCCCCCC(=O)[O-]
REMARK SMILES IDX 15 1 16 2 17 3 18 4 19 5 20 6 21 7 22 8 23 9 24 10 25 11
REMARK SMILES IDX 26 12 27 13 28 14 29 15 30 16 14 17 13 18 12 19 11 20 10 21
REMARK SMILES IDX 9 22 8 23 7 24 6 25 5 26 4 27 3 28 2 29 1 30
REMARK H PARENT
REMARK Flexibility Score: inf
ROOT
ATOM      1  C   UNL     1      65.470  29.754  23.675  1.00  0.00     0.000 C 
ENDROOT
BRANCH   1   2
ATOM      2  C   UNL     1      66.390  29.916  22.447  1.00  0.00     0.000 C 
BRANCH   2   3
ATOM      3  C   UNL     1      67.066  31.295  22.399  1.00  0.00     0.000 C 
BRANCH   3   4
ATOM      4  C   UNL     1      66.051  32.395  22.052  1.00  0.00     0.000 C 
BRANCH   4   5
ATOM      5  C   UNL     1      66.441  33.192  20.797  1.00  0.00     0.000 C 
BRANCH   5   6
ATOM      6  C   UNL     1      65.382  34.232  20.399  1.00  0.00     0.000 C 
BRANCH   6   7
ATOM      7  C   UNL     1      64.989  34.086  18.923  1.00  0.00     0.000 C 
BRANCH   7   8
ATOM      8  C   UNL     1      63.486  33.824  18.723  1.00  0.00     0.000 C 
BRANCH   8   9
ATOM      9  C   UNL     1      62.883  34.531  17.491  1.00  0.00     0.000 C 
BRANCH   9  10
ATOM     10  C   UNL     1      61.384  34.232  17.309  1.00  0.00     0.000 C 
BRANCH  10  11
ATOM     11  C   UNL     1      61.145  33.043  16.354  1.00  0.00     0.000 C 
BRANCH  11  12
ATOM     12  C   UNL     1      60.570  33.452  14.985  1.00  0.00     0.006 C 
BRANCH  12  13
ATOM     13  C   UNL     1      61.208  32.718  13.791  1.00  0.00     0.053 C 
BRANCH  13  14
ATOM     14  C   UNL     1      60.673  31.328  13.601  1.00  0.00     0.041 C 
ATOM     15  O   UNL     1      59.603  31.137  12.962  1.00  0.00    -0.550 OA
ATOM     16  O   UNL     1      61.326  30.248  14.178  1.00  0.00    -0.550 OA
ENDBRANCH  13  14
ENDBRANCH  12  13
ENDBRANCH  11  12
ENDBRANCH  10  11
ENDBRANCH   9  10
ENDBRANCH   8   9
ENDBRANCH   7   8
ENDBRANCH   6   7
ENDBRANCH   5   6
ENDBRANCH   4   5
ENDBRANCH   3   4
ENDBRANCH   2   3
ENDBRANCH   1   2
BRANCH   1  17
ATOM     17  C   UNL     1      66.123  29.009  24.853  1.00  0.00     0.000 C 
BRANCH  17  18
ATOM     18  C   UNL     1      66.232  29.872  26.120  1.00  0.00     0.000 C 
BRANCH  18  19
ATOM     19  C   UNL     1      65.064  29.656  27.101  1.00  0.00     0.000 C 
BRANCH  19  20
ATOM     20  C   UNL     1      63.774  30.428  26.767  1.00  0.00     0.000 C 
BRANCH  20  21
ATOM     21  C   UNL     1      62.611  30.104  27.719  1.00  0.00     0.000 C 
BRANCH  21  22
ATOM     22  C   UNL     1      62.995  28.983  28.691  1.00  0.00    -0.000 C 
BRANCH  22  23
ATOM     23  C   UNL     1      62.419  27.634  28.236  1.00  0.00    -0.000 C 
BRANCH  23  24
ATOM     24  C   UNL     1      61.020  27.759  27.603  1.00  0.00    -0.000 C 
BRANCH  24  25
ATOM     25  C   UNL     1      60.885  27.152  26.195  1.00  0.00    -0.000 C 
BRANCH  25  26
ATOM     26  C   UNL     1      61.085  28.187  25.073  1.00  0.00    -0.000 C 
BRANCH  26  27
ATOM     27  C   UNL     1      62.379  27.937  24.268  1.00  0.00    -0.000 C 
BRANCH  27  28
ATOM     28  C   UNL     1      63.253  26.800  24.833  1.00  0.00    -0.000 C 
BRANCH  28  29
ATOM     29  C   UNL     1      63.716  25.765  23.795  1.00  0.00    -0.003 C 
ATOM     30  C   UNL     1      65.238  25.671  23.687  1.00  0.00     0.004 C 
ENDBRANCH  28  29
ENDBRANCH  27  28
ENDBRANCH  26  27
ENDBRANCH  25  26
ENDBRANCH  24  25
ENDBRANCH  23  24
ENDBRANCH  22  23
ENDBRANCH  21  22
ENDBRANCH  20  21
ENDBRANCH  19  20
ENDBRANCH  18  19
ENDBRANCH  17  18
ENDBRANCH   1  17
TORSDOF 26
ENDMDL
MODEL 9
REMARK VINA RESULT:    -4.250      6.192     10.340
REMARK INTER + INTRA:         -14.542
REMARK INTER:                 -12.092
REMARK INTRA:                  -2.449
REMARK UNBOUND:                -3.831
REMARK SMILES CCCCCCCCCCCCCCCCCCCCCCCCCCCC(=O)[O-]
REMARK SMILES IDX 15 1 16 2 17 3 18 4 19 5 20 6 21 7 22 8 23 9 24 10 25 11
REMARK SMILES IDX 26 12 27 13 28 14 29 15 30 16 14 17 13 18 12 19 11 20 10 21
REMARK SMILES IDX 9 22 8 23 7 24 6 25 5 26 4 27 3 28 2 29 1 30
REMARK H PARENT
REMARK Flexibility Score: inf
ROOT
ATOM      1  C   UNL     1      65.544  33.109  21.720  1.00  0.00     0.000 C 
ENDROOT
BRANCH   1   2
ATOM      2  C   UNL     1      66.667  32.052  21.665  1.00  0.00     0.000 C 
BRANCH   2   3
ATOM      3  C   UNL     1      66.727  31.194  22.939  1.00  0.00     0.000 C 
BRANCH   3   4
ATOM      4  C   UNL     1      65.320  30.781  23.394  1.00  0.00     0.000 C 
BRANCH   4   5
ATOM      5  C   UNL     1      65.019  29.296  23.132  1.00  0.00     0.000 C 
BRANCH   5   6
ATOM      6  C   UNL     1      66.043  28.358  23.789  1.00  0.00     0.000 C 
BRANCH   6   7
ATOM      7  C   UNL     1      65.653  26.887  23.591  1.00  0.00     0.000 C 
BRANCH   7   8
ATOM      8  C   UNL     1      64.868  26.306  24.781  1.00  0.00     0.000 C 
BRANCH   8   9
ATOM      9  C   UNL     1      63.386  26.009  24.470  1.00  0.00     0.000 C 
BRANCH   9  10
ATOM     10  C   UNL     1      62.420  26.860  25.315  1.00  0.00     0.000 C 
BRANCH  10  11
ATOM     11  C   UNL     1      61.799  28.011  24.495  1.00  0.00     0.000 C 
BRANCH  11  12
ATOM     12  C   UNL     1      61.938  29.393  25.161  1.00  0.00     0.006 C 
BRANCH  12  13
ATOM     13  C   UNL     1      62.914  29.421  26.353  1.00  0.00     0.053 C 
BRANCH  13  14
ATOM     14  C   UNL     1      62.237  29.713  27.661  1.00  0.00     0.041 C 
ATOM     15  O   UNL     1      61.254  29.020  28.040  1.00  0.00    -0.550 OA
ATOM     16  O   UNL     1      62.656  30.786  28.435  1.00  0.00    -0.550 OA
ENDBRANCH  13  14
ENDBRANCH  12  13
ENDBRANCH  11  12
ENDBRANCH  10  11
ENDBRANCH   9  10
ENDBRANCH   8   9
ENDBRANCH   7   8
ENDBRANCH   6   7
ENDBRANCH   5   6
ENDBRANCH   4   5
ENDBRANCH   3   4
ENDBRANCH   2   3
ENDBRANCH   1   2
BRANCH   1  17
ATOM     17  C   UNL     1      65.450  33.987  20.460  1.00  0.00     0.000 C 
BRANCH  17  18
ATOM     18  C   UNL     1      66.375  33.513  19.328  1.00  0.00     0.000 C 
BRANCH  18  19
ATOM     19  C   UNL     1      65.632  33.279  17.999  1.00  0.00     0.000 C 
BRANCH  19  20
ATOM     20  C   UNL     1      64.118  33.562  18.033  1.00  0.00     0.000 C 
BRANCH  20  21
ATOM     21  C   UNL     1      63.584  34.154  16.719  1.00  0.00     0.000 C 
BRANCH  21  22
ATOM     22  C   UNL     1      62.245  33.514  16.334  1.00  0.00    -0.000 C 
BRANCH  22  23
ATOM     23  C   UNL     1      62.310  32.898  14.928  1.00  0.00    -0.000 C 
BRANCH  23  24
ATOM     24  C   UNL     1      61.046  32.098  14.562  1.00  0.00    -0.000 C 
BRANCH  24  25
ATOM     25  C   UNL     1      61.154  30.577  14.773  1.00  0.00    -0.000 C 
BRANCH  25  26
ATOM     26  C   UNL     1      62.333  29.946  14.011  1.00  0.00    -0.000 C 
BRANCH  26  27
ATOM     27  C   UNL     1      61.927  28.655  13.267  1.00  0.00    -0.000 C 
BRANCH  27  28
ATOM     28  C   UNL     1      60.414  28.364  13.308  1.00  0.00    -0.000 C 
BRANCH  28  29
ATOM     29  C   UNL     1      59.694  28.506  11.956  1.00  0.00    -0.003 C 
ATOM     30  C   UNL     1      60.434  29.421  10.981  1.00  0.00     0.004 C 
ENDBRANCH  28  29
ENDBRANCH  27  28
ENDBRANCH  26  27
ENDBRANCH  25  26
ENDBRANCH  24  25
ENDBRANCH  23  24
ENDBRANCH  22  23
ENDBRANCH  21  22
ENDBRANCH  20  21
ENDBRANCH  19  20
ENDBRANCH  18  19
ENDBRANCH  17  18
ENDBRANCH   1  17
TORSDOF 26
ENDMDL
