MODEL 1
REMARK VINA RESULT:    -6.544      0.000      0.000
REMARK INTER + INTRA:         -11.792
REMARK INTER:                  -9.605
REMARK INTRA:                  -2.187
REMARK UNBOUND:                -2.187
REMARK SMILES O=c1c(O[C@H]2O[C@@H](CO)[C@@H](O)[C@@H](O)[C@H]2O)c(-c2ccc(O)c(O)c2)oc2cc(O)cc(O)c12
REMARK SMILES IDX 4 1 3 2 16 3 25 4 2 5 26 6 1 7 33 8 27 9 31 10 28 11 30 12
REMARK SMILES IDX 17 13 18 14 19 15 20 16 24 17 22 18 21 19 23 21 32 23 29 25
REMARK SMILES IDX 5 27 14 28 6 29 12 30 7 31 10 32 15 33 13 35 8 37 9 38 11 40
REMARK H PARENT 21 20 23 22 32 24 29 26 15 34 13 36 9 39 11 41
REMARK Flexibility Score: inf
ROOT
ATOM      1  O   UNL     1     116.958 117.282 136.836  1.00  0.00    -0.454 OA
ENDROOT
BRANCH   1   2
ATOM      2  C   UNL     1     117.568 116.532 135.817  1.00  0.00     0.214 A 
ATOM      3  C   UNL     1     116.828 115.884 134.804  1.00  0.00     0.180 A 
ATOM      4  O   UNL     1     117.462 115.269 133.814  1.00  0.00    -0.452 OA
ATOM      5  C   UNL     1     118.964 116.414 135.810  1.00  0.00     0.239 A 
ATOM      6  C   UNL     1     118.784 115.162 133.749  1.00  0.00     0.146 A 
ATOM      7  O   UNL     1     119.617 117.001 136.715  1.00  0.00    -0.285 OA
ATOM      8  C   UNL     1     119.610 115.692 134.777  1.00  0.00     0.111 A 
ATOM      9  C   UNL     1     119.346 114.503 132.651  1.00  0.00     0.094 A 
ATOM     10  C   UNL     1     121.021 115.495 134.683  1.00  0.00     0.134 A 
ATOM     11  C   UNL     1     120.730 114.356 132.547  1.00  0.00     0.123 A 
ATOM     12  C   UNL     1     121.557 114.858 133.554  1.00  0.00     0.093 A 
BRANCH   3  13
ATOM     13  C   UNL     1     115.353 115.823 134.821  1.00  0.00     0.025 A 
ATOM     14  C   UNL     1     114.699 114.846 135.583  1.00  0.00     0.016 A 
ATOM     15  C   UNL     1     113.303 114.773 135.581  1.00  0.00     0.051 A 
ATOM     16  C   UNL     1     112.548 115.687 134.830  1.00  0.00     0.157 A 
ATOM     17  C   UNL     1     114.597 116.752 134.086  1.00  0.00     0.062 A 
ATOM     18  C   UNL     1     113.200 116.684 134.083  1.00  0.00     0.158 A 
BRANCH  16  19
ATOM     19  O   UNL     1     111.156 115.607 134.823  1.00  0.00    -0.504 OA
ATOM     20  H   UNL     1     110.612 115.723 135.670  1.00  0.00     0.293 HD
ENDBRANCH  16  19
BRANCH  18  21
ATOM     21  O   UNL     1     112.477 117.611 133.334  1.00  0.00    -0.504 OA
ATOM     22  H   UNL     1     112.796 118.564 133.201  1.00  0.00     0.293 HD
ENDBRANCH  18  21
ENDBRANCH   3  13
BRANCH  10  23
ATOM     23  O   UNL     1     121.932 115.877 135.674  1.00  0.00    -0.507 OA
ATOM     24  H   UNL     1     122.540 116.679 135.622  1.00  0.00     0.293 HD
ENDBRANCH  10  23
BRANCH  11  25
ATOM     25  O   UNL     1     121.295 113.701 131.453  1.00  0.00    -0.508 OA
ATOM     26  H   UNL     1     120.791 113.586 130.583  1.00  0.00     0.293 HD
ENDBRANCH  11  25
ENDBRANCH   1   2
BRANCH   1  27
ATOM     27  C   UNL     1     116.488 118.628 136.680  1.00  0.00     0.339 C 
ATOM     28  C   UNL     1     117.419 119.650 137.361  1.00  0.00     0.214 C 
ATOM     29  O   UNL     1     115.149 118.749 137.137  1.00  0.00    -0.332 OA
ATOM     30  C   UNL     1     117.411 119.489 138.885  1.00  0.00     0.180 C 
ATOM     31  C   UNL     1     114.992 118.625 138.548  1.00  0.00     0.179 C 
ATOM     32  C   UNL     1     115.959 119.513 139.390  1.00  0.00     0.177 C 
BRANCH  28  33
ATOM     33  O   UNL     1     118.725 119.608 136.839  1.00  0.00    -0.384 OA
ATOM     34  H   UNL     1     118.914 118.679 136.555  1.00  0.00     0.211 HD
ENDBRANCH  28  33
BRANCH  30  35
ATOM     35  O   UNL     1     118.062 118.301 139.261  1.00  0.00    -0.387 OA
ATOM     36  H   UNL     1     117.832 117.618 138.573  1.00  0.00     0.211 HD
ENDBRANCH  30  35
BRANCH  31  37
ATOM     37  C   UNL     1     114.840 117.157 139.009  1.00  0.00     0.191 C 
BRANCH  37  38
ATOM     38  O   UNL     1     115.984 116.685 139.660  1.00  0.00    -0.394 OA
ATOM     39  H   UNL     1     116.117 117.276 140.445  1.00  0.00     0.210 HD
ENDBRANCH  37  38
ENDBRANCH  31  37
BRANCH  32  40
ATOM     40  O   UNL     1     115.922 119.158 140.749  1.00  0.00    -0.387 OA
ATOM     41  H   UNL     1     115.023 118.776 140.926  1.00  0.00     0.211 HD
ENDBRANCH  32  40
ENDBRANCH   1  27
TORSDOF 12
ENDMDL
MODEL 2
REMARK VINA RESULT:    -6.528      7.137      9.843
REMARK INTER + INTRA:         -11.768
REMARK INTER:                  -9.521
REMARK INTRA:                  -2.247
REMARK UNBOUND:                -2.187
REMARK SMILES O=c1c(O[C@H]2O[C@@H](CO)[C@@H](O)[C@@H](O)[C@H]2O)c(-c2ccc(O)c(O)c2)oc2cc(O)cc(O)c12
REMARK SMILES IDX 4 1 3 2 16 3 25 4 2 5 26 6 1 7 33 8 27 9 31 10 28 11 30 12
REMARK SMILES IDX 17 13 18 14 19 15 20 16 24 17 22 18 21 19 23 21 32 23 29 25
REMARK SMILES IDX 5 27 14 28 6 29 12 30 7 31 10 32 15 33 13 35 8 37 9 38 11 40
REMARK H PARENT 21 20 23 22 32 24 29 26 15 34 13 36 9 39 11 41
REMARK Flexibility Score: inf
ROOT
ATOM      1  O   UNL     1     115.011 124.869 139.805  1.00  0.00    -0.454 OA
ENDROOT
BRANCH   1   2
ATOM      2  C   UNL     1     116.006 123.926 140.107  1.00  0.00     0.214 A 
ATOM      3  C   UNL     1     116.076 123.267 141.353  1.00  0.00     0.180 A 
ATOM      4  O   UNL     1     116.981 122.316 141.547  1.00  0.00    -0.452 OA
ATOM      5  C   UNL     1     116.974 123.634 139.136  1.00  0.00     0.239 A 
ATOM      6  C   UNL     1     117.896 121.983 140.644  1.00  0.00     0.146 A 
ATOM      7  O   UNL     1     116.900 124.223 138.023  1.00  0.00    -0.285 OA
ATOM      8  C   UNL     1     117.972 122.663 139.398  1.00  0.00     0.111 A 
ATOM      9  C   UNL     1     118.793 120.956 140.952  1.00  0.00     0.094 A 
ATOM     10  C   UNL     1     119.012 122.302 138.490  1.00  0.00     0.134 A 
ATOM     11  C   UNL     1     119.779 120.581 140.037  1.00  0.00     0.123 A 
ATOM     12  C   UNL     1     119.877 121.246 138.814  1.00  0.00     0.093 A 
BRANCH   3  13
ATOM     13  C   UNL     1     115.198 123.623 142.485  1.00  0.00     0.025 A 
ATOM     14  C   UNL     1     115.629 124.549 143.444  1.00  0.00     0.016 A 
ATOM     15  C   UNL     1     114.808 124.870 144.528  1.00  0.00     0.051 A 
ATOM     16  C   UNL     1     113.541 124.281 144.654  1.00  0.00     0.157 A 
ATOM     17  C   UNL     1     113.920 123.050 142.599  1.00  0.00     0.062 A 
ATOM     18  C   UNL     1     113.094 123.371 143.681  1.00  0.00     0.158 A 
BRANCH  16  19
ATOM     19  O   UNL     1     112.727 124.598 145.741  1.00  0.00    -0.504 OA
ATOM     20  H   UNL     1     112.014 123.961 146.076  1.00  0.00     0.293 HD
ENDBRANCH  16  19
BRANCH  18  21
ATOM     21  O   UNL     1     111.837 122.776 143.774  1.00  0.00    -0.504 OA
ATOM     22  H   UNL     1     111.698 121.874 144.213  1.00  0.00     0.293 HD
ENDBRANCH  18  21
ENDBRANCH   3  13
BRANCH  10  23
ATOM     23  O   UNL     1     119.257 122.960 137.280  1.00  0.00    -0.507 OA
ATOM     24  H   UNL     1     118.837 122.719 136.396  1.00  0.00     0.293 HD
ENDBRANCH  10  23
BRANCH  11  25
ATOM     25  O   UNL     1     120.675 119.556 140.339  1.00  0.00    -0.508 OA
ATOM     26  H   UNL     1     120.998 118.907 139.632  1.00  0.00     0.293 HD
ENDBRANCH  11  25
ENDBRANCH   1   2
BRANCH   1  27
ATOM     27  C   UNL     1     113.754 124.551 139.191  1.00  0.00     0.339 C 
ATOM     28  C   UNL     1     113.545 125.313 137.867  1.00  0.00     0.214 C 
ATOM     29  O   UNL     1     112.683 124.768 140.098  1.00  0.00    -0.332 OA
ATOM     30  C   UNL     1     113.408 126.821 138.103  1.00  0.00     0.180 C 
ATOM     31  C   UNL     1     112.435 126.138 140.405  1.00  0.00     0.179 C 
ATOM     32  C   UNL     1     112.321 127.072 139.162  1.00  0.00     0.177 C 
BRANCH  28  33
ATOM     33  O   UNL     1     114.548 125.021 136.924  1.00  0.00    -0.384 OA
ATOM     34  H   UNL     1     115.201 124.409 137.348  1.00  0.00     0.211 HD
ENDBRANCH  28  33
BRANCH  30  35
ATOM     35  O   UNL     1     114.640 127.375 138.495  1.00  0.00    -0.387 OA
ATOM     36  H   UNL     1     114.439 128.057 139.192  1.00  0.00     0.211 HD
ENDBRANCH  30  35
BRANCH  31  37
ATOM     37  C   UNL     1     113.307 126.659 141.571  1.00  0.00     0.191 C 
BRANCH  37  38
ATOM     38  O   UNL     1     114.483 127.269 141.122  1.00  0.00    -0.394 OA
ATOM     39  H   UNL     1     114.600 126.980 140.181  1.00  0.00     0.210 HD
ENDBRANCH  37  38
ENDBRANCH  31  37
BRANCH  32  40
ATOM     40  O   UNL     1     112.330 128.425 139.540  1.00  0.00    -0.387 OA
ATOM     41  H   UNL     1     113.246 128.769 139.373  1.00  0.00     0.211 HD
ENDBRANCH  32  40
ENDBRANCH   1  27
TORSDOF 12
ENDMDL
MODEL 3
REMARK VINA RESULT:    -6.512      5.833      8.916
REMARK INTER + INTRA:         -11.746
REMARK INTER:                  -9.511
REMARK INTRA:                  -2.235
REMARK UNBOUND:                -2.187
REMARK SMILES O=c1c(O[C@H]2O[C@@H](CO)[C@@H](O)[C@@H](O)[C@H]2O)c(-c2ccc(O)c(O)c2)oc2cc(O)cc(O)c12
REMARK SMILES IDX 4 1 3 2 16 3 25 4 2 5 26 6 1 7 33 8 27 9 31 10 28 11 30 12
REMARK SMILES IDX 17 13 18 14 19 15 20 16 24 17 22 18 21 19 23 21 32 23 29 25
REMARK SMILES IDX 5 27 14 28 6 29 12 30 7 31 10 32 15 33 13 35 8 37 9 38 11 40
REMARK H PARENT 21 20 23 22 32 24 29 26 15 34 13 36 9 39 11 41
REMARK Flexibility Score: inf
ROOT
ATOM      1  O   UNL     1     114.291 123.505 142.183  1.00  0.00    -0.454 OA
ENDROOT
BRANCH   1   2
ATOM      2  C   UNL     1     114.880 122.909 141.055  1.00  0.00     0.214 A 
ATOM      3  C   UNL     1     114.239 122.863 139.798  1.00  0.00     0.180 A 
ATOM      4  O   UNL     1     114.883 122.372 138.746  1.00  0.00    -0.452 OA
ATOM      5  C   UNL     1     116.149 122.330 141.185  1.00  0.00     0.239 A 
ATOM      6  C   UNL     1     116.099 121.844 138.816  1.00  0.00     0.146 A 
ATOM      7  O   UNL     1     116.717 122.381 142.309  1.00  0.00    -0.285 OA
ATOM      8  C   UNL     1     116.784 121.751 140.058  1.00  0.00     0.111 A 
ATOM      9  C   UNL     1     116.687 121.368 137.640  1.00  0.00     0.094 A 
ATOM     10  C   UNL     1     118.064 121.120 140.082  1.00  0.00     0.134 A 
ATOM     11  C   UNL     1     117.959 120.794 137.668  1.00  0.00     0.123 A 
ATOM     12  C   UNL     1     118.641 120.682 138.881  1.00  0.00     0.093 A 
BRANCH   3  13
ATOM     13  C   UNL     1     112.844 123.306 139.607  1.00  0.00     0.025 A 
ATOM     14  C   UNL     1     111.796 122.379 139.681  1.00  0.00     0.016 A 
ATOM     15  C   UNL     1     110.477 122.793 139.477  1.00  0.00     0.051 A 
ATOM     16  C   UNL     1     110.192 124.142 139.214  1.00  0.00     0.157 A 
ATOM     17  C   UNL     1     112.557 124.660 139.366  1.00  0.00     0.062 A 
ATOM     18  C   UNL     1     111.238 125.079 139.164  1.00  0.00     0.158 A 
BRANCH  16  19
ATOM     19  O   UNL     1     108.876 124.551 139.004  1.00  0.00    -0.504 OA
ATOM     20  H   UNL     1     108.635 125.526 138.875  1.00  0.00     0.293 HD
ENDBRANCH  16  19
BRANCH  18  21
ATOM     21  O   UNL     1     110.985 126.427 138.914  1.00  0.00    -0.504 OA
ATOM     22  H   UNL     1     110.322 126.730 138.210  1.00  0.00     0.293 HD
ENDBRANCH  18  21
ENDBRANCH   3  13
BRANCH  10  23
ATOM     23  O   UNL     1     118.794 120.875 141.250  1.00  0.00    -0.507 OA
ATOM     24  H   UNL     1     118.881 119.976 141.699  1.00  0.00     0.293 HD
ENDBRANCH  10  23
BRANCH  11  25
ATOM     25  O   UNL     1     118.550 120.320 136.497  1.00  0.00    -0.508 OA
ATOM     26  H   UNL     1     118.991 119.410 136.455  1.00  0.00     0.293 HD
ENDBRANCH  11  25
ENDBRANCH   1   2
BRANCH   1  27
ATOM     27  C   UNL     1     114.474 124.876 142.562  1.00  0.00     0.339 C 
ATOM     28  C   UNL     1     115.065 125.012 143.979  1.00  0.00     0.214 C 
ATOM     29  O   UNL     1     113.261 125.601 142.425  1.00  0.00    -0.332 OA
ATOM     30  C   UNL     1     114.082 124.518 145.047  1.00  0.00     0.180 C 
ATOM     31  C   UNL     1     112.250 125.247 143.366  1.00  0.00     0.179 C 
ATOM     32  C   UNL     1     112.727 125.218 144.850  1.00  0.00     0.177 C 
BRANCH  28  33
ATOM     33  O   UNL     1     116.319 124.383 144.093  1.00  0.00    -0.384 OA
ATOM     34  H   UNL     1     116.420 124.064 145.025  1.00  0.00     0.211 HD
ENDBRANCH  28  33
BRANCH  30  35
ATOM     35  O   UNL     1     113.948 123.120 144.988  1.00  0.00    -0.387 OA
ATOM     36  H   UNL     1     113.521 122.836 145.841  1.00  0.00     0.211 HD
ENDBRANCH  30  35
BRANCH  31  37
ATOM     37  C   UNL     1     111.391 124.049 142.901  1.00  0.00     0.191 C 
BRANCH  37  38
ATOM     38  O   UNL     1     111.896 122.827 143.357  1.00  0.00    -0.394 OA
ATOM     39  H   UNL     1     111.379 122.602 144.172  1.00  0.00     0.210 HD
ENDBRANCH  37  38
ENDBRANCH  31  37
BRANCH  32  40
ATOM     40  O   UNL     1     111.761 124.625 145.682  1.00  0.00    -0.387 OA
ATOM     41  H   UNL     1     110.927 124.545 145.150  1.00  0.00     0.211 HD
ENDBRANCH  32  40
ENDBRANCH   1  27
TORSDOF 12
ENDMDL
MODEL 4
REMARK VINA RESULT:    -6.476      2.084      6.172
REMARK INTER + INTRA:         -11.692
REMARK INTER:                  -9.465
REMARK INTRA:                  -2.227
REMARK UNBOUND:                -2.187
REMARK SMILES O=c1c(O[C@H]2O[C@@H](CO)[C@@H](O)[C@@H](O)[C@H]2O)c(-c2ccc(O)c(O)c2)oc2cc(O)cc(O)c12
REMARK SMILES IDX 4 1 3 2 16 3 25 4 2 5 26 6 1 7 33 8 27 9 31 10 28 11 30 12
REMARK SMILES IDX 17 13 18 14 19 15 20 16 24 17 22 18 21 19 23 21 32 23 29 25
REMARK SMILES IDX 5 27 14 28 6 29 12 30 7 31 10 32 15 33 13 35 8 37 9 38 11 40
REMARK H PARENT 21 20 23 22 32 24 29 26 15 34 13 36 9 39 11 41
REMARK Flexibility Score: inf
ROOT
ATOM      1  O   UNL     1     116.791 116.929 136.362  1.00  0.00    -0.454 OA
ENDROOT
BRANCH   1   2
ATOM      2  C   UNL     1     116.694 117.919 137.353  1.00  0.00     0.214 A 
ATOM      3  C   UNL     1     115.459 118.477 137.750  1.00  0.00     0.180 A 
ATOM      4  O   UNL     1     115.419 119.341 138.758  1.00  0.00    -0.452 OA
ATOM      5  C   UNL     1     117.868 118.377 137.966  1.00  0.00     0.239 A 
ATOM      6  C   UNL     1     116.502 119.777 139.389  1.00  0.00     0.146 A 
ATOM      7  O   UNL     1     118.965 117.868 137.610  1.00  0.00    -0.285 OA
ATOM      8  C   UNL     1     117.799 119.351 138.992  1.00  0.00     0.111 A 
ATOM      9  C   UNL     1     116.340 120.677 140.447  1.00  0.00     0.094 A 
ATOM     10  C   UNL     1     118.930 119.899 139.669  1.00  0.00     0.134 A 
ATOM     11  C   UNL     1     117.451 121.171 141.132  1.00  0.00     0.123 A 
ATOM     12  C   UNL     1     118.733 120.775 140.747  1.00  0.00     0.093 A 
BRANCH   3  13
ATOM     13  C   UNL     1     114.194 118.171 137.055  1.00  0.00     0.025 A 
ATOM     14  C   UNL     1     113.759 118.982 135.998  1.00  0.00     0.016 A 
ATOM     15  C   UNL     1     112.550 118.707 135.354  1.00  0.00     0.051 A 
ATOM     16  C   UNL     1     111.773 117.607 135.748  1.00  0.00     0.157 A 
ATOM     17  C   UNL     1     113.427 117.057 137.435  1.00  0.00     0.062 A 
ATOM     18  C   UNL     1     112.218 116.776 136.792  1.00  0.00     0.158 A 
BRANCH  16  19
ATOM     19  O   UNL     1     110.563 117.338 135.109  1.00  0.00    -0.504 OA
ATOM     20  H   UNL     1     109.673 117.549 135.544  1.00  0.00     0.293 HD
ENDBRANCH  16  19
BRANCH  18  21
ATOM     21  O   UNL     1     111.473 115.671 137.200  1.00  0.00    -0.504 OA
ATOM     22  H   UNL     1     110.561 115.462 136.812  1.00  0.00     0.293 HD
ENDBRANCH  18  21
ENDBRANCH   3  13
BRANCH  10  23
ATOM     23  O   UNL     1     120.257 119.641 139.310  1.00  0.00    -0.507 OA
ATOM     24  H   UNL     1     121.062 119.867 139.873  1.00  0.00     0.293 HD
ENDBRANCH  10  23
BRANCH  11  25
ATOM     25  O   UNL     1     117.294 122.067 142.189  1.00  0.00    -0.508 OA
ATOM     26  H   UNL     1     117.958 122.813 142.357  1.00  0.00     0.293 HD
ENDBRANCH  11  25
ENDBRANCH   1   2
BRANCH   1  27
ATOM     27  C   UNL     1     116.798 115.519 136.624  1.00  0.00     0.339 C 
ATOM     28  C   UNL     1     118.065 114.832 136.077  1.00  0.00     0.214 C 
ATOM     29  O   UNL     1     115.614 114.911 136.129  1.00  0.00    -0.332 OA
ATOM     30  C   UNL     1     118.105 114.868 134.545  1.00  0.00     0.180 C 
ATOM     31  C   UNL     1     115.520 114.868 134.708  1.00  0.00     0.179 C 
ATOM     32  C   UNL     1     116.785 114.308 133.990  1.00  0.00     0.177 C 
BRANCH  28  33
ATOM     33  O   UNL     1     119.240 115.360 136.643  1.00  0.00    -0.384 OA
ATOM     34  H   UNL     1     119.601 114.694 137.281  1.00  0.00     0.211 HD
ENDBRANCH  28  33
BRANCH  30  35
ATOM     35  O   UNL     1     118.338 116.177 134.087  1.00  0.00    -0.387 OA
ATOM     36  H   UNL     1     117.453 116.632 134.057  1.00  0.00     0.211 HD
ENDBRANCH  30  35
BRANCH  31  37
ATOM     37  C   UNL     1     114.909 116.156 134.107  1.00  0.00     0.191 C 
BRANCH  37  38
ATOM     38  O   UNL     1     115.887 117.095 133.762  1.00  0.00    -0.394 OA
ATOM     39  H   UNL     1     115.414 117.820 133.280  1.00  0.00     0.210 HD
ENDBRANCH  37  38
ENDBRANCH  31  37
BRANCH  32  40
ATOM     40  O   UNL     1     116.722 114.527 132.603  1.00  0.00    -0.387 OA
ATOM     41  H   UNL     1     117.591 114.921 132.330  1.00  0.00     0.211 HD
ENDBRANCH  32  40
ENDBRANCH   1  27
TORSDOF 12
ENDMDL
MODEL 5
REMARK VINA RESULT:    -6.453      1.644      4.852
REMARK INTER + INTRA:         -11.659
REMARK INTER:                 -10.154
REMARK INTRA:                  -1.505
REMARK UNBOUND:                -2.187
REMARK SMILES O=c1c(O[C@H]2O[C@@H](CO)[C@@H](O)[C@@H](O)[C@H]2O)c(-c2ccc(O)c(O)c2)oc2cc(O)cc(O)c12
REMARK SMILES IDX 4 1 3 2 16 3 25 4 2 5 26 6 1 7 33 8 27 9 31 10 28 11 30 12
REMARK SMILES IDX 17 13 18 14 19 15 20 16 24 17 22 18 21 19 23 21 32 23 29 25
REMARK SMILES IDX 5 27 14 28 6 29 12 30 7 31 10 32 15 33 13 35 8 37 9 38 11 40
REMARK H PARENT 21 20 23 22 32 24 29 26 15 34 13 36 9 39 11 41
REMARK Flexibility Score: inf
ROOT
ATOM      1  O   UNL     1     115.176 116.259 135.507  1.00  0.00    -0.454 OA
ENDROOT
BRANCH   1   2
ATOM      2  C   UNL     1     116.482 115.896 135.138  1.00  0.00     0.214 A 
ATOM      3  C   UNL     1     117.619 116.317 135.859  1.00  0.00     0.180 A 
ATOM      4  O   UNL     1     118.821 115.866 135.520  1.00  0.00    -0.452 OA
ATOM      5  C   UNL     1     116.663 115.092 134.004  1.00  0.00     0.239 A 
ATOM      6  C   UNL     1     119.035 115.077 134.474  1.00  0.00     0.146 A 
ATOM      7  O   UNL     1     115.640 114.716 133.370  1.00  0.00    -0.285 OA
ATOM      8  C   UNL     1     117.965 114.683 133.625  1.00  0.00     0.111 A 
ATOM      9  C   UNL     1     120.342 114.651 134.218  1.00  0.00     0.094 A 
ATOM     10  C   UNL     1     118.264 113.881 132.483  1.00  0.00     0.134 A 
ATOM     11  C   UNL     1     120.616 113.830 133.123  1.00  0.00     0.123 A 
ATOM     12  C   UNL     1     119.579 113.444 132.270  1.00  0.00     0.093 A 
BRANCH   3  13
ATOM     13  C   UNL     1     117.537 117.288 136.968  1.00  0.00     0.025 A 
ATOM     14  C   UNL     1     118.175 118.531 136.862  1.00  0.00     0.016 A 
ATOM     15  C   UNL     1     118.117 119.442 137.920  1.00  0.00     0.051 A 
ATOM     16  C   UNL     1     117.404 119.125 139.088  1.00  0.00     0.157 A 
ATOM     17  C   UNL     1     116.806 116.980 138.127  1.00  0.00     0.062 A 
ATOM     18  C   UNL     1     116.741 117.889 139.187  1.00  0.00     0.158 A 
BRANCH  16  19
ATOM     19  O   UNL     1     117.354 120.033 140.145  1.00  0.00    -0.504 OA
ATOM     20  H   UNL     1     116.727 119.902 140.929  1.00  0.00     0.293 HD
ENDBRANCH  16  19
BRANCH  18  21
ATOM     21  O   UNL     1     116.019 117.550 140.330  1.00  0.00    -0.504 OA
ATOM     22  H   UNL     1     115.656 118.250 140.966  1.00  0.00     0.293 HD
ENDBRANCH  18  21
ENDBRANCH   3  13
BRANCH  10  23
ATOM     23  O   UNL     1     117.321 113.513 131.517  1.00  0.00    -0.507 OA
ATOM     24  H   UNL     1     116.412 113.126 131.716  1.00  0.00     0.293 HD
ENDBRANCH  10  23
BRANCH  11  25
ATOM     25  O   UNL     1     121.918 113.400 132.864  1.00  0.00    -0.508 OA
ATOM     26  H   UNL     1     122.121 112.442 132.608  1.00  0.00     0.293 HD
ENDBRANCH  11  25
ENDBRANCH   1   2
BRANCH   1  27
ATOM     27  C   UNL     1     114.380 117.232 134.815  1.00  0.00     0.339 C 
ATOM     28  C   UNL     1     113.742 118.251 135.780  1.00  0.00     0.214 C 
ATOM     29  O   UNL     1     113.407 116.597 134.000  1.00  0.00    -0.332 OA
ATOM     30  C   UNL     1     112.705 117.587 136.692  1.00  0.00     0.180 C 
ATOM     31  C   UNL     1     112.368 115.939 134.721  1.00  0.00     0.179 C 
ATOM     32  C   UNL     1     111.698 116.806 135.831  1.00  0.00     0.177 C 
BRANCH  28  33
ATOM     33  O   UNL     1     114.708 118.960 136.517  1.00  0.00    -0.384 OA
ATOM     34  H   UNL     1     114.366 119.080 137.439  1.00  0.00     0.211 HD
ENDBRANCH  28  33
BRANCH  30  35
ATOM     35  O   UNL     1     113.334 116.748 137.629  1.00  0.00    -0.387 OA
ATOM     36  H   UNL     1     114.250 116.566 137.282  1.00  0.00     0.211 HD
ENDBRANCH  30  35
BRANCH  31  37
ATOM     37  C   UNL     1     112.738 114.490 135.118  1.00  0.00     0.191 C 
BRANCH  37  38
ATOM     38  O   UNL     1     113.383 114.429 136.357  1.00  0.00    -0.394 OA
ATOM     39  H   UNL     1     113.386 113.473 136.618  1.00  0.00     0.210 HD
ENDBRANCH  37  38
ENDBRANCH  31  37
BRANCH  32  40
ATOM     40  O   UNL     1     110.872 116.025 136.657  1.00  0.00    -0.387 OA
ATOM     41  H   UNL     1     111.198 116.138 137.587  1.00  0.00     0.211 HD
ENDBRANCH  32  40
ENDBRANCH   1  27
TORSDOF 12
ENDMDL
MODEL 6
REMARK VINA RESULT:    -6.394      7.237     10.504
REMARK INTER + INTRA:         -11.572
REMARK INTER:                 -10.321
REMARK INTRA:                  -1.251
REMARK UNBOUND:                -2.187
REMARK SMILES O=c1c(O[C@H]2O[C@@H](CO)[C@@H](O)[C@@H](O)[C@H]2O)c(-c2ccc(O)c(O)c2)oc2cc(O)cc(O)c12
REMARK SMILES IDX 4 1 3 2 16 3 25 4 2 5 26 6 1 7 33 8 27 9 31 10 28 11 30 12
REMARK SMILES IDX 17 13 18 14 19 15 20 16 24 17 22 18 21 19 23 21 32 23 29 25
REMARK SMILES IDX 5 27 14 28 6 29 12 30 7 31 10 32 15 33 13 35 8 37 9 38 11 40
REMARK H PARENT 21 20 23 22 32 24 29 26 15 34 13 36 9 39 11 41
REMARK Flexibility Score: inf
ROOT
ATOM      1  O   UNL     1     113.407 124.121 141.845  1.00  0.00    -0.454 OA
ENDROOT
BRANCH   1   2
ATOM      2  C   UNL     1     112.887 123.496 140.699  1.00  0.00     0.214 A 
ATOM      3  C   UNL     1     113.619 122.546 139.955  1.00  0.00     0.180 A 
ATOM      4  O   UNL     1     113.042 121.918 138.937  1.00  0.00    -0.452 OA
ATOM      5  C   UNL     1     111.596 123.836 140.273  1.00  0.00     0.239 A 
ATOM      6  C   UNL     1     111.810 122.184 138.519  1.00  0.00     0.146 A 
ATOM      7  O   UNL     1     110.948 124.681 140.948  1.00  0.00    -0.285 OA
ATOM      8  C   UNL     1     111.032 123.199 139.141  1.00  0.00     0.111 A 
ATOM      9  C   UNL     1     111.298 121.451 137.445  1.00  0.00     0.094 A 
ATOM     10  C   UNL     1     109.736 123.481 138.612  1.00  0.00     0.134 A 
ATOM     11  C   UNL     1     110.012 121.705 136.964  1.00  0.00     0.123 A 
ATOM     12  C   UNL     1     109.239 122.707 137.553  1.00  0.00     0.093 A 
BRANCH   3  13
ATOM     13  C   UNL     1     115.036 122.243 140.236  1.00  0.00     0.025 A 
ATOM     14  C   UNL     1     115.372 121.318 141.234  1.00  0.00     0.016 A 
ATOM     15  C   UNL     1     116.714 121.048 141.516  1.00  0.00     0.051 A 
ATOM     16  C   UNL     1     117.732 121.687 140.792  1.00  0.00     0.157 A 
ATOM     17  C   UNL     1     116.054 122.867 139.496  1.00  0.00     0.062 A 
ATOM     18  C   UNL     1     117.398 122.597 139.773  1.00  0.00     0.158 A 
BRANCH  16  19
ATOM     19  O   UNL     1     119.070 121.422 141.081  1.00  0.00    -0.504 OA
ATOM     20  H   UNL     1     119.751 122.164 141.178  1.00  0.00     0.293 HD
ENDBRANCH  16  19
BRANCH  18  21
ATOM     21  O   UNL     1     118.387 123.241 139.031  1.00  0.00    -0.504 OA
ATOM     22  H   UNL     1     118.423 123.188 138.020  1.00  0.00     0.293 HD
ENDBRANCH  18  21
ENDBRANCH   3  13
BRANCH  10  23
ATOM     23  O   UNL     1     108.915 124.519 139.065  1.00  0.00    -0.507 OA
ATOM     24  H   UNL     1     109.162 125.496 139.056  1.00  0.00     0.293 HD
ENDBRANCH  10  23
BRANCH  11  25
ATOM     25  O   UNL     1     109.496 120.975 135.893  1.00  0.00    -0.508 OA
ATOM     26  H   UNL     1     109.043 120.081 136.028  1.00  0.00     0.293 HD
ENDBRANCH  11  25
ENDBRANCH   1   2
BRANCH   1  27
ATOM     27  C   UNL     1     113.184 125.496 142.188  1.00  0.00     0.339 C 
ATOM     28  C   UNL     1     114.360 126.398 141.762  1.00  0.00     0.214 C 
ATOM     29  O   UNL     1     112.894 125.628 143.572  1.00  0.00    -0.332 OA
ATOM     30  C   UNL     1     115.630 126.076 142.556  1.00  0.00     0.180 C 
ATOM     31  C   UNL     1     113.996 125.362 144.436  1.00  0.00     0.179 C 
ATOM     32  C   UNL     1     115.311 126.113 144.060  1.00  0.00     0.177 C 
BRANCH  28  33
ATOM     33  O   UNL     1     114.586 126.353 140.374  1.00  0.00    -0.384 OA
ATOM     34  H   UNL     1     113.739 126.583 139.916  1.00  0.00     0.211 HD
ENDBRANCH  28  33
BRANCH  30  35
ATOM     35  O   UNL     1     116.150 124.827 142.174  1.00  0.00    -0.387 OA
ATOM     36  H   UNL     1     116.253 124.849 141.184  1.00  0.00     0.211 HD
ENDBRANCH  30  35
BRANCH  31  37
ATOM     37  C   UNL     1     114.142 123.862 144.780  1.00  0.00     0.191 C 
BRANCH  37  38
ATOM     38  O   UNL     1     115.230 123.272 144.129  1.00  0.00    -0.394 OA
ATOM     39  H   UNL     1     115.736 122.783 144.827  1.00  0.00     0.210 HD
ENDBRANCH  37  38
ENDBRANCH  31  37
BRANCH  32  40
ATOM     40  O   UNL     1     116.405 125.618 144.790  1.00  0.00    -0.387 OA
ATOM     41  H   UNL     1     116.470 126.158 145.620  1.00  0.00     0.211 HD
ENDBRANCH  32  40
ENDBRANCH   1  27
TORSDOF 12
ENDMDL
MODEL 7
REMARK VINA RESULT:    -6.385      1.933      6.898
REMARK INTER + INTRA:         -11.559
REMARK INTER:                  -9.321
REMARK INTRA:                  -2.237
REMARK UNBOUND:                -2.187
REMARK SMILES O=c1c(O[C@H]2O[C@@H](CO)[C@@H](O)[C@@H](O)[C@H]2O)c(-c2ccc(O)c(O)c2)oc2cc(O)cc(O)c12
REMARK SMILES IDX 4 1 3 2 16 3 25 4 2 5 26 6 1 7 33 8 27 9 31 10 28 11 30 12
REMARK SMILES IDX 17 13 18 14 19 15 20 16 24 17 22 18 21 19 23 21 32 23 29 25
REMARK SMILES IDX 5 27 14 28 6 29 12 30 7 31 10 32 15 33 13 35 8 37 9 38 11 40
REMARK H PARENT 21 20 23 22 32 24 29 26 15 34 13 36 9 39 11 41
REMARK Flexibility Score: inf
ROOT
ATOM      1  O   UNL     1     115.883 117.571 136.615  1.00  0.00    -0.454 OA
ENDROOT
BRANCH   1   2
ATOM      2  C   UNL     1     116.677 118.236 137.564  1.00  0.00     0.214 A 
ATOM      3  C   UNL     1     118.076 118.067 137.635  1.00  0.00     0.180 A 
ATOM      4  O   UNL     1     118.786 118.793 138.490  1.00  0.00    -0.452 OA
ATOM      5  C   UNL     1     116.055 119.095 138.480  1.00  0.00     0.239 A 
ATOM      6  C   UNL     1     118.243 119.643 139.353  1.00  0.00     0.146 A 
ATOM      7  O   UNL     1     114.805 119.245 138.404  1.00  0.00    -0.285 OA
ATOM      8  C   UNL     1     116.832 119.806 139.427  1.00  0.00     0.111 A 
ATOM      9  C   UNL     1     119.089 120.367 140.198  1.00  0.00     0.094 A 
ATOM     10  C   UNL     1     116.301 120.690 140.414  1.00  0.00     0.134 A 
ATOM     11  C   UNL     1     118.561 121.263 141.129  1.00  0.00     0.123 A 
ATOM     12  C   UNL     1     117.177 121.425 141.226  1.00  0.00     0.093 A 
BRANCH   3  13
ATOM     13  C   UNL     1     118.794 117.069 136.818  1.00  0.00     0.025 A 
ATOM     14  C   UNL     1     118.759 115.714 137.173  1.00  0.00     0.016 A 
ATOM     15  C   UNL     1     119.456 114.771 136.413  1.00  0.00     0.051 A 
ATOM     16  C   UNL     1     120.182 115.173 135.280  1.00  0.00     0.157 A 
ATOM     17  C   UNL     1     119.501 117.468 135.672  1.00  0.00     0.062 A 
ATOM     18  C   UNL     1     120.199 116.528 134.907  1.00  0.00     0.158 A 
BRANCH  16  19
ATOM     19  O   UNL     1     120.883 114.232 134.528  1.00  0.00    -0.504 OA
ATOM     20  H   UNL     1     120.409 113.500 134.013  1.00  0.00     0.293 HD
ENDBRANCH  16  19
BRANCH  18  21
ATOM     21  O   UNL     1     120.902 116.956 133.782  1.00  0.00    -0.504 OA
ATOM     22  H   UNL     1     121.798 117.424 133.852  1.00  0.00     0.293 HD
ENDBRANCH  18  21
ENDBRANCH   3  13
BRANCH  10  23
ATOM     23  O   UNL     1     114.934 120.861 140.657  1.00  0.00    -0.507 OA
ATOM     24  H   UNL     1     114.205 120.728 139.974  1.00  0.00     0.293 HD
ENDBRANCH  10  23
BRANCH  11  25
ATOM     25  O   UNL     1     119.401 121.988 141.974  1.00  0.00    -0.508 OA
ATOM     26  H   UNL     1     119.797 122.877 141.695  1.00  0.00     0.293 HD
ENDBRANCH  11  25
ENDBRANCH   1   2
BRANCH   1  27
ATOM     27  C   UNL     1     115.800 117.936 135.230  1.00  0.00     0.339 C 
ATOM     28  C   UNL     1     114.504 118.707 134.910  1.00  0.00     0.214 C 
ATOM     29  O   UNL     1     115.951 116.793 134.400  1.00  0.00    -0.332 OA
ATOM     30  C   UNL     1     113.266 117.820 135.077  1.00  0.00     0.180 C 
ATOM     31  C   UNL     1     114.861 115.876 134.450  1.00  0.00     0.179 C 
ATOM     32  C   UNL     1     113.456 116.527 134.265  1.00  0.00     0.177 C 
BRANCH  28  33
ATOM     33  O   UNL     1     114.398 119.897 135.654  1.00  0.00    -0.384 OA
ATOM     34  H   UNL     1     115.312 120.246 135.809  1.00  0.00     0.211 HD
ENDBRANCH  28  33
BRANCH  30  35
ATOM     35  O   UNL     1     113.036 117.540 136.435  1.00  0.00    -0.387 OA
ATOM     36  H   UNL     1     112.538 118.318 136.808  1.00  0.00     0.211 HD
ENDBRANCH  30  35
BRANCH  31  37
ATOM     37  C   UNL     1     114.992 114.851 135.600  1.00  0.00     0.191 C 
BRANCH  37  38
ATOM     38  O   UNL     1     114.236 115.212 136.721  1.00  0.00    -0.394 OA
ATOM     39  H   UNL     1     113.718 116.014 136.455  1.00  0.00     0.210 HD
ENDBRANCH  37  38
ENDBRANCH  31  37
BRANCH  32  40
ATOM     40  O   UNL     1     112.430 115.617 134.574  1.00  0.00    -0.387 OA
ATOM     41  H   UNL     1     111.570 116.102 134.471  1.00  0.00     0.211 HD
ENDBRANCH  32  40
ENDBRANCH   1  27
TORSDOF 12
ENDMDL
MODEL 8
REMARK VINA RESULT:    -6.331      9.217     11.787
REMARK INTER + INTRA:         -11.480
REMARK INTER:                  -9.293
REMARK INTRA:                  -2.187
REMARK UNBOUND:                -2.187
REMARK SMILES O=c1c(O[C@H]2O[C@@H](CO)[C@@H](O)[C@@H](O)[C@H]2O)c(-c2ccc(O)c(O)c2)oc2cc(O)cc(O)c12
REMARK SMILES IDX 4 1 3 2 16 3 25 4 2 5 26 6 1 7 33 8 27 9 31 10 28 11 30 12
REMARK SMILES IDX 17 13 18 14 19 15 20 16 24 17 22 18 21 19 23 21 32 23 29 25
REMARK SMILES IDX 5 27 14 28 6 29 12 30 7 31 10 32 15 33 13 35 8 37 9 38 11 40
REMARK H PARENT 21 20 23 22 32 24 29 26 15 34 13 36 9 39 11 41
REMARK Flexibility Score: inf
ROOT
ATOM      1  O   UNL     1     111.754 124.172 139.608  1.00  0.00    -0.454 OA
ENDROOT
BRANCH   1   2
ATOM      2  C   UNL     1     112.757 124.717 140.427  1.00  0.00     0.214 A 
ATOM      3  C   UNL     1     113.347 125.973 140.171  1.00  0.00     0.180 A 
ATOM      4  O   UNL     1     114.222 126.479 141.032  1.00  0.00    -0.452 OA
ATOM      5  C   UNL     1     113.193 123.981 141.537  1.00  0.00     0.239 A 
ATOM      6  C   UNL     1     114.639 125.832 142.114  1.00  0.00     0.146 A 
ATOM      7  O   UNL     1     112.655 122.863 141.761  1.00  0.00    -0.285 OA
ATOM      8  C   UNL     1     114.179 124.518 142.401  1.00  0.00     0.111 A 
ATOM      9  C   UNL     1     115.553 126.468 142.959  1.00  0.00     0.094 A 
ATOM     10  C   UNL     1     114.707 123.849 143.546  1.00  0.00     0.134 A 
ATOM     11  C   UNL     1     116.029 125.822 144.101  1.00  0.00     0.123 A 
ATOM     12  C   UNL     1     115.598 124.525 144.392  1.00  0.00     0.093 A 
BRANCH   3  13
ATOM     13  C   UNL     1     113.064 126.744 138.945  1.00  0.00     0.025 A 
ATOM     14  C   UNL     1     112.487 128.018 139.033  1.00  0.00     0.016 A 
ATOM     15  C   UNL     1     112.197 128.739 137.872  1.00  0.00     0.051 A 
ATOM     16  C   UNL     1     112.497 128.200 136.611  1.00  0.00     0.157 A 
ATOM     17  C   UNL     1     113.384 126.213 137.684  1.00  0.00     0.062 A 
ATOM     18  C   UNL     1     113.099 126.933 136.519  1.00  0.00     0.158 A 
BRANCH  16  19
ATOM     19  O   UNL     1     112.199 128.919 135.454  1.00  0.00    -0.504 OA
ATOM     20  H   UNL     1     111.905 128.457 134.602  1.00  0.00     0.293 HD
ENDBRANCH  16  19
BRANCH  18  21
ATOM     21  O   UNL     1     113.417 126.375 135.282  1.00  0.00    -0.504 OA
ATOM     22  H   UNL     1     112.972 126.678 134.424  1.00  0.00     0.293 HD
ENDBRANCH  18  21
ENDBRANCH   3  13
BRANCH  10  23
ATOM     23  O   UNL     1     114.415 122.523 143.881  1.00  0.00    -0.507 OA
ATOM     24  H   UNL     1     113.908 121.877 143.295  1.00  0.00     0.293 HD
ENDBRANCH  10  23
BRANCH  11  25
ATOM     25  O   UNL     1     116.939 126.452 144.949  1.00  0.00    -0.508 OA
ATOM     26  H   UNL     1     117.084 126.140 145.901  1.00  0.00     0.293 HD
ENDBRANCH  11  25
ENDBRANCH   1   2
BRANCH   1  27
ATOM     27  C   UNL     1     110.392 124.623 139.587  1.00  0.00     0.339 C 
ATOM     28  C   UNL     1     109.457 123.676 140.365  1.00  0.00     0.214 C 
ATOM     29  O   UNL     1     109.950 124.821 138.252  1.00  0.00    -0.332 OA
ATOM     30  C   UNL     1     109.347 122.308 139.682  1.00  0.00     0.180 C 
ATOM     31  C   UNL     1     109.796 123.623 137.495  1.00  0.00     0.179 C 
ATOM     32  C   UNL     1     108.968 122.508 138.204  1.00  0.00     0.177 C 
BRANCH  28  33
ATOM     33  O   UNL     1     109.828 123.556 141.716  1.00  0.00    -0.384 OA
ATOM     34  H   UNL     1     109.677 122.619 141.996  1.00  0.00     0.211 HD
ENDBRANCH  28  33
BRANCH  30  35
ATOM     35  O   UNL     1     110.551 121.594 139.808  1.00  0.00    -0.387 OA
ATOM     36  H   UNL     1     111.249 122.252 140.075  1.00  0.00     0.211 HD
ENDBRANCH  30  35
BRANCH  31  37
ATOM     37  C   UNL     1     111.108 123.170 136.814  1.00  0.00     0.191 C 
BRANCH  37  38
ATOM     38  O   UNL     1     111.716 122.108 137.491  1.00  0.00    -0.394 OA
ATOM     39  H   UNL     1     111.641 122.318 138.457  1.00  0.00     0.210 HD
ENDBRANCH  37  38
ENDBRANCH  31  37
BRANCH  32  40
ATOM     40  O   UNL     1     109.069 121.286 137.518  1.00  0.00    -0.387 OA
ATOM     41  H   UNL     1     108.430 121.323 136.760  1.00  0.00     0.211 HD
ENDBRANCH  32  40
ENDBRANCH   1  27
TORSDOF 12
ENDMDL
MODEL 9
REMARK VINA RESULT:    -6.293      6.104      9.485
REMARK INTER + INTRA:         -11.423
REMARK INTER:                  -9.222
REMARK INTRA:                  -2.201
REMARK UNBOUND:                -2.187
REMARK SMILES O=c1c(O[C@H]2O[C@@H](CO)[C@@H](O)[C@@H](O)[C@H]2O)c(-c2ccc(O)c(O)c2)oc2cc(O)cc(O)c12
REMARK SMILES IDX 4 1 3 2 16 3 25 4 2 5 26 6 1 7 33 8 27 9 31 10 28 11 30 12
REMARK SMILES IDX 17 13 18 14 19 15 20 16 24 17 22 18 21 19 23 21 32 23 29 25
REMARK SMILES IDX 5 27 14 28 6 29 12 30 7 31 10 32 15 33 13 35 8 37 9 38 11 40
REMARK H PARENT 21 20 23 22 32 24 29 26 15 34 13 36 9 39 11 41
REMARK Flexibility Score: inf
ROOT
ATOM      1  O   UNL     1     114.015 123.740 141.786  1.00  0.00    -0.454 OA
ENDROOT
BRANCH   1   2
ATOM      2  C   UNL     1     114.432 123.146 140.583  1.00  0.00     0.214 A 
ATOM      3  C   UNL     1     114.279 123.779 139.331  1.00  0.00     0.180 A 
ATOM      4  O   UNL     1     114.777 123.211 138.239  1.00  0.00    -0.452 OA
ATOM      5  C   UNL     1     115.014 121.872 140.627  1.00  0.00     0.239 A 
ATOM      6  C   UNL     1     115.366 122.021 138.239  1.00  0.00     0.146 A 
ATOM      7  O   UNL     1     115.153 121.318 141.751  1.00  0.00    -0.285 OA
ATOM      8  C   UNL     1     115.475 121.261 139.435  1.00  0.00     0.111 A 
ATOM      9  C   UNL     1     115.867 121.525 137.031  1.00  0.00     0.094 A 
ATOM     10  C   UNL     1     116.065 119.963 139.364  1.00  0.00     0.134 A 
ATOM     11  C   UNL     1     116.483 120.274 136.982  1.00  0.00     0.123 A 
ATOM     12  C   UNL     1     116.586 119.507 138.144  1.00  0.00     0.093 A 
BRANCH   3  13
ATOM     13  C   UNL     1     113.539 125.046 139.171  1.00  0.00     0.025 A 
ATOM     14  C   UNL     1     112.142 125.034 139.056  1.00  0.00     0.016 A 
ATOM     15  C   UNL     1     111.443 126.231 138.883  1.00  0.00     0.051 A 
ATOM     16  C   UNL     1     112.132 127.453 138.839  1.00  0.00     0.157 A 
ATOM     17  C   UNL     1     114.227 126.270 139.149  1.00  0.00     0.062 A 
ATOM     18  C   UNL     1     113.531 127.471 138.978  1.00  0.00     0.158 A 
BRANCH  16  19
ATOM     19  O   UNL     1     111.433 128.646 138.657  1.00  0.00    -0.504 OA
ATOM     20  H   UNL     1     110.876 128.816 137.829  1.00  0.00     0.293 HD
ENDBRANCH  16  19
BRANCH  18  21
ATOM     21  O   UNL     1     114.242 128.670 138.948  1.00  0.00    -0.504 OA
ATOM     22  H   UNL     1     115.102 128.774 138.421  1.00  0.00     0.293 HD
ENDBRANCH  18  21
ENDBRANCH   3  13
BRANCH  10  23
ATOM     23  O   UNL     1     116.140 119.077 140.444  1.00  0.00    -0.507 OA
ATOM     24  H   UNL     1     116.180 118.073 140.365  1.00  0.00     0.293 HD
ENDBRANCH  10  23
BRANCH  11  25
ATOM     25  O   UNL     1     116.986 119.776 135.780  1.00  0.00    -0.508 OA
ATOM     26  H   UNL     1     117.071 120.359 134.957  1.00  0.00     0.293 HD
ENDBRANCH  11  25
ENDBRANCH   1   2
BRANCH   1  27
ATOM     27  C   UNL     1     114.705 124.816 142.438  1.00  0.00     0.339 C 
ATOM     28  C   UNL     1     115.436 124.348 143.712  1.00  0.00     0.214 C 
ATOM     29  O   UNL     1     113.818 125.892 142.705  1.00  0.00    -0.332 OA
ATOM     30  C   UNL     1     114.447 123.903 144.796  1.00  0.00     0.180 C 
ATOM     31  C   UNL     1     112.840 125.619 143.706  1.00  0.00     0.179 C 
ATOM     32  C   UNL     1     113.413 125.018 145.026  1.00  0.00     0.177 C 
BRANCH  28  33
ATOM     33  O   UNL     1     116.393 123.353 143.439  1.00  0.00    -0.384 OA
ATOM     34  H   UNL     1     116.289 123.077 142.494  1.00  0.00     0.211 HD
ENDBRANCH  28  33
BRANCH  30  35
ATOM     35  O   UNL     1     113.824 122.696 144.433  1.00  0.00    -0.387 OA
ATOM     36  H   UNL     1     113.597 122.769 143.466  1.00  0.00     0.211 HD
ENDBRANCH  30  35
BRANCH  31  37
ATOM     37  C   UNL     1     111.574 124.937 143.139  1.00  0.00     0.191 C 
BRANCH  37  38
ATOM     38  O   UNL     1     111.534 123.569 143.431  1.00  0.00    -0.394 OA
ATOM     39  H   UNL     1     112.460 123.312 143.672  1.00  0.00     0.210 HD
ENDBRANCH  37  38
ENDBRANCH  31  37
BRANCH  32  40
ATOM     40  O   UNL     1     112.383 124.546 145.858  1.00  0.00    -0.387 OA
ATOM     41  H   UNL     1     112.814 124.155 146.662  1.00  0.00     0.211 HD
ENDBRANCH  32  40
ENDBRANCH   1  27
TORSDOF 12
ENDMDL
