MODEL 1
REMARK VINA RESULT:    -4.967      0.000      0.000
REMARK INTER + INTRA:          -6.119
REMARK INTER:                  -5.983
REMARK INTRA:                  -0.136
REMARK UNBOUND:                -0.136
REMARK SMILES O=c1c(O)c(-c2ccc(O)c(O)c2)oc2cc(O)cc(O)c12
REMARK SMILES IDX 5 1 3 2 2 3 1 4 22 5 20 6 19 7 17 8 16 9 15 10 14 11 6 12
REMARK SMILES IDX 7 13 8 14 9 15 13 16 11 17 10 18 12 20 4 22 21 24 18 26
REMARK H PARENT 10 19 12 21 4 23 21 25 18 27
REMARK Flexibility Score: inf
ROOT
ATOM      1  C   UNL     1      -5.806  -6.880  -8.857  1.00  0.00     0.180 A 
ATOM      2  C   UNL     1      -5.550  -5.939  -9.870  1.00  0.00     0.208 A 
ATOM      3  C   UNL     1      -6.317  -4.764  -9.917  1.00  0.00     0.238 A 
ATOM      4  O   UNL     1      -6.046  -3.901 -10.794  1.00  0.00    -0.285 OA
ATOM      5  C   UNL     1      -7.340  -4.551  -8.963  1.00  0.00     0.111 A 
ATOM      6  C   UNL     1      -8.205  -3.415  -8.942  1.00  0.00     0.134 A 
ATOM      7  C   UNL     1      -9.095  -3.246  -7.874  1.00  0.00     0.093 A 
ATOM      8  C   UNL     1      -9.199  -4.201  -6.864  1.00  0.00     0.123 A 
ATOM      9  C   UNL     1      -8.401  -5.345  -6.906  1.00  0.00     0.094 A 
ATOM     10  C   UNL     1      -7.477  -5.525  -7.939  1.00  0.00     0.146 A 
ATOM     11  O   UNL     1      -6.728  -6.620  -7.937  1.00  0.00    -0.452 OA
ENDROOT
BRANCH   1  12
ATOM     12  C   UNL     1      -5.057  -8.153  -8.756  1.00  0.00     0.025 A 
ATOM     13  C   UNL     1      -3.680  -8.125  -8.483  1.00  0.00     0.016 A 
ATOM     14  C   UNL     1      -2.958  -9.314  -8.363  1.00  0.00     0.051 A 
ATOM     15  C   UNL     1      -3.604 -10.550  -8.498  1.00  0.00     0.157 A 
ATOM     16  C   UNL     1      -5.705  -9.396  -8.870  1.00  0.00     0.062 A 
ATOM     17  C   UNL     1      -4.986 -10.590  -8.748  1.00  0.00     0.158 A 
BRANCH  15  18
ATOM     18  O   UNL     1      -2.880 -11.736  -8.379  1.00  0.00    -0.504 OA
ATOM     19  H   UNL     1      -2.008 -11.877  -8.875  1.00  0.00     0.293 HD
ENDBRANCH  15  18
BRANCH  17  20
ATOM     20  O   UNL     1      -5.661 -11.804  -8.873  1.00  0.00    -0.504 OA
ATOM     21  H   UNL     1      -5.356 -12.526  -9.515  1.00  0.00     0.293 HD
ENDBRANCH  17  20
ENDBRANCH   1  12
BRANCH   2  22
ATOM     22  O   UNL     1      -4.520  -6.159 -10.788  1.00  0.00    -0.502 OA
ATOM     23  H   UNL     1      -3.651  -6.615 -10.534  1.00  0.00     0.293 HD
ENDBRANCH   2  22
BRANCH   6  24
ATOM     24  O   UNL     1      -8.247  -2.448  -9.950  1.00  0.00    -0.507 OA
ATOM     25  H   UNL     1      -7.742  -1.574  -9.930  1.00  0.00     0.293 HD
ENDBRANCH   6  24
BRANCH   8  26
ATOM     26  O   UNL     1     -10.107  -4.007  -5.825  1.00  0.00    -0.508 OA
ATOM     27  H   UNL     1     -10.216  -4.688  -5.083  1.00  0.00     0.293 HD
ENDBRANCH   8  26
TORSDOF 6
ENDMDL
MODEL 2
REMARK VINA RESULT:    -4.951      2.060      6.755
REMARK INTER + INTRA:          -6.100
REMARK INTER:                  -6.179
REMARK INTRA:                   0.079
REMARK UNBOUND:                -0.136
REMARK SMILES O=c1c(O)c(-c2ccc(O)c(O)c2)oc2cc(O)cc(O)c12
REMARK SMILES IDX 5 1 3 2 2 3 1 4 22 5 20 6 19 7 17 8 16 9 15 10 14 11 6 12
REMARK SMILES IDX 7 13 8 14 9 15 13 16 11 17 10 18 12 20 4 22 21 24 18 26
REMARK H PARENT 10 19 12 21 4 23 21 25 18 27
REMARK Flexibility Score: inf
ROOT
ATOM      1  C   UNL     1      -5.023  -6.960  -9.847  1.00  0.00     0.180 A 
ATOM      2  C   UNL     1      -3.701  -7.406  -9.678  1.00  0.00     0.208 A 
ATOM      3  C   UNL     1      -3.473  -8.756  -9.363  1.00  0.00     0.238 A 
ATOM      4  O   UNL     1      -2.285  -9.160  -9.267  1.00  0.00    -0.285 OA
ATOM      5  C   UNL     1      -4.568  -9.637  -9.204  1.00  0.00     0.111 A 
ATOM      6  C   UNL     1      -4.455 -11.015  -8.846  1.00  0.00     0.134 A 
ATOM      7  C   UNL     1      -5.598 -11.823  -8.846  1.00  0.00     0.093 A 
ATOM      8  C   UNL     1      -6.857 -11.293  -9.125  1.00  0.00     0.123 A 
ATOM      9  C   UNL     1      -6.987  -9.935  -9.419  1.00  0.00     0.094 A 
ATOM     10  C   UNL     1      -5.861  -9.109  -9.463  1.00  0.00     0.146 A 
ATOM     11  O   UNL     1      -6.026  -7.826  -9.757  1.00  0.00    -0.452 OA
ENDROOT
BRANCH   1  12
ATOM     12  C   UNL     1      -5.345  -5.548 -10.155  1.00  0.00     0.025 A 
ATOM     13  C   UNL     1      -4.657  -4.892 -11.189  1.00  0.00     0.016 A 
ATOM     14  C   UNL     1      -4.959  -3.567 -11.510  1.00  0.00     0.051 A 
ATOM     15  C   UNL     1      -5.964  -2.882 -10.815  1.00  0.00     0.157 A 
ATOM     16  C   UNL     1      -6.367  -4.863  -9.473  1.00  0.00     0.062 A 
ATOM     17  C   UNL     1      -6.674  -3.536  -9.794  1.00  0.00     0.158 A 
BRANCH  15  18
ATOM     18  O   UNL     1      -6.262  -1.558 -11.136  1.00  0.00    -0.504 OA
ATOM     19  H   UNL     1      -5.533  -0.881 -11.325  1.00  0.00     0.293 HD
ENDBRANCH  15  18
BRANCH  17  20
ATOM     20  O   UNL     1      -7.690  -2.887  -9.093  1.00  0.00    -0.504 OA
ATOM     21  H   UNL     1      -7.503  -2.117  -8.464  1.00  0.00     0.293 HD
ENDBRANCH  17  20
ENDBRANCH   1  12
BRANCH   2  22
ATOM     22  O   UNL     1      -2.632  -6.524  -9.861  1.00  0.00    -0.502 OA
ATOM     23  H   UNL     1      -2.112  -6.131  -9.086  1.00  0.00     0.293 HD
ENDBRANCH   2  22
BRANCH   6  24
ATOM     24  O   UNL     1      -3.259 -11.624  -8.460  1.00  0.00    -0.507 OA
ATOM     25  H   UNL     1      -2.851 -11.557  -7.539  1.00  0.00     0.293 HD
ENDBRANCH   6  24
BRANCH   8  26
ATOM     26  O   UNL     1      -7.974 -12.125  -9.100  1.00  0.00    -0.508 OA
ATOM     27  H   UNL     1      -8.354 -12.527  -9.949  1.00  0.00     0.293 HD
ENDBRANCH   8  26
TORSDOF 6
ENDMDL
MODEL 3
REMARK VINA RESULT:    -4.922      7.711     11.195
REMARK INTER + INTRA:          -6.066
REMARK INTER:                  -6.003
REMARK INTRA:                  -0.063
REMARK UNBOUND:                -0.136
REMARK SMILES O=c1c(O)c(-c2ccc(O)c(O)c2)oc2cc(O)cc(O)c12
REMARK SMILES IDX 5 1 3 2 2 3 1 4 22 5 20 6 19 7 17 8 16 9 15 10 14 11 6 12
REMARK SMILES IDX 7 13 8 14 9 15 13 16 11 17 10 18 12 20 4 22 21 24 18 26
REMARK H PARENT 10 19 12 21 4 23 21 25 18 27
REMARK Flexibility Score: inf
ROOT
ATOM      1  C   UNL     1       0.780  -2.955 -10.749  1.00  0.00     0.180 A 
ATOM      2  C   UNL     1       0.823  -4.013  -9.824  1.00  0.00     0.208 A 
ATOM      3  C   UNL     1       2.053  -4.636  -9.558  1.00  0.00     0.238 A 
ATOM      4  O   UNL     1       2.094  -5.546  -8.689  1.00  0.00    -0.285 OA
ATOM      5  C   UNL     1       3.221  -4.206 -10.232  1.00  0.00     0.111 A 
ATOM      6  C   UNL     1       4.513  -4.792 -10.069  1.00  0.00     0.134 A 
ATOM      7  C   UNL     1       5.621  -4.201 -10.688  1.00  0.00     0.093 A 
ATOM      8  C   UNL     1       5.478  -3.087 -11.514  1.00  0.00     0.123 A 
ATOM      9  C   UNL     1       4.211  -2.541 -11.727  1.00  0.00     0.094 A 
ATOM     10  C   UNL     1       3.090  -3.086 -11.095  1.00  0.00     0.146 A 
ATOM     11  O   UNL     1       1.905  -2.531 -11.315  1.00  0.00    -0.452 OA
ENDROOT
BRANCH   1  12
ATOM     12  C   UNL     1      -0.482  -2.266 -11.100  1.00  0.00     0.025 A 
ATOM     13  C   UNL     1      -1.570  -3.015 -11.574  1.00  0.00     0.016 A 
ATOM     14  C   UNL     1      -2.777  -2.388 -11.892  1.00  0.00     0.051 A 
ATOM     15  C   UNL     1      -2.920  -1.004 -11.723  1.00  0.00     0.157 A 
ATOM     16  C   UNL     1      -0.636  -0.880 -10.913  1.00  0.00     0.062 A 
ATOM     17  C   UNL     1      -1.845  -0.248 -11.227  1.00  0.00     0.158 A 
BRANCH  15  18
ATOM     18  O   UNL     1      -4.125  -0.379 -12.042  1.00  0.00    -0.504 OA
ATOM     19  H   UNL     1      -5.016  -0.763 -11.748  1.00  0.00     0.293 HD
ENDBRANCH  15  18
BRANCH  17  20
ATOM     20  O   UNL     1      -1.959   1.128 -11.034  1.00  0.00    -0.504 OA
ATOM     21  H   UNL     1      -1.629   1.797 -11.719  1.00  0.00     0.293 HD
ENDBRANCH  17  20
ENDBRANCH   1  12
BRANCH   2  22
ATOM     22  O   UNL     1      -0.338  -4.407  -9.153  1.00  0.00    -0.502 OA
ATOM     23  H   UNL     1      -0.662  -5.367  -9.143  1.00  0.00     0.293 HD
ENDBRANCH   2  22
BRANCH   6  24
ATOM     24  O   UNL     1       4.753  -5.960  -9.341  1.00  0.00    -0.507 OA
ATOM     25  H   UNL     1       4.081  -6.700  -9.202  1.00  0.00     0.293 HD
ENDBRANCH   6  24
BRANCH   8  26
ATOM     26  O   UNL     1       6.601  -2.535 -12.125  1.00  0.00    -0.508 OA
ATOM     27  H   UNL     1       6.661  -1.543 -12.325  1.00  0.00     0.293 HD
ENDBRANCH   8  26
TORSDOF 6
ENDMDL
MODEL 4
REMARK VINA RESULT:    -4.743      6.429      8.160
REMARK INTER + INTRA:          -5.850
REMARK INTER:                  -5.931
REMARK INTRA:                   0.081
REMARK UNBOUND:                -0.136
REMARK SMILES O=c1c(O)c(-c2ccc(O)c(O)c2)oc2cc(O)cc(O)c12
REMARK SMILES IDX 5 1 3 2 2 3 1 4 22 5 20 6 19 7 17 8 16 9 15 10 14 11 6 12
REMARK SMILES IDX 7 13 8 14 9 15 13 16 11 17 10 18 12 20 4 22 21 24 18 26
REMARK H PARENT 10 19 12 21 4 23 21 25 18 27
REMARK Flexibility Score: inf
ROOT
ATOM      1  C   UNL     1       0.113  -3.246 -10.833  1.00  0.00     0.180 A 
ATOM      2  C   UNL     1      -0.437  -1.957 -10.938  1.00  0.00     0.208 A 
ATOM      3  C   UNL     1      -1.803  -1.821 -11.239  1.00  0.00     0.238 A 
ATOM      4  O   UNL     1      -2.300  -0.666 -11.279  1.00  0.00    -0.285 OA
ATOM      5  C   UNL     1      -2.596  -2.974 -11.447  1.00  0.00     0.111 A 
ATOM      6  C   UNL     1      -3.981  -2.953 -11.796  1.00  0.00     0.134 A 
ATOM      7  C   UNL     1      -4.697  -4.156 -11.847  1.00  0.00     0.093 A 
ATOM      8  C   UNL     1      -4.068  -5.380 -11.629  1.00  0.00     0.123 A 
ATOM      9  C   UNL     1      -2.702  -5.417 -11.345  1.00  0.00     0.094 A 
ATOM     10  C   UNL     1      -1.967  -4.232 -11.250  1.00  0.00     0.146 A 
ATOM     11  O   UNL     1      -0.673  -4.309 -10.967  1.00  0.00    -0.452 OA
ENDROOT
BRANCH   1  12
ATOM     12  C   UNL     1       1.547  -3.469 -10.543  1.00  0.00     0.025 A 
ATOM     13  C   UNL     1       1.924  -4.508  -9.676  1.00  0.00     0.016 A 
ATOM     14  C   UNL     1       3.273  -4.749  -9.406  1.00  0.00     0.051 A 
ATOM     15  C   UNL     1       4.266  -3.967 -10.010  1.00  0.00     0.157 A 
ATOM     16  C   UNL     1       2.548  -2.700 -11.164  1.00  0.00     0.062 A 
ATOM     17  C   UNL     1       3.901  -2.941 -10.897  1.00  0.00     0.158 A 
BRANCH  15  18
ATOM     18  O   UNL     1       5.612  -4.209  -9.737  1.00  0.00    -0.504 OA
ATOM     19  H   UNL     1       6.309  -4.222 -10.472  1.00  0.00     0.293 HD
ENDBRANCH  15  18
BRANCH  17  20
ATOM     20  O   UNL     1       4.866  -2.155 -11.526  1.00  0.00    -0.504 OA
ATOM     21  H   UNL     1       4.779  -1.868 -12.493  1.00  0.00     0.293 HD
ENDBRANCH  17  20
ENDBRANCH   1  12
BRANCH   2  22
ATOM     22  O   UNL     1       0.359  -0.832 -10.708  1.00  0.00    -0.502 OA
ATOM     23  H   UNL     1       0.394  -0.365  -9.809  1.00  0.00     0.293 HD
ENDBRANCH   2  22
BRANCH   6  24
ATOM     24  O   UNL     1      -4.685  -1.792 -12.125  1.00  0.00    -0.507 OA
ATOM     25  H   UNL     1      -4.539  -0.890 -11.695  1.00  0.00     0.293 HD
ENDBRANCH   6  24
BRANCH   8  26
ATOM     26  O   UNL     1      -4.809  -6.557 -11.704  1.00  0.00    -0.508 OA
ATOM     27  H   UNL     1      -4.936  -7.155 -10.896  1.00  0.00     0.293 HD
ENDBRANCH   8  26
TORSDOF 6
ENDMDL
MODEL 5
REMARK VINA RESULT:    -4.740      2.247      6.986
REMARK INTER + INTRA:          -5.846
REMARK INTER:                  -5.558
REMARK INTRA:                  -0.289
REMARK UNBOUND:                -0.136
REMARK SMILES O=c1c(O)c(-c2ccc(O)c(O)c2)oc2cc(O)cc(O)c12
REMARK SMILES IDX 5 1 3 2 2 3 1 4 22 5 20 6 19 7 17 8 16 9 15 10 14 11 6 12
REMARK SMILES IDX 7 13 8 14 9 15 13 16 11 17 10 18 12 20 4 22 21 24 18 26
REMARK H PARENT 10 19 12 21 4 23 21 25 18 27
REMARK Flexibility Score: inf
ROOT
ATOM      1  C   UNL     1      -7.284  -8.065  -8.792  1.00  0.00     0.180 A 
ATOM      2  C   UNL     1      -7.831  -8.554  -9.991  1.00  0.00     0.208 A 
ATOM      3  C   UNL     1      -7.162  -9.583 -10.675  1.00  0.00     0.238 A 
ATOM      4  O   UNL     1      -7.686 -10.053 -11.719  1.00  0.00    -0.285 OA
ATOM      5  C   UNL     1      -5.947 -10.096 -10.162  1.00  0.00     0.111 A 
ATOM      6  C   UNL     1      -5.165 -11.110 -10.793  1.00  0.00     0.134 A 
ATOM      7  C   UNL     1      -4.049 -11.634 -10.129  1.00  0.00     0.093 A 
ATOM      8  C   UNL     1      -3.649 -11.138  -8.889  1.00  0.00     0.123 A 
ATOM      9  C   UNL     1      -4.372 -10.106  -8.290  1.00  0.00     0.094 A 
ATOM     10  C   UNL     1      -5.512  -9.586  -8.910  1.00  0.00     0.146 A 
ATOM     11  O   UNL     1      -6.178  -8.613  -8.302  1.00  0.00    -0.452 OA
ENDROOT
BRANCH   1  12
ATOM     12  C   UNL     1      -7.917  -6.966  -8.028  1.00  0.00     0.025 A 
ATOM     13  C   UNL     1      -7.763  -5.641  -8.465  1.00  0.00     0.016 A 
ATOM     14  C   UNL     1      -8.368  -4.592  -7.771  1.00  0.00     0.051 A 
ATOM     15  C   UNL     1      -9.152  -4.852  -6.639  1.00  0.00     0.157 A 
ATOM     16  C   UNL     1      -8.721  -7.225  -6.903  1.00  0.00     0.062 A 
ATOM     17  C   UNL     1      -9.331  -6.176  -6.206  1.00  0.00     0.158 A 
BRANCH  15  18
ATOM     18  O   UNL     1      -9.754  -3.802  -5.946  1.00  0.00    -0.504 OA
ATOM     19  H   UNL     1     -10.722  -3.848  -5.651  1.00  0.00     0.293 HD
ENDBRANCH  15  18
BRANCH  17  20
ATOM     20  O   UNL     1     -10.117  -6.470  -5.092  1.00  0.00    -0.504 OA
ATOM     21  H   UNL     1     -11.079  -6.775  -5.177  1.00  0.00     0.293 HD
ENDBRANCH  17  20
ENDBRANCH   1  12
BRANCH   2  22
ATOM     22  O   UNL     1      -9.043  -8.048 -10.468  1.00  0.00    -0.502 OA
ATOM     23  H   UNL     1      -9.144  -7.666 -11.401  1.00  0.00     0.293 HD
ENDBRANCH   2  22
BRANCH   6  24
ATOM     24  O   UNL     1      -5.424 -11.612 -12.072  1.00  0.00    -0.507 OA
ATOM     25  H   UNL     1      -6.216 -11.353 -12.641  1.00  0.00     0.293 HD
ENDBRANCH   6  24
BRANCH   8  26
ATOM     26  O   UNL     1      -2.524 -11.672  -8.266  1.00  0.00    -0.508 OA
ATOM     27  H   UNL     1      -2.123 -11.244  -7.440  1.00  0.00     0.293 HD
ENDBRANCH   8  26
TORSDOF 6
ENDMDL
MODEL 6
REMARK VINA RESULT:    -4.713      7.468      9.119
REMARK INTER + INTRA:          -5.813
REMARK INTER:                  -5.783
REMARK INTRA:                  -0.030
REMARK UNBOUND:                -0.136
REMARK SMILES O=c1c(O)c(-c2ccc(O)c(O)c2)oc2cc(O)cc(O)c12
REMARK SMILES IDX 5 1 3 2 2 3 1 4 22 5 20 6 19 7 17 8 16 9 15 10 14 11 6 12
REMARK SMILES IDX 7 13 8 14 9 15 13 16 11 17 10 18 12 20 4 22 21 24 18 26
REMARK H PARENT 10 19 12 21 4 23 21 25 18 27
REMARK Flexibility Score: inf
ROOT
ATOM      1  C   UNL     1       1.028  -3.007 -11.075  1.00  0.00     0.180 A 
ATOM      2  C   UNL     1       0.062  -3.954 -11.459  1.00  0.00     0.208 A 
ATOM      3  C   UNL     1      -1.246  -3.520 -11.728  1.00  0.00     0.238 A 
ATOM      4  O   UNL     1      -2.092  -4.364 -12.123  1.00  0.00    -0.285 OA
ATOM      5  C   UNL     1      -1.577  -2.151 -11.593  1.00  0.00     0.111 A 
ATOM      6  C   UNL     1      -2.880  -1.607 -11.801  1.00  0.00     0.134 A 
ATOM      7  C   UNL     1      -3.062  -0.219 -11.768  1.00  0.00     0.093 A 
ATOM      8  C   UNL     1      -2.006   0.640 -11.470  1.00  0.00     0.123 A 
ATOM      9  C   UNL     1      -0.740   0.116 -11.207  1.00  0.00     0.094 A 
ATOM     10  C   UNL     1      -0.517  -1.263 -11.268  1.00  0.00     0.146 A 
ATOM     11  O   UNL     1       0.703  -1.721 -11.022  1.00  0.00    -0.452 OA
ENDROOT
BRANCH   1  12
ATOM     12  C   UNL     1       2.421  -3.390 -10.751  1.00  0.00     0.025 A 
ATOM     13  C   UNL     1       2.659  -4.397  -9.801  1.00  0.00     0.016 A 
ATOM     14  C   UNL     1       3.964  -4.788  -9.496  1.00  0.00     0.051 A 
ATOM     15  C   UNL     1       5.052  -4.191 -10.147  1.00  0.00     0.157 A 
ATOM     16  C   UNL     1       3.515  -2.808 -11.417  1.00  0.00     0.062 A 
ATOM     17  C   UNL     1       4.825  -3.199 -11.116  1.00  0.00     0.158 A 
BRANCH  15  18
ATOM     18  O   UNL     1       6.354  -4.582  -9.839  1.00  0.00    -0.504 OA
ATOM     19  H   UNL     1       6.624  -4.834  -8.896  1.00  0.00     0.293 HD
ENDBRANCH  15  18
BRANCH  17  20
ATOM     20  O   UNL     1       5.884  -2.596 -11.792  1.00  0.00    -0.504 OA
ATOM     21  H   UNL     1       6.810  -3.006 -11.817  1.00  0.00     0.293 HD
ENDBRANCH  17  20
ENDBRANCH   1  12
BRANCH   2  22
ATOM     22  O   UNL     1       0.415  -5.298 -11.607  1.00  0.00    -0.502 OA
ATOM     23  H   UNL     1       0.506  -5.927 -10.818  1.00  0.00     0.293 HD
ENDBRANCH   2  22
BRANCH   6  24
ATOM     24  O   UNL     1      -4.024  -2.382 -12.014  1.00  0.00    -0.507 OA
ATOM     25  H   UNL     1      -4.930  -2.193 -11.612  1.00  0.00     0.293 HD
ENDBRANCH   6  24
BRANCH   8  26
ATOM     26  O   UNL     1      -2.228   2.014 -11.431  1.00  0.00    -0.508 OA
ATOM     27  H   UNL     1      -3.088   2.422 -11.779  1.00  0.00     0.293 HD
ENDBRANCH   8  26
TORSDOF 6
ENDMDL
MODEL 7
REMARK VINA RESULT:    -4.644      7.962     11.279
REMARK INTER + INTRA:          -5.730
REMARK INTER:                  -5.733
REMARK INTRA:                   0.002
REMARK UNBOUND:                -0.136
REMARK SMILES O=c1c(O)c(-c2ccc(O)c(O)c2)oc2cc(O)cc(O)c12
REMARK SMILES IDX 5 1 3 2 2 3 1 4 22 5 20 6 19 7 17 8 16 9 15 10 14 11 6 12
REMARK SMILES IDX 7 13 8 14 9 15 13 16 11 17 10 18 12 20 4 22 21 24 18 26
REMARK H PARENT 10 19 12 21 4 23 21 25 18 27
REMARK Flexibility Score: inf
ROOT
ATOM      1  C   UNL     1       1.881  -3.324 -10.777  1.00  0.00     0.180 A 
ATOM      2  C   UNL     1       2.976  -2.639 -11.332  1.00  0.00     0.208 A 
ATOM      3  C   UNL     1       4.272  -3.133 -11.109  1.00  0.00     0.238 A 
ATOM      4  O   UNL     1       5.243  -2.545 -11.654  1.00  0.00    -0.285 OA
ATOM      5  C   UNL     1       4.458  -4.293 -10.321  1.00  0.00     0.111 A 
ATOM      6  C   UNL     1       5.729  -4.858  -9.998  1.00  0.00     0.134 A 
ATOM      7  C   UNL     1       5.788  -6.082  -9.321  1.00  0.00     0.093 A 
ATOM      8  C   UNL     1       4.628  -6.729  -8.898  1.00  0.00     0.123 A 
ATOM      9  C   UNL     1       3.382  -6.156  -9.157  1.00  0.00     0.094 A 
ATOM     10  C   UNL     1       3.288  -4.953  -9.863  1.00  0.00     0.146 A 
ATOM     11  O   UNL     1       2.084  -4.447 -10.098  1.00  0.00    -0.452 OA
ENDROOT
BRANCH   1  12
ATOM     12  C   UNL     1       0.488  -2.852 -10.947  1.00  0.00     0.025 A 
ATOM     13  C   UNL     1      -0.516  -3.771 -11.290  1.00  0.00     0.016 A 
ATOM     14  C   UNL     1      -1.840  -3.352 -11.435  1.00  0.00     0.051 A 
ATOM     15  C   UNL     1      -2.184  -2.010 -11.223  1.00  0.00     0.157 A 
ATOM     16  C   UNL     1       0.136  -1.510 -10.714  1.00  0.00     0.062 A 
ATOM     17  C   UNL     1      -1.191  -1.086 -10.857  1.00  0.00     0.158 A 
BRANCH  15  18
ATOM     18  O   UNL     1      -3.506  -1.593 -11.370  1.00  0.00    -0.504 OA
ATOM     19  H   UNL     1      -4.269  -2.258 -11.422  1.00  0.00     0.293 HD
ENDBRANCH  15  18
BRANCH  17  20
ATOM     20  O   UNL     1      -1.502   0.253 -10.624  1.00  0.00    -0.504 OA
ATOM     21  H   UNL     1      -2.318   0.694 -11.031  1.00  0.00     0.293 HD
ENDBRANCH  17  20
ENDBRANCH   1  12
BRANCH   2  22
ATOM     22  O   UNL     1       2.768  -1.507 -12.125  1.00  0.00    -0.502 OA
ATOM     23  H   UNL     1       3.432  -0.743 -12.168  1.00  0.00     0.293 HD
ENDBRANCH   2  22
BRANCH   6  24
ATOM     24  O   UNL     1       6.951  -4.247 -10.292  1.00  0.00    -0.507 OA
ATOM     25  H   UNL     1       7.855  -4.674 -10.152  1.00  0.00     0.293 HD
ENDBRANCH   6  24
BRANCH   8  26
ATOM     26  O   UNL     1       4.725  -7.938  -8.213  1.00  0.00    -0.508 OA
ATOM     27  H   UNL     1       3.946  -8.584  -8.166  1.00  0.00     0.293 HD
ENDBRANCH   8  26
TORSDOF 6
ENDMDL
MODEL 8
REMARK VINA RESULT:    -4.582      9.311     11.152
REMARK INTER + INTRA:          -5.656
REMARK INTER:                  -5.461
REMARK INTRA:                  -0.194
REMARK UNBOUND:                -0.136
REMARK SMILES O=c1c(O)c(-c2ccc(O)c(O)c2)oc2cc(O)cc(O)c12
REMARK SMILES IDX 5 1 3 2 2 3 1 4 22 5 20 6 19 7 17 8 16 9 15 10 14 11 6 12
REMARK SMILES IDX 7 13 8 14 9 15 13 16 11 17 10 18 12 20 4 22 21 24 18 26
REMARK H PARENT 10 19 12 21 4 23 21 25 18 27
REMARK Flexibility Score: inf
ROOT
ATOM      1  C   UNL     1       4.853  -6.947  -9.267  1.00  0.00     0.180 A 
ATOM      2  C   UNL     1       6.039  -6.298  -9.656  1.00  0.00     0.208 A 
ATOM      3  C   UNL     1       5.956  -5.035 -10.263  1.00  0.00     0.238 A 
ATOM      4  O   UNL     1       7.024  -4.437 -10.559  1.00  0.00    -0.285 OA
ATOM      5  C   UNL     1       4.691  -4.443 -10.490  1.00  0.00     0.111 A 
ATOM      6  C   UNL     1       4.488  -3.185 -11.133  1.00  0.00     0.134 A 
ATOM      7  C   UNL     1       3.200  -2.636 -11.185  1.00  0.00     0.093 A 
ATOM      8  C   UNL     1       2.101  -3.327 -10.678  1.00  0.00     0.123 A 
ATOM      9  C   UNL     1       2.280  -4.585 -10.100  1.00  0.00     0.094 A 
ATOM     10  C   UNL     1       3.557  -5.143 -10.000  1.00  0.00     0.146 A 
ATOM     11  O   UNL     1       3.686  -6.336  -9.433  1.00  0.00    -0.452 OA
ENDROOT
BRANCH   1  12
ATOM     12  C   UNL     1       4.858  -8.289  -8.644  1.00  0.00     0.025 A 
ATOM     13  C   UNL     1       5.268  -9.401  -9.399  1.00  0.00     0.016 A 
ATOM     14  C   UNL     1       5.299 -10.673  -8.825  1.00  0.00     0.051 A 
ATOM     15  C   UNL     1       4.938 -10.853  -7.483  1.00  0.00     0.157 A 
ATOM     16  C   UNL     1       4.515  -8.471  -7.292  1.00  0.00     0.062 A 
ATOM     17  C   UNL     1       4.547  -9.745  -6.713  1.00  0.00     0.158 A 
BRANCH  15  18
ATOM     18  O   UNL     1       4.968 -12.125  -6.913  1.00  0.00    -0.504 OA
ATOM     19  H   UNL     1       4.127 -12.570  -6.563  1.00  0.00     0.293 HD
ENDBRANCH  15  18
BRANCH  17  20
ATOM     20  O   UNL     1       4.196  -9.888  -5.371  1.00  0.00    -0.504 OA
ATOM     21  H   UNL     1       4.605 -10.601  -4.780  1.00  0.00     0.293 HD
ENDBRANCH  17  20
ENDBRANCH   1  12
BRANCH   2  22
ATOM     22  O   UNL     1       7.279  -6.891  -9.403  1.00  0.00    -0.502 OA
ATOM     23  H   UNL     1       7.371  -7.779  -8.925  1.00  0.00     0.293 HD
ENDBRANCH   2  22
BRANCH   6  24
ATOM     24  O   UNL     1       5.504  -2.454 -11.755  1.00  0.00    -0.507 OA
ATOM     25  H   UNL     1       6.401  -2.248 -11.341  1.00  0.00     0.293 HD
ENDBRANCH   6  24
BRANCH   8  26
ATOM     26  O   UNL     1       0.833  -2.758 -10.762  1.00  0.00    -0.508 OA
ATOM     27  H   UNL     1       0.210  -2.732  -9.963  1.00  0.00     0.293 HD
ENDBRANCH   8  26
TORSDOF 6
ENDMDL
MODEL 9
REMARK VINA RESULT:    -4.544      1.238      3.005
REMARK INTER + INTRA:          -5.610
REMARK INTER:                  -5.644
REMARK INTRA:                   0.034
REMARK UNBOUND:                -0.136
REMARK SMILES O=c1c(O)c(-c2ccc(O)c(O)c2)oc2cc(O)cc(O)c12
REMARK SMILES IDX 5 1 3 2 2 3 1 4 22 5 20 6 19 7 17 8 16 9 15 10 14 11 6 12
REMARK SMILES IDX 7 13 8 14 9 15 13 16 11 17 10 18 12 20 4 22 21 24 18 26
REMARK H PARENT 10 19 12 21 4 23 21 25 18 27
REMARK Flexibility Score: inf
ROOT
ATOM      1  C   UNL     1      -5.891  -6.893  -8.907  1.00  0.00     0.180 A 
ATOM      2  C   UNL     1      -7.074  -6.658  -8.185  1.00  0.00     0.208 A 
ATOM      3  C   UNL     1      -7.725  -5.422  -8.330  1.00  0.00     0.238 A 
ATOM      4  O   UNL     1      -8.812  -5.238  -7.722  1.00  0.00    -0.285 OA
ATOM      5  C   UNL     1      -7.178  -4.432  -9.180  1.00  0.00     0.111 A 
ATOM      6  C   UNL     1      -7.733  -3.131  -9.371  1.00  0.00     0.134 A 
ATOM      7  C   UNL     1      -7.181  -2.280 -10.337  1.00  0.00     0.093 A 
ATOM      8  C   UNL     1      -6.057  -2.656 -11.071  1.00  0.00     0.123 A 
ATOM      9  C   UNL     1      -5.471  -3.903 -10.851  1.00  0.00     0.094 A 
ATOM     10  C   UNL     1      -6.020  -4.789  -9.920  1.00  0.00     0.146 A 
ATOM     11  O   UNL     1      -5.439  -5.970  -9.748  1.00  0.00    -0.452 OA
ENDROOT
BRANCH   1  12
ATOM     12  C   UNL     1      -5.134  -8.160  -8.789  1.00  0.00     0.025 A 
ATOM     13  C   UNL     1      -3.760  -8.121  -8.505  1.00  0.00     0.016 A 
ATOM     14  C   UNL     1      -3.031  -9.304  -8.369  1.00  0.00     0.051 A 
ATOM     15  C   UNL     1      -3.668 -10.545  -8.496  1.00  0.00     0.157 A 
ATOM     16  C   UNL     1      -5.774  -9.408  -8.896  1.00  0.00     0.062 A 
ATOM     17  C   UNL     1      -5.048 -10.597  -8.757  1.00  0.00     0.158 A 
BRANCH  15  18
ATOM     18  O   UNL     1      -2.938 -11.726  -8.362  1.00  0.00    -0.504 OA
ATOM     19  H   UNL     1      -1.929 -11.739  -8.451  1.00  0.00     0.293 HD
ENDBRANCH  15  18
BRANCH  17  20
ATOM     20  O   UNL     1      -5.714 -11.816  -8.875  1.00  0.00    -0.504 OA
ATOM     21  H   UNL     1      -6.402 -12.121  -8.197  1.00  0.00     0.293 HD
ENDBRANCH  17  20
ENDBRANCH   1  12
BRANCH   2  22
ATOM     22  O   UNL     1      -7.609  -7.657  -7.367  1.00  0.00    -0.502 OA
ATOM     23  H   UNL     1      -8.309  -7.466  -6.660  1.00  0.00     0.293 HD
ENDBRANCH   2  22
BRANCH   6  24
ATOM     24  O   UNL     1      -8.799  -2.620  -8.625  1.00  0.00    -0.507 OA
ATOM     25  H   UNL     1      -8.818  -2.557  -7.618  1.00  0.00     0.293 HD
ENDBRANCH   6  24
BRANCH   8  26
ATOM     26  O   UNL     1      -5.525  -1.777 -12.012  1.00  0.00    -0.508 OA
ATOM     27  H   UNL     1      -5.294  -2.083 -12.950  1.00  0.00     0.293 HD
ENDBRANCH   8  26
TORSDOF 6
ENDMDL
