MODEL 1
REMARK VINA RESULT:    -4.493      0.000      0.000
REMARK INTER + INTRA:         -15.972
REMARK INTER:                 -11.323
REMARK INTRA:                  -4.649
REMARK UNBOUND:                -4.649
REMARK SMILES CCCCCCCCCCCCCCCCCCCCCCCCCCCC(=O)[O-]
REMARK SMILES IDX 15 1 16 2 17 3 18 4 19 5 20 6 21 7 22 8 23 9 24 10 25 11
REMARK SMILES IDX 26 12 27 13 28 14 29 15 30 16 14 17 13 18 12 19 11 20 10 21
REMARK SMILES IDX 9 22 8 23 7 24 6 25 5 26 4 27 3 28 2 29 1 30
REMARK H PARENT
REMARK Flexibility Score: inf
ROOT
ATOM      1  C   UNL     1      15.128  30.050  69.576  1.00  0.00     0.000 C 
ENDROOT
BRANCH   1   2
ATOM      2  C   UNL     1      15.449  29.364  70.913  1.00  0.00     0.000 C 
BRANCH   2   3
ATOM      3  C   UNL     1      16.764  29.856  71.538  1.00  0.00     0.000 C 
BRANCH   3   4
ATOM      4  C   UNL     1      17.964  29.724  70.582  1.00  0.00     0.000 C 
BRANCH   4   5
ATOM      5  C   UNL     1      18.699  31.059  70.376  1.00  0.00     0.000 C 
BRANCH   5   6
ATOM      6  C   UNL     1      19.434  31.123  69.025  1.00  0.00     0.000 C 
BRANCH   6   7
ATOM      7  C   UNL     1      18.631  30.483  67.878  1.00  0.00     0.000 C 
BRANCH   7   8
ATOM      8  C   UNL     1      19.383  30.392  66.538  1.00  0.00     0.000 C 
BRANCH   8   9
ATOM      9  C   UNL     1      18.507  30.785  65.335  1.00  0.00     0.000 C 
BRANCH   9  10
ATOM     10  C   UNL     1      17.010  30.825  65.678  1.00  0.00     0.000 C 
BRANCH  10  11
ATOM     11  C   UNL     1      16.126  30.343  64.515  1.00  0.00     0.000 C 
BRANCH  11  12
ATOM     12  C   UNL     1      14.630  30.582  64.772  1.00  0.00     0.006 C 
BRANCH  12  13
ATOM     13  C   UNL     1      14.205  30.205  66.198  1.00  0.00     0.053 C 
BRANCH  13  14
ATOM     14  C   UNL     1      12.882  30.821  66.526  1.00  0.00     0.041 C 
ATOM     15  O   UNL     1      12.190  30.368  67.475  1.00  0.00    -0.550 OA
ATOM     16  O   UNL     1      12.389  31.864  65.752  1.00  0.00    -0.550 OA
ENDBRANCH  13  14
ENDBRANCH  12  13
ENDBRANCH  11  12
ENDBRANCH  10  11
ENDBRANCH   9  10
ENDBRANCH   8   9
ENDBRANCH   7   8
ENDBRANCH   6   7
ENDBRANCH   5   6
ENDBRANCH   4   5
ENDBRANCH   3   4
ENDBRANCH   2   3
ENDBRANCH   1   2
BRANCH   1  17
ATOM     17  C   UNL     1      14.961  31.574  69.712  1.00  0.00     0.000 C 
BRANCH  17  18
ATOM     18  C   UNL     1      15.507  32.373  68.508  1.00  0.00     0.000 C 
BRANCH  18  19
ATOM     19  C   UNL     1      14.548  33.493  68.067  1.00  0.00     0.000 C 
BRANCH  19  20
ATOM     20  C   UNL     1      15.002  34.190  66.775  1.00  0.00     0.000 C 
BRANCH  20  21
ATOM     21  C   UNL     1      15.619  35.573  67.030  1.00  0.00     0.000 C 
BRANCH  21  22
ATOM     22  C   UNL     1      16.929  35.737  66.249  1.00  0.00    -0.000 C 
BRANCH  22  23
ATOM     23  C   UNL     1      17.766  34.453  66.297  1.00  0.00    -0.000 C 
BRANCH  23  24
ATOM     24  C   UNL     1      18.906  34.505  65.271  1.00  0.00    -0.000 C 
BRANCH  24  25
ATOM     25  C   UNL     1      20.179  33.851  65.826  1.00  0.00    -0.000 C 
BRANCH  25  26
ATOM     26  C   UNL     1      20.350  34.165  67.319  1.00  0.00    -0.000 C 
BRANCH  26  27
ATOM     27  C   UNL     1      21.671  34.889  67.626  1.00  0.00    -0.000 C 
BRANCH  27  28
ATOM     28  C   UNL     1      22.008  35.967  66.582  1.00  0.00    -0.000 C 
BRANCH  28  29
ATOM     29  C   UNL     1      21.753  37.390  67.104  1.00  0.00    -0.003 C 
ATOM     30  C   UNL     1      20.785  38.179  66.223  1.00  0.00     0.004 C 
ENDBRANCH  28  29
ENDBRANCH  27  28
ENDBRANCH  26  27
ENDBRANCH  25  26
ENDBRANCH  24  25
ENDBRANCH  23  24
ENDBRANCH  22  23
ENDBRANCH  21  22
ENDBRANCH  20  21
ENDBRANCH  19  20
ENDBRANCH  18  19
ENDBRANCH  17  18
ENDBRANCH   1  17
TORSDOF 26
ENDMDL
MODEL 2
REMARK VINA RESULT:    -4.465      2.010      5.052
REMARK INTER + INTRA:         -15.901
REMARK INTER:                 -10.693
REMARK INTRA:                  -5.208
REMARK UNBOUND:                -4.649
REMARK SMILES CCCCCCCCCCCCCCCCCCCCCCCCCCCC(=O)[O-]
REMARK SMILES IDX 15 1 16 2 17 3 18 4 19 5 20 6 21 7 22 8 23 9 24 10 25 11
REMARK SMILES IDX 26 12 27 13 28 14 29 15 30 16 14 17 13 18 12 19 11 20 10 21
REMARK SMILES IDX 9 22 8 23 7 24 6 25 5 26 4 27 3 28 2 29 1 30
REMARK H PARENT
REMARK Flexibility Score: inf
ROOT
ATOM      1  C   UNL     1      14.928  29.840  70.036  1.00  0.00     0.000 C 
ENDROOT
BRANCH   1   2
ATOM      2  C   UNL     1      15.539  31.246  69.933  1.00  0.00     0.000 C 
BRANCH   2   3
ATOM      3  C   UNL     1      16.109  31.550  68.538  1.00  0.00     0.000 C 
BRANCH   3   4
ATOM      4  C   UNL     1      15.820  30.431  67.519  1.00  0.00     0.000 C 
BRANCH   4   5
ATOM      5  C   UNL     1      15.671  30.967  66.087  1.00  0.00     0.000 C 
BRANCH   5   6
ATOM      6  C   UNL     1      14.198  31.131  65.670  1.00  0.00     0.000 C 
BRANCH   6   7
ATOM      7  C   UNL     1      13.228  30.390  66.607  1.00  0.00     0.000 C 
BRANCH   7   8
ATOM      8  C   UNL     1      11.950  31.172  66.962  1.00  0.00     0.000 C 
BRANCH   8   9
ATOM      9  C   UNL     1      11.806  31.423  68.473  1.00  0.00     0.000 C 
BRANCH   9  10
ATOM     10  C   UNL     1      12.326  32.805  68.898  1.00  0.00     0.000 C 
BRANCH  10  11
ATOM     11  C   UNL     1      12.677  33.698  67.695  1.00  0.00     0.000 C 
BRANCH  11  12
ATOM     12  C   UNL     1      14.022  34.421  67.870  1.00  0.00     0.006 C 
BRANCH  12  13
ATOM     13  C   UNL     1      14.774  34.604  66.544  1.00  0.00     0.053 C 
BRANCH  13  14
ATOM     14  C   UNL     1      15.127  36.043  66.341  1.00  0.00     0.041 C 
ATOM     15  O   UNL     1      16.229  36.359  65.823  1.00  0.00    -0.550 OA
ATOM     16  O   UNL     1      14.258  37.039  66.771  1.00  0.00    -0.550 OA
ENDBRANCH  13  14
ENDBRANCH  12  13
ENDBRANCH  11  12
ENDBRANCH  10  11
ENDBRANCH   9  10
ENDBRANCH   8   9
ENDBRANCH   7   8
ENDBRANCH   6   7
ENDBRANCH   5   6
ENDBRANCH   4   5
ENDBRANCH   3   4
ENDBRANCH   2   3
ENDBRANCH   1   2
BRANCH   1  17
ATOM     17  C   UNL     1      15.151  29.190  71.413  1.00  0.00     0.000 C 
BRANCH  17  18
ATOM     18  C   UNL     1      16.627  29.175  71.866  1.00  0.00     0.000 C 
BRANCH  18  19
ATOM     19  C   UNL     1      17.519  28.351  70.919  1.00  0.00     0.000 C 
BRANCH  19  20
ATOM     20  C   UNL     1      18.735  29.141  70.411  1.00  0.00     0.000 C 
BRANCH  20  21
ATOM     21  C   UNL     1      18.910  29.050  68.887  1.00  0.00     0.000 C 
BRANCH  21  22
ATOM     22  C   UNL     1      19.715  30.244  68.360  1.00  0.00    -0.000 C 
BRANCH  22  23
ATOM     23  C   UNL     1      19.374  30.539  66.894  1.00  0.00    -0.000 C 
BRANCH  23  24
ATOM     24  C   UNL     1      19.311  32.050  66.640  1.00  0.00    -0.000 C 
BRANCH  24  25
ATOM     25  C   UNL     1      18.866  32.352  65.203  1.00  0.00    -0.000 C 
BRANCH  25  26
ATOM     26  C   UNL     1      18.629  33.856  65.007  1.00  0.00    -0.000 C 
BRANCH  26  27
ATOM     27  C   UNL     1      19.220  34.703  66.146  1.00  0.00    -0.000 C 
BRANCH  27  28
ATOM     28  C   UNL     1      20.041  35.896  65.628  1.00  0.00    -0.000 C 
BRANCH  28  29
ATOM     29  C   UNL     1      21.321  36.128  66.447  1.00  0.00    -0.003 C 
ATOM     30  C   UNL     1      21.638  34.969  67.390  1.00  0.00     0.004 C 
ENDBRANCH  28  29
ENDBRANCH  27  28
ENDBRANCH  26  27
ENDBRANCH  25  26
ENDBRANCH  24  25
ENDBRANCH  23  24
ENDBRANCH  22  23
ENDBRANCH  21  22
ENDBRANCH  20  21
ENDBRANCH  19  20
ENDBRANCH  18  19
ENDBRANCH  17  18
ENDBRANCH   1  17
TORSDOF 26
ENDMDL
MODEL 3
REMARK VINA RESULT:    -4.296      3.371      7.444
REMARK INTER + INTRA:         -15.474
REMARK INTER:                 -11.488
REMARK INTRA:                  -3.986
REMARK UNBOUND:                -4.649
REMARK SMILES CCCCCCCCCCCCCCCCCCCCCCCCCCCC(=O)[O-]
REMARK SMILES IDX 15 1 16 2 17 3 18 4 19 5 20 6 21 7 22 8 23 9 24 10 25 11
REMARK SMILES IDX 26 12 27 13 28 14 29 15 30 16 14 17 13 18 12 19 11 20 10 21
REMARK SMILES IDX 9 22 8 23 7 24 6 25 5 26 4 27 3 28 2 29 1 30
REMARK H PARENT
REMARK Flexibility Score: inf
ROOT
ATOM      1  C   UNL     1      15.380  32.378  68.364  1.00  0.00     0.000 C 
ENDROOT
BRANCH   1   2
ATOM      2  C   UNL     1      15.571  33.351  67.190  1.00  0.00     0.000 C 
BRANCH   2   3
ATOM      3  C   UNL     1      14.611  34.550  67.245  1.00  0.00     0.000 C 
BRANCH   3   4
ATOM      4  C   UNL     1      15.337  35.901  67.109  1.00  0.00     0.000 C 
BRANCH   4   5
ATOM      5  C   UNL     1      16.307  35.928  65.918  1.00  0.00     0.000 C 
BRANCH   5   6
ATOM      6  C   UNL     1      17.755  35.611  66.331  1.00  0.00     0.000 C 
BRANCH   6   7
ATOM      7  C   UNL     1      18.741  35.682  65.152  1.00  0.00     0.000 C 
BRANCH   7   8
ATOM      8  C   UNL     1      20.077  36.379  65.469  1.00  0.00     0.000 C 
BRANCH   8   9
ATOM      9  C   UNL     1      21.040  35.486  66.271  1.00  0.00     0.000 C 
BRANCH   9  10
ATOM     10  C   UNL     1      21.865  36.276  67.299  1.00  0.00     0.000 C 
BRANCH  10  11
ATOM     11  C   UNL     1      22.389  37.608  66.735  1.00  0.00     0.000 C 
BRANCH  11  12
ATOM     12  C   UNL     1      22.083  38.800  67.656  1.00  0.00     0.006 C 
BRANCH  12  13
ATOM     13  C   UNL     1      20.692  39.400  67.407  1.00  0.00     0.053 C 
BRANCH  13  14
ATOM     14  C   UNL     1      20.745  40.385  66.282  1.00  0.00     0.041 C 
ATOM     15  O   UNL     1      21.459  41.416  66.376  1.00  0.00    -0.550 OA
ATOM     16  O   UNL     1      19.966  40.189  65.149  1.00  0.00    -0.550 OA
ENDBRANCH  13  14
ENDBRANCH  12  13
ENDBRANCH  11  12
ENDBRANCH  10  11
ENDBRANCH   9  10
ENDBRANCH   8   9
ENDBRANCH   7   8
ENDBRANCH   6   7
ENDBRANCH   5   6
ENDBRANCH   4   5
ENDBRANCH   3   4
ENDBRANCH   2   3
ENDBRANCH   1   2
BRANCH   1  17
ATOM     17  C   UNL     1      15.162  30.924  67.906  1.00  0.00     0.000 C 
BRANCH  17  18
ATOM     18  C   UNL     1      14.409  30.051  68.934  1.00  0.00     0.000 C 
BRANCH  18  19
ATOM     19  C   UNL     1      14.759  30.426  70.385  1.00  0.00     0.000 C 
BRANCH  19  20
ATOM     20  C   UNL     1      15.251  29.225  71.207  1.00  0.00     0.000 C 
BRANCH  20  21
ATOM     21  C   UNL     1      16.616  29.472  71.866  1.00  0.00     0.000 C 
BRANCH  21  22
ATOM     22  C   UNL     1      17.159  30.857  71.491  1.00  0.00    -0.000 C 
BRANCH  22  23
ATOM     23  C   UNL     1      18.526  30.749  70.806  1.00  0.00    -0.000 C 
BRANCH  23  24
ATOM     24  C   UNL     1      18.548  29.583  69.810  1.00  0.00    -0.000 C 
BRANCH  24  25
ATOM     25  C   UNL     1      18.748  30.086  68.374  1.00  0.00    -0.000 C 
BRANCH  25  26
ATOM     26  C   UNL     1      19.438  31.458  68.365  1.00  0.00    -0.000 C 
BRANCH  26  27
ATOM     27  C   UNL     1      18.927  32.372  67.239  1.00  0.00    -0.000 C 
BRANCH  27  28
ATOM     28  C   UNL     1      19.581  32.057  65.883  1.00  0.00    -0.000 C 
BRANCH  28  29
ATOM     29  C   UNL     1      18.553  31.948  64.746  1.00  0.00    -0.003 C 
ATOM     30  C   UNL     1      17.484  30.889  65.013  1.00  0.00     0.004 C 
ENDBRANCH  28  29
ENDBRANCH  27  28
ENDBRANCH  26  27
ENDBRANCH  25  26
ENDBRANCH  24  25
ENDBRANCH  23  24
ENDBRANCH  22  23
ENDBRANCH  21  22
ENDBRANCH  20  21
ENDBRANCH  19  20
ENDBRANCH  18  19
ENDBRANCH  17  18
ENDBRANCH   1  17
TORSDOF 26
ENDMDL
MODEL 4
REMARK VINA RESULT:    -4.233      3.430      7.639
REMARK INTER + INTRA:         -15.317
REMARK INTER:                 -11.525
REMARK INTRA:                  -3.793
REMARK UNBOUND:                -4.649
REMARK SMILES CCCCCCCCCCCCCCCCCCCCCCCCCCCC(=O)[O-]
REMARK SMILES IDX 15 1 16 2 17 3 18 4 19 5 20 6 21 7 22 8 23 9 24 10 25 11
REMARK SMILES IDX 26 12 27 13 28 14 29 15 30 16 14 17 13 18 12 19 11 20 10 21
REMARK SMILES IDX 9 22 8 23 7 24 6 25 5 26 4 27 3 28 2 29 1 30
REMARK H PARENT
REMARK Flexibility Score: inf
ROOT
ATOM      1  C   UNL     1      14.143  33.713  66.662  1.00  0.00     0.000 C 
ENDROOT
BRANCH   1   2
ATOM      2  C   UNL     1      15.421  34.210  67.356  1.00  0.00     0.000 C 
BRANCH   2   3
ATOM      3  C   UNL     1      15.680  35.708  67.129  1.00  0.00     0.000 C 
BRANCH   3   4
ATOM      4  C   UNL     1      16.800  35.971  66.105  1.00  0.00     0.000 C 
BRANCH   4   5
ATOM      5  C   UNL     1      17.717  34.752  65.914  1.00  0.00     0.000 C 
BRANCH   5   6
ATOM      6  C   UNL     1      19.195  35.148  65.749  1.00  0.00     0.000 C 
BRANCH   6   7
ATOM      7  C   UNL     1      20.150  34.222  66.522  1.00  0.00     0.000 C 
BRANCH   7   8
ATOM      8  C   UNL     1      21.580  34.767  66.691  1.00  0.00     0.000 C 
BRANCH   8   9
ATOM      9  C   UNL     1      21.660  35.934  67.690  1.00  0.00     0.000 C 
BRANCH   9  10
ATOM     10  C   UNL     1      22.148  37.239  67.042  1.00  0.00     0.000 C 
BRANCH  10  11
ATOM     11  C   UNL     1      21.780  38.482  67.870  1.00  0.00     0.000 C 
BRANCH  11  12
ATOM     12  C   UNL     1      21.635  39.745  67.007  1.00  0.00     0.006 C 
BRANCH  12  13
ATOM     13  C   UNL     1      22.019  39.508  65.540  1.00  0.00     0.053 C 
BRANCH  13  14
ATOM     14  C   UNL     1      21.164  40.339  64.637  1.00  0.00     0.041 C 
ATOM     15  O   UNL     1      20.020  40.708  65.010  1.00  0.00    -0.550 OA
ATOM     16  O   UNL     1      21.610  40.666  63.362  1.00  0.00    -0.550 OA
ENDBRANCH  13  14
ENDBRANCH  12  13
ENDBRANCH  11  12
ENDBRANCH  10  11
ENDBRANCH   9  10
ENDBRANCH   8   9
ENDBRANCH   7   8
ENDBRANCH   6   7
ENDBRANCH   5   6
ENDBRANCH   4   5
ENDBRANCH   3   4
ENDBRANCH   2   3
ENDBRANCH   1   2
BRANCH   1  17
ATOM     17  C   UNL     1      13.726  32.302  67.115  1.00  0.00     0.000 C 
BRANCH  17  18
ATOM     18  C   UNL     1      14.446  31.818  68.393  1.00  0.00     0.000 C 
BRANCH  18  19
ATOM     19  C   UNL     1      14.252  30.310  68.635  1.00  0.00     0.000 C 
BRANCH  19  20
ATOM     20  C   UNL     1      15.151  29.768  69.757  1.00  0.00     0.000 C 
BRANCH  20  21
ATOM     21  C   UNL     1      15.633  30.866  70.718  1.00  0.00     0.000 C 
BRANCH  21  22
ATOM     22  C   UNL     1      16.946  30.457  71.398  1.00  0.00    -0.000 C 
BRANCH  22  23
ATOM     23  C   UNL     1      17.517  29.178  70.775  1.00  0.00    -0.000 C 
BRANCH  23  24
ATOM     24  C   UNL     1      18.941  29.411  70.255  1.00  0.00    -0.000 C 
BRANCH  24  25
ATOM     25  C   UNL     1      19.274  30.908  70.209  1.00  0.00    -0.000 C 
BRANCH  25  26
ATOM     26  C   UNL     1      19.810  31.308  68.827  1.00  0.00    -0.000 C 
BRANCH  26  27
ATOM     27  C   UNL     1      19.125  30.545  67.682  1.00  0.00    -0.000 C 
BRANCH  27  28
ATOM     28  C   UNL     1      17.766  31.155  67.298  1.00  0.00    -0.000 C 
BRANCH  28  29
ATOM     29  C   UNL     1      17.520  31.134  65.780  1.00  0.00    -0.003 C 
ATOM     30  C   UNL     1      18.809  30.974  64.974  1.00  0.00     0.004 C 
ENDBRANCH  28  29
ENDBRANCH  27  28
ENDBRANCH  26  27
ENDBRANCH  25  26
ENDBRANCH  24  25
ENDBRANCH  23  24
ENDBRANCH  22  23
ENDBRANCH  21  22
ENDBRANCH  20  21
ENDBRANCH  19  20
ENDBRANCH  18  19
ENDBRANCH  17  18
ENDBRANCH   1  17
TORSDOF 26
ENDMDL
MODEL 5
REMARK VINA RESULT:    -4.225      2.256      6.496
REMARK INTER + INTRA:         -15.296
REMARK INTER:                 -10.440
REMARK INTRA:                  -4.856
REMARK UNBOUND:                -4.649
REMARK SMILES CCCCCCCCCCCCCCCCCCCCCCCCCCCC(=O)[O-]
REMARK SMILES IDX 15 1 16 2 17 3 18 4 19 5 20 6 21 7 22 8 23 9 24 10 25 11
REMARK SMILES IDX 26 12 27 13 28 14 29 15 30 16 14 17 13 18 12 19 11 20 10 21
REMARK SMILES IDX 9 22 8 23 7 24 6 25 5 26 4 27 3 28 2 29 1 30
REMARK H PARENT
REMARK Flexibility Score: inf
ROOT
ATOM      1  C   UNL     1      15.684  30.853  70.588  1.00  0.00     0.000 C 
ENDROOT
BRANCH   1   2
ATOM      2  C   UNL     1      16.863  30.459  71.492  1.00  0.00     0.000 C 
BRANCH   2   3
ATOM      3  C   UNL     1      18.220  30.542  70.775  1.00  0.00     0.000 C 
BRANCH   3   4
ATOM      4  C   UNL     1      18.115  31.166  69.371  1.00  0.00     0.000 C 
BRANCH   4   5
ATOM      5  C   UNL     1      18.506  30.179  68.260  1.00  0.00     0.000 C 
BRANCH   5   6
ATOM      6  C   UNL     1      19.525  30.777  67.273  1.00  0.00     0.000 C 
BRANCH   6   7
ATOM      7  C   UNL     1      19.173  30.486  65.803  1.00  0.00     0.000 C 
BRANCH   7   8
ATOM      8  C   UNL     1      18.876  31.734  64.952  1.00  0.00     0.000 C 
BRANCH   8   9
ATOM      9  C   UNL     1      19.111  33.048  65.718  1.00  0.00     0.000 C 
BRANCH   9  10
ATOM     10  C   UNL     1      18.775  34.292  64.881  1.00  0.00     0.000 C 
BRANCH  10  11
ATOM     11  C   UNL     1      19.260  35.594  65.541  1.00  0.00     0.000 C 
BRANCH  11  12
ATOM     12  C   UNL     1      18.106  36.429  66.118  1.00  0.00     0.006 C 
BRANCH  12  13
ATOM     13  C   UNL     1      16.744  36.055  65.517  1.00  0.00     0.053 C 
BRANCH  13  14
ATOM     14  C   UNL     1      15.658  36.254  66.526  1.00  0.00     0.041 C 
ATOM     15  O   UNL     1      15.942  36.584  67.707  1.00  0.00    -0.550 OA
ATOM     16  O   UNL     1      14.333  36.028  66.175  1.00  0.00    -0.550 OA
ENDBRANCH  13  14
ENDBRANCH  12  13
ENDBRANCH  11  12
ENDBRANCH  10  11
ENDBRANCH   9  10
ENDBRANCH   8   9
ENDBRANCH   7   8
ENDBRANCH   6   7
ENDBRANCH   5   6
ENDBRANCH   4   5
ENDBRANCH   3   4
ENDBRANCH   2   3
ENDBRANCH   1   2
BRANCH   1  17
ATOM     17  C   UNL     1      14.805  29.653  70.195  1.00  0.00     0.000 C 
BRANCH  17  18
ATOM     18  C   UNL     1      15.199  29.002  68.851  1.00  0.00     0.000 C 
BRANCH  18  19
ATOM     19  C   UNL     1      14.367  29.544  67.674  1.00  0.00     0.000 C 
BRANCH  19  20
ATOM     20  C   UNL     1      15.238  30.127  66.551  1.00  0.00     0.000 C 
BRANCH  20  21
ATOM     21  C   UNL     1      14.874  31.580  66.208  1.00  0.00     0.000 C 
BRANCH  21  22
ATOM     22  C   UNL     1      15.538  32.554  67.190  1.00  0.00    -0.000 C 
BRANCH  22  23
ATOM     23  C   UNL     1      14.499  33.210  68.106  1.00  0.00    -0.000 C 
BRANCH  23  24
ATOM     24  C   UNL     1      13.075  32.929  67.608  1.00  0.00    -0.000 C 
BRANCH  24  25
ATOM     25  C   UNL     1      12.169  32.469  68.758  1.00  0.00    -0.000 C 
BRANCH  25  26
ATOM     26  C   UNL     1      11.219  31.355  68.293  1.00  0.00    -0.000 C 
BRANCH  26  27
ATOM     27  C   UNL     1      11.170  31.217  66.763  1.00  0.00    -0.000 C 
BRANCH  27  28
ATOM     28  C   UNL     1       9.803  30.722  66.260  1.00  0.00    -0.000 C 
BRANCH  28  29
ATOM     29  C   UNL     1       8.655  31.665  66.656  1.00  0.00    -0.003 C 
ATOM     30  C   UNL     1       8.871  33.097  66.170  1.00  0.00     0.004 C 
ENDBRANCH  28  29
ENDBRANCH  27  28
ENDBRANCH  26  27
ENDBRANCH  25  26
ENDBRANCH  24  25
ENDBRANCH  23  24
ENDBRANCH  22  23
ENDBRANCH  21  22
ENDBRANCH  20  21
ENDBRANCH  19  20
ENDBRANCH  18  19
ENDBRANCH  17  18
ENDBRANCH   1  17
TORSDOF 26
ENDMDL
MODEL 6
REMARK VINA RESULT:    -4.222      3.592      7.864
REMARK INTER + INTRA:         -15.287
REMARK INTER:                 -10.957
REMARK INTRA:                  -4.330
REMARK UNBOUND:                -4.649
REMARK SMILES CCCCCCCCCCCCCCCCCCCCCCCCCCCC(=O)[O-]
REMARK SMILES IDX 15 1 16 2 17 3 18 4 19 5 20 6 21 7 22 8 23 9 24 10 25 11
REMARK SMILES IDX 26 12 27 13 28 14 29 15 30 16 14 17 13 18 12 19 11 20 10 21
REMARK SMILES IDX 9 22 8 23 7 24 6 25 5 26 4 27 3 28 2 29 1 30
REMARK H PARENT
REMARK Flexibility Score: inf
ROOT
ATOM      1  C   UNL     1      15.592  32.101  68.437  1.00  0.00     0.000 C 
ENDROOT
BRANCH   1   2
ATOM      2  C   UNL     1      15.437  30.804  67.627  1.00  0.00     0.000 C 
BRANCH   2   3
ATOM      3  C   UNL     1      15.405  29.547  68.511  1.00  0.00     0.000 C 
BRANCH   3   4
ATOM      4  C   UNL     1      14.454  29.688  69.714  1.00  0.00     0.000 C 
BRANCH   4   5
ATOM      5  C   UNL     1      15.186  29.557  71.059  1.00  0.00     0.000 C 
BRANCH   5   6
ATOM      6  C   UNL     1      16.716  29.506  70.893  1.00  0.00     0.000 C 
BRANCH   6   7
ATOM      7  C   UNL     1      17.408  30.805  71.344  1.00  0.00     0.000 C 
BRANCH   7   8
ATOM      8  C   UNL     1      18.798  31.043  70.726  1.00  0.00     0.000 C 
BRANCH   8   9
ATOM      9  C   UNL     1      18.893  30.557  69.269  1.00  0.00     0.000 C 
BRANCH   9  10
ATOM     10  C   UNL     1      19.458  31.628  68.322  1.00  0.00     0.000 C 
BRANCH  10  11
ATOM     11  C   UNL     1      18.965  31.454  66.875  1.00  0.00     0.000 C 
BRANCH  11  12
ATOM     12  C   UNL     1      19.073  32.749  66.055  1.00  0.00     0.006 C 
BRANCH  12  13
ATOM     13  C   UNL     1      17.952  33.748  66.374  1.00  0.00     0.053 C 
BRANCH  13  14
ATOM     14  C   UNL     1      18.281  35.095  65.812  1.00  0.00     0.041 C 
ATOM     15  O   UNL     1      19.430  35.329  65.358  1.00  0.00    -0.550 OA
ATOM     16  O   UNL     1      17.331  36.109  65.836  1.00  0.00    -0.550 OA
ENDBRANCH  13  14
ENDBRANCH  12  13
ENDBRANCH  11  12
ENDBRANCH  10  11
ENDBRANCH   9  10
ENDBRANCH   8   9
ENDBRANCH   7   8
ENDBRANCH   6   7
ENDBRANCH   5   6
ENDBRANCH   4   5
ENDBRANCH   3   4
ENDBRANCH   2   3
ENDBRANCH   1   2
BRANCH   1  17
ATOM     17  C   UNL     1      14.510  33.144  68.108  1.00  0.00     0.000 C 
BRANCH  17  18
ATOM     18  C   UNL     1      13.856  32.952  66.722  1.00  0.00     0.000 C 
BRANCH  18  19
ATOM     19  C   UNL     1      12.370  32.565  66.827  1.00  0.00     0.000 C 
BRANCH  19  20
ATOM     20  C   UNL     1      11.887  32.452  68.281  1.00  0.00     0.000 C 
BRANCH  20  21
ATOM     21  C   UNL     1      11.131  31.143  68.558  1.00  0.00     0.000 C 
BRANCH  21  22
ATOM     22  C   UNL     1      11.500  30.072  67.523  1.00  0.00    -0.000 C 
BRANCH  22  23
ATOM     23  C   UNL     1      10.274  29.245  67.120  1.00  0.00    -0.000 C 
BRANCH  23  24
ATOM     24  C   UNL     1       9.408  30.008  66.109  1.00  0.00    -0.000 C 
BRANCH  24  25
ATOM     25  C   UNL     1       8.059  30.405  66.723  1.00  0.00    -0.000 C 
BRANCH  25  26
ATOM     26  C   UNL     1       7.592  31.765  66.185  1.00  0.00    -0.000 C 
BRANCH  26  27
ATOM     27  C   UNL     1       8.686  32.841  66.262  1.00  0.00    -0.000 C 
BRANCH  27  28
ATOM     28  C   UNL     1       8.115  34.268  66.196  1.00  0.00    -0.000 C 
BRANCH  28  29
ATOM     29  C   UNL     1       6.690  34.357  66.767  1.00  0.00    -0.003 C 
ATOM     30  C   UNL     1       6.568  35.377  67.898  1.00  0.00     0.004 C 
ENDBRANCH  28  29
ENDBRANCH  27  28
ENDBRANCH  26  27
ENDBRANCH  25  26
ENDBRANCH  24  25
ENDBRANCH  23  24
ENDBRANCH  22  23
ENDBRANCH  21  22
ENDBRANCH  20  21
ENDBRANCH  19  20
ENDBRANCH  18  19
ENDBRANCH  17  18
ENDBRANCH   1  17
TORSDOF 26
ENDMDL
MODEL 7
REMARK VINA RESULT:    -4.208      3.070      6.220
REMARK INTER + INTRA:         -15.254
REMARK INTER:                 -10.972
REMARK INTRA:                  -4.283
REMARK UNBOUND:                -4.649
REMARK SMILES CCCCCCCCCCCCCCCCCCCCCCCCCCCC(=O)[O-]
REMARK SMILES IDX 15 1 16 2 17 3 18 4 19 5 20 6 21 7 22 8 23 9 24 10 25 11
REMARK SMILES IDX 26 12 27 13 28 14 29 15 30 16 14 17 13 18 12 19 11 20 10 21
REMARK SMILES IDX 9 22 8 23 7 24 6 25 5 26 4 27 3 28 2 29 1 30
REMARK H PARENT
REMARK Flexibility Score: inf
ROOT
ATOM      1  C   UNL     1      15.072  31.350  68.821  1.00  0.00     0.000 C 
ENDROOT
BRANCH   1   2
ATOM      2  C   UNL     1      14.682  30.346  67.725  1.00  0.00     0.000 C 
BRANCH   2   3
ATOM      3  C   UNL     1      14.760  30.945  66.311  1.00  0.00     0.000 C 
BRANCH   3   4
ATOM      4  C   UNL     1      13.923  32.228  66.160  1.00  0.00     0.000 C 
BRANCH   4   5
ATOM      5  C   UNL     1      12.412  31.951  66.203  1.00  0.00     0.000 C 
BRANCH   5   6
ATOM      6  C   UNL     1      11.739  32.552  67.450  1.00  0.00     0.000 C 
BRANCH   6   7
ATOM      7  C   UNL     1      11.185  31.479  68.404  1.00  0.00     0.000 C 
BRANCH   7   8
ATOM      8  C   UNL     1      10.984  30.092  67.767  1.00  0.00     0.000 C 
BRANCH   8   9
ATOM      9  C   UNL     1       9.519  29.818  67.385  1.00  0.00     0.000 C 
BRANCH   9  10
ATOM     10  C   UNL     1       9.174  30.301  65.968  1.00  0.00     0.000 C 
BRANCH  10  11
ATOM     11  C   UNL     1       7.838  31.063  65.915  1.00  0.00     0.000 C 
BRANCH  11  12
ATOM     12  C   UNL     1       7.847  32.331  66.783  1.00  0.00     0.006 C 
BRANCH  12  13
ATOM     13  C   UNL     1       8.395  33.556  66.039  1.00  0.00     0.053 C 
BRANCH  13  14
ATOM     14  C   UNL     1       7.551  34.757  66.322  1.00  0.00     0.041 C 
ATOM     15  O   UNL     1       7.109  34.963  67.482  1.00  0.00    -0.550 OA
ATOM     16  O   UNL     1       7.209  35.626  65.292  1.00  0.00    -0.550 OA
ENDBRANCH  13  14
ENDBRANCH  12  13
ENDBRANCH  11  12
ENDBRANCH  10  11
ENDBRANCH   9  10
ENDBRANCH   8   9
ENDBRANCH   7   8
ENDBRANCH   6   7
ENDBRANCH   5   6
ENDBRANCH   4   5
ENDBRANCH   3   4
ENDBRANCH   2   3
ENDBRANCH   1   2
BRANCH   1  17
ATOM     17  C   UNL     1      14.875  30.791  70.241  1.00  0.00     0.000 C 
BRANCH  17  18
ATOM     18  C   UNL     1      16.065  29.952  70.755  1.00  0.00     0.000 C 
BRANCH  18  19
ATOM     19  C   UNL     1      17.226  30.831  71.255  1.00  0.00     0.000 C 
BRANCH  19  20
ATOM     20  C   UNL     1      18.479  30.717  70.373  1.00  0.00     0.000 C 
BRANCH  20  21
ATOM     21  C   UNL     1      18.333  29.666  69.262  1.00  0.00     0.000 C 
BRANCH  21  22
ATOM     22  C   UNL     1      18.831  30.219  67.921  1.00  0.00    -0.000 C 
BRANCH  22  23
ATOM     23  C   UNL     1      19.118  31.722  68.013  1.00  0.00    -0.000 C 
BRANCH  23  24
ATOM     24  C   UNL     1      18.869  32.410  66.665  1.00  0.00    -0.000 C 
BRANCH  24  25
ATOM     25  C   UNL     1      17.502  33.107  66.644  1.00  0.00    -0.000 C 
BRANCH  25  26
ATOM     26  C   UNL     1      17.642  34.574  66.210  1.00  0.00    -0.000 C 
BRANCH  26  27
ATOM     27  C   UNL     1      16.587  35.487  66.855  1.00  0.00    -0.000 C 
BRANCH  27  28
ATOM     28  C   UNL     1      15.632  36.106  65.821  1.00  0.00    -0.000 C 
BRANCH  28  29
ATOM     29  C   UNL     1      14.298  36.547  66.444  1.00  0.00    -0.003 C 
ATOM     30  C   UNL     1      13.966  35.790  67.729  1.00  0.00     0.004 C 
ENDBRANCH  28  29
ENDBRANCH  27  28
ENDBRANCH  26  27
ENDBRANCH  25  26
ENDBRANCH  24  25
ENDBRANCH  23  24
ENDBRANCH  22  23
ENDBRANCH  21  22
ENDBRANCH  20  21
ENDBRANCH  19  20
ENDBRANCH  18  19
ENDBRANCH  17  18
ENDBRANCH   1  17
TORSDOF 26
ENDMDL
MODEL 8
REMARK VINA RESULT:    -4.170      3.050      6.831
REMARK INTER + INTRA:         -15.159
REMARK INTER:                 -11.009
REMARK INTRA:                  -4.149
REMARK UNBOUND:                -4.649
REMARK SMILES CCCCCCCCCCCCCCCCCCCCCCCCCCCC(=O)[O-]
REMARK SMILES IDX 15 1 16 2 17 3 18 4 19 5 20 6 21 7 22 8 23 9 24 10 25 11
REMARK SMILES IDX 26 12 27 13 28 14 29 15 30 16 14 17 13 18 12 19 11 20 10 21
REMARK SMILES IDX 9 22 8 23 7 24 6 25 5 26 4 27 3 28 2 29 1 30
REMARK H PARENT
REMARK Flexibility Score: inf
ROOT
ATOM      1  C   UNL     1      15.618  36.233  67.373  1.00  0.00     0.000 C 
ENDROOT
BRANCH   1   2
ATOM      2  C   UNL     1      14.170  35.720  67.386  1.00  0.00     0.000 C 
BRANCH   2   3
ATOM      3  C   UNL     1      14.075  34.192  67.246  1.00  0.00     0.000 C 
BRANCH   3   4
ATOM      4  C   UNL     1      13.115  33.558  68.269  1.00  0.00     0.000 C 
BRANCH   4   5
ATOM      5  C   UNL     1      11.852  32.983  67.608  1.00  0.00     0.000 C 
BRANCH   5   6
ATOM      6  C   UNL     1      12.178  31.930  66.533  1.00  0.00     0.000 C 
BRANCH   6   7
ATOM      7  C   UNL     1      11.652  30.529  66.892  1.00  0.00     0.000 C 
BRANCH   7   8
ATOM      8  C   UNL     1      10.752  30.478  68.140  1.00  0.00     0.000 C 
BRANCH   8   9
ATOM      9  C   UNL     1       9.288  30.145  67.807  1.00  0.00     0.000 C 
BRANCH   9  10
ATOM     10  C   UNL     1       9.058  29.915  66.305  1.00  0.00     0.000 C 
BRANCH  10  11
ATOM     11  C   UNL     1       8.453  31.145  65.606  1.00  0.00     0.000 C 
BRANCH  11  12
ATOM     12  C   UNL     1       7.878  32.165  66.601  1.00  0.00     0.006 C 
BRANCH  12  13
ATOM     13  C   UNL     1       8.350  33.598  66.322  1.00  0.00     0.053 C 
BRANCH  13  14
ATOM     14  C   UNL     1       7.199  34.550  66.399  1.00  0.00     0.041 C 
ATOM     15  O   UNL     1       6.353  34.598  65.470  1.00  0.00    -0.550 OA
ATOM     16  O   UNL     1       7.087  35.420  67.476  1.00  0.00    -0.550 OA
ENDBRANCH  13  14
ENDBRANCH  12  13
ENDBRANCH  11  12
ENDBRANCH  10  11
ENDBRANCH   9  10
ENDBRANCH   8   9
ENDBRANCH   7   8
ENDBRANCH   6   7
ENDBRANCH   5   6
ENDBRANCH   4   5
ENDBRANCH   3   4
ENDBRANCH   2   3
ENDBRANCH   1   2
BRANCH   1  17
ATOM     17  C   UNL     1      16.423  35.720  66.166  1.00  0.00     0.000 C 
BRANCH  17  18
ATOM     18  C   UNL     1      17.459  34.631  66.522  1.00  0.00     0.000 C 
BRANCH  18  19
ATOM     19  C   UNL     1      18.693  34.677  65.603  1.00  0.00     0.000 C 
BRANCH  19  20
ATOM     20  C   UNL     1      19.638  33.485  65.819  1.00  0.00     0.000 C 
BRANCH  20  21
ATOM     21  C   UNL     1      19.216  32.595  66.998  1.00  0.00     0.000 C 
BRANCH  21  22
ATOM     22  C   UNL     1      18.892  31.174  66.518  1.00  0.00    -0.000 C 
BRANCH  22  23
ATOM     23  C   UNL     1      18.144  31.198  65.180  1.00  0.00    -0.000 C 
BRANCH  23  24
ATOM     24  C   UNL     1      16.758  30.555  65.317  1.00  0.00    -0.000 C 
BRANCH  24  25
ATOM     25  C   UNL     1      15.945  31.225  66.432  1.00  0.00    -0.000 C 
BRANCH  25  26
ATOM     26  C   UNL     1      15.277  30.174  67.330  1.00  0.00    -0.000 C 
BRANCH  26  27
ATOM     27  C   UNL     1      15.174  30.625  68.796  1.00  0.00    -0.000 C 
BRANCH  27  28
ATOM     28  C   UNL     1      16.437  31.362  69.275  1.00  0.00    -0.000 C 
BRANCH  28  29
ATOM     29  C   UNL     1      17.249  30.539  70.288  1.00  0.00    -0.003 C 
ATOM     30  C   UNL     1      18.682  31.044  70.449  1.00  0.00     0.004 C 
ENDBRANCH  28  29
ENDBRANCH  27  28
ENDBRANCH  26  27
ENDBRANCH  25  26
ENDBRANCH  24  25
ENDBRANCH  23  24
ENDBRANCH  22  23
ENDBRANCH  21  22
ENDBRANCH  20  21
ENDBRANCH  19  20
ENDBRANCH  18  19
ENDBRANCH  17  18
ENDBRANCH   1  17
TORSDOF 26
ENDMDL
MODEL 9
REMARK VINA RESULT:    -4.079      8.519     12.846
REMARK INTER + INTRA:         -14.929
REMARK INTER:                  -9.634
REMARK INTRA:                  -5.296
REMARK UNBOUND:                -4.649
REMARK SMILES CCCCCCCCCCCCCCCCCCCCCCCCCCCC(=O)[O-]
REMARK SMILES IDX 15 1 16 2 17 3 18 4 19 5 20 6 21 7 22 8 23 9 24 10 25 11
REMARK SMILES IDX 26 12 27 13 28 14 29 15 30 16 14 17 13 18 12 19 11 20 10 21
REMARK SMILES IDX 9 22 8 23 7 24 6 25 5 26 4 27 3 28 2 29 1 30
REMARK H PARENT
REMARK Flexibility Score: inf
ROOT
ATOM      1  C   UNL     1      17.991  43.173  60.723  1.00  0.00     0.000 C 
ENDROOT
BRANCH   1   2
ATOM      2  C   UNL     1      19.527  43.176  60.688  1.00  0.00     0.000 C 
BRANCH   2   3
ATOM      3  C   UNL     1      20.136  41.806  61.028  1.00  0.00     0.000 C 
BRANCH   3   4
ATOM      4  C   UNL     1      21.668  41.779  60.871  1.00  0.00     0.000 C 
BRANCH   4   5
ATOM      5  C   UNL     1      22.298  43.171  61.033  1.00  0.00     0.000 C 
BRANCH   5   6
ATOM      6  C   UNL     1      22.910  43.381  62.430  1.00  0.00     0.000 C 
BRANCH   6   7
ATOM      7  C   UNL     1      22.547  44.746  63.041  1.00  0.00     0.000 C 
BRANCH   7   8
ATOM      8  C   UNL     1      21.048  44.945  63.331  1.00  0.00     0.000 C 
BRANCH   8   9
ATOM      9  C   UNL     1      20.455  43.822  64.200  1.00  0.00     0.000 C 
BRANCH   9  10
ATOM     10  C   UNL     1      21.164  43.684  65.556  1.00  0.00     0.000 C 
BRANCH  10  11
ATOM     11  C   UNL     1      21.472  42.220  65.913  1.00  0.00     0.000 C 
BRANCH  11  12
ATOM     12  C   UNL     1      20.827  41.225  64.935  1.00  0.00     0.006 C 
BRANCH  12  13
ATOM     13  C   UNL     1      21.511  39.851  64.948  1.00  0.00     0.053 C 
BRANCH  13  14
ATOM     14  C   UNL     1      20.835  38.945  65.928  1.00  0.00     0.041 C 
ATOM     15  O   UNL     1      21.237  38.885  67.118  1.00  0.00    -0.550 OA
ATOM     16  O   UNL     1      19.792  38.126  65.512  1.00  0.00    -0.550 OA
ENDBRANCH  13  14
ENDBRANCH  12  13
ENDBRANCH  11  12
ENDBRANCH  10  11
ENDBRANCH   9  10
ENDBRANCH   8   9
ENDBRANCH   7   8
ENDBRANCH   6   7
ENDBRANCH   5   6
ENDBRANCH   4   5
ENDBRANCH   3   4
ENDBRANCH   2   3
ENDBRANCH   1   2
BRANCH   1  17
ATOM     17  C   UNL     1      17.422  42.460  61.962  1.00  0.00     0.000 C 
BRANCH  17  18
ATOM     18  C   UNL     1      15.916  42.134  61.860  1.00  0.00     0.000 C 
BRANCH  18  19
ATOM     19  C   UNL     1      15.253  42.815  60.649  1.00  0.00     0.000 C 
BRANCH  19  20
ATOM     20  C   UNL     1      14.030  43.659  61.039  1.00  0.00     0.000 C 
BRANCH  20  21
ATOM     21  C   UNL     1      14.033  45.049  60.385  1.00  0.00     0.000 C 
BRANCH  21  22
ATOM     22  C   UNL     1      15.318  45.812  60.732  1.00  0.00    -0.000 C 
BRANCH  22  23
ATOM     23  C   UNL     1      15.515  45.902  62.250  1.00  0.00    -0.000 C 
BRANCH  23  24
ATOM     24  C   UNL     1      16.980  46.199  62.595  1.00  0.00    -0.000 C 
BRANCH  24  25
ATOM     25  C   UNL     1      17.334  45.681  63.995  1.00  0.00    -0.000 C 
BRANCH  25  26
ATOM     26  C   UNL     1      16.248  44.730  64.518  1.00  0.00    -0.000 C 
BRANCH  26  27
ATOM     27  C   UNL     1      16.803  43.664  65.477  1.00  0.00    -0.000 C 
BRANCH  27  28
ATOM     28  C   UNL     1      16.819  44.139  66.940  1.00  0.00    -0.000 C 
BRANCH  28  29
ATOM     29  C   UNL     1      18.215  44.035  67.576  1.00  0.00    -0.003 C 
ATOM     30  C   UNL     1      18.456  42.688  68.256  1.00  0.00     0.004 C 
ENDBRANCH  28  29
ENDBRANCH  27  28
ENDBRANCH  26  27
ENDBRANCH  25  26
ENDBRANCH  24  25
ENDBRANCH  23  24
ENDBRANCH  22  23
ENDBRANCH  21  22
ENDBRANCH  20  21
ENDBRANCH  19  20
ENDBRANCH  18  19
ENDBRANCH  17  18
ENDBRANCH   1  17
TORSDOF 26
ENDMDL
