MODEL 1
REMARK VINA RESULT:    -7.055      0.000      0.000
REMARK INTER + INTRA:          -8.625
REMARK INTER:                  -8.498
REMARK INTRA:                  -0.127
REMARK UNBOUND:                -0.127
REMARK SMILES Oc1cc(O)c2cc(O)c(-c3ccc(O)c(O)c3)[o+]c2c1.[Cl-]
REMARK SMILES IDX 10 1 19 2 20 3 21 4 2 5 3 6 4 7 6 8 7 9 8 10 11 11 12 12
REMARK SMILES IDX 13 13 14 14 18 15 16 16 15 17 17 19 9 21 1 23 5 25
REMARK H PARENT 15 18 17 20 9 22 1 24 5 26
REMARK Flexibility Score: inf
ROOT
ATOM      1  C   UNL     1      82.125   2.040  -0.058  1.00  0.00     0.402 A 
ATOM      2  O   UNL     1      82.845   1.265   0.749  1.00  0.00    -0.202 OA
ATOM      3  C   UNL     1      84.173   1.288   0.788  1.00  0.00     0.368 A 
ATOM      4  C   UNL     1      84.843   0.434   1.668  1.00  0.00     0.162 A 
ATOM      5  C   UNL     1      86.240   0.436   1.727  1.00  0.00     0.128 A 
ATOM      6  C   UNL     1      86.969   1.296   0.904  1.00  0.00     0.093 A 
ATOM      7  C   UNL     1      86.323   2.162   0.014  1.00  0.00     0.136 A 
ATOM      8  C   UNL     1      84.905   2.165  -0.049  1.00  0.00     0.125 A 
ATOM      9  C   UNL     1      84.172   3.008  -0.902  1.00  0.00     0.078 A 
ATOM     10  C   UNL     1      82.775   2.958  -0.904  1.00  0.00     0.223 A 
ENDROOT
BRANCH   1  11
ATOM     11  C   UNL     1      80.650   1.913  -0.018  1.00  0.00     0.087 A 
ATOM     12  C   UNL     1      79.829   3.008   0.292  1.00  0.00     0.022 A 
ATOM     13  C   UNL     1      78.439   2.868   0.301  1.00  0.00     0.051 A 
ATOM     14  C   UNL     1      77.843   1.642  -0.010  1.00  0.00     0.157 A 
ATOM     15  C   UNL     1      80.053   0.687  -0.353  1.00  0.00     0.068 A 
ATOM     16  C   UNL     1      78.660   0.537  -0.346  1.00  0.00     0.158 A 
BRANCH  14  17
ATOM     17  O   UNL     1      76.448   1.568   0.022  1.00  0.00    -0.504 OA
ATOM     18  H   UNL     1      75.856   1.748  -0.776  1.00  0.00     0.293 HD
ENDBRANCH  14  17
BRANCH  16  19
ATOM     19  O   UNL     1      78.137  -0.714  -0.678  1.00  0.00    -0.504 OA
ATOM     20  H   UNL     1      77.219  -0.856  -1.071  1.00  0.00     0.293 HD
ENDBRANCH  16  19
ENDBRANCH   1  11
BRANCH  10  21
ATOM     21  O   UNL     1      82.045   3.829  -1.713  1.00  0.00    -0.500 OA
ATOM     22  H   UNL     1      82.501   4.502  -2.318  1.00  0.00     0.294 HD
ENDBRANCH  10  21
BRANCH   5  23
ATOM     23  O   UNL     1      86.913  -0.413   2.602  1.00  0.00    -0.507 OA
ATOM     24  H   UNL     1      87.218  -1.337   2.316  1.00  0.00     0.293 HD
ENDBRANCH   5  23
BRANCH   7  25
ATOM     25  O   UNL     1      87.125   2.988  -0.778  1.00  0.00    -0.507 OA
ATOM     26  H   UNL     1      87.091   3.997  -0.767  1.00  0.00     0.293 HD
ENDBRANCH   7  25
TORSDOF 6
ENDMDL
MODEL 2
REMARK VINA RESULT:    -6.947      1.182      2.828
REMARK INTER + INTRA:          -8.495
REMARK INTER:                  -8.397
REMARK INTRA:                  -0.099
REMARK UNBOUND:                -0.127
REMARK SMILES Oc1cc(O)c2cc(O)c(-c3ccc(O)c(O)c3)[o+]c2c1.[Cl-]
REMARK SMILES IDX 10 1 19 2 20 3 21 4 2 5 3 6 4 7 6 8 7 9 8 10 11 11 12 12
REMARK SMILES IDX 13 13 14 14 18 15 16 16 15 17 17 19 9 21 1 23 5 25
REMARK H PARENT 15 18 17 20 9 22 1 24 5 26
REMARK Flexibility Score: inf
ROOT
ATOM      1  C   UNL     1      82.020   1.783  -0.047  1.00  0.00     0.402 A 
ATOM      2  O   UNL     1      82.605   2.659  -0.859  1.00  0.00    -0.202 OA
ATOM      3  C   UNL     1      83.923   2.801  -0.952  1.00  0.00     0.368 A 
ATOM      4  C   UNL     1      84.445   3.752  -1.833  1.00  0.00     0.162 A 
ATOM      5  C   UNL     1      85.828   3.923  -1.948  1.00  0.00     0.128 A 
ATOM      6  C   UNL     1      86.692   3.140  -1.179  1.00  0.00     0.093 A 
ATOM      7  C   UNL     1      86.194   2.182  -0.288  1.00  0.00     0.136 A 
ATOM      8  C   UNL     1      84.792   2.002  -0.170  1.00  0.00     0.125 A 
ATOM      9  C   UNL     1      84.204   1.056   0.687  1.00  0.00     0.078 A 
ATOM     10  C   UNL     1      82.813   0.933   0.746  1.00  0.00     0.223 A 
ENDROOT
BRANCH   1  11
ATOM     11  C   UNL     1      80.540   1.728  -0.025  1.00  0.00     0.087 A 
ATOM     12  C   UNL     1      79.769   2.863   0.266  1.00  0.00     0.022 A 
ATOM     13  C   UNL     1      78.375   2.791   0.258  1.00  0.00     0.051 A 
ATOM     14  C   UNL     1      77.723   1.593  -0.053  1.00  0.00     0.157 A 
ATOM     15  C   UNL     1      79.889   0.529  -0.359  1.00  0.00     0.068 A 
ATOM     16  C   UNL     1      78.491   0.446  -0.370  1.00  0.00     0.158 A 
BRANCH  14  17
ATOM     17  O   UNL     1      76.327   1.586  -0.039  1.00  0.00    -0.504 OA
ATOM     18  H   UNL     1      75.764   0.780  -0.267  1.00  0.00     0.293 HD
ENDBRANCH  14  17
BRANCH  16  19
ATOM     19  O   UNL     1      77.912  -0.781  -0.699  1.00  0.00    -0.504 OA
ATOM     20  H   UNL     1      78.297  -1.423  -1.376  1.00  0.00     0.293 HD
ENDBRANCH  16  19
ENDBRANCH   1  11
BRANCH  10  21
ATOM     21  O   UNL     1      82.231  -0.041   1.559  1.00  0.00    -0.500 OA
ATOM     22  H   UNL     1      82.584  -0.989   1.590  1.00  0.00     0.294 HD
ENDBRANCH  10  21
BRANCH   5  23
ATOM     23  O   UNL     1      86.355   4.869  -2.825  1.00  0.00    -0.507 OA
ATOM     24  H   UNL     1      87.278   5.264  -2.687  1.00  0.00     0.293 HD
ENDBRANCH   5  23
BRANCH   7  25
ATOM     25  O   UNL     1      87.125   1.443   0.447  1.00  0.00    -0.507 OA
ATOM     26  H   UNL     1      88.074   1.736   0.625  1.00  0.00     0.293 HD
ENDBRANCH   7  25
TORSDOF 6
ENDMDL
MODEL 3
REMARK VINA RESULT:    -6.534      1.370      3.129
REMARK INTER + INTRA:          -7.997
REMARK INTER:                  -7.921
REMARK INTRA:                  -0.077
REMARK UNBOUND:                -0.127
REMARK SMILES Oc1cc(O)c2cc(O)c(-c3ccc(O)c(O)c3)[o+]c2c1.[Cl-]
REMARK SMILES IDX 10 1 19 2 20 3 21 4 2 5 3 6 4 7 6 8 7 9 8 10 11 11 12 12
REMARK SMILES IDX 13 13 14 14 18 15 16 16 15 17 17 19 9 21 1 23 5 25
REMARK H PARENT 15 18 17 20 9 22 1 24 5 26
REMARK Flexibility Score: inf
ROOT
ATOM      1  C   UNL     1      82.052   1.274  -0.035  1.00  0.00     0.402 A 
ATOM      2  O   UNL     1      82.642   2.174  -0.816  1.00  0.00    -0.202 OA
ATOM      3  C   UNL     1      83.949   2.416  -0.792  1.00  0.00     0.368 A 
ATOM      4  C   UNL     1      84.478   3.384  -1.650  1.00  0.00     0.162 A 
ATOM      5  C   UNL     1      85.848   3.660  -1.642  1.00  0.00     0.128 A 
ATOM      6  C   UNL     1      86.693   2.966  -0.774  1.00  0.00     0.093 A 
ATOM      7  C   UNL     1      86.188   1.992   0.096  1.00  0.00     0.136 A 
ATOM      8  C   UNL     1      84.798   1.705   0.091  1.00  0.00     0.125 A 
ATOM      9  C   UNL     1      84.206   0.737   0.918  1.00  0.00     0.078 A 
ATOM     10  C   UNL     1      82.829   0.507   0.853  1.00  0.00     0.223 A 
ENDROOT
BRANCH   1  11
ATOM     11  C   UNL     1      80.585   1.103  -0.147  1.00  0.00     0.087 A 
ATOM     12  C   UNL     1      80.011  -0.152  -0.398  1.00  0.00     0.022 A 
ATOM     13  C   UNL     1      78.623  -0.291  -0.476  1.00  0.00     0.051 A 
ATOM     14  C   UNL     1      77.784   0.813  -0.296  1.00  0.00     0.157 A 
ATOM     15  C   UNL     1      79.744   2.209   0.057  1.00  0.00     0.068 A 
ATOM     16  C   UNL     1      78.351   2.080  -0.021  1.00  0.00     0.158 A 
BRANCH  14  17
ATOM     17  O   UNL     1      76.405   0.608  -0.392  1.00  0.00    -0.504 OA
ATOM     18  H   UNL     1      75.752   1.308  -0.712  1.00  0.00     0.293 HD
ENDBRANCH  14  17
BRANCH  16  19
ATOM     19  O   UNL     1      77.578   3.225   0.181  1.00  0.00    -0.504 OA
ATOM     20  H   UNL     1      77.934   4.166   0.116  1.00  0.00     0.293 HD
ENDBRANCH  16  19
ENDBRANCH   1  11
BRANCH  10  21
ATOM     21  O   UNL     1      82.248  -0.490   1.638  1.00  0.00    -0.500 OA
ATOM     22  H   UNL     1      82.795  -1.251   2.023  1.00  0.00     0.294 HD
ENDBRANCH  10  21
BRANCH   5  23
ATOM     23  O   UNL     1      86.382   4.624  -2.495  1.00  0.00    -0.507 OA
ATOM     24  H   UNL     1      86.389   5.607  -2.247  1.00  0.00     0.293 HD
ENDBRANCH   5  23
BRANCH   7  25
ATOM     25  O   UNL     1      87.099   1.345   0.936  1.00  0.00    -0.507 OA
ATOM     26  H   UNL     1      87.417   0.396   0.809  1.00  0.00     0.293 HD
ENDBRANCH   7  25
TORSDOF 6
ENDMDL
MODEL 4
REMARK VINA RESULT:    -6.365      6.720      8.679
REMARK INTER + INTRA:          -7.794
REMARK INTER:                  -8.202
REMARK INTRA:                   0.408
REMARK UNBOUND:                -0.127
REMARK SMILES Oc1cc(O)c2cc(O)c(-c3ccc(O)c(O)c3)[o+]c2c1.[Cl-]
REMARK SMILES IDX 10 1 19 2 20 3 21 4 2 5 3 6 4 7 6 8 7 9 8 10 11 11 12 12
REMARK SMILES IDX 13 13 14 14 18 15 16 16 15 17 17 19 9 21 1 23 5 25
REMARK H PARENT 15 18 17 20 9 22 1 24 5 26
REMARK Flexibility Score: inf
ROOT
ATOM      1  C   UNL     1      84.691   2.642   7.670  1.00  0.00     0.402 A 
ATOM      2  O   UNL     1      85.070   2.447   6.410  1.00  0.00    -0.202 OA
ATOM      3  C   UNL     1      85.719   1.360   6.004  1.00  0.00     0.368 A 
ATOM      4  C   UNL     1      86.078   1.246   4.657  1.00  0.00     0.162 A 
ATOM      5  C   UNL     1      86.764   0.115   4.205  1.00  0.00     0.128 A 
ATOM      6  C   UNL     1      87.091  -0.905   5.100  1.00  0.00     0.093 A 
ATOM      7  C   UNL     1      86.743  -0.815   6.453  1.00  0.00     0.136 A 
ATOM      8  C   UNL     1      86.044   0.330   6.918  1.00  0.00     0.125 A 
ATOM      9  C   UNL     1      85.644   0.499   8.254  1.00  0.00     0.078 A 
ATOM     10  C   UNL     1      84.954   1.654   8.637  1.00  0.00     0.223 A 
ENDROOT
BRANCH   1  11
ATOM     11  C   UNL     1      83.984   3.900   8.002  1.00  0.00     0.087 A 
ATOM     12  C   UNL     1      83.584   4.192   9.315  1.00  0.00     0.022 A 
ATOM     13  C   UNL     1      82.939   5.396   9.605  1.00  0.00     0.051 A 
ATOM     14  C   UNL     1      82.692   6.335   8.599  1.00  0.00     0.157 A 
ATOM     15  C   UNL     1      83.757   4.851   6.993  1.00  0.00     0.068 A 
ATOM     16  C   UNL     1      83.111   6.061   7.275  1.00  0.00     0.158 A 
BRANCH  14  17
ATOM     17  O   UNL     1      82.039   7.517   8.956  1.00  0.00    -0.504 OA
ATOM     18  H   UNL     1      82.096   8.374   8.426  1.00  0.00     0.293 HD
ENDBRANCH  14  17
BRANCH  16  19
ATOM     19  O   UNL     1      82.908   6.954   6.221  1.00  0.00    -0.504 OA
ATOM     20  H   UNL     1      81.999   7.250   5.898  1.00  0.00     0.293 HD
ENDBRANCH  16  19
ENDBRANCH   1  11
BRANCH  10  21
ATOM     21  O   UNL     1      84.511   1.800   9.952  1.00  0.00    -0.500 OA
ATOM     22  H   UNL     1      84.241   2.702  10.325  1.00  0.00     0.294 HD
ENDBRANCH  10  21
BRANCH   5  23
ATOM     23  O   UNL     1      87.125  -0.005   2.864  1.00  0.00    -0.507 OA
ATOM     24  H   UNL     1      87.125  -0.903   2.393  1.00  0.00     0.293 HD
ENDBRANCH   5  23
BRANCH   7  25
ATOM     25  O   UNL     1      87.110  -1.877   7.284  1.00  0.00    -0.507 OA
ATOM     26  H   UNL     1      87.648  -2.677   6.984  1.00  0.00     0.293 HD
ENDBRANCH   7  25
TORSDOF 6
ENDMDL
MODEL 5
REMARK VINA RESULT:    -6.256      6.935      8.298
REMARK INTER + INTRA:          -7.663
REMARK INTER:                  -7.362
REMARK INTRA:                  -0.301
REMARK UNBOUND:                -0.127
REMARK SMILES Oc1cc(O)c2cc(O)c(-c3ccc(O)c(O)c3)[o+]c2c1.[Cl-]
REMARK SMILES IDX 10 1 19 2 20 3 21 4 2 5 3 6 4 7 6 8 7 9 8 10 11 11 12 12
REMARK SMILES IDX 13 13 14 14 18 15 16 16 15 17 17 19 9 21 1 23 5 25
REMARK H PARENT 15 18 17 20 9 22 1 24 5 26
REMARK Flexibility Score: inf
ROOT
ATOM      1  C   UNL     1      85.284   0.948  -7.017  1.00  0.00     0.402 A 
ATOM      2  O   UNL     1      85.588   1.375  -5.795  1.00  0.00    -0.202 OA
ATOM      3  C   UNL     1      86.047   2.597  -5.542  1.00  0.00     0.368 A 
ATOM      4  C   UNL     1      86.342   2.953  -4.223  1.00  0.00     0.162 A 
ATOM      5  C   UNL     1      86.829   4.231  -3.931  1.00  0.00     0.128 A 
ATOM      6  C   UNL     1      87.020   5.155  -4.959  1.00  0.00     0.093 A 
ATOM      7  C   UNL     1      86.732   4.823  -6.289  1.00  0.00     0.136 A 
ATOM      8  C   UNL     1      86.236   3.528  -6.591  1.00  0.00     0.125 A 
ATOM      9  C   UNL     1      85.908   3.112  -7.893  1.00  0.00     0.078 A 
ATOM     10  C   UNL     1      85.419   1.821  -8.113  1.00  0.00     0.223 A 
ENDROOT
BRANCH   1  11
ATOM     11  C   UNL     1      84.792  -0.440  -7.172  1.00  0.00     0.087 A 
ATOM     12  C   UNL     1      85.664  -1.538  -7.106  1.00  0.00     0.022 A 
ATOM     13  C   UNL     1      85.172  -2.839  -7.232  1.00  0.00     0.051 A 
ATOM     14  C   UNL     1      83.805  -3.071  -7.412  1.00  0.00     0.157 A 
ATOM     15  C   UNL     1      83.416  -0.672  -7.330  1.00  0.00     0.068 A 
ATOM     16  C   UNL     1      82.913  -1.973  -7.457  1.00  0.00     0.158 A 
BRANCH  14  17
ATOM     17  O   UNL     1      83.379  -4.396  -7.535  1.00  0.00    -0.504 OA
ATOM     18  H   UNL     1      82.847  -4.746  -8.319  1.00  0.00     0.293 HD
ENDBRANCH  14  17
BRANCH  16  19
ATOM     19  O   UNL     1      81.536  -2.127  -7.624  1.00  0.00    -0.504 OA
ATOM     20  H   UNL     1      80.860  -1.400  -7.442  1.00  0.00     0.293 HD
ENDBRANCH  16  19
ENDBRANCH   1  11
BRANCH  10  21
ATOM     21  O   UNL     1      85.046   1.424  -9.397  1.00  0.00    -0.500 OA
ATOM     22  H   UNL     1      84.187   1.748  -9.827  1.00  0.00     0.294 HD
ENDBRANCH  10  21
BRANCH   5  23
ATOM     23  O   UNL     1      87.125   4.593  -2.618  1.00  0.00    -0.507 OA
ATOM     24  H   UNL     1      86.665   5.376  -2.167  1.00  0.00     0.293 HD
ENDBRANCH   5  23
BRANCH   7  25
ATOM     25  O   UNL     1      86.955   5.803  -7.260  1.00  0.00    -0.507 OA
ATOM     26  H   UNL     1      86.277   6.499  -7.533  1.00  0.00     0.293 HD
ENDBRANCH   7  25
TORSDOF 6
ENDMDL
MODEL 6
REMARK VINA RESULT:    -5.919      8.789     10.186
REMARK INTER + INTRA:          -7.257
REMARK INTER:                  -7.558
REMARK INTRA:                   0.301
REMARK UNBOUND:                -0.127
REMARK SMILES Oc1cc(O)c2cc(O)c(-c3ccc(O)c(O)c3)[o+]c2c1.[Cl-]
REMARK SMILES IDX 10 1 19 2 20 3 21 4 2 5 3 6 4 7 6 8 7 9 8 10 11 11 12 12
REMARK SMILES IDX 13 13 14 14 18 15 16 16 15 17 17 19 9 21 1 23 5 25
REMARK H PARENT 15 18 17 20 9 22 1 24 5 26
REMARK Flexibility Score: inf
ROOT
ATOM      1  C   UNL     1      84.859   0.150  -8.070  1.00  0.00     0.402 A 
ATOM      2  O   UNL     1      85.183  -0.843  -7.245  1.00  0.00    -0.202 OA
ATOM      3  C   UNL     1      84.779  -2.097  -7.420  1.00  0.00     0.368 A 
ATOM      4  C   UNL     1      85.169  -3.072  -6.497  1.00  0.00     0.162 A 
ATOM      5  C   UNL     1      84.755  -4.398  -6.656  1.00  0.00     0.128 A 
ATOM      6  C   UNL     1      83.949  -4.750  -7.740  1.00  0.00     0.093 A 
ATOM      7  C   UNL     1      83.544  -3.793  -8.678  1.00  0.00     0.136 A 
ATOM      8  C   UNL     1      83.964  -2.446  -8.524  1.00  0.00     0.125 A 
ATOM      9  C   UNL     1      83.617  -1.422  -9.421  1.00  0.00     0.078 A 
ATOM     10  C   UNL     1      84.073  -0.118  -9.206  1.00  0.00     0.223 A 
ENDROOT
BRANCH   1  11
ATOM     11  C   UNL     1      85.363   1.508  -7.762  1.00  0.00     0.087 A 
ATOM     12  C   UNL     1      86.565   1.703  -7.065  1.00  0.00     0.022 A 
ATOM     13  C   UNL     1      87.030   2.994  -6.807  1.00  0.00     0.051 A 
ATOM     14  C   UNL     1      86.315   4.113  -7.248  1.00  0.00     0.157 A 
ATOM     15  C   UNL     1      84.654   2.629  -8.225  1.00  0.00     0.068 A 
ATOM     16  C   UNL     1      85.112   3.928  -7.971  1.00  0.00     0.158 A 
BRANCH  14  17
ATOM     17  O   UNL     1      86.832   5.376  -6.952  1.00  0.00    -0.504 OA
ATOM     18  H   UNL     1      86.699   5.847  -6.070  1.00  0.00     0.293 HD
ENDBRANCH  14  17
BRANCH  16  19
ATOM     19  O   UNL     1      84.350   4.994  -8.451  1.00  0.00    -0.504 OA
ATOM     20  H   UNL     1      84.742   5.846  -8.823  1.00  0.00     0.293 HD
ENDBRANCH  16  19
ENDBRANCH   1  11
BRANCH  10  21
ATOM     21  O   UNL     1      83.772   0.889 -10.124  1.00  0.00    -0.500 OA
ATOM     22  H   UNL     1      84.497   1.380 -10.633  1.00  0.00     0.294 HD
ENDBRANCH  10  21
BRANCH   5  23
ATOM     23  O   UNL     1      85.140  -5.375  -5.740  1.00  0.00    -0.507 OA
ATOM     24  H   UNL     1      85.343  -5.145  -4.774  1.00  0.00     0.293 HD
ENDBRANCH   5  23
BRANCH   7  25
ATOM     25  O   UNL     1      82.736  -4.226  -9.732  1.00  0.00    -0.507 OA
ATOM     26  H   UNL     1      83.078  -4.689 -10.561  1.00  0.00     0.293 HD
ENDBRANCH   7  25
TORSDOF 6
ENDMDL
MODEL 7
REMARK VINA RESULT:    -5.892      3.588      6.553
REMARK INTER + INTRA:          -7.224
REMARK INTER:                  -6.880
REMARK INTRA:                  -0.345
REMARK UNBOUND:                -0.127
REMARK SMILES Oc1cc(O)c2cc(O)c(-c3ccc(O)c(O)c3)[o+]c2c1.[Cl-]
REMARK SMILES IDX 10 1 19 2 20 3 21 4 2 5 3 6 4 7 6 8 7 9 8 10 11 11 12 12
REMARK SMILES IDX 13 13 14 14 18 15 16 16 15 17 17 19 9 21 1 23 5 25
REMARK H PARENT 15 18 17 20 9 22 1 24 5 26
REMARK Flexibility Score: inf
ROOT
ATOM      1  C   UNL     1      86.000   1.110   2.768  1.00  0.00     0.402 A 
ATOM      2  O   UNL     1      85.718   1.895   3.805  1.00  0.00    -0.202 OA
ATOM      3  C   UNL     1      85.881   1.521   5.069  1.00  0.00     0.368 A 
ATOM      4  C   UNL     1      85.554   2.416   6.092  1.00  0.00     0.162 A 
ATOM      5  C   UNL     1      85.713   2.047   7.430  1.00  0.00     0.128 A 
ATOM      6  C   UNL     1      86.201   0.778   7.748  1.00  0.00     0.093 A 
ATOM      7  C   UNL     1      86.536  -0.138   6.743  1.00  0.00     0.136 A 
ATOM      8  C   UNL     1      86.379   0.233   5.382  1.00  0.00     0.125 A 
ATOM      9  C   UNL     1      86.700  -0.615   4.310  1.00  0.00     0.078 A 
ATOM     10  C   UNL     1      86.523  -0.177   2.993  1.00  0.00     0.223 A 
ENDROOT
BRANCH   1  11
ATOM     11  C   UNL     1      85.765   1.638   1.405  1.00  0.00     0.087 A 
ATOM     12  C   UNL     1      86.785   2.272   0.679  1.00  0.00     0.022 A 
ATOM     13  C   UNL     1      86.544   2.741  -0.614  1.00  0.00     0.051 A 
ATOM     14  C   UNL     1      85.290   2.576  -1.212  1.00  0.00     0.157 A 
ATOM     15  C   UNL     1      84.512   1.450   0.799  1.00  0.00     0.068 A 
ATOM     16  C   UNL     1      84.261   1.917  -0.498  1.00  0.00     0.158 A 
BRANCH  14  17
ATOM     17  O   UNL     1      85.114   3.072  -2.506  1.00  0.00    -0.504 OA
ATOM     18  H   UNL     1      84.910   2.494  -3.308  1.00  0.00     0.293 HD
ENDBRANCH  14  17
BRANCH  16  19
ATOM     19  O   UNL     1      82.989   1.707  -1.032  1.00  0.00    -0.504 OA
ATOM     20  H   UNL     1      82.169   2.231  -0.763  1.00  0.00     0.293 HD
ENDBRANCH  16  19
ENDBRANCH   1  11
BRANCH  10  21
ATOM     21  O   UNL     1      86.890  -0.999   1.927  1.00  0.00    -0.500 OA
ATOM     22  H   UNL     1      86.571  -1.958   1.860  1.00  0.00     0.294 HD
ENDBRANCH  10  21
BRANCH   5  23
ATOM     23  O   UNL     1      85.389   2.935   8.454  1.00  0.00    -0.507 OA
ATOM     24  H   UNL     1      85.940   3.768   8.628  1.00  0.00     0.293 HD
ENDBRANCH   5  23
BRANCH   7  25
ATOM     25  O   UNL     1      87.013  -1.388   7.145  1.00  0.00    -0.507 OA
ATOM     26  H   UNL     1      87.982  -1.670   7.100  1.00  0.00     0.293 HD
ENDBRANCH   7  25
TORSDOF 6
ENDMDL
MODEL 8
REMARK VINA RESULT:    -5.810      8.607     10.043
REMARK INTER + INTRA:          -7.125
REMARK INTER:                  -7.211
REMARK INTRA:                   0.086
REMARK UNBOUND:                -0.127
REMARK SMILES Oc1cc(O)c2cc(O)c(-c3ccc(O)c(O)c3)[o+]c2c1.[Cl-]
REMARK SMILES IDX 10 1 19 2 20 3 21 4 2 5 3 6 4 7 6 8 7 9 8 10 11 11 12 12
REMARK SMILES IDX 13 13 14 14 18 15 16 16 15 17 17 19 9 21 1 23 5 25
REMARK H PARENT 15 18 17 20 9 22 1 24 5 26
REMARK Flexibility Score: inf
ROOT
ATOM      1  C   UNL     1      84.328  -2.746  -7.256  1.00  0.00     0.402 A 
ATOM      2  O   UNL     1      84.757  -1.620  -6.691  1.00  0.00    -0.202 OA
ATOM      3  C   UNL     1      84.519  -0.414  -7.197  1.00  0.00     0.368 A 
ATOM      4  C   UNL     1      85.013   0.712  -6.532  1.00  0.00     0.162 A 
ATOM      5  C   UNL     1      84.780   1.992  -7.044  1.00  0.00     0.128 A 
ATOM      6  C   UNL     1      84.049   2.147  -8.223  1.00  0.00     0.093 A 
ATOM      7  C   UNL     1      83.543   1.036  -8.908  1.00  0.00     0.136 A 
ATOM      8  C   UNL     1      83.775  -0.266  -8.392  1.00  0.00     0.125 A 
ATOM      9  C   UNL     1      83.295  -1.436  -9.004  1.00  0.00     0.078 A 
ATOM     10  C   UNL     1      83.560  -2.684  -8.434  1.00  0.00     0.223 A 
ENDROOT
BRANCH   1  11
ATOM     11  C   UNL     1      84.668  -4.030  -6.602  1.00  0.00     0.087 A 
ATOM     12  C   UNL     1      85.953  -4.277  -6.097  1.00  0.00     0.022 A 
ATOM     13  C   UNL     1      86.242  -5.488  -5.464  1.00  0.00     0.051 A 
ATOM     14  C   UNL     1      85.256  -6.468  -5.312  1.00  0.00     0.157 A 
ATOM     15  C   UNL     1      83.669  -5.003  -6.432  1.00  0.00     0.068 A 
ATOM     16  C   UNL     1      83.950  -6.221  -5.799  1.00  0.00     0.158 A 
BRANCH  14  17
ATOM     17  O   UNL     1      85.611  -7.659  -4.674  1.00  0.00    -0.504 OA
ATOM     18  H   UNL     1      85.795  -7.735  -3.685  1.00  0.00     0.293 HD
ENDBRANCH  14  17
BRANCH  16  19
ATOM     19  O   UNL     1      82.912  -7.146  -5.675  1.00  0.00    -0.504 OA
ATOM     20  H   UNL     1      82.722  -7.875  -6.347  1.00  0.00     0.293 HD
ENDBRANCH  16  19
ENDBRANCH   1  11
BRANCH  10  21
ATOM     21  O   UNL     1      83.041  -3.843  -9.013  1.00  0.00    -0.500 OA
ATOM     22  H   UNL     1      82.115  -4.183  -8.785  1.00  0.00     0.294 HD
ENDBRANCH  10  21
BRANCH   5  23
ATOM     23  O   UNL     1      85.270   3.118  -6.386  1.00  0.00    -0.507 OA
ATOM     24  H   UNL     1      85.076   3.286  -5.405  1.00  0.00     0.293 HD
ENDBRANCH   5  23
BRANCH   7  25
ATOM     25  O   UNL     1      82.826   1.276 -10.083  1.00  0.00    -0.507 OA
ATOM     26  H   UNL     1      82.246   2.087 -10.242  1.00  0.00     0.293 HD
ENDBRANCH   7  25
TORSDOF 6
ENDMDL
MODEL 9
REMARK VINA RESULT:    -5.764      4.137      6.872
REMARK INTER + INTRA:          -7.071
REMARK INTER:                  -6.736
REMARK INTRA:                  -0.334
REMARK UNBOUND:                -0.127
REMARK SMILES Oc1cc(O)c2cc(O)c(-c3ccc(O)c(O)c3)[o+]c2c1.[Cl-]
REMARK SMILES IDX 10 1 19 2 20 3 21 4 2 5 3 6 4 7 6 8 7 9 8 10 11 11 12 12
REMARK SMILES IDX 13 13 14 14 18 15 16 16 15 17 17 19 9 21 1 23 5 25
REMARK H PARENT 15 18 17 20 9 22 1 24 5 26
REMARK Flexibility Score: inf
ROOT
ATOM      1  C   UNL     1      86.079   2.486  -2.493  1.00  0.00     0.402 A 
ATOM      2  O   UNL     1      85.973   1.707  -3.566  1.00  0.00    -0.202 OA
ATOM      3  C   UNL     1      86.105   2.158  -4.810  1.00  0.00     0.368 A 
ATOM      4  C   UNL     1      85.974   1.262  -5.875  1.00  0.00     0.162 A 
ATOM      5  C   UNL     1      86.104   1.710  -7.193  1.00  0.00     0.128 A 
ATOM      6  C   UNL     1      86.367   3.057  -7.446  1.00  0.00     0.093 A 
ATOM      7  C   UNL     1      86.502   3.975  -6.398  1.00  0.00     0.136 A 
ATOM      8  C   UNL     1      86.373   3.525  -5.058  1.00  0.00     0.125 A 
ATOM      9  C   UNL     1      86.505   4.371  -3.944  1.00  0.00     0.078 A 
ATOM     10  C   UNL     1      86.370   3.854  -2.652  1.00  0.00     0.223 A 
ENDROOT
BRANCH   1  11
ATOM     11  C   UNL     1      85.901   1.868  -1.159  1.00  0.00     0.087 A 
ATOM     12  C   UNL     1      86.960   1.221  -0.504  1.00  0.00     0.022 A 
ATOM     13  C   UNL     1      86.773   0.667   0.764  1.00  0.00     0.051 A 
ATOM     14  C   UNL     1      85.534   0.757   1.407  1.00  0.00     0.157 A 
ATOM     15  C   UNL     1      84.663   1.980  -0.506  1.00  0.00     0.068 A 
ATOM     16  C   UNL     1      84.465   1.427   0.766  1.00  0.00     0.158 A 
BRANCH  14  17
ATOM     17  O   UNL     1      85.412   0.177   2.672  1.00  0.00    -0.504 OA
ATOM     18  H   UNL     1      85.560  -0.804   2.859  1.00  0.00     0.293 HD
ENDBRANCH  14  17
BRANCH  16  19
ATOM     19  O   UNL     1      83.205   1.565   1.349  1.00  0.00    -0.504 OA
ATOM     20  H   UNL     1      82.760   0.854   1.909  1.00  0.00     0.293 HD
ENDBRANCH  16  19
ENDBRANCH   1  11
BRANCH  10  21
ATOM     21  O   UNL     1      86.551   4.683  -1.544  1.00  0.00    -0.500 OA
ATOM     22  H   UNL     1      86.781   5.664  -1.645  1.00  0.00     0.294 HD
ENDBRANCH  10  21
BRANCH   5  23
ATOM     23  O   UNL     1      85.976   0.822  -8.259  1.00  0.00    -0.507 OA
ATOM     24  H   UNL     1      86.695   0.139  -8.470  1.00  0.00     0.293 HD
ENDBRANCH   5  23
BRANCH   7  25
ATOM     25  O   UNL     1      86.760   5.306  -6.736  1.00  0.00    -0.507 OA
ATOM     26  H   UNL     1      86.696   6.081  -6.093  1.00  0.00     0.293 HD
ENDBRANCH   7  25
TORSDOF 6
ENDMDL
