MODEL 1
REMARK VINA RESULT:    -5.360      0.000      0.000
REMARK INTER + INTRA:          -6.591
REMARK INTER:                  -6.300
REMARK INTRA:                  -0.292
REMARK UNBOUND:                -0.292
REMARK SMILES O=c1c(O)c(-c2ccc(O)cc2)oc2cc(O)cc(O)c12
REMARK SMILES IDX 5 1 3 2 2 3 1 4 21 5 19 6 18 7 16 8 15 9 14 10 13 11 6 12
REMARK SMILES IDX 7 13 8 14 9 15 12 16 11 17 10 18 4 20 20 22 17 24
REMARK H PARENT 10 19 4 21 20 23 17 25
REMARK Flexibility Score: inf
ROOT
ATOM      1  C   UNL     1      33.612 -37.718   9.926  1.00  0.00     0.180 A 
ATOM      2  C   UNL     1      32.232 -37.599   9.687  1.00  0.00     0.208 A 
ATOM      3  C   UNL     1      31.791 -37.267   8.396  1.00  0.00     0.238 A 
ATOM      4  O   UNL     1      30.553 -37.214   8.176  1.00  0.00    -0.285 OA
ATOM      5  C   UNL     1      32.735 -37.043   7.365  1.00  0.00     0.111 A 
ATOM      6  C   UNL     1      32.402 -36.661   6.030  1.00  0.00     0.134 A 
ATOM      7  C   UNL     1      33.408 -36.594   5.060  1.00  0.00     0.093 A 
ATOM      8  C   UNL     1      34.745 -36.830   5.391  1.00  0.00     0.123 A 
ATOM      9  C   UNL     1      35.087 -37.144   6.704  1.00  0.00     0.094 A 
ATOM     10  C   UNL     1      34.100 -37.255   7.686  1.00  0.00     0.146 A 
ATOM     11  O   UNL     1      34.469 -37.566   8.923  1.00  0.00    -0.452 OA
ENDROOT
BRANCH   1  12
ATOM     12  C   UNL     1      34.155 -38.041  11.266  1.00  0.00     0.021 A 
ATOM     13  C   UNL     1      34.360 -37.041  12.234  1.00  0.00     0.016 A 
ATOM     14  C   UNL     1      34.896 -37.366  13.484  1.00  0.00     0.047 A 
ATOM     15  C   UNL     1      35.245 -38.688  13.778  1.00  0.00     0.115 A 
ATOM     16  C   UNL     1      34.527 -39.362  11.562  1.00  0.00     0.016 A 
ATOM     17  C   UNL     1      35.063 -39.686  12.812  1.00  0.00     0.047 A 
BRANCH  15  18
ATOM     18  O   UNL     1      35.777 -38.996  15.027  1.00  0.00    -0.508 OA
ATOM     19  H   UNL     1      35.207 -39.402  15.760  1.00  0.00     0.293 HD
ENDBRANCH  15  18
ENDBRANCH   1  12
BRANCH   2  20
ATOM     20  O   UNL     1      31.316 -37.846  10.713  1.00  0.00    -0.502 OA
ATOM     21  H   UNL     1      31.078 -37.150  11.410  1.00  0.00     0.293 HD
ENDBRANCH   2  20
BRANCH   6  22
ATOM     22  O   UNL     1      31.112 -36.314   5.617  1.00  0.00    -0.507 OA
ATOM     23  H   UNL     1      30.527 -36.880   5.022  1.00  0.00     0.293 HD
ENDBRANCH   6  22
BRANCH   8  24
ATOM     24  O   UNL     1      35.742 -36.746   4.422  1.00  0.00    -0.508 OA
ATOM     25  H   UNL     1      35.649 -37.203   3.523  1.00  0.00     0.293 HD
ENDBRANCH   8  24
TORSDOF 5
ENDMDL
MODEL 2
REMARK VINA RESULT:    -5.158      1.842      6.655
REMARK INTER + INTRA:          -6.354
REMARK INTER:                  -6.442
REMARK INTRA:                   0.087
REMARK UNBOUND:                -0.292
REMARK SMILES O=c1c(O)c(-c2ccc(O)cc2)oc2cc(O)cc(O)c12
REMARK SMILES IDX 5 1 3 2 2 3 1 4 21 5 19 6 18 7 16 8 15 9 14 10 13 11 6 12
REMARK SMILES IDX 7 13 8 14 9 15 12 16 11 17 10 18 4 20 20 22 17 24
REMARK H PARENT 10 19 4 21 20 23 17 25
REMARK Flexibility Score: inf
ROOT
ATOM      1  C   UNL     1      33.008 -36.735   6.731  1.00  0.00     0.180 A 
ATOM      2  C   UNL     1      31.632 -36.501   6.898  1.00  0.00     0.208 A 
ATOM      3  C   UNL     1      31.097 -36.487   8.196  1.00  0.00     0.238 A 
ATOM      4  O   UNL     1      29.875 -36.224   8.343  1.00  0.00    -0.285 OA
ATOM      5  C   UNL     1      31.940 -36.724   9.308  1.00  0.00     0.111 A 
ATOM      6  C   UNL     1      31.498 -36.774  10.665  1.00  0.00     0.134 A 
ATOM      7  C   UNL     1      32.439 -36.886  11.695  1.00  0.00     0.093 A 
ATOM      8  C   UNL     1      33.802 -37.015  11.414  1.00  0.00     0.123 A 
ATOM      9  C   UNL     1      34.237 -37.028  10.091  1.00  0.00     0.094 A 
ATOM     10  C   UNL     1      33.325 -36.881   9.043  1.00  0.00     0.146 A 
ATOM     11  O   UNL     1      33.784 -36.889   7.798  1.00  0.00    -0.452 OA
ENDROOT
BRANCH   1  12
ATOM     12  C   UNL     1      33.641 -36.789   5.393  1.00  0.00     0.021 A 
ATOM     13  C   UNL     1      33.044 -37.487   4.327  1.00  0.00     0.016 A 
ATOM     14  C   UNL     1      33.673 -37.544   3.079  1.00  0.00     0.047 A 
ATOM     15  C   UNL     1      34.908 -36.919   2.883  1.00  0.00     0.115 A 
ATOM     16  C   UNL     1      34.892 -36.181   5.194  1.00  0.00     0.016 A 
ATOM     17  C   UNL     1      35.518 -36.239   3.946  1.00  0.00     0.047 A 
BRANCH  15  18
ATOM     18  O   UNL     1      35.521 -36.983   1.635  1.00  0.00    -0.508 OA
ATOM     19  H   UNL     1      34.997 -36.838   0.780  1.00  0.00     0.293 HD
ENDBRANCH  15  18
ENDBRANCH   1  12
BRANCH   2  20
ATOM     20  O   UNL     1      30.822 -36.247   5.789  1.00  0.00    -0.502 OA
ATOM     21  H   UNL     1      29.866 -36.579   5.725  1.00  0.00     0.293 HD
ENDBRANCH   2  20
BRANCH   6  22
ATOM     22  O   UNL     1      30.153 -36.746  11.049  1.00  0.00    -0.507 OA
ATOM     23  H   UNL     1      29.829 -36.706  12.002  1.00  0.00     0.293 HD
ENDBRANCH   6  22
BRANCH   8  24
ATOM     24  O   UNL     1      34.731 -37.141  12.444  1.00  0.00    -0.508 OA
ATOM     25  H   UNL     1      34.850 -38.013  12.948  1.00  0.00     0.293 HD
ENDBRANCH   8  24
TORSDOF 5
ENDMDL
MODEL 3
REMARK VINA RESULT:    -5.016      1.423      3.147
REMARK INTER + INTRA:          -6.188
REMARK INTER:                  -6.027
REMARK INTRA:                  -0.161
REMARK UNBOUND:                -0.292
REMARK SMILES O=c1c(O)c(-c2ccc(O)cc2)oc2cc(O)cc(O)c12
REMARK SMILES IDX 5 1 3 2 2 3 1 4 21 5 19 6 18 7 16 8 15 9 14 10 13 11 6 12
REMARK SMILES IDX 7 13 8 14 9 15 12 16 11 17 10 18 4 20 20 22 17 24
REMARK H PARENT 10 19 4 21 20 23 17 25
REMARK Flexibility Score: inf
ROOT
ATOM      1  C   UNL     1      34.258 -38.224   9.220  1.00  0.00     0.180 A 
ATOM      2  C   UNL     1      35.261 -38.504   8.275  1.00  0.00     0.208 A 
ATOM      3  C   UNL     1      34.974 -38.343   6.910  1.00  0.00     0.238 A 
ATOM      4  O   UNL     1      35.892 -38.544   6.072  1.00  0.00    -0.285 OA
ATOM      5  C   UNL     1      33.685 -37.920   6.506  1.00  0.00     0.111 A 
ATOM      6  C   UNL     1      33.272 -37.764   5.149  1.00  0.00     0.134 A 
ATOM      7  C   UNL     1      32.015 -37.215   4.868  1.00  0.00     0.093 A 
ATOM      8  C   UNL     1      31.130 -36.879   5.896  1.00  0.00     0.123 A 
ATOM      9  C   UNL     1      31.501 -37.084   7.222  1.00  0.00     0.094 A 
ATOM     10  C   UNL     1      32.763 -37.596   7.534  1.00  0.00     0.146 A 
ATOM     11  O   UNL     1      33.079 -37.766   8.812  1.00  0.00    -0.452 OA
ENDROOT
BRANCH   1  12
ATOM     12  C   UNL     1      34.476 -38.393  10.675  1.00  0.00     0.021 A 
ATOM     13  C   UNL     1      34.719 -39.659  11.237  1.00  0.00     0.016 A 
ATOM     14  C   UNL     1      34.898 -39.797  12.617  1.00  0.00     0.047 A 
ATOM     15  C   UNL     1      34.825 -38.679  13.452  1.00  0.00     0.115 A 
ATOM     16  C   UNL     1      34.384 -37.277  11.523  1.00  0.00     0.016 A 
ATOM     17  C   UNL     1      34.563 -37.417  12.902  1.00  0.00     0.047 A 
BRANCH  15  18
ATOM     18  O   UNL     1      35.007 -38.832  14.824  1.00  0.00    -0.508 OA
ATOM     19  H   UNL     1      34.642 -38.156  15.486  1.00  0.00     0.293 HD
ENDBRANCH  15  18
ENDBRANCH   1  12
BRANCH   2  20
ATOM     20  O   UNL     1      36.533 -38.898   8.696  1.00  0.00    -0.502 OA
ATOM     21  H   UNL     1      36.676 -39.559   9.451  1.00  0.00     0.293 HD
ENDBRANCH   2  20
BRANCH   6  22
ATOM     22  O   UNL     1      34.042 -38.154   4.048  1.00  0.00    -0.507 OA
ATOM     23  H   UNL     1      34.188 -37.596   3.222  1.00  0.00     0.293 HD
ENDBRANCH   6  22
BRANCH   8  24
ATOM     24  O   UNL     1      29.875 -36.348   5.607  1.00  0.00    -0.508 OA
ATOM     25  H   UNL     1      29.347 -36.646   4.795  1.00  0.00     0.293 HD
ENDBRANCH   8  24
TORSDOF 5
ENDMDL
MODEL 4
REMARK VINA RESULT:    -4.996      1.830      2.850
REMARK INTER + INTRA:          -6.164
REMARK INTER:                  -5.924
REMARK INTRA:                  -0.240
REMARK UNBOUND:                -0.292
REMARK SMILES O=c1c(O)c(-c2ccc(O)cc2)oc2cc(O)cc(O)c12
REMARK SMILES IDX 5 1 3 2 2 3 1 4 21 5 19 6 18 7 16 8 15 9 14 10 13 11 6 12
REMARK SMILES IDX 7 13 8 14 9 15 12 16 11 17 10 18 4 20 20 22 17 24
REMARK H PARENT 10 19 4 21 20 23 17 25
REMARK Flexibility Score: inf
ROOT
ATOM      1  C   UNL     1      34.075 -37.672   7.368  1.00  0.00     0.180 A 
ATOM      2  C   UNL     1      32.841 -37.540   6.707  1.00  0.00     0.208 A 
ATOM      3  C   UNL     1      32.832 -37.341   5.317  1.00  0.00     0.238 A 
ATOM      4  O   UNL     1      31.724 -37.277   4.723  1.00  0.00    -0.285 OA
ATOM      5  C   UNL     1      34.055 -37.261   4.609  1.00  0.00     0.111 A 
ATOM      6  C   UNL     1      34.165 -37.021   3.206  1.00  0.00     0.134 A 
ATOM      7  C   UNL     1      35.419 -37.091   2.589  1.00  0.00     0.093 A 
ATOM      8  C   UNL     1      36.577 -37.328   3.335  1.00  0.00     0.123 A 
ATOM      9  C   UNL     1      36.486 -37.504   4.714  1.00  0.00     0.094 A 
ATOM     10  C   UNL     1      35.244 -37.475   5.352  1.00  0.00     0.146 A 
ATOM     11  O   UNL     1      35.203 -37.658   6.666  1.00  0.00    -0.452 OA
ENDROOT
BRANCH   1  12
ATOM     12  C   UNL     1      34.167 -37.858   8.834  1.00  0.00     0.021 A 
ATOM     13  C   UNL     1      33.930 -36.796   9.725  1.00  0.00     0.016 A 
ATOM     14  C   UNL     1      34.046 -36.991  11.105  1.00  0.00     0.047 A 
ATOM     15  C   UNL     1      34.413 -38.241  11.611  1.00  0.00     0.115 A 
ATOM     16  C   UNL     1      34.555 -39.106   9.350  1.00  0.00     0.016 A 
ATOM     17  C   UNL     1      34.671 -39.299  10.730  1.00  0.00     0.047 A 
BRANCH  15  18
ATOM     18  O   UNL     1      34.524 -38.420  12.988  1.00  0.00    -0.508 OA
ATOM     19  H   UNL     1      34.804 -37.662  13.600  1.00  0.00     0.293 HD
ENDBRANCH  15  18
ENDBRANCH   1  12
BRANCH   2  20
ATOM     20  O   UNL     1      31.646 -37.644   7.422  1.00  0.00    -0.502 OA
ATOM     21  H   UNL     1      30.986 -36.879   7.495  1.00  0.00     0.293 HD
ENDBRANCH   2  20
BRANCH   6  22
ATOM     22  O   UNL     1      33.084 -36.685   2.384  1.00  0.00    -0.507 OA
ATOM     23  H   UNL     1      32.824 -35.744   2.133  1.00  0.00     0.293 HD
ENDBRANCH   6  22
BRANCH   8  24
ATOM     24  O   UNL     1      37.823 -37.381   2.715  1.00  0.00    -0.508 OA
ATOM     25  H   UNL     1      38.002 -38.004   1.936  1.00  0.00     0.293 HD
ENDBRANCH   8  24
TORSDOF 5
ENDMDL
MODEL 5
REMARK VINA RESULT:    -4.816      3.024      7.744
REMARK INTER + INTRA:          -5.953
REMARK INTER:                  -5.729
REMARK INTRA:                  -0.224
REMARK UNBOUND:                -0.292
REMARK SMILES O=c1c(O)c(-c2ccc(O)cc2)oc2cc(O)cc(O)c12
REMARK SMILES IDX 5 1 3 2 2 3 1 4 21 5 19 6 18 7 16 8 15 9 14 10 13 11 6 12
REMARK SMILES IDX 7 13 8 14 9 15 12 16 11 17 10 18 4 20 20 22 17 24
REMARK H PARENT 10 19 4 21 20 23 17 25
REMARK Flexibility Score: inf
ROOT
ATOM      1  C   UNL     1      34.711 -37.143   3.812  1.00  0.00     0.180 A 
ATOM      2  C   UNL     1      33.350 -37.310   3.505  1.00  0.00     0.208 A 
ATOM      3  C   UNL     1      32.417 -37.363   4.553  1.00  0.00     0.238 A 
ATOM      4  O   UNL     1      31.195 -37.459   4.270  1.00  0.00    -0.285 OA
ATOM      5  C   UNL     1      32.859 -37.266   5.895  1.00  0.00     0.111 A 
ATOM      6  C   UNL     1      32.006 -37.349   7.037  1.00  0.00     0.134 A 
ATOM      7  C   UNL     1      32.533 -37.109   8.311  1.00  0.00     0.093 A 
ATOM      8  C   UNL     1      33.896 -36.854   8.491  1.00  0.00     0.123 A 
ATOM      9  C   UNL     1      34.746 -36.831   7.389  1.00  0.00     0.094 A 
ATOM     10  C   UNL     1      34.242 -37.030   6.101  1.00  0.00     0.146 A 
ATOM     11  O   UNL     1      35.087 -36.989   5.077  1.00  0.00    -0.452 OA
ENDROOT
BRANCH   1  12
ATOM     12  C   UNL     1      35.756 -37.103   2.763  1.00  0.00     0.021 A 
ATOM     13  C   UNL     1      36.352 -35.891   2.369  1.00  0.00     0.016 A 
ATOM     14  C   UNL     1      37.319 -35.875   1.359  1.00  0.00     0.047 A 
ATOM     15  C   UNL     1      37.694 -37.062   0.723  1.00  0.00     0.115 A 
ATOM     16  C   UNL     1      36.123 -38.289   2.105  1.00  0.00     0.016 A 
ATOM     17  C   UNL     1      37.090 -38.270   1.096  1.00  0.00     0.047 A 
BRANCH  15  18
ATOM     18  O   UNL     1      38.659 -37.030  -0.280  1.00  0.00    -0.508 OA
ATOM     19  H   UNL     1      38.463 -37.371  -1.214  1.00  0.00     0.293 HD
ENDBRANCH  15  18
ENDBRANCH   1  12
BRANCH   2  20
ATOM     20  O   UNL     1      32.933 -37.382   2.174  1.00  0.00    -0.502 OA
ATOM     21  H   UNL     1      32.192 -36.799   1.803  1.00  0.00     0.293 HD
ENDBRANCH   2  20
BRANCH   6  22
ATOM     22  O   UNL     1      30.651 -37.689   6.976  1.00  0.00    -0.507 OA
ATOM     23  H   UNL     1      30.022 -37.686   7.764  1.00  0.00     0.293 HD
ENDBRANCH   6  22
BRANCH   8  24
ATOM     24  O   UNL     1      34.414 -36.632   9.764  1.00  0.00    -0.508 OA
ATOM     25  H   UNL     1      33.887 -36.135  10.473  1.00  0.00     0.293 HD
ENDBRANCH   8  24
TORSDOF 5
ENDMDL
MODEL 6
REMARK VINA RESULT:    -4.790     12.328     14.262
REMARK INTER + INTRA:          -5.921
REMARK INTER:                  -5.643
REMARK INTRA:                  -0.278
REMARK UNBOUND:                -0.292
REMARK SMILES O=c1c(O)c(-c2ccc(O)cc2)oc2cc(O)cc(O)c12
REMARK SMILES IDX 5 1 3 2 2 3 1 4 21 5 19 6 18 7 16 8 15 9 14 10 13 11 6 12
REMARK SMILES IDX 7 13 8 14 9 15 12 16 11 17 10 18 4 20 20 22 17 24
REMARK H PARENT 10 19 4 21 20 23 17 25
REMARK Flexibility Score: inf
ROOT
ATOM      1  C   UNL     1      36.264 -41.020  -3.280  1.00  0.00     0.180 A 
ATOM      2  C   UNL     1      36.852 -42.295  -3.352  1.00  0.00     0.208 A 
ATOM      3  C   UNL     1      36.034 -43.409  -3.598  1.00  0.00     0.238 A 
ATOM      4  O   UNL     1      36.573 -44.541  -3.714  1.00  0.00    -0.285 OA
ATOM      5  C   UNL     1      34.637 -43.237  -3.753  1.00  0.00     0.111 A 
ATOM      6  C   UNL     1      33.708 -44.300  -3.966  1.00  0.00     0.134 A 
ATOM      7  C   UNL     1      32.367 -44.002  -4.235  1.00  0.00     0.093 A 
ATOM      8  C   UNL     1      31.909 -42.681  -4.236  1.00  0.00     0.123 A 
ATOM      9  C   UNL     1      32.796 -41.642  -3.970  1.00  0.00     0.094 A 
ATOM     10  C   UNL     1      34.148 -41.906  -3.734  1.00  0.00     0.146 A 
ATOM     11  O   UNL     1      34.961 -40.884  -3.495  1.00  0.00    -0.452 OA
ENDROOT
BRANCH   1  12
ATOM     12  C   UNL     1      37.057 -39.801  -2.999  1.00  0.00     0.021 A 
ATOM     13  C   UNL     1      37.735 -39.115  -4.023  1.00  0.00     0.016 A 
ATOM     14  C   UNL     1      38.497 -37.980  -3.729  1.00  0.00     0.047 A 
ATOM     15  C   UNL     1      38.604 -37.525  -2.412  1.00  0.00     0.115 A 
ATOM     16  C   UNL     1      37.186 -39.350  -1.675  1.00  0.00     0.016 A 
ATOM     17  C   UNL     1      37.949 -38.215  -1.384  1.00  0.00     0.047 A 
BRANCH  15  18
ATOM     18  O   UNL     1      39.366 -36.393  -2.135  1.00  0.00    -0.508 OA
ATOM     19  H   UNL     1      39.985 -35.989  -2.828  1.00  0.00     0.293 HD
ENDBRANCH  15  18
ENDBRANCH   1  12
BRANCH   2  20
ATOM     20  O   UNL     1      38.235 -42.440  -3.218  1.00  0.00    -0.502 OA
ATOM     21  H   UNL     1      38.737 -42.138  -2.391  1.00  0.00     0.293 HD
ENDBRANCH   2  20
BRANCH   6  22
ATOM     22  O   UNL     1      34.044 -45.656  -3.895  1.00  0.00    -0.507 OA
ATOM     23  H   UNL     1      33.471 -46.408  -4.242  1.00  0.00     0.293 HD
ENDBRANCH   6  22
BRANCH   8  24
ATOM     24  O   UNL     1      30.570 -42.395  -4.490  1.00  0.00    -0.508 OA
ATOM     25  H   UNL     1      29.835 -43.060  -4.277  1.00  0.00     0.293 HD
ENDBRANCH   8  24
TORSDOF 5
ENDMDL
MODEL 7
REMARK VINA RESULT:    -4.721      6.962     10.013
REMARK INTER + INTRA:          -5.841
REMARK INTER:                  -5.552
REMARK INTRA:                  -0.289
REMARK UNBOUND:                -0.292
REMARK SMILES O=c1c(O)c(-c2ccc(O)cc2)oc2cc(O)cc(O)c12
REMARK SMILES IDX 5 1 3 2 2 3 1 4 21 5 19 6 18 7 16 8 15 9 14 10 13 11 6 12
REMARK SMILES IDX 7 13 8 14 9 15 12 16 11 17 10 18 4 20 20 22 17 24
REMARK H PARENT 10 19 4 21 20 23 17 25
REMARK Flexibility Score: inf
ROOT
ATOM      1  C   UNL     1      35.097 -39.316   0.399  1.00  0.00     0.180 A 
ATOM      2  C   UNL     1      33.724 -39.444   0.124  1.00  0.00     0.208 A 
ATOM      3  C   UNL     1      33.321 -39.844  -1.160  1.00  0.00     0.238 A 
ATOM      4  O   UNL     1      32.093 -40.007  -1.384  1.00  0.00    -0.285 OA
ATOM      5  C   UNL     1      34.294 -40.095  -2.157  1.00  0.00     0.111 A 
ATOM      6  C   UNL     1      33.997 -40.465  -3.504  1.00  0.00     0.134 A 
ATOM      7  C   UNL     1      35.040 -40.816  -4.369  1.00  0.00     0.093 A 
ATOM      8  C   UNL     1      36.373 -40.747  -3.956  1.00  0.00     0.123 A 
ATOM      9  C   UNL     1      36.675 -40.328  -2.663  1.00  0.00     0.094 A 
ATOM     10  C   UNL     1      35.654 -40.007  -1.765  1.00  0.00     0.146 A 
ATOM     11  O   UNL     1      35.986 -39.623  -0.538  1.00  0.00    -0.452 OA
ENDROOT
BRANCH   1  12
ATOM     12  C   UNL     1      35.598 -38.876   1.721  1.00  0.00     0.021 A 
ATOM     13  C   UNL     1      35.877 -39.800   2.744  1.00  0.00     0.016 A 
ATOM     14  C   UNL     1      36.326 -39.358   3.993  1.00  0.00     0.047 A 
ATOM     15  C   UNL     1      36.490 -37.992   4.239  1.00  0.00     0.115 A 
ATOM     16  C   UNL     1      35.745 -37.504   1.983  1.00  0.00     0.016 A 
ATOM     17  C   UNL     1      36.194 -37.064   3.232  1.00  0.00     0.047 A 
BRANCH  15  18
ATOM     18  O   UNL     1      36.939 -37.567   5.487  1.00  0.00    -0.508 OA
ATOM     19  H   UNL     1      37.863 -37.807   5.827  1.00  0.00     0.293 HD
ENDBRANCH  15  18
ENDBRANCH   1  12
BRANCH   2  20
ATOM     20  O   UNL     1      32.781 -39.212   1.129  1.00  0.00    -0.502 OA
ATOM     21  H   UNL     1      32.223 -38.367   1.168  1.00  0.00     0.293 HD
ENDBRANCH   2  20
BRANCH   6  22
ATOM     22  O   UNL     1      32.707 -40.478  -4.044  1.00  0.00    -0.507 OA
ATOM     23  H   UNL     1      32.319 -41.233  -4.587  1.00  0.00     0.293 HD
ENDBRANCH   6  22
BRANCH   8  24
ATOM     24  O   UNL     1      37.405 -41.082  -4.829  1.00  0.00    -0.508 OA
ATOM     25  H   UNL     1      37.386 -41.940  -5.368  1.00  0.00     0.293 HD
ENDBRANCH   8  24
TORSDOF 5
ENDMDL
MODEL 8
REMARK VINA RESULT:    -4.663      2.472      4.417
REMARK INTER + INTRA:          -5.773
REMARK INTER:                  -5.512
REMARK INTRA:                  -0.261
REMARK UNBOUND:                -0.292
REMARK SMILES O=c1c(O)c(-c2ccc(O)cc2)oc2cc(O)cc(O)c12
REMARK SMILES IDX 5 1 3 2 2 3 1 4 21 5 19 6 18 7 16 8 15 9 14 10 13 11 6 12
REMARK SMILES IDX 7 13 8 14 9 15 12 16 11 17 10 18 4 20 20 22 17 24
REMARK H PARENT 10 19 4 21 20 23 17 25
REMARK Flexibility Score: inf
ROOT
ATOM      1  C   UNL     1      34.237 -37.626   6.757  1.00  0.00     0.180 A 
ATOM      2  C   UNL     1      35.107 -36.791   6.034  1.00  0.00     0.208 A 
ATOM      3  C   UNL     1      35.113 -36.866   4.632  1.00  0.00     0.238 A 
ATOM      4  O   UNL     1      35.855 -36.079   3.988  1.00  0.00    -0.285 OA
ATOM      5  C   UNL     1      34.263 -37.786   3.971  1.00  0.00     0.111 A 
ATOM      6  C   UNL     1      34.217 -37.975   2.557  1.00  0.00     0.134 A 
ATOM      7  C   UNL     1      33.246 -38.818   2.005  1.00  0.00     0.093 A 
ATOM      8  C   UNL     1      32.361 -39.529   2.820  1.00  0.00     0.123 A 
ATOM      9  C   UNL     1      32.438 -39.397   4.204  1.00  0.00     0.094 A 
ATOM     10  C   UNL     1      33.373 -38.535   4.783  1.00  0.00     0.146 A 
ATOM     11  O   UNL     1      33.405 -38.431   6.106  1.00  0.00    -0.452 OA
ENDROOT
BRANCH   1  12
ATOM     12  C   UNL     1      34.191 -37.623   8.237  1.00  0.00     0.021 A 
ATOM     13  C   UNL     1      34.830 -38.621   8.994  1.00  0.00     0.016 A 
ATOM     14  C   UNL     1      34.752 -38.610  10.389  1.00  0.00     0.047 A 
ATOM     15  C   UNL     1      34.026 -37.613  11.046  1.00  0.00     0.115 A 
ATOM     16  C   UNL     1      33.446 -36.635   8.903  1.00  0.00     0.016 A 
ATOM     17  C   UNL     1      33.369 -36.626  10.299  1.00  0.00     0.047 A 
BRANCH  15  18
ATOM     18  O   UNL     1      33.958 -37.614  12.437  1.00  0.00    -0.508 OA
ATOM     19  H   UNL     1      33.778 -36.764  12.959  1.00  0.00     0.293 HD
ENDBRANCH  15  18
ENDBRANCH   1  12
BRANCH   2  20
ATOM     20  O   UNL     1      35.922 -35.876   6.704  1.00  0.00    -0.502 OA
ATOM     21  H   UNL     1      36.754 -35.478   6.285  1.00  0.00     0.293 HD
ENDBRANCH   2  20
BRANCH   6  22
ATOM     22  O   UNL     1      35.114 -37.385   1.661  1.00  0.00    -0.507 OA
ATOM     23  H   UNL     1      36.081 -37.186   1.863  1.00  0.00     0.293 HD
ENDBRANCH   6  22
BRANCH   8  24
ATOM     24  O   UNL     1      31.408 -40.378   2.262  1.00  0.00    -0.508 OA
ATOM     25  H   UNL     1      30.935 -41.082   2.816  1.00  0.00     0.293 HD
ENDBRANCH   8  24
TORSDOF 5
ENDMDL
MODEL 9
REMARK VINA RESULT:    -4.627      4.651      9.286
REMARK INTER + INTRA:          -5.731
REMARK INTER:                  -5.637
REMARK INTRA:                  -0.094
REMARK UNBOUND:                -0.292
REMARK SMILES O=c1c(O)c(-c2ccc(O)cc2)oc2cc(O)cc(O)c12
REMARK SMILES IDX 5 1 3 2 2 3 1 4 21 5 19 6 18 7 16 8 15 9 14 10 13 11 6 12
REMARK SMILES IDX 7 13 8 14 9 15 12 16 11 17 10 18 4 20 20 22 17 24
REMARK H PARENT 10 19 4 21 20 23 17 25
REMARK Flexibility Score: inf
ROOT
ATOM      1  C   UNL     1      33.362 -38.854   2.203  1.00  0.00     0.180 A 
ATOM      2  C   UNL     1      34.724 -38.558   2.390  1.00  0.00     0.208 A 
ATOM      3  C   UNL     1      35.105 -37.772   3.489  1.00  0.00     0.238 A 
ATOM      4  O   UNL     1      36.329 -37.555   3.682  1.00  0.00    -0.285 OA
ATOM      5  C   UNL     1      34.118 -37.278   4.377  1.00  0.00     0.111 A 
ATOM      6  C   UNL     1      34.387 -36.438   5.500  1.00  0.00     0.134 A 
ATOM      7  C   UNL     1      33.351 -36.116   6.385  1.00  0.00     0.093 A 
ATOM      8  C   UNL     1      32.043 -36.550   6.152  1.00  0.00     0.123 A 
ATOM      9  C   UNL     1      31.761 -37.320   5.026  1.00  0.00     0.094 A 
ATOM     10  C   UNL     1      32.781 -37.687   4.145  1.00  0.00     0.146 A 
ATOM     11  O   UNL     1      32.469 -38.431   3.090  1.00  0.00    -0.452 OA
ENDROOT
BRANCH   1  12
ATOM     12  C   UNL     1      32.881 -39.655   1.054  1.00  0.00     0.021 A 
ATOM     13  C   UNL     1      33.125 -39.257  -0.272  1.00  0.00     0.016 A 
ATOM     14  C   UNL     1      32.640 -40.017  -1.340  1.00  0.00     0.047 A 
ATOM     15  C   UNL     1      31.896 -41.176  -1.099  1.00  0.00     0.115 A 
ATOM     16  C   UNL     1      32.115 -40.809   1.289  1.00  0.00     0.016 A 
ATOM     17  C   UNL     1      31.631 -41.568   0.219  1.00  0.00     0.047 A 
BRANCH  15  18
ATOM     18  O   UNL     1      31.420 -41.923  -2.173  1.00  0.00    -0.508 OA
ATOM     19  H   UNL     1      32.020 -42.177  -2.949  1.00  0.00     0.293 HD
ENDBRANCH  15  18
ENDBRANCH   1  12
BRANCH   2  20
ATOM     20  O   UNL     1      35.683 -39.074   1.514  1.00  0.00    -0.502 OA
ATOM     21  H   UNL     1      35.455 -39.748   0.793  1.00  0.00     0.293 HD
ENDBRANCH   2  20
BRANCH   6  22
ATOM     22  O   UNL     1      35.638 -35.875   5.773  1.00  0.00    -0.507 OA
ATOM     23  H   UNL     1      36.084 -35.167   5.211  1.00  0.00     0.293 HD
ENDBRANCH   6  22
BRANCH   8  24
ATOM     24  O   UNL     1      31.016 -36.212   7.029  1.00  0.00    -0.508 OA
ATOM     25  H   UNL     1      30.213 -35.674   6.724  1.00  0.00     0.293 HD
ENDBRANCH   8  24
TORSDOF 5
ENDMDL
