MODEL 1
REMARK VINA RESULT:    -3.185      0.000      0.000
REMARK INTER + INTRA:         -10.680
REMARK INTER:                  -6.909
REMARK INTRA:                  -3.772
REMARK UNBOUND:                -3.772
REMARK SMILES CCCCCCCCCCCCCCCCCCCCCC(=O)[O-]
REMARK SMILES IDX 12 1 11 2 10 3 9 4 8 5 7 6 6 7 5 8 4 9 3 10 2 11 1 12 13 13
REMARK SMILES IDX 14 14 15 15 16 16 17 17 18 18 19 19 20 20 21 21 22 22 23 23
REMARK SMILES IDX 24 24
REMARK H PARENT
REMARK Flexibility Score: inf
ROOT
ATOM      1  C   UNL     1      33.067  -1.672 -38.537  1.00  0.00     0.000 C 
ENDROOT
BRANCH   1   2
ATOM      2  C   UNL     1      33.774  -2.695 -37.636  1.00  0.00     0.000 C 
BRANCH   2   3
ATOM      3  C   UNL     1      32.790  -3.548 -36.816  1.00  0.00     0.000 C 
BRANCH   3   4
ATOM      4  C   UNL     1      32.462  -4.926 -37.423  1.00  0.00    -0.000 C 
BRANCH   4   5
ATOM      5  C   UNL     1      30.961  -5.271 -37.494  1.00  0.00    -0.000 C 
BRANCH   5   6
ATOM      6  C   UNL     1      30.189  -4.574 -38.628  1.00  0.00    -0.000 C 
BRANCH   6   7
ATOM      7  C   UNL     1      28.672  -4.798 -38.544  1.00  0.00    -0.000 C 
BRANCH   7   8
ATOM      8  C   UNL     1      28.112  -4.281 -37.211  1.00  0.00    -0.000 C 
BRANCH   8   9
ATOM      9  C   UNL     1      26.762  -4.937 -36.852  1.00  0.00    -0.000 C 
BRANCH   9  10
ATOM     10  C   UNL     1      25.752  -3.965 -36.216  1.00  0.00    -0.000 C 
BRANCH  10  11
ATOM     11  C   UNL     1      26.366  -2.600 -35.875  1.00  0.00    -0.003 C 
ATOM     12  C   UNL     1      25.732  -1.489 -36.707  1.00  0.00     0.004 C 
ENDBRANCH  10  11
ENDBRANCH   9  10
ENDBRANCH   8   9
ENDBRANCH   7   8
ENDBRANCH   6   7
ENDBRANCH   5   6
ENDBRANCH   4   5
ENDBRANCH   3   4
ENDBRANCH   2   3
ENDBRANCH   1   2
BRANCH   1  13
ATOM     13  C   UNL     1      33.140  -0.262 -37.934  1.00  0.00     0.000 C 
BRANCH  13  14
ATOM     14  C   UNL     1      34.029  -0.202 -36.681  1.00  0.00     0.000 C 
BRANCH  14  15
ATOM     15  C   UNL     1      33.271   0.307 -35.443  1.00  0.00     0.000 C 
BRANCH  15  16
ATOM     16  C   UNL     1      31.753   0.386 -35.677  1.00  0.00     0.000 C 
BRANCH  16  17
ATOM     17  C   UNL     1      30.995  -0.801 -35.058  1.00  0.00     0.000 C 
BRANCH  17  18
ATOM     18  C   UNL     1      29.913  -1.349 -36.004  1.00  0.00     0.000 C 
BRANCH  18  19
ATOM     19  C   UNL     1      29.521  -0.346 -37.113  1.00  0.00     0.000 C 
BRANCH  19  20
ATOM     20  C   UNL     1      29.018  -1.012 -38.406  1.00  0.00     0.006 C 
BRANCH  20  21
ATOM     21  C   UNL     1      29.709  -0.496 -39.682  1.00  0.00     0.053 C 
BRANCH  21  22
ATOM     22  C   UNL     1      29.629   0.995 -39.822  1.00  0.00     0.041 C 
ATOM     23  O   UNL     1      28.539   1.548 -40.124  1.00  0.00    -0.550 OA
ATOM     24  O   UNL     1      30.771   1.772 -39.663  1.00  0.00    -0.550 OA
ENDBRANCH  21  22
ENDBRANCH  20  21
ENDBRANCH  19  20
ENDBRANCH  18  19
ENDBRANCH  17  18
ENDBRANCH  16  17
ENDBRANCH  15  16
ENDBRANCH  14  15
ENDBRANCH  13  14
ENDBRANCH   1  13
TORSDOF 20
ENDMDL
MODEL 2
REMARK VINA RESULT:    -3.130      2.857      5.970
REMARK INTER + INTRA:         -10.562
REMARK INTER:                  -6.834
REMARK INTRA:                  -3.728
REMARK UNBOUND:                -3.772
REMARK SMILES CCCCCCCCCCCCCCCCCCCCCC(=O)[O-]
REMARK SMILES IDX 12 1 11 2 10 3 9 4 8 5 7 6 6 7 5 8 4 9 3 10 2 11 1 12 13 13
REMARK SMILES IDX 14 14 15 15 16 16 17 17 18 18 19 19 20 20 21 21 22 22 23 23
REMARK SMILES IDX 24 24
REMARK H PARENT
REMARK Flexibility Score: inf
ROOT
ATOM      1  C   UNL     1      33.170  -3.677 -36.347  1.00  0.00     0.000 C 
ENDROOT
BRANCH   1   2
ATOM      2  C   UNL     1      34.007  -2.962 -37.417  1.00  0.00     0.000 C 
BRANCH   2   3
ATOM      3  C   UNL     1      33.168  -2.020 -38.298  1.00  0.00     0.000 C 
BRANCH   3   4
ATOM      4  C   UNL     1      33.503  -0.523 -38.152  1.00  0.00    -0.000 C 
BRANCH   4   5
ATOM      5  C   UNL     1      33.746  -0.044 -36.706  1.00  0.00    -0.000 C 
BRANCH   5   6
ATOM      6  C   UNL     1      32.499   0.492 -35.982  1.00  0.00    -0.000 C 
BRANCH   6   7
ATOM      7  C   UNL     1      31.820  -0.565 -35.099  1.00  0.00    -0.000 C 
BRANCH   7   8
ATOM      8  C   UNL     1      30.355  -0.769 -35.511  1.00  0.00    -0.000 C 
BRANCH   8   9
ATOM      9  C   UNL     1      29.992   0.024 -36.785  1.00  0.00    -0.000 C 
BRANCH   9  10
ATOM     10  C   UNL     1      29.638  -0.868 -37.988  1.00  0.00    -0.000 C 
BRANCH  10  11
ATOM     11  C   UNL     1      29.949  -0.206 -39.337  1.00  0.00    -0.003 C 
ATOM     12  C   UNL     1      30.466   1.217 -39.146  1.00  0.00     0.004 C 
ENDBRANCH  10  11
ENDBRANCH   9  10
ENDBRANCH   8   9
ENDBRANCH   7   8
ENDBRANCH   6   7
ENDBRANCH   5   6
ENDBRANCH   4   5
ENDBRANCH   3   4
ENDBRANCH   2   3
ENDBRANCH   1   2
BRANCH   1  13
ATOM     13  C   UNL     1      31.740  -3.934 -36.845  1.00  0.00     0.000 C 
BRANCH  13  14
ATOM     14  C   UNL     1      31.495  -5.410 -37.200  1.00  0.00     0.000 C 
BRANCH  14  15
ATOM     15  C   UNL     1      30.291  -5.599 -38.138  1.00  0.00     0.000 C 
BRANCH  15  16
ATOM     16  C   UNL     1      29.352  -4.382 -38.140  1.00  0.00     0.000 C 
BRANCH  16  17
ATOM     17  C   UNL     1      27.937  -4.724 -37.644  1.00  0.00     0.000 C 
BRANCH  17  18
ATOM     18  C   UNL     1      27.353  -3.612 -36.755  1.00  0.00     0.000 C 
BRANCH  18  19
ATOM     19  C   UNL     1      27.982  -3.580 -35.343  1.00  0.00     0.000 C 
BRANCH  19  20
ATOM     20  C   UNL     1      26.950  -3.580 -34.202  1.00  0.00     0.006 C 
BRANCH  20  21
ATOM     21  C   UNL     1      25.822  -4.613 -34.382  1.00  0.00     0.053 C 
BRANCH  21  22
ATOM     22  C   UNL     1      24.457  -3.996 -34.335  1.00  0.00     0.041 C 
ATOM     23  O   UNL     1      23.746  -4.102 -33.300  1.00  0.00    -0.550 OA
ATOM     24  O   UNL     1      23.948  -3.341 -35.450  1.00  0.00    -0.550 OA
ENDBRANCH  21  22
ENDBRANCH  20  21
ENDBRANCH  19  20
ENDBRANCH  18  19
ENDBRANCH  17  18
ENDBRANCH  16  17
ENDBRANCH  15  16
ENDBRANCH  14  15
ENDBRANCH  13  14
ENDBRANCH   1  13
TORSDOF 20
ENDMDL
MODEL 3
REMARK VINA RESULT:    -3.085     10.736     13.906
REMARK INTER + INTRA:         -10.463
REMARK INTER:                  -7.548
REMARK INTRA:                  -2.915
REMARK UNBOUND:                -3.772
REMARK SMILES CCCCCCCCCCCCCCCCCCCCCC(=O)[O-]
REMARK SMILES IDX 12 1 11 2 10 3 9 4 8 5 7 6 6 7 5 8 4 9 3 10 2 11 1 12 13 13
REMARK SMILES IDX 14 14 15 15 16 16 17 17 18 18 19 19 20 20 21 21 22 22 23 23
REMARK SMILES IDX 24 24
REMARK H PARENT
REMARK Flexibility Score: inf
ROOT
ATOM      1  C   UNL     1      32.786   7.165 -29.553  1.00  0.00     0.000 C 
ENDROOT
BRANCH   1   2
ATOM      2  C   UNL     1      32.980   8.025 -30.810  1.00  0.00     0.000 C 
BRANCH   2   3
ATOM      3  C   UNL     1      34.338   7.784 -31.493  1.00  0.00     0.000 C 
BRANCH   3   4
ATOM      4  C   UNL     1      35.195   6.670 -30.861  1.00  0.00    -0.000 C 
BRANCH   4   5
ATOM      5  C   UNL     1      35.764   5.638 -31.854  1.00  0.00    -0.000 C 
BRANCH   5   6
ATOM      6  C   UNL     1      34.966   5.487 -33.162  1.00  0.00    -0.000 C 
BRANCH   6   7
ATOM      7  C   UNL     1      34.258   4.130 -33.277  1.00  0.00    -0.000 C 
BRANCH   7   8
ATOM      8  C   UNL     1      32.995   4.092 -32.404  1.00  0.00    -0.000 C 
BRANCH   8   9
ATOM      9  C   UNL     1      33.072   3.001 -31.315  1.00  0.00    -0.000 C 
BRANCH   9  10
ATOM     10  C   UNL     1      33.323   3.556 -29.901  1.00  0.00    -0.000 C 
BRANCH  10  11
ATOM     11  C   UNL     1      34.382   2.762 -29.124  1.00  0.00    -0.003 C 
ATOM     12  C   UNL     1      34.169   2.889 -27.619  1.00  0.00     0.004 C 
ENDBRANCH  10  11
ENDBRANCH   9  10
ENDBRANCH   8   9
ENDBRANCH   7   8
ENDBRANCH   6   7
ENDBRANCH   5   6
ENDBRANCH   4   5
ENDBRANCH   3   4
ENDBRANCH   2   3
ENDBRANCH   1   2
BRANCH   1  13
ATOM     13  C   UNL     1      32.789   8.033 -28.285  1.00  0.00     0.000 C 
BRANCH  13  14
ATOM     14  C   UNL     1      32.854   9.536 -28.600  1.00  0.00     0.000 C 
BRANCH  14  15
ATOM     15  C   UNL     1      32.465  10.408 -27.394  1.00  0.00     0.000 C 
BRANCH  15  16
ATOM     16  C   UNL     1      33.661  10.703 -26.474  1.00  0.00     0.000 C 
BRANCH  16  17
ATOM     17  C   UNL     1      33.481  10.121 -25.062  1.00  0.00     0.000 C 
BRANCH  17  18
ATOM     18  C   UNL     1      32.172   9.322 -24.931  1.00  0.00     0.000 C 
BRANCH  18  19
ATOM     19  C   UNL     1      32.395   7.889 -24.397  1.00  0.00     0.000 C 
BRANCH  19  20
ATOM     20  C   UNL     1      33.838   7.380 -24.562  1.00  0.00     0.006 C 
BRANCH  20  21
ATOM     21  C   UNL     1      33.944   6.040 -25.313  1.00  0.00     0.053 C 
BRANCH  21  22
ATOM     22  C   UNL     1      34.734   5.013 -24.558  1.00  0.00     0.041 C 
ATOM     23  O   UNL     1      35.844   4.614 -24.998  1.00  0.00    -0.550 OA
ATOM     24  O   UNL     1      34.222   4.462 -23.389  1.00  0.00    -0.550 OA
ENDBRANCH  21  22
ENDBRANCH  20  21
ENDBRANCH  19  20
ENDBRANCH  18  19
ENDBRANCH  17  18
ENDBRANCH  16  17
ENDBRANCH  15  16
ENDBRANCH  14  15
ENDBRANCH  13  14
ENDBRANCH   1  13
TORSDOF 20
ENDMDL
MODEL 4
REMARK VINA RESULT:    -3.041      3.898      5.979
REMARK INTER + INTRA:         -10.368
REMARK INTER:                  -7.217
REMARK INTRA:                  -3.151
REMARK UNBOUND:                -3.772
REMARK SMILES CCCCCCCCCCCCCCCCCCCCCC(=O)[O-]
REMARK SMILES IDX 12 1 11 2 10 3 9 4 8 5 7 6 6 7 5 8 4 9 3 10 2 11 1 12 13 13
REMARK SMILES IDX 14 14 15 15 16 16 17 17 18 18 19 19 20 20 21 21 22 22 23 23
REMARK SMILES IDX 24 24
REMARK H PARENT
REMARK Flexibility Score: inf
ROOT
ATOM      1  C   UNL     1      30.769  -0.690 -38.689  1.00  0.00     0.000 C 
ENDROOT
BRANCH   1   2
ATOM      2  C   UNL     1      32.226  -1.173 -38.680  1.00  0.00     0.000 C 
BRANCH   2   3
ATOM      3  C   UNL     1      33.189  -0.150 -38.052  1.00  0.00     0.000 C 
BRANCH   3   4
ATOM      4  C   UNL     1      33.890  -0.621 -36.763  1.00  0.00    -0.000 C 
BRANCH   4   5
ATOM      5  C   UNL     1      32.987  -1.371 -35.763  1.00  0.00    -0.000 C 
BRANCH   5   6
ATOM      6  C   UNL     1      33.347  -2.852 -35.548  1.00  0.00    -0.000 C 
BRANCH   6   7
ATOM      7  C   UNL     1      32.117  -3.772 -35.546  1.00  0.00    -0.000 C 
BRANCH   7   8
ATOM      8  C   UNL     1      30.818  -2.955 -35.582  1.00  0.00    -0.000 C 
BRANCH   8   9
ATOM      9  C   UNL     1      29.758  -3.587 -36.509  1.00  0.00    -0.000 C 
BRANCH   9  10
ATOM     10  C   UNL     1      30.343  -4.573 -37.535  1.00  0.00    -0.000 C 
BRANCH  10  11
ATOM     11  C   UNL     1      29.333  -4.985 -38.615  1.00  0.00    -0.003 C 
ATOM     12  C   UNL     1      29.195  -3.903 -39.681  1.00  0.00     0.004 C 
ENDBRANCH  10  11
ENDBRANCH   9  10
ENDBRANCH   8   9
ENDBRANCH   7   8
ENDBRANCH   6   7
ENDBRANCH   5   6
ENDBRANCH   4   5
ENDBRANCH   3   4
ENDBRANCH   2   3
ENDBRANCH   1   2
BRANCH   1  13
ATOM     13  C   UNL     1      30.697   0.844 -38.636  1.00  0.00     0.000 C 
BRANCH  13  14
ATOM     14  C   UNL     1      29.751   1.352 -37.536  1.00  0.00     0.000 C 
BRANCH  14  15
ATOM     15  C   UNL     1      29.815   0.494 -36.261  1.00  0.00     0.000 C 
BRANCH  15  16
ATOM     16  C   UNL     1      30.248   1.305 -35.029  1.00  0.00     0.000 C 
BRANCH  16  17
ATOM     17  C   UNL     1      31.621   1.976 -35.214  1.00  0.00     0.000 C 
BRANCH  17  18
ATOM     18  C   UNL     1      32.438   1.985 -33.910  1.00  0.00     0.000 C 
BRANCH  18  19
ATOM     19  C   UNL     1      32.690   3.411 -33.370  1.00  0.00     0.000 C 
BRANCH  19  20
ATOM     20  C   UNL     1      34.180   3.780 -33.258  1.00  0.00     0.006 C 
BRANCH  20  21
ATOM     21  C   UNL     1      34.450   5.296 -33.285  1.00  0.00     0.053 C 
BRANCH  21  22
ATOM     22  C   UNL     1      34.999   5.810 -31.987  1.00  0.00     0.041 C 
ATOM     23  O   UNL     1      35.361   5.007 -31.087  1.00  0.00    -0.550 OA
ATOM     24  O   UNL     1      35.068   7.178 -31.752  1.00  0.00    -0.550 OA
ENDBRANCH  21  22
ENDBRANCH  20  21
ENDBRANCH  19  20
ENDBRANCH  18  19
ENDBRANCH  17  18
ENDBRANCH  16  17
ENDBRANCH  15  16
ENDBRANCH  14  15
ENDBRANCH  13  14
ENDBRANCH   1  13
TORSDOF 20
ENDMDL
MODEL 5
REMARK VINA RESULT:    -3.029     10.474     14.097
REMARK INTER + INTRA:         -10.342
REMARK INTER:                  -6.934
REMARK INTRA:                  -3.408
REMARK UNBOUND:                -3.772
REMARK SMILES CCCCCCCCCCCCCCCCCCCCCC(=O)[O-]
REMARK SMILES IDX 12 1 11 2 10 3 9 4 8 5 7 6 6 7 5 8 4 9 3 10 2 11 1 12 13 13
REMARK SMILES IDX 14 14 15 15 16 16 17 17 18 18 19 19 20 20 21 21 22 22 23 23
REMARK SMILES IDX 24 24
REMARK H PARENT
REMARK Flexibility Score: inf
ROOT
ATOM      1  C   UNL     1      31.531   8.724 -30.189  1.00  0.00     0.000 C 
ENDROOT
BRANCH   1   2
ATOM      2  C   UNL     1      32.483   9.834 -29.723  1.00  0.00     0.000 C 
BRANCH   2   3
ATOM      3  C   UNL     1      32.264  10.227 -28.251  1.00  0.00     0.000 C 
BRANCH   3   4
ATOM      4  C   UNL     1      33.548  10.312 -27.402  1.00  0.00    -0.000 C 
BRANCH   4   5
ATOM      5  C   UNL     1      33.553  11.421 -26.331  1.00  0.00    -0.000 C 
BRANCH   5   6
ATOM      6  C   UNL     1      33.410  10.924 -24.882  1.00  0.00    -0.000 C 
BRANCH   6   7
ATOM      7  C   UNL     1      33.314   9.395 -24.781  1.00  0.00    -0.000 C 
BRANCH   7   8
ATOM      8  C   UNL     1      31.860   8.947 -24.577  1.00  0.00    -0.000 C 
BRANCH   8   9
ATOM      9  C   UNL     1      31.637   7.480 -25.003  1.00  0.00    -0.000 C 
BRANCH   9  10
ATOM     10  C   UNL     1      31.089   7.328 -26.433  1.00  0.00    -0.000 C 
BRANCH  10  11
ATOM     11  C   UNL     1      31.873   6.309 -27.271  1.00  0.00    -0.003 C 
ATOM     12  C   UNL     1      33.374   6.433 -27.025  1.00  0.00     0.004 C 
ENDBRANCH  10  11
ENDBRANCH   9  10
ENDBRANCH   8   9
ENDBRANCH   7   8
ENDBRANCH   6   7
ENDBRANCH   5   6
ENDBRANCH   4   5
ENDBRANCH   3   4
ENDBRANCH   2   3
ENDBRANCH   1   2
BRANCH   1  13
ATOM     13  C   UNL     1      32.308   7.568 -30.838  1.00  0.00     0.000 C 
BRANCH  13  14
ATOM     14  C   UNL     1      33.776   7.516 -30.385  1.00  0.00     0.000 C 
BRANCH  14  15
ATOM     15  C   UNL     1      34.760   7.583 -31.565  1.00  0.00     0.000 C 
BRANCH  15  16
ATOM     16  C   UNL     1      35.478   6.245 -31.806  1.00  0.00     0.000 C 
BRANCH  16  17
ATOM     17  C   UNL     1      35.164   5.644 -33.187  1.00  0.00     0.000 C 
BRANCH  17  18
ATOM     18  C   UNL     1      34.532   4.245 -33.076  1.00  0.00     0.000 C 
BRANCH  18  19
ATOM     19  C   UNL     1      33.133   4.270 -32.418  1.00  0.00     0.000 C 
BRANCH  19  20
ATOM     20  C   UNL     1      32.991   3.311 -31.222  1.00  0.00     0.006 C 
BRANCH  20  21
ATOM     21  C   UNL     1      33.239   3.979 -29.856  1.00  0.00     0.053 C 
BRANCH  21  22
ATOM     22  C   UNL     1      34.374   3.351 -29.103  1.00  0.00     0.041 C 
ATOM     23  O   UNL     1      34.160   2.394 -28.313  1.00  0.00    -0.550 OA
ATOM     24  O   UNL     1      35.662   3.854 -29.237  1.00  0.00    -0.550 OA
ENDBRANCH  21  22
ENDBRANCH  20  21
ENDBRANCH  19  20
ENDBRANCH  18  19
ENDBRANCH  17  18
ENDBRANCH  16  17
ENDBRANCH  15  16
ENDBRANCH  14  15
ENDBRANCH  13  14
ENDBRANCH   1  13
TORSDOF 20
ENDMDL
MODEL 6
REMARK VINA RESULT:    -3.027      4.028      8.121
REMARK INTER + INTRA:         -10.338
REMARK INTER:                  -7.478
REMARK INTRA:                  -2.860
REMARK UNBOUND:                -3.772
REMARK SMILES CCCCCCCCCCCCCCCCCCCCCC(=O)[O-]
REMARK SMILES IDX 12 1 11 2 10 3 9 4 8 5 7 6 6 7 5 8 4 9 3 10 2 11 1 12 13 13
REMARK SMILES IDX 14 14 15 15 16 16 17 17 18 18 19 19 20 20 21 21 22 22 23 23
REMARK SMILES IDX 24 24
REMARK H PARENT
REMARK Flexibility Score: inf
ROOT
ATOM      1  C   UNL     1      31.157  -0.076 -33.865  1.00  0.00     0.000 C 
ENDROOT
BRANCH   1   2
ATOM      2  C   UNL     1      32.349  -0.180 -32.903  1.00  0.00     0.000 C 
BRANCH   2   3
ATOM      3  C   UNL     1      33.072   1.163 -32.702  1.00  0.00     0.000 C 
BRANCH   3   4
ATOM      4  C   UNL     1      32.674   2.271 -33.697  1.00  0.00    -0.000 C 
BRANCH   4   5
ATOM      5  C   UNL     1      33.113   3.696 -33.302  1.00  0.00    -0.000 C 
BRANCH   5   6
ATOM      6  C   UNL     1      34.625   3.961 -33.406  1.00  0.00    -0.000 C 
BRANCH   6   7
ATOM      7  C   UNL     1      34.973   5.456 -33.371  1.00  0.00    -0.000 C 
BRANCH   7   8
ATOM      8  C   UNL     1      34.621   6.072 -32.010  1.00  0.00    -0.000 C 
BRANCH   8   9
ATOM      9  C   UNL     1      35.804   6.011 -31.020  1.00  0.00    -0.000 C 
BRANCH   9  10
ATOM     10  C   UNL     1      35.501   5.205 -29.744  1.00  0.00    -0.000 C 
BRANCH  10  11
ATOM     11  C   UNL     1      34.056   4.691 -29.688  1.00  0.00    -0.003 C 
ATOM     12  C   UNL     1      34.015   3.166 -29.669  1.00  0.00     0.004 C 
ENDBRANCH  10  11
ENDBRANCH   9  10
ENDBRANCH   8   9
ENDBRANCH   7   8
ENDBRANCH   6   7
ENDBRANCH   5   6
ENDBRANCH   4   5
ENDBRANCH   3   4
ENDBRANCH   2   3
ENDBRANCH   1   2
BRANCH   1  13
ATOM     13  C   UNL     1      31.312  -1.051 -35.042  1.00  0.00     0.000 C 
BRANCH  13  14
ATOM     14  C   UNL     1      32.567  -1.929 -34.919  1.00  0.00     0.000 C 
BRANCH  14  15
ATOM     15  C   UNL     1      33.500  -1.799 -36.135  1.00  0.00     0.000 C 
BRANCH  15  16
ATOM     16  C   UNL     1      33.800  -0.333 -36.490  1.00  0.00     0.000 C 
BRANCH  16  17
ATOM     17  C   UNL     1      33.556  -0.022 -37.977  1.00  0.00     0.000 C 
BRANCH  17  18
ATOM     18  C   UNL     1      32.592  -1.030 -38.626  1.00  0.00     0.000 C 
BRANCH  18  19
ATOM     19  C   UNL     1      31.172  -0.454 -38.833  1.00  0.00     0.000 C 
BRANCH  19  20
ATOM     20  C   UNL     1      31.096   1.078 -38.695  1.00  0.00     0.006 C 
BRANCH  20  21
ATOM     21  C   UNL     1      30.166   1.556 -37.564  1.00  0.00     0.053 C 
BRANCH  21  22
ATOM     22  C   UNL     1      28.867   2.104 -38.074  1.00  0.00     0.041 C 
ATOM     23  O   UNL     1      27.846   1.370 -38.134  1.00  0.00    -0.550 OA
ATOM     24  O   UNL     1      28.795   3.415 -38.529  1.00  0.00    -0.550 OA
ENDBRANCH  21  22
ENDBRANCH  20  21
ENDBRANCH  19  20
ENDBRANCH  18  19
ENDBRANCH  17  18
ENDBRANCH  16  17
ENDBRANCH  15  16
ENDBRANCH  14  15
ENDBRANCH  13  14
ENDBRANCH   1  13
TORSDOF 20
ENDMDL
MODEL 7
REMARK VINA RESULT:    -2.990      4.502      7.260
REMARK INTER + INTRA:         -10.258
REMARK INTER:                  -7.146
REMARK INTRA:                  -3.112
REMARK UNBOUND:                -3.772
REMARK SMILES CCCCCCCCCCCCCCCCCCCCCC(=O)[O-]
REMARK SMILES IDX 12 1 11 2 10 3 9 4 8 5 7 6 6 7 5 8 4 9 3 10 2 11 1 12 13 13
REMARK SMILES IDX 14 14 15 15 16 16 17 17 18 18 19 19 20 20 21 21 22 22 23 23
REMARK SMILES IDX 24 24
REMARK H PARENT
REMARK Flexibility Score: inf
ROOT
ATOM      1  C   UNL     1      30.107  -0.949 -35.571  1.00  0.00     0.000 C 
ENDROOT
BRANCH   1   2
ATOM      2  C   UNL     1      29.869   0.221 -36.537  1.00  0.00     0.000 C 
BRANCH   2   3
ATOM      3  C   UNL     1      29.504  -0.243 -37.958  1.00  0.00     0.000 C 
BRANCH   3   4
ATOM      4  C   UNL     1      30.622  -0.073 -39.005  1.00  0.00    -0.000 C 
BRANCH   4   5
ATOM      5  C   UNL     1      31.782   0.849 -38.581  1.00  0.00    -0.000 C 
BRANCH   5   6
ATOM      6  C   UNL     1      33.107   0.127 -38.277  1.00  0.00    -0.000 C 
BRANCH   6   7
ATOM      7  C   UNL     1      33.059  -1.372 -38.605  1.00  0.00    -0.000 C 
BRANCH   7   8
ATOM      8  C   UNL     1      33.531  -2.212 -37.409  1.00  0.00    -0.000 C 
BRANCH   8   9
ATOM      9  C   UNL     1      32.502  -3.293 -37.015  1.00  0.00    -0.000 C 
BRANCH   9  10
ATOM     10  C   UNL     1      31.394  -3.504 -38.062  1.00  0.00    -0.000 C 
BRANCH  10  11
ATOM     11  C   UNL     1      30.956  -4.969 -38.186  1.00  0.00    -0.003 C 
ATOM     12  C   UNL     1      31.986  -5.906 -37.561  1.00  0.00     0.004 C 
ENDBRANCH  10  11
ENDBRANCH   9  10
ENDBRANCH   8   9
ENDBRANCH   7   8
ENDBRANCH   6   7
ENDBRANCH   5   6
ENDBRANCH   4   5
ENDBRANCH   3   4
ENDBRANCH   2   3
ENDBRANCH   1   2
BRANCH   1  13
ATOM     13  C   UNL     1      31.273  -0.649 -34.618  1.00  0.00     0.000 C 
BRANCH  13  14
ATOM     14  C   UNL     1      31.829   0.773 -34.794  1.00  0.00     0.000 C 
BRANCH  14  15
ATOM     15  C   UNL     1      33.363   0.823 -34.701  1.00  0.00     0.000 C 
BRANCH  15  16
ATOM     16  C   UNL     1      33.860   1.984 -33.825  1.00  0.00     0.000 C 
BRANCH  16  17
ATOM     17  C   UNL     1      32.716   2.891 -33.337  1.00  0.00     0.000 C 
BRANCH  17  18
ATOM     18  C   UNL     1      33.166   4.354 -33.184  1.00  0.00     0.000 C 
BRANCH  18  19
ATOM     19  C   UNL     1      34.704   4.507 -33.140  1.00  0.00     0.000 C 
BRANCH  19  20
ATOM     20  C   UNL     1      35.191   5.633 -32.210  1.00  0.00     0.006 C 
BRANCH  20  21
ATOM     21  C   UNL     1      34.428   5.711 -30.875  1.00  0.00     0.053 C 
BRANCH  21  22
ATOM     22  C   UNL     1      34.921   4.718 -29.866  1.00  0.00     0.041 C 
ATOM     23  O   UNL     1      35.870   5.014 -29.093  1.00  0.00    -0.550 OA
ATOM     24  O   UNL     1      34.364   3.446 -29.809  1.00  0.00    -0.550 OA
ENDBRANCH  21  22
ENDBRANCH  20  21
ENDBRANCH  19  20
ENDBRANCH  18  19
ENDBRANCH  17  18
ENDBRANCH  16  17
ENDBRANCH  15  16
ENDBRANCH  14  15
ENDBRANCH  13  14
ENDBRANCH   1  13
TORSDOF 20
ENDMDL
MODEL 8
REMARK VINA RESULT:    -2.974      2.978      5.821
REMARK INTER + INTRA:         -10.223
REMARK INTER:                  -6.058
REMARK INTRA:                  -4.164
REMARK UNBOUND:                -3.772
REMARK SMILES CCCCCCCCCCCCCCCCCCCCCC(=O)[O-]
REMARK SMILES IDX 12 1 11 2 10 3 9 4 8 5 7 6 6 7 5 8 4 9 3 10 2 11 1 12 13 13
REMARK SMILES IDX 14 14 15 15 16 16 17 17 18 18 19 19 20 20 21 21 22 22 23 23
REMARK SMILES IDX 24 24
REMARK H PARENT
REMARK Flexibility Score: inf
ROOT
ATOM      1  C   UNL     1      29.694  -1.363 -39.532  1.00  0.00     0.000 C 
ENDROOT
BRANCH   1   2
ATOM      2  C   UNL     1      30.680  -1.161 -38.371  1.00  0.00     0.000 C 
BRANCH   2   3
ATOM      3  C   UNL     1      31.696  -0.038 -38.642  1.00  0.00     0.000 C 
BRANCH   3   4
ATOM      4  C   UNL     1      33.049  -0.198 -37.921  1.00  0.00    -0.000 C 
BRANCH   4   5
ATOM      5  C   UNL     1      33.504  -1.654 -37.695  1.00  0.00    -0.000 C 
BRANCH   5   6
ATOM      6  C   UNL     1      33.541  -2.101 -36.223  1.00  0.00    -0.000 C 
BRANCH   6   7
ATOM      7  C   UNL     1      32.416  -3.083 -35.868  1.00  0.00    -0.000 C 
BRANCH   7   8
ATOM      8  C   UNL     1      31.665  -2.630 -34.608  1.00  0.00    -0.000 C 
BRANCH   8   9
ATOM      9  C   UNL     1      31.808  -1.113 -34.358  1.00  0.00    -0.000 C 
BRANCH   9  10
ATOM     10  C   UNL     1      30.573  -0.298 -34.782  1.00  0.00    -0.000 C 
BRANCH  10  11
ATOM     11  C   UNL     1      30.912   1.148 -35.166  1.00  0.00    -0.003 C 
ATOM     12  C   UNL     1      32.300   1.539 -34.667  1.00  0.00     0.004 C 
ENDBRANCH  10  11
ENDBRANCH   9  10
ENDBRANCH   8   9
ENDBRANCH   7   8
ENDBRANCH   6   7
ENDBRANCH   5   6
ENDBRANCH   4   5
ENDBRANCH   3   4
ENDBRANCH   2   3
ENDBRANCH   1   2
BRANCH   1  13
ATOM     13  C   UNL     1      29.803  -2.783 -40.107  1.00  0.00     0.000 C 
BRANCH  13  14
ATOM     14  C   UNL     1      30.922  -3.603 -39.446  1.00  0.00     0.000 C 
BRANCH  14  15
ATOM     15  C   UNL     1      30.380  -4.683 -38.494  1.00  0.00     0.000 C 
BRANCH  15  16
ATOM     16  C   UNL     1      28.905  -5.020 -38.769  1.00  0.00     0.000 C 
BRANCH  16  17
ATOM     17  C   UNL     1      27.976  -4.595 -37.619  1.00  0.00     0.000 C 
BRANCH  17  18
ATOM     18  C   UNL     1      28.730  -3.819 -36.525  1.00  0.00     0.000 C 
BRANCH  18  19
ATOM     19  C   UNL     1      28.024  -2.502 -36.128  1.00  0.00     0.000 C 
BRANCH  19  20
ATOM     20  C   UNL     1      27.414  -2.525 -34.715  1.00  0.00     0.006 C 
BRANCH  20  21
ATOM     21  C   UNL     1      25.881  -2.375 -34.696  1.00  0.00     0.053 C 
BRANCH  21  22
ATOM     22  C   UNL     1      25.169  -3.688 -34.825  1.00  0.00     0.041 C 
ATOM     23  O   UNL     1      23.939  -3.721 -35.093  1.00  0.00    -0.550 OA
ATOM     24  O   UNL     1      25.853  -4.877 -34.604  1.00  0.00    -0.550 OA
ENDBRANCH  21  22
ENDBRANCH  20  21
ENDBRANCH  19  20
ENDBRANCH  18  19
ENDBRANCH  17  18
ENDBRANCH  16  17
ENDBRANCH  15  16
ENDBRANCH  14  15
ENDBRANCH  13  14
ENDBRANCH   1  13
TORSDOF 20
ENDMDL
MODEL 9
REMARK VINA RESULT:    -2.940      2.812      4.099
REMARK INTER + INTRA:         -10.149
REMARK INTER:                  -6.487
REMARK INTRA:                  -3.661
REMARK UNBOUND:                -3.772
REMARK SMILES CCCCCCCCCCCCCCCCCCCCCC(=O)[O-]
REMARK SMILES IDX 12 1 11 2 10 3 9 4 8 5 7 6 6 7 5 8 4 9 3 10 2 11 1 12 13 13
REMARK SMILES IDX 14 14 15 15 16 16 17 17 18 18 19 19 20 20 21 21 22 22 23 23
REMARK SMILES IDX 24 24
REMARK H PARENT
REMARK Flexibility Score: inf
ROOT
ATOM      1  C   UNL     1      33.145  -2.005 -35.824  1.00  0.00     0.000 C 
ENDROOT
BRANCH   1   2
ATOM      2  C   UNL     1      31.644  -2.307 -35.707  1.00  0.00     0.000 C 
BRANCH   2   3
ATOM      3  C   UNL     1      31.356  -3.791 -35.421  1.00  0.00     0.000 C 
BRANCH   3   4
ATOM      4  C   UNL     1      32.472  -4.765 -35.847  1.00  0.00    -0.000 C 
BRANCH   4   5
ATOM      5  C   UNL     1      32.335  -5.335 -37.273  1.00  0.00    -0.000 C 
BRANCH   5   6
ATOM      6  C   UNL     1      30.888  -5.522 -37.761  1.00  0.00    -0.000 C 
BRANCH   6   7
ATOM      7  C   UNL     1      30.562  -4.679 -39.002  1.00  0.00    -0.000 C 
BRANCH   7   8
ATOM      8  C   UNL     1      29.169  -4.043 -38.886  1.00  0.00    -0.000 C 
BRANCH   8   9
ATOM      9  C   UNL     1      28.302  -4.732 -37.811  1.00  0.00    -0.000 C 
BRANCH   9  10
ATOM     10  C   UNL     1      27.519  -3.749 -36.924  1.00  0.00    -0.000 C 
BRANCH  10  11
ATOM     11  C   UNL     1      27.892  -2.282 -37.181  1.00  0.00    -0.003 C 
ATOM     12  C   UNL     1      28.090  -1.527 -35.869  1.00  0.00     0.004 C 
ENDBRANCH  10  11
ENDBRANCH   9  10
ENDBRANCH   8   9
ENDBRANCH   7   8
ENDBRANCH   6   7
ENDBRANCH   5   6
ENDBRANCH   4   5
ENDBRANCH   3   4
ENDBRANCH   2   3
ENDBRANCH   1   2
BRANCH   1  13
ATOM     13  C   UNL     1      33.443  -1.170 -37.078  1.00  0.00     0.000 C 
BRANCH  13  14
ATOM     14  C   UNL     1      32.941  -1.842 -38.367  1.00  0.00     0.000 C 
BRANCH  14  15
ATOM     15  C   UNL     1      31.688  -1.157 -38.939  1.00  0.00     0.000 C 
BRANCH  15  16
ATOM     16  C   UNL     1      31.549   0.299 -38.468  1.00  0.00     0.000 C 
BRANCH  16  17
ATOM     17  C   UNL     1      30.091   0.686 -38.161  1.00  0.00     0.000 C 
BRANCH  17  18
ATOM     18  C   UNL     1      29.976   1.523 -36.875  1.00  0.00     0.000 C 
BRANCH  18  19
ATOM     19  C   UNL     1      31.220   1.398 -35.965  1.00  0.00     0.000 C 
BRANCH  19  20
ATOM     20  C   UNL     1      31.233   2.392 -34.790  1.00  0.00     0.006 C 
BRANCH  20  21
ATOM     21  C   UNL     1      32.559   2.413 -34.007  1.00  0.00     0.053 C 
BRANCH  21  22
ATOM     22  C   UNL     1      32.565   3.429 -32.904  1.00  0.00     0.041 C 
ATOM     23  O   UNL     1      33.654   3.829 -32.413  1.00  0.00    -0.550 OA
ATOM     24  O   UNL     1      31.366   3.902 -32.384  1.00  0.00    -0.550 OA
ENDBRANCH  21  22
ENDBRANCH  20  21
ENDBRANCH  19  20
ENDBRANCH  18  19
ENDBRANCH  17  18
ENDBRANCH  16  17
ENDBRANCH  15  16
ENDBRANCH  14  15
ENDBRANCH  13  14
ENDBRANCH   1  13
TORSDOF 20
ENDMDL
