MODEL 1
REMARK VINA RESULT:    -4.694      0.000      0.000
REMARK INTER + INTRA:         -13.959
REMARK INTER:                 -10.730
REMARK INTRA:                  -3.228
REMARK UNBOUND:                -3.228
REMARK SMILES CCCCCCCCCCCCCCCCCCCCCCCC(=O)[O-]
REMARK SMILES IDX 13 1 14 2 15 3 16 4 17 5 18 6 19 7 20 8 21 9 22 10 23 11
REMARK SMILES IDX 24 12 25 13 26 14 12 15 11 16 10 17 9 18 8 19 7 20 6 21 5 22
REMARK SMILES IDX 4 23 3 24 2 25 1 26
REMARK H PARENT
REMARK Flexibility Score: inf
ROOT
ATOM      1  C   UNL     1      11.664   0.187   0.791  1.00  0.00     0.000 C 
ENDROOT
BRANCH   1   2
ATOM      2  C   UNL     1      11.805  -1.159   0.065  1.00  0.00     0.000 C 
BRANCH   2   3
ATOM      3  C   UNL     1      10.971  -2.248   0.757  1.00  0.00     0.000 C 
BRANCH   3   4
ATOM      4  C   UNL     1      10.906  -3.559  -0.047  1.00  0.00     0.000 C 
BRANCH   4   5
ATOM      5  C   UNL     1       9.498  -4.166  -0.189  1.00  0.00     0.000 C 
BRANCH   5   6
ATOM      6  C   UNL     1       9.519  -5.623  -0.675  1.00  0.00     0.000 C 
BRANCH   6   7
ATOM      7  C   UNL     1      10.950  -6.066  -1.008  1.00  0.00     0.000 C 
BRANCH   7   8
ATOM      8  C   UNL     1      11.412  -7.191  -0.068  1.00  0.00     0.000 C 
BRANCH   8   9
ATOM      9  C   UNL     1      12.943  -7.324  -0.015  1.00  0.00     0.000 C 
BRANCH   9  10
ATOM     10  C   UNL     1      13.494  -7.258   1.420  1.00  0.00     0.006 C 
BRANCH  10  11
ATOM     11  C   UNL     1      12.664  -8.103   2.396  1.00  0.00     0.053 C 
BRANCH  11  12
ATOM     12  C   UNL     1      13.452  -9.257   2.935  1.00  0.00     0.041 C 
ATOM     13  O   UNL     1      12.982  -9.968   3.863  1.00  0.00    -0.550 OA
ATOM     14  O   UNL     1      14.717  -9.533   2.432  1.00  0.00    -0.550 OA
ENDBRANCH  11  12
ENDBRANCH  10  11
ENDBRANCH   9  10
ENDBRANCH   8   9
ENDBRANCH   7   8
ENDBRANCH   6   7
ENDBRANCH   5   6
ENDBRANCH   4   5
ENDBRANCH   3   4
ENDBRANCH   2   3
ENDBRANCH   1   2
BRANCH   1  15
ATOM     15  C   UNL     1      10.823   0.082   2.073  1.00  0.00     0.000 C 
BRANCH  15  16
ATOM     16  C   UNL     1      11.498   0.749   3.281  1.00  0.00     0.000 C 
BRANCH  16  17
ATOM     17  C   UNL     1      12.818   0.050   3.628  1.00  0.00     0.000 C 
BRANCH  17  18
ATOM     18  C   UNL     1      12.566  -1.353   4.201  1.00  0.00    -0.000 C 
BRANCH  18  19
ATOM     19  C   UNL     1      13.798  -2.272   4.060  1.00  0.00    -0.000 C 
BRANCH  19  20
ATOM     20  C   UNL     1      13.844  -3.040   2.728  1.00  0.00    -0.000 C 
BRANCH  20  21
ATOM     21  C   UNL     1      15.021  -2.615   1.834  1.00  0.00    -0.000 C 
BRANCH  21  22
ATOM     22  C   UNL     1      16.021  -1.707   2.568  1.00  0.00    -0.000 C 
BRANCH  22  23
ATOM     23  C   UNL     1      16.378  -0.447   1.759  1.00  0.00    -0.000 C 
BRANCH  23  24
ATOM     24  C   UNL     1      15.382  -0.170   0.624  1.00  0.00    -0.000 C 
BRANCH  24  25
ATOM     25  C   UNL     1      15.972  -0.456  -0.765  1.00  0.00    -0.003 C 
ATOM     26  C   UNL     1      14.882  -0.477  -1.832  1.00  0.00     0.004 C 
ENDBRANCH  24  25
ENDBRANCH  23  24
ENDBRANCH  22  23
ENDBRANCH  21  22
ENDBRANCH  20  21
ENDBRANCH  19  20
ENDBRANCH  18  19
ENDBRANCH  17  18
ENDBRANCH  16  17
ENDBRANCH  15  16
ENDBRANCH   1  15
TORSDOF 22
ENDMDL
MODEL 2
REMARK VINA RESULT:    -4.428      4.554      5.696
REMARK INTER + INTRA:         -13.352
REMARK INTER:                 -10.939
REMARK INTRA:                  -2.414
REMARK UNBOUND:                -3.228
REMARK SMILES CCCCCCCCCCCCCCCCCCCCCCCC(=O)[O-]
REMARK SMILES IDX 13 1 14 2 15 3 16 4 17 5 18 6 19 7 20 8 21 9 22 10 23 11
REMARK SMILES IDX 24 12 25 13 26 14 12 15 11 16 10 17 9 18 8 19 7 20 6 21 5 22
REMARK SMILES IDX 4 23 3 24 2 25 1 26
REMARK H PARENT
REMARK Flexibility Score: inf
ROOT
ATOM      1  C   UNL     1      11.402   0.119   0.758  1.00  0.00     0.000 C 
ENDROOT
BRANCH   1   2
ATOM      2  C   UNL     1      11.694  -1.204   0.035  1.00  0.00     0.000 C 
BRANCH   2   3
ATOM      3  C   UNL     1      10.975  -2.376   0.720  1.00  0.00     0.000 C 
BRANCH   3   4
ATOM      4  C   UNL     1      10.682  -3.545  -0.239  1.00  0.00     0.000 C 
BRANCH   4   5
ATOM      5  C   UNL     1       9.299  -4.200  -0.061  1.00  0.00     0.000 C 
BRANCH   5   6
ATOM      6  C   UNL     1       9.055  -5.358  -1.040  1.00  0.00     0.000 C 
BRANCH   6   7
ATOM      7  C   UNL     1       7.945  -5.005  -2.038  1.00  0.00     0.000 C 
BRANCH   7   8
ATOM      8  C   UNL     1       8.177  -5.699  -3.390  1.00  0.00     0.000 C 
BRANCH   8   9
ATOM      9  C   UNL     1       7.309  -5.110  -4.513  1.00  0.00     0.000 C 
BRANCH   9  10
ATOM     10  C   UNL     1       8.084  -4.932  -5.830  1.00  0.00     0.006 C 
BRANCH  10  11
ATOM     11  C   UNL     1       8.216  -6.250  -6.604  1.00  0.00     0.053 C 
BRANCH  11  12
ATOM     12  C   UNL     1       7.246  -6.322  -7.743  1.00  0.00     0.041 C 
ATOM     13  O   UNL     1       6.497  -5.343  -8.001  1.00  0.00    -0.550 OA
ATOM     14  O   UNL     1       7.151  -7.480  -8.503  1.00  0.00    -0.550 OA
ENDBRANCH  11  12
ENDBRANCH  10  11
ENDBRANCH   9  10
ENDBRANCH   8   9
ENDBRANCH   7   8
ENDBRANCH   6   7
ENDBRANCH   5   6
ENDBRANCH   4   5
ENDBRANCH   3   4
ENDBRANCH   2   3
ENDBRANCH   1   2
BRANCH   1  15
ATOM     15  C   UNL     1      10.213   0.014   1.727  1.00  0.00     0.000 C 
BRANCH  15  16
ATOM     16  C   UNL     1      10.618   0.250   3.190  1.00  0.00     0.000 C 
BRANCH  16  17
ATOM     17  C   UNL     1      12.090   0.667   3.291  1.00  0.00     0.000 C 
BRANCH  17  18
ATOM     18  C   UNL     1      12.858  -0.245   4.260  1.00  0.00    -0.000 C 
BRANCH  18  19
ATOM     19  C   UNL     1      12.731  -1.736   3.884  1.00  0.00    -0.000 C 
BRANCH  19  20
ATOM     20  C   UNL     1      13.850  -2.235   2.955  1.00  0.00    -0.000 C 
BRANCH  20  21
ATOM     21  C   UNL     1      15.228  -2.258   3.639  1.00  0.00    -0.000 C 
BRANCH  21  22
ATOM     22  C   UNL     1      16.340  -1.691   2.743  1.00  0.00    -0.000 C 
BRANCH  22  23
ATOM     23  C   UNL     1      16.094  -0.222   2.354  1.00  0.00    -0.000 C 
BRANCH  23  24
ATOM     24  C   UNL     1      16.302   0.035   0.854  1.00  0.00    -0.000 C 
BRANCH  24  25
ATOM     25  C   UNL     1      15.002  -0.089   0.046  1.00  0.00    -0.003 C 
ATOM     26  C   UNL     1      15.291  -0.448  -1.409  1.00  0.00     0.004 C 
ENDBRANCH  24  25
ENDBRANCH  23  24
ENDBRANCH  22  23
ENDBRANCH  21  22
ENDBRANCH  20  21
ENDBRANCH  19  20
ENDBRANCH  18  19
ENDBRANCH  17  18
ENDBRANCH  16  17
ENDBRANCH  15  16
ENDBRANCH   1  15
TORSDOF 22
ENDMDL
MODEL 3
REMARK VINA RESULT:    -4.415      2.713      4.823
REMARK INTER + INTRA:         -13.321
REMARK INTER:                  -9.957
REMARK INTRA:                  -3.365
REMARK UNBOUND:                -3.228
REMARK SMILES CCCCCCCCCCCCCCCCCCCCCCCC(=O)[O-]
REMARK SMILES IDX 13 1 14 2 15 3 16 4 17 5 18 6 19 7 20 8 21 9 22 10 23 11
REMARK SMILES IDX 24 12 25 13 26 14 12 15 11 16 10 17 9 18 8 19 7 20 6 21 5 22
REMARK SMILES IDX 4 23 3 24 2 25 1 26
REMARK H PARENT
REMARK Flexibility Score: inf
ROOT
ATOM      1  C   UNL     1      14.313  -4.302   1.617  1.00  0.00     0.000 C 
ENDROOT
BRANCH   1   2
ATOM      2  C   UNL     1      13.494  -5.550   1.259  1.00  0.00     0.000 C 
BRANCH   2   3
ATOM      3  C   UNL     1      14.413  -6.741   0.949  1.00  0.00     0.000 C 
BRANCH   3   4
ATOM      4  C   UNL     1      13.777  -8.100   1.298  1.00  0.00     0.000 C 
BRANCH   4   5
ATOM      5  C   UNL     1      12.429  -8.015   2.039  1.00  0.00     0.000 C 
BRANCH   5   6
ATOM      6  C   UNL     1      11.457  -9.137   1.644  1.00  0.00     0.000 C 
BRANCH   6   7
ATOM      7  C   UNL     1      11.780  -9.671   0.242  1.00  0.00     0.000 C 
BRANCH   7   8
ATOM      8  C   UNL     1      10.673  -9.302  -0.758  1.00  0.00     0.000 C 
BRANCH   8   9
ATOM      9  C   UNL     1      10.799  -7.860  -1.274  1.00  0.00     0.000 C 
BRANCH   9  10
ATOM     10  C   UNL     1       9.646  -6.959  -0.801  1.00  0.00     0.006 C 
BRANCH  10  11
ATOM     11  C   UNL     1      10.068  -5.487  -0.701  1.00  0.00     0.053 C 
BRANCH  11  12
ATOM     12  C   UNL     1       8.881  -4.577  -0.611  1.00  0.00     0.041 C 
ATOM     13  O   UNL     1       8.726  -3.835   0.395  1.00  0.00    -0.550 OA
ATOM     14  O   UNL     1       7.935  -4.565  -1.627  1.00  0.00    -0.550 OA
ENDBRANCH  11  12
ENDBRANCH  10  11
ENDBRANCH   9  10
ENDBRANCH   8   9
ENDBRANCH   7   8
ENDBRANCH   6   7
ENDBRANCH   5   6
ENDBRANCH   4   5
ENDBRANCH   3   4
ENDBRANCH   2   3
ENDBRANCH   1   2
BRANCH   1  15
ATOM     15  C   UNL     1      13.496  -3.263   2.404  1.00  0.00     0.000 C 
BRANCH  15  16
ATOM     16  C   UNL     1      14.382  -2.269   3.169  1.00  0.00     0.000 C 
BRANCH  16  17
ATOM     17  C   UNL     1      13.615  -1.632   4.333  1.00  0.00     0.000 C 
BRANCH  17  18
ATOM     18  C   UNL     1      13.498  -0.111   4.152  1.00  0.00    -0.000 C 
BRANCH  18  19
ATOM     19  C   UNL     1      12.033   0.372   4.200  1.00  0.00    -0.000 C 
BRANCH  19  20
ATOM     20  C   UNL     1      11.370   0.467   2.815  1.00  0.00    -0.000 C 
BRANCH  20  21
ATOM     21  C   UNL     1      10.650  -0.829   2.408  1.00  0.00    -0.000 C 
BRANCH  21  22
ATOM     22  C   UNL     1      10.881  -1.195   0.933  1.00  0.00    -0.000 C 
BRANCH  22  23
ATOM     23  C   UNL     1      11.779  -0.178   0.206  1.00  0.00    -0.000 C 
BRANCH  23  24
ATOM     24  C   UNL     1      13.077  -0.806  -0.322  1.00  0.00    -0.000 C 
BRANCH  24  25
ATOM     25  C   UNL     1      14.334  -0.188   0.308  1.00  0.00    -0.003 C 
ATOM     26  C   UNL     1      15.596  -0.904  -0.165  1.00  0.00     0.004 C 
ENDBRANCH  24  25
ENDBRANCH  23  24
ENDBRANCH  22  23
ENDBRANCH  21  22
ENDBRANCH  20  21
ENDBRANCH  19  20
ENDBRANCH  18  19
ENDBRANCH  17  18
ENDBRANCH  16  17
ENDBRANCH  15  16
ENDBRANCH   1  15
TORSDOF 22
ENDMDL
MODEL 4
REMARK VINA RESULT:    -4.404      3.351      4.124
REMARK INTER + INTRA:         -13.296
REMARK INTER:                 -10.665
REMARK INTRA:                  -2.631
REMARK UNBOUND:                -3.228
REMARK SMILES CCCCCCCCCCCCCCCCCCCCCCCC(=O)[O-]
REMARK SMILES IDX 13 1 14 2 15 3 16 4 17 5 18 6 19 7 20 8 21 9 22 10 23 11
REMARK SMILES IDX 24 12 25 13 26 14 12 15 11 16 10 17 9 18 8 19 7 20 6 21 5 22
REMARK SMILES IDX 4 23 3 24 2 25 1 26
REMARK H PARENT
REMARK Flexibility Score: inf
ROOT
ATOM      1  C   UNL     1      11.345  -0.082   0.504  1.00  0.00     0.000 C 
ENDROOT
BRANCH   1   2
ATOM      2  C   UNL     1      11.073  -1.551   0.859  1.00  0.00     0.000 C 
BRANCH   2   3
ATOM      3  C   UNL     1      12.034  -2.486   0.110  1.00  0.00     0.000 C 
BRANCH   3   4
ATOM      4  C   UNL     1      11.531  -3.940   0.045  1.00  0.00     0.000 C 
BRANCH   4   5
ATOM      5  C   UNL     1      10.035  -4.096  -0.288  1.00  0.00     0.000 C 
BRANCH   5   6
ATOM      6  C   UNL     1       9.689  -5.479  -0.858  1.00  0.00     0.000 C 
BRANCH   6   7
ATOM      7  C   UNL     1      10.669  -6.542  -0.345  1.00  0.00     0.000 C 
BRANCH   7   8
ATOM      8  C   UNL     1      11.299  -7.320  -1.511  1.00  0.00     0.000 C 
BRANCH   8   9
ATOM      9  C   UNL     1      10.462  -7.236  -2.798  1.00  0.00     0.000 C 
BRANCH   9  10
ATOM     10  C   UNL     1      11.057  -8.067  -3.947  1.00  0.00     0.006 C 
BRANCH  10  11
ATOM     11  C   UNL     1      12.197  -7.330  -4.663  1.00  0.00     0.053 C 
BRANCH  11  12
ATOM     12  C   UNL     1      11.804  -6.918  -6.048  1.00  0.00     0.041 C 
ATOM     13  O   UNL     1      12.641  -6.975  -6.988  1.00  0.00    -0.550 OA
ATOM     14  O   UNL     1      10.521  -6.448  -6.297  1.00  0.00    -0.550 OA
ENDBRANCH  11  12
ENDBRANCH  10  11
ENDBRANCH   9  10
ENDBRANCH   8   9
ENDBRANCH   7   8
ENDBRANCH   6   7
ENDBRANCH   5   6
ENDBRANCH   4   5
ENDBRANCH   3   4
ENDBRANCH   2   3
ENDBRANCH   1   2
BRANCH   1  15
ATOM     15  C   UNL     1      11.618   0.786   1.743  1.00  0.00     0.000 C 
BRANCH  15  16
ATOM     16  C   UNL     1      10.884   0.281   2.994  1.00  0.00     0.000 C 
BRANCH  16  17
ATOM     17  C   UNL     1      11.683   0.595   4.264  1.00  0.00     0.000 C 
BRANCH  17  18
ATOM     18  C   UNL     1      13.035  -0.135   4.261  1.00  0.00    -0.000 C 
BRANCH  18  19
ATOM     19  C   UNL     1      12.898  -1.617   3.857  1.00  0.00    -0.000 C 
BRANCH  19  20
ATOM     20  C   UNL     1      14.197  -2.424   4.021  1.00  0.00    -0.000 C 
BRANCH  20  21
ATOM     21  C   UNL     1      15.396  -1.777   3.307  1.00  0.00    -0.000 C 
BRANCH  21  22
ATOM     22  C   UNL     1      15.130  -1.532   1.814  1.00  0.00    -0.000 C 
BRANCH  22  23
ATOM     23  C   UNL     1      15.220  -0.042   1.435  1.00  0.00    -0.000 C 
BRANCH  23  24
ATOM     24  C   UNL     1      16.014   0.193   0.141  1.00  0.00    -0.000 C 
BRANCH  24  25
ATOM     25  C   UNL     1      15.695  -0.843  -0.947  1.00  0.00    -0.003 C 
ATOM     26  C   UNL     1      14.497  -0.409  -1.786  1.00  0.00     0.004 C 
ENDBRANCH  24  25
ENDBRANCH  23  24
ENDBRANCH  22  23
ENDBRANCH  21  22
ENDBRANCH  20  21
ENDBRANCH  19  20
ENDBRANCH  18  19
ENDBRANCH  17  18
ENDBRANCH  16  17
ENDBRANCH  15  16
ENDBRANCH   1  15
TORSDOF 22
ENDMDL
MODEL 5
REMARK VINA RESULT:    -4.357      4.183      5.947
REMARK INTER + INTRA:         -13.189
REMARK INTER:                 -10.589
REMARK INTRA:                  -2.600
REMARK UNBOUND:                -3.228
REMARK SMILES CCCCCCCCCCCCCCCCCCCCCCCC(=O)[O-]
REMARK SMILES IDX 13 1 14 2 15 3 16 4 17 5 18 6 19 7 20 8 21 9 22 10 23 11
REMARK SMILES IDX 24 12 25 13 26 14 12 15 11 16 10 17 9 18 8 19 7 20 6 21 5 22
REMARK SMILES IDX 4 23 3 24 2 25 1 26
REMARK H PARENT
REMARK Flexibility Score: inf
ROOT
ATOM      1  C   UNL     1      11.431  -3.281   0.077  1.00  0.00     0.000 C 
ENDROOT
BRANCH   1   2
ATOM      2  C   UNL     1      10.163  -4.049  -0.326  1.00  0.00     0.000 C 
BRANCH   2   3
ATOM      3  C   UNL     1      10.494  -5.505  -0.688  1.00  0.00     0.000 C 
BRANCH   3   4
ATOM      4  C   UNL     1       9.258  -6.311  -1.128  1.00  0.00     0.000 C 
BRANCH   4   5
ATOM      5  C   UNL     1       8.190  -5.501  -1.887  1.00  0.00     0.000 C 
BRANCH   5   6
ATOM      6  C   UNL     1       8.116  -5.858  -3.379  1.00  0.00     0.000 C 
BRANCH   6   7
ATOM      7  C   UNL     1       7.264  -4.837  -4.144  1.00  0.00     0.000 C 
BRANCH   7   8
ATOM      8  C   UNL     1       6.009  -5.498  -4.735  1.00  0.00     0.000 C 
BRANCH   8   9
ATOM      9  C   UNL     1       6.120  -5.724  -6.251  1.00  0.00     0.000 C 
BRANCH   9  10
ATOM     10  C   UNL     1       7.432  -5.176  -6.838  1.00  0.00     0.006 C 
BRANCH  10  11
ATOM     11  C   UNL     1       8.344  -6.296  -7.356  1.00  0.00     0.053 C 
BRANCH  11  12
ATOM     12  C   UNL     1       9.685  -6.271  -6.688  1.00  0.00     0.041 C 
ATOM     13  O   UNL     1      10.449  -5.280  -6.837  1.00  0.00    -0.550 OA
ATOM     14  O   UNL     1      10.100  -7.351  -5.921  1.00  0.00    -0.550 OA
ENDBRANCH  11  12
ENDBRANCH  10  11
ENDBRANCH   9  10
ENDBRANCH   8   9
ENDBRANCH   7   8
ENDBRANCH   6   7
ENDBRANCH   5   6
ENDBRANCH   4   5
ENDBRANCH   3   4
ENDBRANCH   2   3
ENDBRANCH   1   2
BRANCH   1  15
ATOM     15  C   UNL     1      11.123  -1.887   0.646  1.00  0.00     0.000 C 
BRANCH  15  16
ATOM     16  C   UNL     1      10.021  -1.913   1.715  1.00  0.00     0.000 C 
BRANCH  16  17
ATOM     17  C   UNL     1       9.914  -0.560   2.428  1.00  0.00     0.000 C 
BRANCH  17  18
ATOM     18  C   UNL     1      10.890   0.462   1.824  1.00  0.00    -0.000 C 
BRANCH  18  19
ATOM     19  C   UNL     1      12.007   0.857   2.811  1.00  0.00    -0.000 C 
BRANCH  19  20
ATOM     20  C   UNL     1      12.051  -0.018   4.076  1.00  0.00    -0.000 C 
BRANCH  20  21
ATOM     21  C   UNL     1      13.367  -0.801   4.215  1.00  0.00    -0.000 C 
BRANCH  21  22
ATOM     22  C   UNL     1      13.278  -2.215   3.620  1.00  0.00    -0.000 C 
BRANCH  22  23
ATOM     23  C   UNL     1      14.224  -2.413   2.422  1.00  0.00    -0.000 C 
BRANCH  23  24
ATOM     24  C   UNL     1      14.949  -1.120   2.020  1.00  0.00    -0.000 C 
BRANCH  24  25
ATOM     25  C   UNL     1      14.594  -0.659   0.600  1.00  0.00    -0.003 C 
ATOM     26  C   UNL     1      15.837  -0.589  -0.283  1.00  0.00     0.004 C 
ENDBRANCH  24  25
ENDBRANCH  23  24
ENDBRANCH  22  23
ENDBRANCH  21  22
ENDBRANCH  20  21
ENDBRANCH  19  20
ENDBRANCH  18  19
ENDBRANCH  17  18
ENDBRANCH  16  17
ENDBRANCH  15  16
ENDBRANCH   1  15
TORSDOF 22
ENDMDL
MODEL 6
REMARK VINA RESULT:    -4.330      2.812      4.208
REMARK INTER + INTRA:         -13.127
REMARK INTER:                  -9.704
REMARK INTRA:                  -3.424
REMARK UNBOUND:                -3.228
REMARK SMILES CCCCCCCCCCCCCCCCCCCCCCCC(=O)[O-]
REMARK SMILES IDX 13 1 14 2 15 3 16 4 17 5 18 6 19 7 20 8 21 9 22 10 23 11
REMARK SMILES IDX 24 12 25 13 26 14 12 15 11 16 10 17 9 18 8 19 7 20 6 21 5 22
REMARK SMILES IDX 4 23 3 24 2 25 1 26
REMARK H PARENT
REMARK Flexibility Score: inf
ROOT
ATOM      1  C   UNL     1      12.187  -3.067   0.467  1.00  0.00     0.000 C 
ENDROOT
BRANCH   1   2
ATOM      2  C   UNL     1      12.874  -3.638   1.716  1.00  0.00     0.000 C 
BRANCH   2   3
ATOM      3  C   UNL     1      13.913  -4.703   1.334  1.00  0.00     0.000 C 
BRANCH   3   4
ATOM      4  C   UNL     1      13.297  -5.911   0.605  1.00  0.00     0.000 C 
BRANCH   4   5
ATOM      5  C   UNL     1      13.052  -7.149   1.489  1.00  0.00     0.000 C 
BRANCH   5   6
ATOM      6  C   UNL     1      12.271  -8.256   0.766  1.00  0.00     0.000 C 
BRANCH   6   7
ATOM      7  C   UNL     1      12.700  -8.358  -0.703  1.00  0.00     0.000 C 
BRANCH   7   8
ATOM      8  C   UNL     1      11.516  -8.084  -1.644  1.00  0.00     0.000 C 
BRANCH   8   9
ATOM      9  C   UNL     1      10.218  -8.757  -1.171  1.00  0.00     0.000 C 
BRANCH   9  10
ATOM     10  C   UNL     1       9.068  -7.753  -0.974  1.00  0.00     0.006 C 
BRANCH  10  11
ATOM     11  C   UNL     1       9.571  -6.306  -0.899  1.00  0.00     0.053 C 
BRANCH  11  12
ATOM     12  C   UNL     1       8.594  -5.348  -1.508  1.00  0.00     0.041 C 
ATOM     13  O   UNL     1       8.225  -4.327  -0.870  1.00  0.00    -0.550 OA
ATOM     14  O   UNL     1       8.071  -5.596  -2.770  1.00  0.00    -0.550 OA
ENDBRANCH  11  12
ENDBRANCH  10  11
ENDBRANCH   9  10
ENDBRANCH   8   9
ENDBRANCH   7   8
ENDBRANCH   6   7
ENDBRANCH   5   6
ENDBRANCH   4   5
ENDBRANCH   3   4
ENDBRANCH   2   3
ENDBRANCH   1   2
BRANCH   1  15
ATOM     15  C   UNL     1      11.229  -1.910   0.794  1.00  0.00     0.000 C 
BRANCH  15  16
ATOM     16  C   UNL     1      11.695  -0.570   0.205  1.00  0.00     0.000 C 
BRANCH  16  17
ATOM     17  C   UNL     1      11.217   0.604   1.067  1.00  0.00     0.000 C 
BRANCH  17  18
ATOM     18  C   UNL     1      10.753   0.123   2.450  1.00  0.00    -0.000 C 
BRANCH  18  19
ATOM     19  C   UNL     1      11.763   0.479   3.562  1.00  0.00    -0.000 C 
BRANCH  19  20
ATOM     20  C   UNL     1      12.315  -0.747   4.308  1.00  0.00    -0.000 C 
BRANCH  20  21
ATOM     21  C   UNL     1      13.727  -1.143   3.844  1.00  0.00    -0.000 C 
BRANCH  21  22
ATOM     22  C   UNL     1      14.552   0.064   3.371  1.00  0.00    -0.000 C 
BRANCH  22  23
ATOM     23  C   UNL     1      14.847   0.023   1.860  1.00  0.00    -0.000 C 
BRANCH  23  24
ATOM     24  C   UNL     1      15.663  -1.212   1.450  1.00  0.00    -0.000 C 
BRANCH  24  25
ATOM     25  C   UNL     1      15.764  -1.377  -0.073  1.00  0.00    -0.003 C 
ATOM     26  C   UNL     1      15.278  -0.125  -0.796  1.00  0.00     0.004 C 
ENDBRANCH  24  25
ENDBRANCH  23  24
ENDBRANCH  22  23
ENDBRANCH  21  22
ENDBRANCH  20  21
ENDBRANCH  19  20
ENDBRANCH  18  19
ENDBRANCH  17  18
ENDBRANCH  16  17
ENDBRANCH  15  16
ENDBRANCH   1  15
TORSDOF 22
ENDMDL
MODEL 7
REMARK VINA RESULT:    -4.327      3.408      4.445
REMARK INTER + INTRA:         -13.121
REMARK INTER:                 -10.032
REMARK INTRA:                  -3.089
REMARK UNBOUND:                -3.228
REMARK SMILES CCCCCCCCCCCCCCCCCCCCCCCC(=O)[O-]
REMARK SMILES IDX 13 1 14 2 15 3 16 4 17 5 18 6 19 7 20 8 21 9 22 10 23 11
REMARK SMILES IDX 24 12 25 13 26 14 12 15 11 16 10 17 9 18 8 19 7 20 6 21 5 22
REMARK SMILES IDX 4 23 3 24 2 25 1 26
REMARK H PARENT
REMARK Flexibility Score: inf
ROOT
ATOM      1  C   UNL     1      11.985   0.721   2.186  1.00  0.00     0.000 C 
ENDROOT
BRANCH   1   2
ATOM      2  C   UNL     1      10.894   0.175   1.252  1.00  0.00     0.000 C 
BRANCH   2   3
ATOM      3  C   UNL     1       9.953  -0.778   2.005  1.00  0.00     0.000 C 
BRANCH   3   4
ATOM      4  C   UNL     1      10.013  -2.224   1.478  1.00  0.00     0.000 C 
BRANCH   4   5
ATOM      5  C   UNL     1      11.159  -2.508   0.487  1.00  0.00     0.000 C 
BRANCH   5   6
ATOM      6  C   UNL     1      11.001  -3.850  -0.242  1.00  0.00     0.000 C 
BRANCH   6   7
ATOM      7  C   UNL     1       9.523  -4.248  -0.340  1.00  0.00     0.000 C 
BRANCH   7   8
ATOM      8  C   UNL     1       9.372  -5.690  -0.849  1.00  0.00     0.000 C 
BRANCH   8   9
ATOM      9  C   UNL     1       8.305  -5.820  -1.947  1.00  0.00     0.000 C 
BRANCH   9  10
ATOM     10  C   UNL     1       8.502  -7.072  -2.820  1.00  0.00     0.006 C 
BRANCH  10  11
ATOM     11  C   UNL     1       9.968  -7.266  -3.228  1.00  0.00     0.053 C 
BRANCH  11  12
ATOM     12  C   UNL     1      10.133  -7.261  -4.717  1.00  0.00     0.041 C 
ATOM     13  O   UNL     1      11.038  -7.951  -5.257  1.00  0.00    -0.550 OA
ATOM     14  O   UNL     1       9.302  -6.477  -5.506  1.00  0.00    -0.550 OA
ENDBRANCH  11  12
ENDBRANCH  10  11
ENDBRANCH   9  10
ENDBRANCH   8   9
ENDBRANCH   7   8
ENDBRANCH   6   7
ENDBRANCH   5   6
ENDBRANCH   4   5
ENDBRANCH   3   4
ENDBRANCH   2   3
ENDBRANCH   1   2
BRANCH   1  15
ATOM     15  C   UNL     1      11.613   0.589   3.672  1.00  0.00     0.000 C 
BRANCH  15  16
ATOM     16  C   UNL     1      12.646  -0.217   4.472  1.00  0.00     0.000 C 
BRANCH  16  17
ATOM     17  C   UNL     1      14.034  -0.123   3.828  1.00  0.00     0.000 C 
BRANCH  17  18
ATOM     18  C   UNL     1      14.683  -1.510   3.706  1.00  0.00    -0.000 C 
BRANCH  18  19
ATOM     19  C   UNL     1      14.174  -2.286   2.473  1.00  0.00    -0.000 C 
BRANCH  19  20
ATOM     20  C   UNL     1      15.033  -2.074   1.215  1.00  0.00    -0.000 C 
BRANCH  20  21
ATOM     21  C   UNL     1      14.448  -1.016   0.264  1.00  0.00    -0.000 C 
BRANCH  21  22
ATOM     22  C   UNL     1      15.512  -0.033  -0.251  1.00  0.00    -0.000 C 
BRANCH  22  23
ATOM     23  C   UNL     1      16.767  -0.001   0.640  1.00  0.00    -0.000 C 
BRANCH  23  24
ATOM     24  C   UNL     1      17.136   1.420   1.091  1.00  0.00    -0.000 C 
BRANCH  24  25
ATOM     25  C   UNL     1      17.227   1.553   2.618  1.00  0.00    -0.003 C 
ATOM     26  C   UNL     1      17.903   0.333   3.237  1.00  0.00     0.004 C 
ENDBRANCH  24  25
ENDBRANCH  23  24
ENDBRANCH  22  23
ENDBRANCH  21  22
ENDBRANCH  20  21
ENDBRANCH  19  20
ENDBRANCH  18  19
ENDBRANCH  17  18
ENDBRANCH  16  17
ENDBRANCH  15  16
ENDBRANCH   1  15
TORSDOF 22
ENDMDL
MODEL 8
REMARK VINA RESULT:    -4.287      4.022      5.325
REMARK INTER + INTRA:         -13.030
REMARK INTER:                 -10.400
REMARK INTRA:                  -2.630
REMARK UNBOUND:                -3.228
REMARK SMILES CCCCCCCCCCCCCCCCCCCCCCCC(=O)[O-]
REMARK SMILES IDX 13 1 14 2 15 3 16 4 17 5 18 6 19 7 20 8 21 9 22 10 23 11
REMARK SMILES IDX 24 12 25 13 26 14 12 15 11 16 10 17 9 18 8 19 7 20 6 21 5 22
REMARK SMILES IDX 4 23 3 24 2 25 1 26
REMARK H PARENT
REMARK Flexibility Score: inf
ROOT
ATOM      1  C   UNL     1      11.834  -3.344   0.177  1.00  0.00     0.000 C 
ENDROOT
BRANCH   1   2
ATOM      2  C   UNL     1      11.012  -4.528  -0.351  1.00  0.00     0.000 C 
BRANCH   2   3
ATOM      3  C   UNL     1       9.510  -4.207  -0.333  1.00  0.00     0.000 C 
BRANCH   3   4
ATOM      4  C   UNL     1       8.692  -5.099  -1.286  1.00  0.00     0.000 C 
BRANCH   4   5
ATOM      5  C   UNL     1       9.469  -6.281  -1.896  1.00  0.00     0.000 C 
BRANCH   5   6
ATOM      6  C   UNL     1       8.699  -6.985  -3.024  1.00  0.00     0.000 C 
BRANCH   6   7
ATOM      7  C   UNL     1       9.552  -8.089  -3.661  1.00  0.00     0.000 C 
BRANCH   7   8
ATOM      8  C   UNL     1       9.572  -7.957  -5.192  1.00  0.00     0.000 C 
BRANCH   8   9
ATOM      9  C   UNL     1      10.576  -6.901  -5.680  1.00  0.00     0.000 C 
BRANCH   9  10
ATOM     10  C   UNL     1      11.022  -7.136  -7.134  1.00  0.00     0.006 C 
BRANCH  10  11
ATOM     11  C   UNL     1      12.549  -7.154  -7.275  1.00  0.00     0.053 C 
BRANCH  11  12
ATOM     12  C   UNL     1      13.073  -8.548  -7.435  1.00  0.00     0.041 C 
ATOM     13  O   UNL     1      13.060  -9.347  -6.462  1.00  0.00    -0.550 OA
ATOM     14  O   UNL     1      13.598  -8.958  -8.654  1.00  0.00    -0.550 OA
ENDBRANCH  11  12
ENDBRANCH  10  11
ENDBRANCH   9  10
ENDBRANCH   8   9
ENDBRANCH   7   8
ENDBRANCH   6   7
ENDBRANCH   5   6
ENDBRANCH   4   5
ENDBRANCH   3   4
ENDBRANCH   2   3
ENDBRANCH   1   2
BRANCH   1  15
ATOM     15  C   UNL     1      10.965  -2.117   0.501  1.00  0.00     0.000 C 
BRANCH  15  16
ATOM     16  C   UNL     1      11.655  -0.792   0.146  1.00  0.00     0.000 C 
BRANCH  16  17
ATOM     17  C   UNL     1      11.111   0.357   1.003  1.00  0.00     0.000 C 
BRANCH  17  18
ATOM     18  C   UNL     1      10.710  -0.137   2.402  1.00  0.00    -0.000 C 
BRANCH  18  19
ATOM     19  C   UNL     1      11.462   0.610   3.523  1.00  0.00    -0.000 C 
BRANCH  19  20
ATOM     20  C   UNL     1      12.476  -0.268   4.276  1.00  0.00    -0.000 C 
BRANCH  20  21
ATOM     21  C   UNL     1      12.625  -1.669   3.662  1.00  0.00    -0.000 C 
BRANCH  21  22
ATOM     22  C   UNL     1      13.976  -1.864   2.957  1.00  0.00    -0.000 C 
BRANCH  22  23
ATOM     23  C   UNL     1      14.829  -0.583   2.950  1.00  0.00    -0.000 C 
BRANCH  23  24
ATOM     24  C   UNL     1      15.055  -0.031   1.535  1.00  0.00    -0.000 C 
BRANCH  24  25
ATOM     25  C   UNL     1      15.227  -1.139   0.486  1.00  0.00    -0.003 C 
ATOM     26  C   UNL     1      15.256  -0.561  -0.926  1.00  0.00     0.004 C 
ENDBRANCH  24  25
ENDBRANCH  23  24
ENDBRANCH  22  23
ENDBRANCH  21  22
ENDBRANCH  20  21
ENDBRANCH  19  20
ENDBRANCH  18  19
ENDBRANCH  17  18
ENDBRANCH  16  17
ENDBRANCH  15  16
ENDBRANCH   1  15
TORSDOF 22
ENDMDL
MODEL 9
REMARK VINA RESULT:    -4.250      2.508      4.298
REMARK INTER + INTRA:         -12.945
REMARK INTER:                  -9.892
REMARK INTRA:                  -3.053
REMARK UNBOUND:                -3.228
REMARK SMILES CCCCCCCCCCCCCCCCCCCCCCCC(=O)[O-]
REMARK SMILES IDX 13 1 14 2 15 3 16 4 17 5 18 6 19 7 20 8 21 9 22 10 23 11
REMARK SMILES IDX 24 12 25 13 26 14 12 15 11 16 10 17 9 18 8 19 7 20 6 21 5 22
REMARK SMILES IDX 4 23 3 24 2 25 1 26
REMARK H PARENT
REMARK Flexibility Score: inf
ROOT
ATOM      1  C   UNL     1      14.445  -1.189   3.704  1.00  0.00     0.000 C 
ENDROOT
BRANCH   1   2
ATOM      2  C   UNL     1      15.098  -2.566   3.519  1.00  0.00     0.000 C 
BRANCH   2   3
ATOM      3  C   UNL     1      14.823  -3.120   2.113  1.00  0.00     0.000 C 
BRANCH   3   4
ATOM      4  C   UNL     1      13.514  -3.927   2.030  1.00  0.00     0.000 C 
BRANCH   4   5
ATOM      5  C   UNL     1      13.494  -5.026   0.950  1.00  0.00     0.000 C 
BRANCH   5   6
ATOM      6  C   UNL     1      14.431  -6.199   1.273  1.00  0.00     0.000 C 
BRANCH   6   7
ATOM      7  C   UNL     1      13.803  -7.532   0.847  1.00  0.00     0.000 C 
BRANCH   7   8
ATOM      8  C   UNL     1      12.274  -7.494   0.992  1.00  0.00     0.000 C 
BRANCH   8   9
ATOM      9  C   UNL     1      11.548  -8.011  -0.261  1.00  0.00     0.000 C 
BRANCH   9  10
ATOM     10  C   UNL     1      11.591  -7.008  -1.426  1.00  0.00     0.006 C 
BRANCH  10  11
ATOM     11  C   UNL     1      10.481  -7.268  -2.453  1.00  0.00     0.053 C 
BRANCH  11  12
ATOM     12  C   UNL     1       9.128  -6.942  -1.900  1.00  0.00     0.041 C 
ATOM     13  O   UNL     1       8.951  -5.884  -1.237  1.00  0.00    -0.550 OA
ATOM     14  O   UNL     1       8.067  -7.816  -2.095  1.00  0.00    -0.550 OA
ENDBRANCH  11  12
ENDBRANCH  10  11
ENDBRANCH   9  10
ENDBRANCH   8   9
ENDBRANCH   7   8
ENDBRANCH   6   7
ENDBRANCH   5   6
ENDBRANCH   4   5
ENDBRANCH   3   4
ENDBRANCH   2   3
ENDBRANCH   1   2
BRANCH   1  15
ATOM     15  C   UNL     1      12.979  -1.285   4.160  1.00  0.00     0.000 C 
BRANCH  15  16
ATOM     16  C   UNL     1      12.407   0.069   4.606  1.00  0.00     0.000 C 
BRANCH  16  17
ATOM     17  C   UNL     1      11.680   0.765   3.450  1.00  0.00     0.000 C 
BRANCH  17  18
ATOM     18  C   UNL     1      10.210   0.324   3.375  1.00  0.00    -0.000 C 
BRANCH  18  19
ATOM     19  C   UNL     1       9.837  -0.231   1.984  1.00  0.00    -0.000 C 
BRANCH  19  20
ATOM     20  C   UNL     1      10.283  -1.686   1.760  1.00  0.00    -0.000 C 
BRANCH  20  21
ATOM     21  C   UNL     1      11.216  -1.845   0.548  1.00  0.00    -0.000 C 
BRANCH  21  22
ATOM     22  C   UNL     1      11.798  -0.504   0.071  1.00  0.00    -0.000 C 
BRANCH  22  23
ATOM     23  C   UNL     1      13.317  -0.404   0.301  1.00  0.00    -0.000 C 
BRANCH  23  24
ATOM     24  C   UNL     1      14.121  -0.534  -1.001  1.00  0.00    -0.000 C 
BRANCH  24  25
ATOM     25  C   UNL     1      15.621  -0.747  -0.752  1.00  0.00    -0.003 C 
ATOM     26  C   UNL     1      16.137   0.186   0.339  1.00  0.00     0.004 C 
ENDBRANCH  24  25
ENDBRANCH  23  24
ENDBRANCH  22  23
ENDBRANCH  21  22
ENDBRANCH  20  21
ENDBRANCH  19  20
ENDBRANCH  18  19
ENDBRANCH  17  18
ENDBRANCH  16  17
ENDBRANCH  15  16
ENDBRANCH   1  15
TORSDOF 22
ENDMDL
