MODEL 1
REMARK VINA RESULT:    58.872      0.000      0.000
REMARK INTER + INTRA:          79.447
REMARK INTER:                  77.801
REMARK INTRA:                   1.646
REMARK UNBOUND:                 1.646
REMARK SMILES CC[C@@H](C=C[C@H](C)[C@H]1CC[C@@H]2C3=CC[C@@H]4C[C@H](O)CC[C@]4(C)[C@@H]3CC[C@@]21C)C(C)C
REMARK SMILES IDX 6 1 7 2 5 3 4 4 3 5 2 6 1 7 28 8 29 9 30 10 8 11 9 12 26 13
REMARK SMILES IDX 10 14 11 15 25 16 27 17 12 18 24 19 23 20 13 21 21 22 14 23
REMARK SMILES IDX 15 24 20 25 22 26 16 27 19 28 17 29 18 30
REMARK H PARENT 18 31
REMARK Flexibility Score: inf
ROOT
ATOM      1  C   UNL     1     -32.960  25.439   7.842  1.00  0.00     0.012 C 
ATOM      2  C   UNL     1     -32.886  24.165   6.974  1.00  0.00     0.012 C 
ENDROOT
BRANCH   1   3
ATOM      3  C   UNL     1     -31.961  26.432   7.278  1.00  0.00    -0.028 C 
ATOM      4  C   UNL     1     -30.639  26.192   7.239  1.00  0.00    -0.027 C 
BRANCH   4   5
ATOM      5  C   UNL     1     -29.660  27.216   6.704  1.00  0.00     0.014 C 
BRANCH   5   6
ATOM      6  C   UNL     1     -30.357  28.572   6.420  1.00  0.00     0.004 C 
ATOM      7  C   UNL     1     -30.476  28.958   4.946  1.00  0.00     0.004 C 
ENDBRANCH   5   6
BRANCH   5   8
ATOM      8  C   UNL     1     -28.806  26.679   5.509  1.00  0.00    -0.011 C 
ATOM      9  C   UNL     1     -27.360  27.219   5.471  1.00  0.00     0.008 C 
ATOM     10  C   UNL     1     -29.490  26.986   4.167  1.00  0.00     0.008 C 
ENDBRANCH   5   8
ENDBRANCH   4   5
ENDBRANCH   1   3
BRANCH   1  11
ATOM     11  C   UNL     1     -34.411  26.052   7.947  1.00  0.00     0.002 C 
ATOM     12  C   UNL     1     -34.808  26.853   6.689  1.00  0.00     0.005 C 
ATOM     13  C   UNL     1     -35.591  25.024   8.104  1.00  0.00    -0.023 C 
ATOM     14  C   UNL     1     -35.658  25.935   5.820  1.00  0.00     0.009 C 
ATOM     15  C   UNL     1     -35.994  24.691   6.656  1.00  0.00     0.021 C 
ATOM     16  C   UNL     1     -36.774  25.737   8.811  1.00  0.00     0.008 C 
ATOM     17  C   UNL     1     -35.225  23.732   8.879  1.00  0.00     0.012 C 
ATOM     18  C   UNL     1     -37.445  24.257   6.460  1.00  0.00    -0.067 C 
ATOM     19  C   UNL     1     -38.033  24.877   8.919  1.00  0.00     0.009 C 
ATOM     20  C   UNL     1     -38.413  24.082   7.628  1.00  0.00     0.021 C 
ATOM     21  C   UNL     1     -37.796  23.839   5.229  1.00  0.00    -0.027 C 
ATOM     22  C   UNL     1     -39.928  24.224   7.213  1.00  0.00    -0.023 C 
ATOM     23  C   UNL     1     -39.195  23.499   4.818  1.00  0.00     0.031 C 
ATOM     24  C   UNL     1     -40.205  23.307   5.976  1.00  0.00     0.002 C 
ATOM     25  C   UNL     1     -40.290  25.691   6.836  1.00  0.00     0.010 C 
ATOM     26  C   UNL     1     -40.797  23.737   8.415  1.00  0.00     0.012 C 
ATOM     27  C   UNL     1     -41.658  23.450   5.440  1.00  0.00     0.036 C 
ATOM     28  C   UNL     1     -41.755  25.837   6.397  1.00  0.00     0.032 C 
ATOM     29  C   UNL     1     -42.125  24.910   5.223  1.00  0.00     0.114 C 
BRANCH  29  30
ATOM     30  O   UNL     1     -41.604  25.417   4.021  1.00  0.00    -0.393 OA
ATOM     31  H   UNL     1     -41.593  26.407   4.101  1.00  0.00     0.210 HD
ENDBRANCH  29  30
ENDBRANCH   1  11
TORSDOF 6
ENDMDL
MODEL 2
REMARK VINA RESULT:    60.771      2.201      3.615
REMARK INTER + INTRA:          81.956
REMARK INTER:                  81.311
REMARK INTRA:                   0.645
REMARK UNBOUND:                 1.646
REMARK SMILES CC[C@@H](C=C[C@H](C)[C@H]1CC[C@@H]2C3=CC[C@@H]4C[C@H](O)CC[C@]4(C)[C@@H]3CC[C@@]21C)C(C)C
REMARK SMILES IDX 6 1 7 2 5 3 4 4 3 5 2 6 1 7 28 8 29 9 30 10 8 11 9 12 26 13
REMARK SMILES IDX 10 14 11 15 25 16 27 17 12 18 24 19 23 20 13 21 21 22 14 23
REMARK SMILES IDX 15 24 20 25 22 26 16 27 19 28 17 29 18 30
REMARK H PARENT 18 31
REMARK Flexibility Score: inf
ROOT
ATOM      1  C   UNL     1     -34.713  27.039   6.811  1.00  0.00     0.012 C 
ATOM      2  C   UNL     1     -34.874  27.899   8.083  1.00  0.00     0.012 C 
ENDROOT
BRANCH   1   3
ATOM      3  C   UNL     1     -33.763  25.904   7.146  1.00  0.00    -0.028 C 
ATOM      4  C   UNL     1     -33.011  25.890   8.259  1.00  0.00    -0.027 C 
BRANCH   4   5
ATOM      5  C   UNL     1     -32.044  24.760   8.551  1.00  0.00     0.014 C 
BRANCH   5   6
ATOM      6  C   UNL     1     -30.575  25.197   8.314  1.00  0.00     0.004 C 
ATOM      7  C   UNL     1     -30.386  26.618   7.783  1.00  0.00     0.004 C 
ENDBRANCH   5   6
BRANCH   5   8
ATOM      8  C   UNL     1     -32.433  23.424   7.840  1.00  0.00    -0.011 C 
ATOM      9  C   UNL     1     -31.724  22.175   8.406  1.00  0.00     0.008 C 
ATOM     10  C   UNL     1     -32.162  23.511   6.329  1.00  0.00     0.008 C 
ENDBRANCH   5   8
ENDBRANCH   4   5
ENDBRANCH   1   3
BRANCH   1  11
ATOM     11  C   UNL     1     -36.081  26.514   6.223  1.00  0.00     0.002 C 
ATOM     12  C   UNL     1     -35.925  25.181   5.462  1.00  0.00     0.005 C 
ATOM     13  C   UNL     1     -37.213  26.199   7.268  1.00  0.00    -0.023 C 
ATOM     14  C   UNL     1     -36.332  24.066   6.417  1.00  0.00     0.009 C 
ATOM     15  C   UNL     1     -36.976  24.725   7.646  1.00  0.00     0.021 C 
ATOM     16  C   UNL     1     -38.587  26.329   6.560  1.00  0.00     0.008 C 
ATOM     17  C   UNL     1     -37.193  27.096   8.534  1.00  0.00     0.012 C 
ATOM     18  C   UNL     1     -38.212  23.959   8.112  1.00  0.00    -0.067 C 
ATOM     19  C   UNL     1     -39.772  25.932   7.440  1.00  0.00     0.009 C 
ATOM     20  C   UNL     1     -39.577  24.625   8.275  1.00  0.00     0.021 C 
ATOM     21  C   UNL     1     -38.018  22.706   8.567  1.00  0.00    -0.027 C 
ATOM     22  C   UNL     1     -40.784  23.616   8.171  1.00  0.00    -0.023 C 
ATOM     23  C   UNL     1     -39.119  21.763   8.943  1.00  0.00     0.031 C 
ATOM     24  C   UNL     1     -40.517  22.404   9.125  1.00  0.00     0.002 C 
ATOM     25  C   UNL     1     -40.966  23.077   6.722  1.00  0.00     0.010 C 
ATOM     26  C   UNL     1     -42.070  24.363   8.644  1.00  0.00     0.012 C 
ATOM     27  C   UNL     1     -41.617  21.309   9.022  1.00  0.00     0.036 C 
ATOM     28  C   UNL     1     -42.118  22.066   6.614  1.00  0.00     0.032 C 
ATOM     29  C   UNL     1     -41.961  20.873   7.577  1.00  0.00     0.114 C 
BRANCH  29  30
ATOM     30  O   UNL     1     -40.991  19.980   7.091  1.00  0.00    -0.393 OA
ATOM     31  H   UNL     1     -41.320  19.062   7.276  1.00  0.00     0.210 HD
ENDBRANCH  29  30
ENDBRANCH   1  11
TORSDOF 6
ENDMDL
