MODEL 1
REMARK VINA RESULT:    -3.860      0.000      0.000
REMARK INTER + INTRA:         -10.088
REMARK INTER:                  -7.470
REMARK INTRA:                  -2.618
REMARK UNBOUND:                -2.618
REMARK SMILES CCCCCCCCCCCCCCCCCC(=O)[O-]
REMARK SMILES IDX 10 1 11 2 12 3 13 4 14 5 15 6 16 7 17 8 18 9 19 10 20 11
REMARK SMILES IDX 9 12 8 13 7 14 6 15 5 16 4 17 3 18 2 19 1 20
REMARK H PARENT
REMARK Flexibility Score: inf
ROOT
ATOM      1  C   UNL     1      16.099  18.127  17.069  1.00  0.00     0.000 C 
ENDROOT
BRANCH   1   2
ATOM      2  C   UNL     1      16.268  17.018  16.014  1.00  0.00     0.000 C 
BRANCH   2   3
ATOM      3  C   UNL     1      16.517  17.578  14.605  1.00  0.00     0.000 C 
BRANCH   3   4
ATOM      4  C   UNL     1      16.929  19.061  14.620  1.00  0.00     0.000 C 
BRANCH   4   5
ATOM      5  C   UNL     1      18.436  19.255  14.390  1.00  0.00     0.000 C 
BRANCH   5   6
ATOM      6  C   UNL     1      19.184  19.641  15.678  1.00  0.00     0.000 C 
BRANCH   6   7
ATOM      7  C   UNL     1      20.308  18.651  16.033  1.00  0.00     0.006 C 
BRANCH   7   8
ATOM      8  C   UNL     1      19.843  17.441  16.860  1.00  0.00     0.053 C 
BRANCH   8   9
ATOM      9  C   UNL     1      20.623  17.296  18.131  1.00  0.00     0.041 C 
ATOM     10  O   UNL     1      21.554  18.100  18.398  1.00  0.00    -0.550 OA
ATOM     11  O   UNL     1      20.345  16.251  19.002  1.00  0.00    -0.550 OA
ENDBRANCH   8   9
ENDBRANCH   7   8
ENDBRANCH   6   7
ENDBRANCH   5   6
ENDBRANCH   4   5
ENDBRANCH   3   4
ENDBRANCH   2   3
ENDBRANCH   1   2
BRANCH   1  12
ATOM     12  C   UNL     1      14.910  17.871  18.009  1.00  0.00     0.000 C 
BRANCH  12  13
ATOM     13  C   UNL     1      13.901  19.033  18.017  1.00  0.00    -0.000 C 
BRANCH  13  14
ATOM     14  C   UNL     1      14.000  19.909  16.757  1.00  0.00    -0.000 C 
BRANCH  14  15
ATOM     15  C   UNL     1      12.761  19.786  15.853  1.00  0.00    -0.000 C 
BRANCH  15  16
ATOM     16  C   UNL     1      12.888  18.655  14.817  1.00  0.00    -0.000 C 
BRANCH  16  17
ATOM     17  C   UNL     1      12.000  17.422  15.082  1.00  0.00    -0.000 C 
BRANCH  17  18
ATOM     18  C   UNL     1      12.713  16.230  15.753  1.00  0.00    -0.000 C 
BRANCH  18  19
ATOM     19  C   UNL     1      11.882  15.501  16.823  1.00  0.00    -0.003 C 
ATOM     20  C   UNL     1      10.440  16.004  16.901  1.00  0.00     0.004 C 
ENDBRANCH  18  19
ENDBRANCH  17  18
ENDBRANCH  16  17
ENDBRANCH  15  16
ENDBRANCH  14  15
ENDBRANCH  13  14
ENDBRANCH  12  13
ENDBRANCH   1  12
TORSDOF 16
ENDMDL
MODEL 2
REMARK VINA RESULT:    -3.735      4.852      7.705
REMARK INTER + INTRA:          -9.846
REMARK INTER:                  -7.786
REMARK INTRA:                  -2.060
REMARK UNBOUND:                -2.618
REMARK SMILES CCCCCCCCCCCCCCCCCC(=O)[O-]
REMARK SMILES IDX 10 1 11 2 12 3 13 4 14 5 15 6 16 7 17 8 18 9 19 10 20 11
REMARK SMILES IDX 9 12 8 13 7 14 6 15 5 16 4 17 3 18 2 19 1 20
REMARK H PARENT
REMARK Flexibility Score: inf
ROOT
ATOM      1  C   UNL     1      10.252  16.699  12.188  1.00  0.00     0.000 C 
ENDROOT
BRANCH   1   2
ATOM      2  C   UNL     1      10.250  18.026  12.968  1.00  0.00     0.000 C 
BRANCH   2   3
ATOM      3  C   UNL     1      11.056  17.944  14.273  1.00  0.00     0.000 C 
BRANCH   3   4
ATOM      4  C   UNL     1      10.895  16.589  14.986  1.00  0.00     0.000 C 
BRANCH   4   5
ATOM      5  C   UNL     1      11.055  16.704  16.510  1.00  0.00     0.000 C 
BRANCH   5   6
ATOM      6  C   UNL     1      11.728  15.466  17.127  1.00  0.00     0.000 C 
BRANCH   6   7
ATOM      7  C   UNL     1      13.160  15.750  17.617  1.00  0.00     0.006 C 
BRANCH   7   8
ATOM      8  C   UNL     1      13.679  17.154  17.266  1.00  0.00     0.053 C 
BRANCH   8   9
ATOM      9  C   UNL     1      14.611  17.131  16.094  1.00  0.00     0.041 C 
ATOM     10  O   UNL     1      14.640  18.098  15.288  1.00  0.00    -0.550 OA
ATOM     11  O   UNL     1      15.421  16.025  15.871  1.00  0.00    -0.550 OA
ENDBRANCH   8   9
ENDBRANCH   7   8
ENDBRANCH   6   7
ENDBRANCH   5   6
ENDBRANCH   4   5
ENDBRANCH   3   4
ENDBRANCH   2   3
ENDBRANCH   1   2
BRANCH   1  12
ATOM     12  C   UNL     1       8.840  16.254  11.775  1.00  0.00     0.000 C 
BRANCH  12  13
ATOM     13  C   UNL     1       8.643  16.252  10.248  1.00  0.00    -0.000 C 
BRANCH  13  14
ATOM     14  C   UNL     1       7.721  17.386   9.771  1.00  0.00    -0.000 C 
BRANCH  14  15
ATOM     15  C   UNL     1       7.128  18.195  10.938  1.00  0.00    -0.000 C 
BRANCH  15  16
ATOM     16  C   UNL     1       7.353  19.711  10.788  1.00  0.00    -0.000 C 
BRANCH  16  17
ATOM     17  C   UNL     1       8.377  20.117   9.708  1.00  0.00    -0.000 C 
BRANCH  17  18
ATOM     18  C   UNL     1       9.810  20.363  10.222  1.00  0.00    -0.000 C 
BRANCH  18  19
ATOM     19  C   UNL     1      10.874  19.413   9.644  1.00  0.00    -0.003 C 
ATOM     20  C   UNL     1      10.724  19.197   8.138  1.00  0.00     0.004 C 
ENDBRANCH  18  19
ENDBRANCH  17  18
ENDBRANCH  16  17
ENDBRANCH  15  16
ENDBRANCH  14  15
ENDBRANCH  13  14
ENDBRANCH  12  13
ENDBRANCH   1  12
TORSDOF 16
ENDMDL
MODEL 3
REMARK VINA RESULT:    -3.732      0.924      2.124
REMARK INTER + INTRA:          -9.841
REMARK INTER:                  -7.956
REMARK INTRA:                  -1.885
REMARK UNBOUND:                -2.618
REMARK SMILES CCCCCCCCCCCCCCCCCC(=O)[O-]
REMARK SMILES IDX 10 1 11 2 12 3 13 4 14 5 15 6 16 7 17 8 18 9 19 10 20 11
REMARK SMILES IDX 9 12 8 13 7 14 6 15 5 16 4 17 3 18 2 19 1 20
REMARK H PARENT
REMARK Flexibility Score: inf
ROOT
ATOM      1  C   UNL     1      16.683  17.530  14.465  1.00  0.00     0.000 C 
ENDROOT
BRANCH   1   2
ATOM      2  C   UNL     1      16.836  19.059  14.560  1.00  0.00     0.000 C 
BRANCH   2   3
ATOM      3  C   UNL     1      18.275  19.526  14.290  1.00  0.00     0.000 C 
BRANCH   3   4
ATOM      4  C   UNL     1      18.998  19.988  15.568  1.00  0.00     0.000 C 
BRANCH   4   5
ATOM      5  C   UNL     1      20.291  19.198  15.829  1.00  0.00     0.000 C 
BRANCH   5   6
ATOM      6  C   UNL     1      20.034  17.694  16.024  1.00  0.00     0.000 C 
BRANCH   6   7
ATOM      7  C   UNL     1      19.564  17.350  17.449  1.00  0.00     0.006 C 
BRANCH   7   8
ATOM      8  C   UNL     1      20.580  17.703  18.549  1.00  0.00     0.053 C 
BRANCH   8   9
ATOM      9  C   UNL     1      21.169  16.480  19.182  1.00  0.00     0.041 C 
ATOM     10  O   UNL     1      22.415  16.382  19.332  1.00  0.00    -0.550 OA
ATOM     11  O   UNL     1      20.345  15.433  19.572  1.00  0.00    -0.550 OA
ENDBRANCH   8   9
ENDBRANCH   7   8
ENDBRANCH   6   7
ENDBRANCH   5   6
ENDBRANCH   4   5
ENDBRANCH   3   4
ENDBRANCH   2   3
ENDBRANCH   1   2
BRANCH   1  12
ATOM     12  C   UNL     1      16.044  16.921  15.724  1.00  0.00     0.000 C 
BRANCH  12  13
ATOM     13  C   UNL     1      15.985  17.915  16.897  1.00  0.00    -0.000 C 
BRANCH  13  14
ATOM     14  C   UNL     1      14.681  17.798  17.704  1.00  0.00    -0.000 C 
BRANCH  14  15
ATOM     15  C   UNL     1      13.780  19.037  17.554  1.00  0.00    -0.000 C 
BRANCH  15  16
ATOM     16  C   UNL     1      12.418  18.710  16.914  1.00  0.00    -0.000 C 
BRANCH  16  17
ATOM     17  C   UNL     1      12.456  17.636  15.808  1.00  0.00    -0.000 C 
BRANCH  17  18
ATOM     18  C   UNL     1      11.095  16.997  15.466  1.00  0.00    -0.000 C 
BRANCH  18  19
ATOM     19  C   UNL     1      10.694  15.814  16.365  1.00  0.00    -0.003 C 
ATOM     20  C   UNL     1      11.860  15.278  17.196  1.00  0.00     0.004 C 
ENDBRANCH  18  19
ENDBRANCH  17  18
ENDBRANCH  16  17
ENDBRANCH  15  16
ENDBRANCH  14  15
ENDBRANCH  13  14
ENDBRANCH  12  13
ENDBRANCH   1  12
TORSDOF 16
ENDMDL
MODEL 4
REMARK VINA RESULT:    -3.708      6.361      9.140
REMARK INTER + INTRA:          -9.795
REMARK INTER:                  -7.570
REMARK INTRA:                  -2.225
REMARK UNBOUND:                -2.618
REMARK SMILES CCCCCCCCCCCCCCCCCC(=O)[O-]
REMARK SMILES IDX 10 1 11 2 12 3 13 4 14 5 15 6 16 7 17 8 18 9 19 10 20 11
REMARK SMILES IDX 9 12 8 13 7 14 6 15 5 16 4 17 3 18 2 19 1 20
REMARK H PARENT
REMARK Flexibility Score: inf
ROOT
ATOM      1  C   UNL     1      10.753  17.536  13.028  1.00  0.00     0.000 C 
ENDROOT
BRANCH   1   2
ATOM      2  C   UNL     1      10.254  16.525  11.981  1.00  0.00     0.000 C 
BRANCH   2   3
ATOM      3  C   UNL     1       8.773  16.161  12.172  1.00  0.00     0.000 C 
BRANCH   3   4
ATOM      4  C   UNL     1       8.040  15.935  10.838  1.00  0.00     0.000 C 
BRANCH   4   5
ATOM      5  C   UNL     1       8.557  16.855   9.720  1.00  0.00     0.000 C 
BRANCH   5   6
ATOM      6  C   UNL     1       7.964  18.272   9.802  1.00  0.00     0.000 C 
BRANCH   6   7
ATOM      7  C   UNL     1       9.014  19.372   9.567  1.00  0.00     0.006 C 
BRANCH   7   8
ATOM      8  C   UNL     1      10.355  18.856   9.020  1.00  0.00     0.053 C 
BRANCH   8   9
ATOM      9  C   UNL     1      10.749  19.549   7.751  1.00  0.00     0.041 C 
ATOM     10  O   UNL     1      10.236  20.658   7.450  1.00  0.00    -0.550 OA
ATOM     11  O   UNL     1      11.654  18.951   6.885  1.00  0.00    -0.550 OA
ENDBRANCH   8   9
ENDBRANCH   7   8
ENDBRANCH   6   7
ENDBRANCH   5   6
ENDBRANCH   4   5
ENDBRANCH   3   4
ENDBRANCH   2   3
ENDBRANCH   1   2
BRANCH   1  12
ATOM     12  C   UNL     1       9.866  18.789  13.110  1.00  0.00     0.000 C 
BRANCH  12  13
ATOM     13  C   UNL     1      10.530  19.934  13.894  1.00  0.00    -0.000 C 
BRANCH  13  14
ATOM     14  C   UNL     1      11.973  19.604  14.312  1.00  0.00    -0.000 C 
BRANCH  14  15
ATOM     15  C   UNL     1      12.259  19.962  15.781  1.00  0.00    -0.000 C 
BRANCH  15  16
ATOM     16  C   UNL     1      12.663  18.739  16.625  1.00  0.00    -0.000 C 
BRANCH  16  17
ATOM     17  C   UNL     1      13.518  17.688  15.886  1.00  0.00    -0.000 C 
BRANCH  17  18
ATOM     18  C   UNL     1      12.881  16.289  15.766  1.00  0.00    -0.000 C 
BRANCH  18  19
ATOM     19  C   UNL     1      11.956  15.900  16.932  1.00  0.00    -0.003 C 
ATOM     20  C   UNL     1      10.502  15.706  16.500  1.00  0.00     0.004 C 
ENDBRANCH  18  19
ENDBRANCH  17  18
ENDBRANCH  16  17
ENDBRANCH  15  16
ENDBRANCH  14  15
ENDBRANCH  13  14
ENDBRANCH  12  13
ENDBRANCH   1  12
TORSDOF 16
ENDMDL
MODEL 5
REMARK VINA RESULT:    -3.654      3.242      5.113
REMARK INTER + INTRA:          -9.690
REMARK INTER:                  -7.276
REMARK INTRA:                  -2.414
REMARK UNBOUND:                -2.618
REMARK SMILES CCCCCCCCCCCCCCCCCC(=O)[O-]
REMARK SMILES IDX 10 1 11 2 12 3 13 4 14 5 15 6 16 7 17 8 18 9 19 10 20 11
REMARK SMILES IDX 9 12 8 13 7 14 6 15 5 16 4 17 3 18 2 19 1 20
REMARK H PARENT
REMARK Flexibility Score: inf
ROOT
ATOM      1  C   UNL     1      11.356  16.993  14.651  1.00  0.00     0.000 C 
ENDROOT
BRANCH   1   2
ATOM      2  C   UNL     1      11.003  16.887  16.145  1.00  0.00     0.000 C 
BRANCH   2   3
ATOM      3  C   UNL     1      11.814  15.798  16.866  1.00  0.00     0.000 C 
BRANCH   3   4
ATOM      4  C   UNL     1      13.315  16.127  16.940  1.00  0.00     0.000 C 
BRANCH   4   5
ATOM      5  C   UNL     1      13.584  17.513  17.549  1.00  0.00     0.000 C 
BRANCH   5   6
ATOM      6  C   UNL     1      14.653  18.301  16.772  1.00  0.00     0.000 C 
BRANCH   6   7
ATOM      7  C   UNL     1      15.077  17.602  15.468  1.00  0.00     0.006 C 
BRANCH   7   8
ATOM      8  C   UNL     1      16.552  17.166  15.439  1.00  0.00     0.053 C 
BRANCH   8   9
ATOM      9  C   UNL     1      17.386  18.063  14.578  1.00  0.00     0.041 C 
ATOM     10  O   UNL     1      16.955  18.449  13.460  1.00  0.00    -0.550 OA
ATOM     11  O   UNL     1      18.655  18.443  14.995  1.00  0.00    -0.550 OA
ENDBRANCH   8   9
ENDBRANCH   7   8
ENDBRANCH   6   7
ENDBRANCH   5   6
ENDBRANCH   4   5
ENDBRANCH   3   4
ENDBRANCH   2   3
ENDBRANCH   1   2
BRANCH   1  12
ATOM     12  C   UNL     1      11.836  18.400  14.256  1.00  0.00     0.000 C 
BRANCH  12  13
ATOM     13  C   UNL     1      11.401  19.478  15.265  1.00  0.00    -0.000 C 
BRANCH  13  14
ATOM     14  C   UNL     1      10.560  20.589  14.614  1.00  0.00    -0.000 C 
BRANCH  14  15
ATOM     15  C   UNL     1      10.212  20.284  13.147  1.00  0.00    -0.000 C 
BRANCH  15  16
ATOM     16  C   UNL     1       8.724  19.944  12.945  1.00  0.00    -0.000 C 
BRANCH  16  17
ATOM     17  C   UNL     1       8.448  18.733  12.031  1.00  0.00    -0.000 C 
BRANCH  17  18
ATOM     18  C   UNL     1       9.665  18.217  11.237  1.00  0.00    -0.000 C 
BRANCH  18  19
ATOM     19  C   UNL     1       9.842  16.688  11.251  1.00  0.00    -0.003 C 
ATOM     20  C   UNL     1       8.669  15.959  11.907  1.00  0.00     0.004 C 
ENDBRANCH  18  19
ENDBRANCH  17  18
ENDBRANCH  16  17
ENDBRANCH  15  16
ENDBRANCH  14  15
ENDBRANCH  13  14
ENDBRANCH  12  13
ENDBRANCH   1  12
TORSDOF 16
ENDMDL
MODEL 6
REMARK VINA RESULT:    -3.628      1.400      2.551
REMARK INTER + INTRA:          -9.640
REMARK INTER:                  -6.839
REMARK INTRA:                  -2.801
REMARK UNBOUND:                -2.618
REMARK SMILES CCCCCCCCCCCCCCCCCC(=O)[O-]
REMARK SMILES IDX 10 1 11 2 12 3 13 4 14 5 15 6 16 7 17 8 18 9 19 10 20 11
REMARK SMILES IDX 9 12 8 13 7 14 6 15 5 16 4 17 3 18 2 19 1 20
REMARK H PARENT
REMARK Flexibility Score: inf
ROOT
ATOM      1  C   UNL     1      14.840  19.323  18.341  1.00  0.00     0.000 C 
ENDROOT
BRANCH   1   2
ATOM      2  C   UNL     1      15.348  17.885  18.130  1.00  0.00     0.000 C 
BRANCH   2   3
ATOM      3  C   UNL     1      14.319  16.996  17.414  1.00  0.00     0.000 C 
BRANCH   3   4
ATOM      4  C   UNL     1      14.858  16.407  16.098  1.00  0.00     0.000 C 
BRANCH   4   5
ATOM      5  C   UNL     1      16.333  16.765  15.854  1.00  0.00     0.000 C 
BRANCH   5   6
ATOM      6  C   UNL     1      16.539  17.554  14.549  1.00  0.00     0.000 C 
BRANCH   6   7
ATOM      7  C   UNL     1      17.808  18.424  14.573  1.00  0.00     0.006 C 
BRANCH   7   8
ATOM      8  C   UNL     1      18.326  18.743  15.986  1.00  0.00     0.053 C 
BRANCH   8   9
ATOM      9  C   UNL     1      19.737  18.280  16.185  1.00  0.00     0.041 C 
ATOM     10  O   UNL     1      20.696  18.955  15.728  1.00  0.00    -0.550 OA
ATOM     11  O   UNL     1      19.989  17.083  16.843  1.00  0.00    -0.550 OA
ENDBRANCH   8   9
ENDBRANCH   7   8
ENDBRANCH   6   7
ENDBRANCH   5   6
ENDBRANCH   4   5
ENDBRANCH   3   4
ENDBRANCH   2   3
ENDBRANCH   1   2
BRANCH   1  12
ATOM     12  C   UNL     1      13.989  19.828  17.164  1.00  0.00     0.000 C 
BRANCH  12  13
ATOM     13  C   UNL     1      14.723  20.879  16.312  1.00  0.00    -0.000 C 
BRANCH  13  14
ATOM     14  C   UNL     1      14.343  20.803  14.824  1.00  0.00    -0.000 C 
BRANCH  14  15
ATOM     15  C   UNL     1      13.610  19.498  14.469  1.00  0.00    -0.000 C 
BRANCH  15  16
ATOM     16  C   UNL     1      12.255  19.743  13.780  1.00  0.00    -0.000 C 
BRANCH  16  17
ATOM     17  C   UNL     1      11.098  18.852  14.275  1.00  0.00    -0.000 C 
BRANCH  17  18
ATOM     18  C   UNL     1      11.408  18.009  15.529  1.00  0.00    -0.000 C 
BRANCH  18  19
ATOM     19  C   UNL     1      11.113  16.506  15.384  1.00  0.00    -0.003 C 
ATOM     20  C   UNL     1      10.648  15.863  16.691  1.00  0.00     0.004 C 
ENDBRANCH  18  19
ENDBRANCH  17  18
ENDBRANCH  16  17
ENDBRANCH  15  16
ENDBRANCH  14  15
ENDBRANCH  13  14
ENDBRANCH  12  13
ENDBRANCH   1  12
TORSDOF 16
ENDMDL
MODEL 7
REMARK VINA RESULT:    -3.627      3.319      6.827
REMARK INTER + INTRA:          -9.638
REMARK INTER:                  -6.998
REMARK INTRA:                  -2.640
REMARK UNBOUND:                -2.618
REMARK SMILES CCCCCCCCCCCCCCCCCC(=O)[O-]
REMARK SMILES IDX 10 1 11 2 12 3 13 4 14 5 15 6 16 7 17 8 18 9 19 10 20 11
REMARK SMILES IDX 9 12 8 13 7 14 6 15 5 16 4 17 3 18 2 19 1 20
REMARK H PARENT
REMARK Flexibility Score: inf
ROOT
ATOM      1  C   UNL     1      14.504  17.020  17.428  1.00  0.00     0.000 C 
ENDROOT
BRANCH   1   2
ATOM      2  C   UNL     1      15.497  18.076  17.947  1.00  0.00     0.000 C 
BRANCH   2   3
ATOM      3  C   UNL     1      14.953  19.508  17.825  1.00  0.00     0.000 C 
BRANCH   3   4
ATOM      4  C   UNL     1      13.613  19.571  17.070  1.00  0.00     0.000 C 
BRANCH   4   5
ATOM      5  C   UNL     1      13.777  20.057  15.622  1.00  0.00     0.000 C 
BRANCH   5   6
ATOM      6  C   UNL     1      13.088  19.129  14.607  1.00  0.00     0.000 C 
BRANCH   6   7
ATOM      7  C   UNL     1      11.709  18.642  15.086  1.00  0.00     0.006 C 
BRANCH   7   8
ATOM      8  C   UNL     1      11.538  17.114  15.065  1.00  0.00     0.053 C 
BRANCH   8   9
ATOM      9  C   UNL     1      11.038  16.586  16.375  1.00  0.00     0.041 C 
ATOM     10  O   UNL     1      10.989  17.337  17.383  1.00  0.00    -0.550 OA
ATOM     11  O   UNL     1      10.660  15.254  16.489  1.00  0.00    -0.550 OA
ENDBRANCH   8   9
ENDBRANCH   7   8
ENDBRANCH   6   7
ENDBRANCH   5   6
ENDBRANCH   4   5
ENDBRANCH   3   4
ENDBRANCH   2   3
ENDBRANCH   1   2
BRANCH   1  12
ATOM     12  C   UNL     1      14.985  16.344  16.134  1.00  0.00     0.000 C 
BRANCH  12  13
ATOM     13  C   UNL     1      16.438  16.708  15.780  1.00  0.00    -0.000 C 
BRANCH  13  14
ATOM     14  C   UNL     1      16.531  17.660  14.577  1.00  0.00    -0.000 C 
BRANCH  14  15
ATOM     15  C   UNL     1      17.422  18.883  14.859  1.00  0.00    -0.000 C 
BRANCH  15  16
ATOM     16  C   UNL     1      18.903  18.510  15.052  1.00  0.00    -0.000 C 
BRANCH  16  17
ATOM     17  C   UNL     1      19.426  18.632  16.498  1.00  0.00    -0.000 C 
BRANCH  17  18
ATOM     18  C   UNL     1      19.926  17.317  17.129  1.00  0.00    -0.000 C 
BRANCH  18  19
ATOM     19  C   UNL     1      20.093  17.359  18.658  1.00  0.00    -0.003 C 
ATOM     20  C   UNL     1      18.959  18.106  19.360  1.00  0.00     0.004 C 
ENDBRANCH  18  19
ENDBRANCH  17  18
ENDBRANCH  16  17
ENDBRANCH  15  16
ENDBRANCH  14  15
ENDBRANCH  13  14
ENDBRANCH  12  13
ENDBRANCH   1  12
TORSDOF 16
ENDMDL
MODEL 8
REMARK VINA RESULT:    -3.601      4.858      7.856
REMARK INTER + INTRA:          -9.587
REMARK INTER:                  -7.282
REMARK INTRA:                  -2.305
REMARK UNBOUND:                -2.618
REMARK SMILES CCCCCCCCCCCCCCCCCC(=O)[O-]
REMARK SMILES IDX 10 1 11 2 12 3 13 4 14 5 15 6 16 7 17 8 18 9 19 10 20 11
REMARK SMILES IDX 9 12 8 13 7 14 6 15 5 16 4 17 3 18 2 19 1 20
REMARK H PARENT
REMARK Flexibility Score: inf
ROOT
ATOM      1  C   UNL     1      13.815  16.576  16.793  1.00  0.00     0.000 C 
ENDROOT
BRANCH   1   2
ATOM      2  C   UNL     1      12.904  15.570  17.518  1.00  0.00     0.000 C 
BRANCH   2   3
ATOM      3  C   UNL     1      11.520  15.449  16.861  1.00  0.00     0.000 C 
BRANCH   3   4
ATOM      4  C   UNL     1      11.053  16.765  16.213  1.00  0.00     0.000 C 
BRANCH   4   5
ATOM      5  C   UNL     1      10.808  16.622  14.703  1.00  0.00     0.000 C 
BRANCH   5   6
ATOM      6  C   UNL     1      11.089  17.924  13.934  1.00  0.00     0.000 C 
BRANCH   6   7
ATOM      7  C   UNL     1      10.003  18.248  12.892  1.00  0.00     0.006 C 
BRANCH   7   8
ATOM      8  C   UNL     1      10.237  17.600  11.517  1.00  0.00     0.053 C 
BRANCH   8   9
ATOM      9  C   UNL     1       9.192  16.578  11.193  1.00  0.00     0.041 C 
ATOM     10  O   UNL     1       8.662  15.899  12.111  1.00  0.00    -0.550 OA
ATOM     11  O   UNL     1       8.829  16.349   9.872  1.00  0.00    -0.550 OA
ENDBRANCH   8   9
ENDBRANCH   7   8
ENDBRANCH   6   7
ENDBRANCH   5   6
ENDBRANCH   4   5
ENDBRANCH   3   4
ENDBRANCH   2   3
ENDBRANCH   1   2
BRANCH   1  12
ATOM     12  C   UNL     1      14.700  17.376  17.763  1.00  0.00     0.000 C 
BRANCH  12  13
ATOM     13  C   UNL     1      14.265  18.847  17.885  1.00  0.00    -0.000 C 
BRANCH  13  14
ATOM     14  C   UNL     1      13.413  19.311  16.691  1.00  0.00    -0.000 C 
BRANCH  14  15
ATOM     15  C   UNL     1      14.191  20.231  15.734  1.00  0.00    -0.000 C 
BRANCH  15  16
ATOM     16  C   UNL     1      14.427  19.591  14.353  1.00  0.00    -0.000 C 
BRANCH  16  17
ATOM     17  C   UNL     1      15.905  19.320  14.003  1.00  0.00    -0.000 C 
BRANCH  17  18
ATOM     18  C   UNL     1      16.493  18.023  14.592  1.00  0.00    -0.000 C 
BRANCH  18  19
ATOM     19  C   UNL     1      17.847  18.194  15.302  1.00  0.00    -0.003 C 
ATOM     20  C   UNL     1      17.761  19.087  16.540  1.00  0.00     0.004 C 
ENDBRANCH  18  19
ENDBRANCH  17  18
ENDBRANCH  16  17
ENDBRANCH  15  16
ENDBRANCH  14  15
ENDBRANCH  13  14
ENDBRANCH  12  13
ENDBRANCH   1  12
TORSDOF 16
ENDMDL
MODEL 9
REMARK VINA RESULT:    -3.590      1.469      3.031
REMARK INTER + INTRA:          -9.566
REMARK INTER:                  -6.375
REMARK INTRA:                  -3.191
REMARK UNBOUND:                -2.618
REMARK SMILES CCCCCCCCCCCCCCCCCC(=O)[O-]
REMARK SMILES IDX 10 1 11 2 12 3 13 4 14 5 15 6 16 7 17 8 18 9 19 10 20 11
REMARK SMILES IDX 9 12 8 13 7 14 6 15 5 16 4 17 3 18 2 19 1 20
REMARK H PARENT
REMARK Flexibility Score: inf
ROOT
ATOM      1  C   UNL     1      16.394  16.882  15.657  1.00  0.00     0.000 C 
ENDROOT
BRANCH   1   2
ATOM      2  C   UNL     1      14.889  16.711  15.933  1.00  0.00     0.000 C 
BRANCH   2   3
ATOM      3  C   UNL     1      14.530  16.951  17.408  1.00  0.00     0.000 C 
BRANCH   3   4
ATOM      4  C   UNL     1      14.309  18.440  17.729  1.00  0.00     0.000 C 
BRANCH   4   5
ATOM      5  C   UNL     1      15.306  18.970  18.773  1.00  0.00     0.000 C 
BRANCH   5   6
ATOM      6  C   UNL     1      16.570  19.567  18.130  1.00  0.00     0.000 C 
BRANCH   6   7
ATOM      7  C   UNL     1      17.825  18.712  18.377  1.00  0.00     0.006 C 
BRANCH   7   8
ATOM      8  C   UNL     1      19.034  19.103  17.512  1.00  0.00     0.053 C 
BRANCH   8   9
ATOM      9  C   UNL     1      19.714  17.905  16.922  1.00  0.00     0.041 C 
ATOM     10  O   UNL     1      20.021  17.888  15.702  1.00  0.00    -0.550 OA
ATOM     11  O   UNL     1      19.976  16.795  17.714  1.00  0.00    -0.550 OA
ENDBRANCH   8   9
ENDBRANCH   7   8
ENDBRANCH   6   7
ENDBRANCH   5   6
ENDBRANCH   4   5
ENDBRANCH   3   4
ENDBRANCH   2   3
ENDBRANCH   1   2
BRANCH   1  12
ATOM     12  C   UNL     1      16.672  17.612  14.332  1.00  0.00     0.000 C 
BRANCH  12  13
ATOM     13  C   UNL     1      16.770  19.138  14.508  1.00  0.00    -0.000 C 
BRANCH  13  14
ATOM     14  C   UNL     1      15.532  19.874  13.969  1.00  0.00    -0.000 C 
BRANCH  14  15
ATOM     15  C   UNL     1      14.837  20.726  15.045  1.00  0.00    -0.000 C 
BRANCH  15  16
ATOM     16  C   UNL     1      13.304  20.590  15.015  1.00  0.00    -0.000 C 
BRANCH  16  17
ATOM     17  C   UNL     1      12.776  19.271  14.416  1.00  0.00    -0.000 C 
BRANCH  17  18
ATOM     18  C   UNL     1      11.546  18.672  15.128  1.00  0.00    -0.000 C 
BRANCH  18  19
ATOM     19  C   UNL     1      11.332  17.167  14.890  1.00  0.00    -0.003 C 
ATOM     20  C   UNL     1      10.957  16.410  16.164  1.00  0.00     0.004 C 
ENDBRANCH  18  19
ENDBRANCH  17  18
ENDBRANCH  16  17
ENDBRANCH  15  16
ENDBRANCH  14  15
ENDBRANCH  13  14
ENDBRANCH  12  13
ENDBRANCH   1  12
TORSDOF 16
ENDMDL
