MODEL 1
REMARK VINA RESULT:    -7.127      0.000      0.000
REMARK INTER + INTRA:          -8.802
REMARK INTER:                  -8.586
REMARK INTRA:                  -0.217
REMARK UNBOUND:                -0.217
REMARK SMILES O=c1c(O)c(-c2ccc(O)c(O)c2)oc2cc(O)cc(O)c12
REMARK SMILES IDX 5 1 3 2 2 3 1 4 22 5 20 6 19 7 17 8 16 9 15 10 14 11 6 12
REMARK SMILES IDX 7 13 8 14 9 15 13 16 11 17 10 18 12 20 4 22 21 24 18 26
REMARK H PARENT 10 19 12 21 4 23 21 25 18 27
REMARK Flexibility Score: inf
ROOT
ATOM      1  C   UNL     1      46.009  40.413  53.471  1.00  0.00     0.180 A 
ATOM      2  C   UNL     1      46.244  40.838  52.152  1.00  0.00     0.208 A 
ATOM      3  C   UNL     1      45.219  41.494  51.454  1.00  0.00     0.238 A 
ATOM      4  O   UNL     1      45.418  41.824  50.256  1.00  0.00    -0.285 OA
ATOM      5  C   UNL     1      43.975  41.732  52.088  1.00  0.00     0.111 A 
ATOM      6  C   UNL     1      42.879  42.424  51.489  1.00  0.00     0.134 A 
ATOM      7  C   UNL     1      41.653  42.485  52.161  1.00  0.00     0.093 A 
ATOM      8  C   UNL     1      41.502  41.939  53.438  1.00  0.00     0.123 A 
ATOM      9  C   UNL     1      42.583  41.314  54.055  1.00  0.00     0.094 A 
ATOM     10  C   UNL     1      43.808  41.204  53.395  1.00  0.00     0.146 A 
ATOM     11  O   UNL     1      44.810  40.592  54.015  1.00  0.00    -0.452 OA
ENDROOT
BRANCH   1  12
ATOM     12  C   UNL     1      47.049  39.737  54.280  1.00  0.00     0.025 A 
ATOM     13  C   UNL     1      47.665  40.432  55.332  1.00  0.00     0.016 A 
ATOM     14  C   UNL     1      48.663  39.820  56.095  1.00  0.00     0.051 A 
ATOM     15  C   UNL     1      49.070  38.511  55.807  1.00  0.00     0.157 A 
ATOM     16  C   UNL     1      47.475  38.430  53.981  1.00  0.00     0.062 A 
ATOM     17  C   UNL     1      48.478  37.817  54.746  1.00  0.00     0.158 A 
BRANCH  15  18
ATOM     18  O   UNL     1      50.064  37.897  56.567  1.00  0.00    -0.504 OA
ATOM     19  H   UNL     1      50.151  38.068  57.562  1.00  0.00     0.293 HD
ENDBRANCH  15  18
BRANCH  17  20
ATOM     20  O   UNL     1      48.894  36.519  54.453  1.00  0.00    -0.504 OA
ATOM     21  H   UNL     1      48.333  35.899  53.880  1.00  0.00     0.293 HD
ENDBRANCH  17  20
ENDBRANCH   1  12
BRANCH   2  22
ATOM     22  O   UNL     1      47.472  40.573  51.538  1.00  0.00    -0.502 OA
ATOM     23  H   UNL     1      47.551  40.004  50.703  1.00  0.00     0.293 HD
ENDBRANCH   2  22
BRANCH   6  24
ATOM     24  O   UNL     1      42.952  43.084  50.259  1.00  0.00    -0.507 OA
ATOM     25  H   UNL     1      42.580  42.728  49.393  1.00  0.00     0.293 HD
ENDBRANCH   6  24
BRANCH   8  26
ATOM     26  O   UNL     1      40.281  42.020  54.106  1.00  0.00    -0.508 OA
ATOM     27  H   UNL     1      39.860  41.207  54.540  1.00  0.00     0.293 HD
ENDBRANCH   8  26
TORSDOF 6
ENDMDL
MODEL 2
REMARK VINA RESULT:    -6.996      1.372      6.554
REMARK INTER + INTRA:          -8.644
REMARK INTER:                  -8.489
REMARK INTRA:                  -0.156
REMARK UNBOUND:                -0.217
REMARK SMILES O=c1c(O)c(-c2ccc(O)c(O)c2)oc2cc(O)cc(O)c12
REMARK SMILES IDX 5 1 3 2 2 3 1 4 22 5 20 6 19 7 17 8 16 9 15 10 14 11 6 12
REMARK SMILES IDX 7 13 8 14 9 15 13 16 11 17 10 18 12 20 4 22 21 24 18 26
REMARK H PARENT 10 19 12 21 4 23 21 25 18 27
REMARK Flexibility Score: inf
ROOT
ATOM      1  C   UNL     1      45.242  40.679  53.222  1.00  0.00     0.180 A 
ATOM      2  C   UNL     1      45.902  40.775  51.985  1.00  0.00     0.208 A 
ATOM      3  C   UNL     1      47.220  40.304  51.877  1.00  0.00     0.238 A 
ATOM      4  O   UNL     1      47.824  40.442  50.782  1.00  0.00    -0.285 OA
ATOM      5  C   UNL     1      47.856  39.728  53.004  1.00  0.00     0.111 A 
ATOM      6  C   UNL     1      49.176  39.182  52.998  1.00  0.00     0.134 A 
ATOM      7  C   UNL     1      49.751  38.758  54.201  1.00  0.00     0.093 A 
ATOM      8  C   UNL     1      49.033  38.798  55.398  1.00  0.00     0.123 A 
ATOM      9  C   UNL     1      47.723  39.274  55.403  1.00  0.00     0.094 A 
ATOM     10  C   UNL     1      47.134  39.738  54.225  1.00  0.00     0.146 A 
ATOM     11  O   UNL     1      45.888  40.193  54.276  1.00  0.00    -0.452 OA
ENDROOT
BRANCH   1  12
ATOM     12  C   UNL     1      43.844  41.130  53.407  1.00  0.00     0.025 A 
ATOM     13  C   UNL     1      43.557  42.114  54.365  1.00  0.00     0.016 A 
ATOM     14  C   UNL     1      42.242  42.540  54.571  1.00  0.00     0.051 A 
ATOM     15  C   UNL     1      41.193  41.977  53.832  1.00  0.00     0.157 A 
ATOM     16  C   UNL     1      42.786  40.553  52.681  1.00  0.00     0.062 A 
ATOM     17  C   UNL     1      41.466  40.979  52.888  1.00  0.00     0.158 A 
BRANCH  15  18
ATOM     18  O   UNL     1      39.881  42.400  54.031  1.00  0.00    -0.504 OA
ATOM     19  H   UNL     1      39.208  41.824  54.526  1.00  0.00     0.293 HD
ENDBRANCH  15  18
BRANCH  17  20
ATOM     20  O   UNL     1      40.419  40.410  52.163  1.00  0.00    -0.504 OA
ATOM     21  H   UNL     1      39.528  40.197  52.597  1.00  0.00     0.293 HD
ENDBRANCH  17  20
ENDBRANCH   1  12
BRANCH   2  22
ATOM     22  O   UNL     1      45.263  41.367  50.892  1.00  0.00    -0.502 OA
ATOM     23  H   UNL     1      44.257  41.340  50.769  1.00  0.00     0.293 HD
ENDBRANCH   2  22
BRANCH   6  24
ATOM     24  O   UNL     1      49.944  39.011  51.842  1.00  0.00    -0.507 OA
ATOM     25  H   UNL     1      50.686  38.336  51.740  1.00  0.00     0.293 HD
ENDBRANCH   6  24
BRANCH   8  26
ATOM     26  O   UNL     1      49.609  38.358  56.589  1.00  0.00    -0.508 OA
ATOM     27  H   UNL     1      50.219  38.955  57.135  1.00  0.00     0.293 HD
ENDBRANCH   8  26
TORSDOF 6
ENDMDL
MODEL 3
REMARK VINA RESULT:    -6.220      1.510      3.047
REMARK INTER + INTRA:          -7.710
REMARK INTER:                  -7.383
REMARK INTRA:                  -0.327
REMARK UNBOUND:                -0.217
REMARK SMILES O=c1c(O)c(-c2ccc(O)c(O)c2)oc2cc(O)cc(O)c12
REMARK SMILES IDX 5 1 3 2 2 3 1 4 22 5 20 6 19 7 17 8 16 9 15 10 14 11 6 12
REMARK SMILES IDX 7 13 8 14 9 15 13 16 11 17 10 18 12 20 4 22 21 24 18 26
REMARK H PARENT 10 19 12 21 4 23 21 25 18 27
REMARK Flexibility Score: inf
ROOT
ATOM      1  C   UNL     1      45.137  41.307  53.968  1.00  0.00     0.180 A 
ATOM      2  C   UNL     1      44.009  41.539  54.773  1.00  0.00     0.208 A 
ATOM      3  C   UNL     1      42.832  42.017  54.177  1.00  0.00     0.238 A 
ATOM      4  O   UNL     1      41.843  42.274  54.911  1.00  0.00    -0.285 OA
ATOM      5  C   UNL     1      42.791  42.241  52.779  1.00  0.00     0.111 A 
ATOM      6  C   UNL     1      41.639  42.686  52.063  1.00  0.00     0.134 A 
ATOM      7  C   UNL     1      41.751  43.000  50.703  1.00  0.00     0.093 A 
ATOM      8  C   UNL     1      42.956  42.822  50.019  1.00  0.00     0.123 A 
ATOM      9  C   UNL     1      44.070  42.332  50.696  1.00  0.00     0.094 A 
ATOM     10  C   UNL     1      44.000  42.045  52.061  1.00  0.00     0.146 A 
ATOM     11  O   UNL     1      45.087  41.589  52.670  1.00  0.00    -0.452 OA
ENDROOT
BRANCH   1  12
ATOM     12  C   UNL     1      46.406  40.779  54.520  1.00  0.00     0.025 A 
ATOM     13  C   UNL     1      47.450  41.668  54.821  1.00  0.00     0.016 A 
ATOM     14  C   UNL     1      48.663  41.189  55.324  1.00  0.00     0.051 A 
ATOM     15  C   UNL     1      48.855  39.815  55.517  1.00  0.00     0.157 A 
ATOM     16  C   UNL     1      46.609  39.399  54.697  1.00  0.00     0.062 A 
ATOM     17  C   UNL     1      47.827  38.919  55.200  1.00  0.00     0.158 A 
BRANCH  15  18
ATOM     18  O   UNL     1      50.062  39.334  56.020  1.00  0.00    -0.504 OA
ATOM     19  H   UNL     1      50.899  39.303  55.449  1.00  0.00     0.293 HD
ENDBRANCH  15  18
BRANCH  17  20
ATOM     20  O   UNL     1      48.025  37.551  55.381  1.00  0.00    -0.504 OA
ATOM     21  H   UNL     1      48.883  37.095  55.090  1.00  0.00     0.293 HD
ENDBRANCH  17  20
ENDBRANCH   1  12
BRANCH   2  22
ATOM     22  O   UNL     1      44.078  41.332  56.154  1.00  0.00    -0.502 OA
ATOM     23  H   UNL     1      44.771  40.727  56.580  1.00  0.00     0.293 HD
ENDBRANCH   2  22
BRANCH   6  24
ATOM     24  O   UNL     1      40.367  42.808  52.630  1.00  0.00    -0.507 OA
ATOM     25  H   UNL     1      39.505  42.830  52.108  1.00  0.00     0.293 HD
ENDBRANCH   6  24
BRANCH   8  26
ATOM     26  O   UNL     1      43.054  43.122  48.661  1.00  0.00    -0.508 OA
ATOM     27  H   UNL     1      42.912  44.063  48.315  1.00  0.00     0.293 HD
ENDBRANCH   8  26
TORSDOF 6
ENDMDL
MODEL 4
REMARK VINA RESULT:    -6.218      1.464      2.049
REMARK INTER + INTRA:          -7.707
REMARK INTER:                  -7.390
REMARK INTRA:                  -0.318
REMARK UNBOUND:                -0.217
REMARK SMILES O=c1c(O)c(-c2ccc(O)c(O)c2)oc2cc(O)cc(O)c12
REMARK SMILES IDX 5 1 3 2 2 3 1 4 22 5 20 6 19 7 17 8 16 9 15 10 14 11 6 12
REMARK SMILES IDX 7 13 8 14 9 15 13 16 11 17 10 18 12 20 4 22 21 24 18 26
REMARK H PARENT 10 19 12 21 4 23 21 25 18 27
REMARK Flexibility Score: inf
ROOT
ATOM      1  C   UNL     1      45.377  41.372  53.275  1.00  0.00     0.180 A 
ATOM      2  C   UNL     1      45.403  41.624  51.893  1.00  0.00     0.208 A 
ATOM      3  C   UNL     1      44.223  42.033  51.252  1.00  0.00     0.238 A 
ATOM      4  O   UNL     1      44.240  42.204  50.005  1.00  0.00    -0.285 OA
ATOM      5  C   UNL     1      43.035  42.201  52.004  1.00  0.00     0.111 A 
ATOM      6  C   UNL     1      41.791  42.650  51.465  1.00  0.00     0.134 A 
ATOM      7  C   UNL     1      40.650  42.653  52.275  1.00  0.00     0.093 A 
ATOM      8  C   UNL     1      40.720  42.287  53.621  1.00  0.00     0.123 A 
ATOM      9  C   UNL     1      41.941  41.904  54.172  1.00  0.00     0.094 A 
ATOM     10  C   UNL     1      43.090  41.856  53.380  1.00  0.00     0.146 A 
ATOM     11  O   UNL     1      44.232  41.476  53.941  1.00  0.00    -0.452 OA
ENDROOT
BRANCH   1  12
ATOM     12  C   UNL     1      46.586  40.963  54.026  1.00  0.00     0.025 A 
ATOM     13  C   UNL     1      46.767  39.611  54.359  1.00  0.00     0.016 A 
ATOM     14  C   UNL     1      47.891  39.206  55.084  1.00  0.00     0.051 A 
ATOM     15  C   UNL     1      48.841  40.148  55.500  1.00  0.00     0.157 A 
ATOM     16  C   UNL     1      47.532  41.907  54.462  1.00  0.00     0.062 A 
ATOM     17  C   UNL     1      48.659  41.501  55.191  1.00  0.00     0.158 A 
BRANCH  15  18
ATOM     18  O   UNL     1      49.964  39.748  56.221  1.00  0.00    -0.504 OA
ATOM     19  H   UNL     1      50.762  39.321  55.765  1.00  0.00     0.293 HD
ENDBRANCH  15  18
BRANCH  17  20
ATOM     20  O   UNL     1      49.599  42.438  55.617  1.00  0.00    -0.504 OA
ATOM     21  H   UNL     1      50.038  43.082  54.968  1.00  0.00     0.293 HD
ENDBRANCH  17  20
ENDBRANCH   1  12
BRANCH   2  22
ATOM     22  O   UNL     1      46.581  41.430  51.166  1.00  0.00    -0.502 OA
ATOM     23  H   UNL     1      46.923  42.108  50.494  1.00  0.00     0.293 HD
ENDBRANCH   2  22
BRANCH   6  24
ATOM     24  O   UNL     1      41.633  43.125  50.160  1.00  0.00    -0.507 OA
ATOM     25  H   UNL     1      42.121  42.764  49.354  1.00  0.00     0.293 HD
ENDBRANCH   6  24
BRANCH   8  26
ATOM     26  O   UNL     1      39.581  42.309  54.425  1.00  0.00    -0.508 OA
ATOM     27  H   UNL     1      38.803  41.681  54.259  1.00  0.00     0.293 HD
ENDBRANCH   8  26
TORSDOF 6
ENDMDL
MODEL 5
REMARK VINA RESULT:    -6.216      2.088      6.693
REMARK INTER + INTRA:          -7.704
REMARK INTER:                  -7.605
REMARK INTRA:                  -0.100
REMARK UNBOUND:                -0.217
REMARK SMILES O=c1c(O)c(-c2ccc(O)c(O)c2)oc2cc(O)cc(O)c12
REMARK SMILES IDX 5 1 3 2 2 3 1 4 22 5 20 6 19 7 17 8 16 9 15 10 14 11 6 12
REMARK SMILES IDX 7 13 8 14 9 15 13 16 11 17 10 18 12 20 4 22 21 24 18 26
REMARK H PARENT 10 19 12 21 4 23 21 25 18 27
REMARK Flexibility Score: inf
ROOT
ATOM      1  C   UNL     1      45.154  40.854  52.856  1.00  0.00     0.180 A 
ATOM      2  C   UNL     1      45.958  40.146  53.765  1.00  0.00     0.208 A 
ATOM      3  C   UNL     1      47.273  39.818  53.401  1.00  0.00     0.238 A 
ATOM      4  O   UNL     1      47.970  39.138  54.197  1.00  0.00    -0.285 OA
ATOM      5  C   UNL     1      47.774  40.218  52.138  1.00  0.00     0.111 A 
ATOM      6  C   UNL     1      49.105  39.974  51.680  1.00  0.00     0.134 A 
ATOM      7  C   UNL     1      49.451  40.298  50.363  1.00  0.00     0.093 A 
ATOM      8  C   UNL     1      48.535  40.916  49.508  1.00  0.00     0.123 A 
ATOM      9  C   UNL     1      47.252  41.210  49.964  1.00  0.00     0.094 A 
ATOM     10  C   UNL     1      46.866  40.867  51.261  1.00  0.00     0.146 A 
ATOM     11  O   UNL     1      45.631  41.157  51.653  1.00  0.00    -0.452 OA
ENDROOT
BRANCH   1  12
ATOM     12  C   UNL     1      43.766  41.258  53.178  1.00  0.00     0.025 A 
ATOM     13  C   UNL     1      43.525  42.071  54.295  1.00  0.00     0.016 A 
ATOM     14  C   UNL     1      42.221  42.447  54.629  1.00  0.00     0.051 A 
ATOM     15  C   UNL     1      41.139  42.002  53.860  1.00  0.00     0.157 A 
ATOM     16  C   UNL     1      42.675  40.797  52.419  1.00  0.00     0.062 A 
ATOM     17  C   UNL     1      41.366  41.173  52.755  1.00  0.00     0.158 A 
BRANCH  15  18
ATOM     18  O   UNL     1      39.837  42.376  54.187  1.00  0.00    -0.504 OA
ATOM     19  H   UNL     1      39.310  43.022  53.610  1.00  0.00     0.293 HD
ENDBRANCH  15  18
BRANCH  17  20
ATOM     20  O   UNL     1      40.286  40.720  51.998  1.00  0.00    -0.504 OA
ATOM     21  H   UNL     1      40.302  39.816  51.540  1.00  0.00     0.293 HD
ENDBRANCH  17  20
ENDBRANCH   1  12
BRANCH   2  22
ATOM     22  O   UNL     1      45.436  39.743  54.998  1.00  0.00    -0.502 OA
ATOM     23  H   UNL     1      45.313  40.385  55.773  1.00  0.00     0.293 HD
ENDBRANCH   2  22
BRANCH   6  24
ATOM     24  O   UNL     1      50.121  39.448  52.482  1.00  0.00    -0.507 OA
ATOM     25  H   UNL     1      50.624  39.965  53.187  1.00  0.00     0.293 HD
ENDBRANCH   6  24
BRANCH   8  26
ATOM     26  O   UNL     1      48.894  41.249  48.203  1.00  0.00    -0.508 OA
ATOM     27  H   UNL     1      49.692  40.823  47.747  1.00  0.00     0.293 HD
ENDBRANCH   8  26
TORSDOF 6
ENDMDL
MODEL 6
REMARK VINA RESULT:    -6.055      1.759      3.113
REMARK INTER + INTRA:          -7.511
REMARK INTER:                  -7.448
REMARK INTRA:                  -0.063
REMARK UNBOUND:                -0.217
REMARK SMILES O=c1c(O)c(-c2ccc(O)c(O)c2)oc2cc(O)cc(O)c12
REMARK SMILES IDX 5 1 3 2 2 3 1 4 22 5 20 6 19 7 17 8 16 9 15 10 14 11 6 12
REMARK SMILES IDX 7 13 8 14 9 15 13 16 11 17 10 18 12 20 4 22 21 24 18 26
REMARK H PARENT 10 19 12 21 4 23 21 25 18 27
REMARK Flexibility Score: inf
ROOT
ATOM      1  C   UNL     1      44.800  40.583  53.427  1.00  0.00     0.180 A 
ATOM      2  C   UNL     1      44.185  41.145  54.559  1.00  0.00     0.208 A 
ATOM      3  C   UNL     1      42.888  41.669  54.441  1.00  0.00     0.238 A 
ATOM      4  O   UNL     1      42.365  42.219  55.445  1.00  0.00    -0.285 OA
ATOM      5  C   UNL     1      42.214  41.608  53.197  1.00  0.00     0.111 A 
ATOM      6  C   UNL     1      40.882  42.071  52.974  1.00  0.00     0.134 A 
ATOM      7  C   UNL     1      40.365  42.081  51.673  1.00  0.00     0.093 A 
ATOM      8  C   UNL     1      41.106  41.584  50.599  1.00  0.00     0.123 A 
ATOM      9  C   UNL     1      42.385  41.075  50.816  1.00  0.00     0.094 A 
ATOM     10  C   UNL     1      42.942  41.085  52.096  1.00  0.00     0.146 A 
ATOM     11  O   UNL     1      44.167  40.600  52.259  1.00  0.00    -0.452 OA
ENDROOT
BRANCH   1  12
ATOM     12  C   UNL     1      46.155  39.989  53.478  1.00  0.00     0.025 A 
ATOM     13  C   UNL     1      47.117  40.380  52.533  1.00  0.00     0.016 A 
ATOM     14  C   UNL     1      48.396  39.817  52.551  1.00  0.00     0.051 A 
ATOM     15  C   UNL     1      48.727  38.844  53.503  1.00  0.00     0.157 A 
ATOM     16  C   UNL     1      46.485  38.998  54.420  1.00  0.00     0.062 A 
ATOM     17  C   UNL     1      47.768  38.432  54.436  1.00  0.00     0.158 A 
BRANCH  15  18
ATOM     18  O   UNL     1      50.001  38.282  53.525  1.00  0.00    -0.504 OA
ATOM     19  H   UNL     1      50.446  38.013  54.396  1.00  0.00     0.293 HD
ENDBRANCH  15  18
BRANCH  17  20
ATOM     20  O   UNL     1      48.096  37.454  55.375  1.00  0.00    -0.504 OA
ATOM     21  H   UNL     1      48.035  36.466  55.155  1.00  0.00     0.293 HD
ENDBRANCH  17  20
ENDBRANCH   1  12
BRANCH   2  22
ATOM     22  O   UNL     1      44.877  41.215  55.771  1.00  0.00    -0.502 OA
ATOM     23  H   UNL     1      45.019  40.405  56.364  1.00  0.00     0.293 HD
ENDBRANCH   2  22
BRANCH   6  24
ATOM     24  O   UNL     1      40.025  42.501  53.991  1.00  0.00    -0.507 OA
ATOM     25  H   UNL     1      40.180  42.348  54.975  1.00  0.00     0.293 HD
ENDBRANCH   6  24
BRANCH   8  26
ATOM     26  O   UNL     1      40.576  41.583  49.309  1.00  0.00    -0.508 OA
ATOM     27  H   UNL     1      41.072  42.003  48.532  1.00  0.00     0.293 HD
ENDBRANCH   8  26
TORSDOF 6
ENDMDL
MODEL 7
REMARK VINA RESULT:    -5.986      2.059      6.989
REMARK INTER + INTRA:          -7.427
REMARK INTER:                  -7.249
REMARK INTRA:                  -0.178
REMARK UNBOUND:                -0.217
REMARK SMILES O=c1c(O)c(-c2ccc(O)c(O)c2)oc2cc(O)cc(O)c12
REMARK SMILES IDX 5 1 3 2 2 3 1 4 22 5 20 6 19 7 17 8 16 9 15 10 14 11 6 12
REMARK SMILES IDX 7 13 8 14 9 15 13 16 11 17 10 18 12 20 4 22 21 24 18 26
REMARK H PARENT 10 19 12 21 4 23 21 25 18 27
REMARK Flexibility Score: inf
ROOT
ATOM      1  C   UNL     1      45.296  40.964  54.075  1.00  0.00     0.180 A 
ATOM      2  C   UNL     1      45.825  40.748  55.359  1.00  0.00     0.208 A 
ATOM      3  C   UNL     1      47.163  40.345  55.487  1.00  0.00     0.238 A 
ATOM      4  O   UNL     1      47.614  40.101  56.637  1.00  0.00    -0.285 OA
ATOM      5  C   UNL     1      47.961  40.178  54.330  1.00  0.00     0.111 A 
ATOM      6  C   UNL     1      49.341  39.811  54.344  1.00  0.00     0.134 A 
ATOM      7  C   UNL     1      49.996  39.547  53.135  1.00  0.00     0.093 A 
ATOM      8  C   UNL     1      49.341  39.700  51.911  1.00  0.00     0.123 A 
ATOM      9  C   UNL     1      48.012  40.115  51.885  1.00  0.00     0.094 A 
ATOM     10  C   UNL     1      47.321  40.351  53.076  1.00  0.00     0.146 A 
ATOM     11  O   UNL     1      46.052  40.736  53.007  1.00  0.00    -0.452 OA
ENDROOT
BRANCH   1  12
ATOM     12  C   UNL     1      43.902  41.415  53.861  1.00  0.00     0.025 A 
ATOM     13  C   UNL     1      43.511  42.687  54.308  1.00  0.00     0.016 A 
ATOM     14  C   UNL     1      42.196  43.125  54.134  1.00  0.00     0.051 A 
ATOM     15  C   UNL     1      41.248  42.291  53.526  1.00  0.00     0.157 A 
ATOM     16  C   UNL     1      42.943  40.574  53.269  1.00  0.00     0.062 A 
ATOM     17  C   UNL     1      41.622  41.012  53.096  1.00  0.00     0.158 A 
BRANCH  15  18
ATOM     18  O   UNL     1      39.936  42.724  53.349  1.00  0.00    -0.504 OA
ATOM     19  H   UNL     1      39.302  42.829  54.133  1.00  0.00     0.293 HD
ENDBRANCH  15  18
BRANCH  17  20
ATOM     20  O   UNL     1      40.674  40.180  52.503  1.00  0.00    -0.504 OA
ATOM     21  H   UNL     1      40.345  39.338  52.963  1.00  0.00     0.293 HD
ENDBRANCH  17  20
ENDBRANCH   1  12
BRANCH   2  22
ATOM     22  O   UNL     1      45.012  40.898  56.487  1.00  0.00    -0.502 OA
ATOM     23  H   UNL     1      44.652  41.798  56.783  1.00  0.00     0.293 HD
ENDBRANCH   2  22
BRANCH   6  24
ATOM     24  O   UNL     1      50.113  39.720  55.506  1.00  0.00    -0.507 OA
ATOM     25  H   UNL     1      51.078  40.002  55.578  1.00  0.00     0.293 HD
ENDBRANCH   6  24
BRANCH   8  26
ATOM     26  O   UNL     1      50.006  39.450  50.712  1.00  0.00    -0.508 OA
ATOM     27  H   UNL     1      50.862  38.908  50.683  1.00  0.00     0.293 HD
ENDBRANCH   8  26
TORSDOF 6
ENDMDL
MODEL 8
REMARK VINA RESULT:    -5.694      2.558      4.626
REMARK INTER + INTRA:          -7.075
REMARK INTER:                  -6.823
REMARK INTRA:                  -0.253
REMARK UNBOUND:                -0.217
REMARK SMILES O=c1c(O)c(-c2ccc(O)c(O)c2)oc2cc(O)cc(O)c12
REMARK SMILES IDX 5 1 3 2 2 3 1 4 22 5 20 6 19 7 17 8 16 9 15 10 14 11 6 12
REMARK SMILES IDX 7 13 8 14 9 15 13 16 11 17 10 18 12 20 4 22 21 24 18 26
REMARK H PARENT 10 19 12 21 4 23 21 25 18 27
REMARK Flexibility Score: inf
ROOT
ATOM      1  C   UNL     1      46.511  41.430  51.857  1.00  0.00     0.180 A 
ATOM      2  C   UNL     1      46.908  41.234  53.190  1.00  0.00     0.208 A 
ATOM      3  C   UNL     1      45.945  41.320  54.208  1.00  0.00     0.238 A 
ATOM      4  O   UNL     1      46.315  41.195  55.404  1.00  0.00    -0.285 OA
ATOM      5  C   UNL     1      44.593  41.585  53.877  1.00  0.00     0.111 A 
ATOM      6  C   UNL     1      43.527  41.654  54.824  1.00  0.00     0.134 A 
ATOM      7  C   UNL     1      42.254  42.053  54.400  1.00  0.00     0.093 A 
ATOM      8  C   UNL     1      41.993  42.321  53.054  1.00  0.00     0.123 A 
ATOM      9  C   UNL     1      43.014  42.199  52.114  1.00  0.00     0.094 A 
ATOM     10  C   UNL     1      44.303  41.838  52.512  1.00  0.00     0.146 A 
ATOM     11  O   UNL     1      45.249  41.743  51.585  1.00  0.00    -0.452 OA
ENDROOT
BRANCH   1  12
ATOM     12  C   UNL     1      47.464  41.331  50.727  1.00  0.00     0.025 A 
ATOM     13  C   UNL     1      47.804  42.486  50.006  1.00  0.00     0.016 A 
ATOM     14  C   UNL     1      48.686  42.411  48.924  1.00  0.00     0.051 A 
ATOM     15  C   UNL     1      49.227  41.178  48.538  1.00  0.00     0.157 A 
ATOM     16  C   UNL     1      47.995  40.092  50.324  1.00  0.00     0.062 A 
ATOM     17  C   UNL     1      48.878  40.016  49.237  1.00  0.00     0.158 A 
BRANCH  15  18
ATOM     18  O   UNL     1      50.108  41.099  47.462  1.00  0.00    -0.504 OA
ATOM     19  H   UNL     1      50.927  41.693  47.403  1.00  0.00     0.293 HD
ENDBRANCH  15  18
BRANCH  17  20
ATOM     20  O   UNL     1      49.407  38.789  48.843  1.00  0.00    -0.504 OA
ATOM     21  H   UNL     1      49.200  37.934  49.348  1.00  0.00     0.293 HD
ENDBRANCH  17  20
ENDBRANCH   1  12
BRANCH   2  22
ATOM     22  O   UNL     1      48.251  40.994  53.495  1.00  0.00    -0.502 OA
ATOM     23  H   UNL     1      48.710  41.412  54.297  1.00  0.00     0.293 HD
ENDBRANCH   2  22
BRANCH   6  24
ATOM     24  O   UNL     1      43.659  41.318  56.174  1.00  0.00    -0.507 OA
ATOM     25  H   UNL     1      42.915  41.365  56.854  1.00  0.00     0.293 HD
ENDBRANCH   6  24
BRANCH   8  26
ATOM     26  O   UNL     1      40.718  42.702  52.639  1.00  0.00    -0.508 OA
ATOM     27  H   UNL     1      40.582  43.353  51.874  1.00  0.00     0.293 HD
ENDBRANCH   8  26
TORSDOF 6
ENDMDL
