MODEL 1
REMARK VINA RESULT:    -4.255      0.000      0.000
REMARK INTER + INTRA:          -5.162
REMARK INTER:                  -5.125
REMARK INTRA:                  -0.037
REMARK UNBOUND:                -0.037
REMARK SMILES O=c1c(O)c(-c2ccc(O)cc2O)oc2cc(O)cc(O)c12
REMARK SMILES IDX 5 1 3 2 2 3 1 4 22 5 20 6 19 7 17 8 16 9 15 10 14 11 6 12
REMARK SMILES IDX 8 13 7 14 9 15 11 16 12 17 10 18 13 20 4 22 21 24 18 26
REMARK H PARENT 10 19 13 21 4 23 21 25 18 27
REMARK Flexibility Score: inf
ROOT
ATOM      1  C   UNL     1     -13.748  30.513  11.436  1.00  0.00     0.184 A 
ATOM      2  C   UNL     1     -12.881  29.492  11.857  1.00  0.00     0.208 A 
ATOM      3  C   UNL     1     -13.062  28.927  13.129  1.00  0.00     0.238 A 
ATOM      4  O   UNL     1     -12.316  27.977  13.480  1.00  0.00    -0.285 OA
ATOM      5  C   UNL     1     -14.099  29.403  13.969  1.00  0.00     0.111 A 
ATOM      6  C   UNL     1     -14.349  28.932  15.293  1.00  0.00     0.134 A 
ATOM      7  C   UNL     1     -15.481  29.382  15.984  1.00  0.00     0.093 A 
ATOM      8  C   UNL     1     -16.334  30.335  15.423  1.00  0.00     0.123 A 
ATOM      9  C   UNL     1     -16.066  30.845  14.156  1.00  0.00     0.094 A 
ATOM     10  C   UNL     1     -14.965  30.388  13.427  1.00  0.00     0.146 A 
ATOM     11  O   UNL     1     -14.751  30.893  12.218  1.00  0.00    -0.451 OA
ENDROOT
BRANCH   1  12
ATOM     12  C   UNL     1     -13.603  31.161  10.116  1.00  0.00     0.063 A 
ATOM     13  C   UNL     1     -12.142  32.055   8.390  1.00  0.00     0.047 A 
ATOM     14  C   UNL     1     -12.315  31.449   9.637  1.00  0.00     0.020 A 
ATOM     15  C   UNL     1     -13.251  32.368   7.600  1.00  0.00     0.119 A 
ATOM     16  C   UNL     1     -14.540  32.063   8.058  1.00  0.00     0.093 A 
ATOM     17  C   UNL     1     -14.721  31.449   9.306  1.00  0.00     0.130 A 
BRANCH  15  18
ATOM     18  O   UNL     1     -13.063  32.976   6.361  1.00  0.00    -0.508 OA
ATOM     19  H   UNL     1     -12.573  32.506   5.609  1.00  0.00     0.293 HD
ENDBRANCH  15  18
BRANCH  17  20
ATOM     20  O   UNL     1     -16.006  31.105   9.729  1.00  0.00    -0.507 OA
ATOM     21  H   UNL     1     -16.417  31.510  10.563  1.00  0.00     0.293 HD
ENDBRANCH  17  20
ENDBRANCH   1  12
BRANCH   2  22
ATOM     22  O   UNL     1     -11.879  29.029  11.000  1.00  0.00    -0.502 OA
ATOM     23  H   UNL     1     -11.861  29.255  10.013  1.00  0.00     0.293 HD
ENDBRANCH   2  22
BRANCH   6  24
ATOM     24  O   UNL     1     -13.508  28.050  15.980  1.00  0.00    -0.507 OA
ATOM     25  H   UNL     1     -12.967  27.318  15.546  1.00  0.00     0.293 HD
ENDBRANCH   6  24
BRANCH   8  26
ATOM     26  O   UNL     1     -17.450  30.788  16.125  1.00  0.00    -0.508 OA
ATOM     27  H   UNL     1     -18.329  30.285  16.106  1.00  0.00     0.293 HD
ENDBRANCH   8  26
TORSDOF 6
ENDMDL
MODEL 2
REMARK VINA RESULT:    -4.173      5.277      9.112
REMARK INTER + INTRA:          -5.064
REMARK INTER:                  -5.506
REMARK INTRA:                   0.442
REMARK UNBOUND:                -0.037
REMARK SMILES O=c1c(O)c(-c2ccc(O)cc2O)oc2cc(O)cc(O)c12
REMARK SMILES IDX 5 1 3 2 2 3 1 4 22 5 20 6 19 7 17 8 16 9 15 10 14 11 6 12
REMARK SMILES IDX 8 13 7 14 9 15 11 16 12 17 10 18 13 20 4 22 21 24 18 26
REMARK H PARENT 10 19 13 21 4 23 21 25 18 27
REMARK Flexibility Score: inf
ROOT
ATOM      1  C   UNL     1     -19.422  27.195  15.794  1.00  0.00     0.184 A 
ATOM      2  C   UNL     1     -19.990  28.478  15.780  1.00  0.00     0.208 A 
ATOM      3  C   UNL     1     -19.143  29.597  15.801  1.00  0.00     0.238 A 
ATOM      4  O   UNL     1     -19.656  30.745  15.735  1.00  0.00    -0.285 OA
ATOM      5  C   UNL     1     -17.740  29.416  15.853  1.00  0.00     0.111 A 
ATOM      6  C   UNL     1     -16.787  30.478  15.920  1.00  0.00     0.134 A 
ATOM      7  C   UNL     1     -15.421  30.186  15.836  1.00  0.00     0.093 A 
ATOM      8  C   UNL     1     -14.970  28.867  15.755  1.00  0.00     0.123 A 
ATOM      9  C   UNL     1     -15.888  27.820  15.750  1.00  0.00     0.094 A 
ATOM     10  C   UNL     1     -17.260  28.081  15.794  1.00  0.00     0.146 A 
ATOM     11  O   UNL     1     -18.102  27.055  15.776  1.00  0.00    -0.451 OA
ENDROOT
BRANCH   1  12
ATOM     12  C   UNL     1     -20.257  25.976  15.789  1.00  0.00     0.063 A 
ATOM     13  C   UNL     1     -22.435  24.948  16.123  1.00  0.00     0.047 A 
ATOM     14  C   UNL     1     -21.617  26.080  16.125  1.00  0.00     0.020 A 
ATOM     15  C   UNL     1     -21.911  23.701  15.773  1.00  0.00     0.119 A 
ATOM     16  C   UNL     1     -20.562  23.589  15.413  1.00  0.00     0.093 A 
ATOM     17  C   UNL     1     -19.734  24.722  15.406  1.00  0.00     0.130 A 
BRANCH  15  18
ATOM     18  O   UNL     1     -22.739  22.580  15.780  1.00  0.00    -0.508 OA
ATOM     19  H   UNL     1     -22.646  21.857  16.484  1.00  0.00     0.293 HD
ENDBRANCH  15  18
BRANCH  17  20
ATOM     20  O   UNL     1     -18.405  24.608  14.998  1.00  0.00    -0.507 OA
ATOM     21  H   UNL     1     -17.992  23.709  14.778  1.00  0.00     0.293 HD
ENDBRANCH  17  20
ENDBRANCH   1  12
BRANCH   2  22
ATOM     22  O   UNL     1     -21.378  28.628  15.709  1.00  0.00    -0.502 OA
ATOM     23  H   UNL     1     -21.985  28.442  16.498  1.00  0.00     0.293 HD
ENDBRANCH   2  22
BRANCH   6  24
ATOM     24  O   UNL     1     -17.129  31.823  16.094  1.00  0.00    -0.507 OA
ATOM     25  H   UNL     1     -16.480  32.593  16.037  1.00  0.00     0.293 HD
ENDBRANCH   6  24
BRANCH   8  26
ATOM     26  O   UNL     1     -13.607  28.585  15.688  1.00  0.00    -0.508 OA
ATOM     27  H   UNL     1     -12.908  29.308  15.815  1.00  0.00     0.293 HD
ENDBRANCH   8  26
TORSDOF 6
ENDMDL
MODEL 3
REMARK VINA RESULT:    -4.081      1.236      2.910
REMARK INTER + INTRA:          -4.953
REMARK INTER:                  -4.871
REMARK INTRA:                  -0.082
REMARK UNBOUND:                -0.037
REMARK SMILES O=c1c(O)c(-c2ccc(O)cc2O)oc2cc(O)cc(O)c12
REMARK SMILES IDX 5 1 3 2 2 3 1 4 22 5 20 6 19 7 17 8 16 9 15 10 14 11 6 12
REMARK SMILES IDX 8 13 7 14 9 15 11 16 12 17 10 18 13 20 4 22 21 24 18 26
REMARK H PARENT 10 19 13 21 4 23 21 25 18 27
REMARK Flexibility Score: inf
ROOT
ATOM      1  C   UNL     1     -13.769  30.577  11.476  1.00  0.00     0.184 A 
ATOM      2  C   UNL     1     -14.667  31.167  12.380  1.00  0.00     0.208 A 
ATOM      3  C   UNL     1     -14.891  30.545  13.618  1.00  0.00     0.238 A 
ATOM      4  O   UNL     1     -15.656  31.105  14.446  1.00  0.00    -0.285 OA
ATOM      5  C   UNL     1     -14.225  29.335  13.929  1.00  0.00     0.111 A 
ATOM      6  C   UNL     1     -14.407  28.596  15.138  1.00  0.00     0.134 A 
ATOM      7  C   UNL     1     -13.599  27.481  15.394  1.00  0.00     0.093 A 
ATOM      8  C   UNL     1     -12.663  27.040  14.456  1.00  0.00     0.123 A 
ATOM      9  C   UNL     1     -12.520  27.718  13.248  1.00  0.00     0.094 A 
ATOM     10  C   UNL     1     -13.284  28.855  12.980  1.00  0.00     0.146 A 
ATOM     11  O   UNL     1     -13.109  29.479  11.821  1.00  0.00    -0.451 OA
ENDROOT
BRANCH   1  12
ATOM     12  C   UNL     1     -13.500  31.172  10.150  1.00  0.00     0.063 A 
ATOM     13  C   UNL     1     -11.883  31.985   8.527  1.00  0.00     0.047 A 
ATOM     14  C   UNL     1     -12.171  31.430   9.776  1.00  0.00     0.020 A 
ATOM     15  C   UNL     1     -12.914  32.277   7.631  1.00  0.00     0.119 A 
ATOM     16  C   UNL     1     -14.242  32.002   7.985  1.00  0.00     0.093 A 
ATOM     17  C   UNL     1     -14.540  31.439   9.235  1.00  0.00     0.130 A 
BRANCH  15  18
ATOM     18  O   UNL     1     -12.611  32.835   6.391  1.00  0.00    -0.508 OA
ATOM     19  H   UNL     1     -11.829  33.468   6.272  1.00  0.00     0.293 HD
ENDBRANCH  15  18
BRANCH  17  20
ATOM     20  O   UNL     1     -15.861  31.124   9.557  1.00  0.00    -0.507 OA
ATOM     21  H   UNL     1     -16.109  30.729  10.456  1.00  0.00     0.293 HD
ENDBRANCH  17  20
ENDBRANCH   1  12
BRANCH   2  22
ATOM     22  O   UNL     1     -15.296  32.371  12.055  1.00  0.00    -0.502 OA
ATOM     23  H   UNL     1     -15.342  32.721  11.107  1.00  0.00     0.293 HD
ENDBRANCH   2  22
BRANCH   6  24
ATOM     24  O   UNL     1     -15.377  28.899  16.098  1.00  0.00    -0.507 OA
ATOM     25  H   UNL     1     -15.201  28.983  17.087  1.00  0.00     0.293 HD
ENDBRANCH   6  24
BRANCH   8  26
ATOM     26  O   UNL     1     -11.875  25.920  14.713  1.00  0.00    -0.508 OA
ATOM     27  H   UNL     1     -11.290  25.507  13.996  1.00  0.00     0.293 HD
ENDBRANCH   8  26
TORSDOF 6
ENDMDL
MODEL 4
REMARK VINA RESULT:    -3.616      3.510      5.649
REMARK INTER + INTRA:          -4.392
REMARK INTER:                  -4.055
REMARK INTRA:                  -0.338
REMARK UNBOUND:                -0.037
REMARK SMILES O=c1c(O)c(-c2ccc(O)cc2O)oc2cc(O)cc(O)c12
REMARK SMILES IDX 5 1 3 2 2 3 1 4 22 5 20 6 19 7 17 8 16 9 15 10 14 11 6 12
REMARK SMILES IDX 8 13 7 14 9 15 11 16 12 17 10 18 13 20 4 22 21 24 18 26
REMARK H PARENT 10 19 13 21 4 23 21 25 18 27
REMARK Flexibility Score: inf
ROOT
ATOM      1  C   UNL     1     -16.526  29.747  15.213  1.00  0.00     0.184 A 
ATOM      2  C   UNL     1     -16.450  28.346  15.178  1.00  0.00     0.208 A 
ATOM      3  C   UNL     1     -17.617  27.597  15.395  1.00  0.00     0.238 A 
ATOM      4  O   UNL     1     -17.555  26.343  15.311  1.00  0.00    -0.285 OA
ATOM      5  C   UNL     1     -18.840  28.260  15.659  1.00  0.00     0.111 A 
ATOM      6  C   UNL     1     -20.077  27.602  15.934  1.00  0.00     0.134 A 
ATOM      7  C   UNL     1     -21.250  28.357  16.052  1.00  0.00     0.093 A 
ATOM      8  C   UNL     1     -21.220  29.750  15.972  1.00  0.00     0.123 A 
ATOM      9  C   UNL     1     -20.010  30.407  15.763  1.00  0.00     0.094 A 
ATOM     10  C   UNL     1     -18.828  29.679  15.604  1.00  0.00     0.146 A 
ATOM     11  O   UNL     1     -17.697  30.342  15.397  1.00  0.00    -0.451 OA
ENDROOT
BRANCH   1  12
ATOM     12  C   UNL     1     -15.332  30.594  15.008  1.00  0.00     0.063 A 
ATOM     13  C   UNL     1     -13.577  31.977  15.966  1.00  0.00     0.047 A 
ATOM     14  C   UNL     1     -14.710  31.177  16.124  1.00  0.00     0.020 A 
ATOM     15  C   UNL     1     -13.040  32.195  14.694  1.00  0.00     0.119 A 
ATOM     16  C   UNL     1     -13.639  31.599  13.576  1.00  0.00     0.093 A 
ATOM     17  C   UNL     1     -14.774  30.789  13.727  1.00  0.00     0.130 A 
BRANCH  15  18
ATOM     18  O   UNL     1     -11.912  32.999  14.551  1.00  0.00    -0.508 OA
ATOM     19  H   UNL     1     -11.560  33.559  15.319  1.00  0.00     0.293 HD
ENDBRANCH  15  18
BRANCH  17  20
ATOM     20  O   UNL     1     -15.331  30.161  12.612  1.00  0.00    -0.507 OA
ATOM     21  H   UNL     1     -16.220  29.677  12.664  1.00  0.00     0.293 HD
ENDBRANCH  17  20
ENDBRANCH   1  12
BRANCH   2  22
ATOM     22  O   UNL     1     -15.234  27.718  14.897  1.00  0.00    -0.502 OA
ATOM     23  H   UNL     1     -14.494  28.175  14.379  1.00  0.00     0.293 HD
ENDBRANCH   2  22
BRANCH   6  24
ATOM     24  O   UNL     1     -20.200  26.222  16.125  1.00  0.00    -0.507 OA
ATOM     25  H   UNL     1     -19.657  25.523  15.640  1.00  0.00     0.293 HD
ENDBRANCH   6  24
BRANCH   8  26
ATOM     26  O   UNL     1     -22.391  30.494  16.107  1.00  0.00    -0.508 OA
ATOM     27  H   UNL     1     -23.260  30.198  15.679  1.00  0.00     0.293 HD
ENDBRANCH   8  26
TORSDOF 6
ENDMDL
MODEL 5
REMARK VINA RESULT:    -2.701      4.406      7.094
REMARK INTER + INTRA:          -3.291
REMARK INTER:                  -3.517
REMARK INTRA:                   0.226
REMARK UNBOUND:                -0.037
REMARK SMILES O=c1c(O)c(-c2ccc(O)cc2O)oc2cc(O)cc(O)c12
REMARK SMILES IDX 5 1 3 2 2 3 1 4 22 5 20 6 19 7 17 8 16 9 15 10 14 11 6 12
REMARK SMILES IDX 8 13 7 14 9 15 11 16 12 17 10 18 13 20 4 22 21 24 18 26
REMARK H PARENT 10 19 13 21 4 23 21 25 18 27
REMARK Flexibility Score: inf
ROOT
ATOM      1  C   UNL     1     -16.865  28.082  15.327  1.00  0.00     0.184 A 
ATOM      2  C   UNL     1     -15.830  27.250  14.870  1.00  0.00     0.208 A 
ATOM      3  C   UNL     1     -14.549  27.794  14.692  1.00  0.00     0.238 A 
ATOM      4  O   UNL     1     -13.613  27.033  14.333  1.00  0.00    -0.285 OA
ATOM      5  C   UNL     1     -14.324  29.167  14.958  1.00  0.00     0.111 A 
ATOM      6  C   UNL     1     -13.075  29.835  14.773  1.00  0.00     0.134 A 
ATOM      7  C   UNL     1     -12.934  31.164  15.191  1.00  0.00     0.093 A 
ATOM      8  C   UNL     1     -14.015  31.868  15.726  1.00  0.00     0.123 A 
ATOM      9  C   UNL     1     -15.253  31.245  15.855  1.00  0.00     0.094 A 
ATOM     10  C   UNL     1     -15.415  29.909  15.481  1.00  0.00     0.146 A 
ATOM     11  O   UNL     1     -16.610  29.349  15.631  1.00  0.00    -0.451 OA
ENDROOT
BRANCH   1  12
ATOM     12  C   UNL     1     -18.240  27.576  15.520  1.00  0.00     0.063 A 
ATOM     13  C   UNL     1     -19.713  25.718  16.053  1.00  0.00     0.047 A 
ATOM     14  C   UNL     1     -18.427  26.226  15.857  1.00  0.00     0.020 A 
ATOM     15  C   UNL     1     -20.827  26.552  15.930  1.00  0.00     0.119 A 
ATOM     16  C   UNL     1     -20.650  27.907  15.617  1.00  0.00     0.093 A 
ATOM     17  C   UNL     1     -19.361  28.427  15.425  1.00  0.00     0.130 A 
BRANCH  15  18
ATOM     18  O   UNL     1     -22.103  26.030  16.124  1.00  0.00    -0.508 OA
ATOM     19  H   UNL     1     -22.754  25.921  15.355  1.00  0.00     0.293 HD
ENDBRANCH  15  18
BRANCH  17  20
ATOM     20  O   UNL     1     -19.194  29.787  15.163  1.00  0.00    -0.507 OA
ATOM     21  H   UNL     1     -19.982  30.425  15.139  1.00  0.00     0.293 HD
ENDBRANCH  17  20
ENDBRANCH   1  12
BRANCH   2  22
ATOM     22  O   UNL     1     -16.075  25.895  14.633  1.00  0.00    -0.502 OA
ATOM     23  H   UNL     1     -15.415  25.171  14.888  1.00  0.00     0.293 HD
ENDBRANCH   2  22
BRANCH   6  24
ATOM     24  O   UNL     1     -11.960  29.250  14.164  1.00  0.00    -0.507 OA
ATOM     25  H   UNL     1     -11.002  29.485  14.372  1.00  0.00     0.293 HD
ENDBRANCH   6  24
BRANCH   8  26
ATOM     26  O   UNL     1     -13.869  33.196  16.125  1.00  0.00    -0.508 OA
ATOM     27  H   UNL     1     -13.371  33.444  16.972  1.00  0.00     0.293 HD
ENDBRANCH   8  26
TORSDOF 6
ENDMDL
MODEL 6
REMARK VINA RESULT:    -1.886      2.975      6.487
REMARK INTER + INTRA:          -2.309
REMARK INTER:                  -1.925
REMARK INTRA:                  -0.385
REMARK UNBOUND:                -0.037
REMARK SMILES O=c1c(O)c(-c2ccc(O)cc2O)oc2cc(O)cc(O)c12
REMARK SMILES IDX 5 1 3 2 2 3 1 4 22 5 20 6 19 7 17 8 16 9 15 10 14 11 6 12
REMARK SMILES IDX 8 13 7 14 9 15 11 16 12 17 10 18 13 20 4 22 21 24 18 26
REMARK H PARENT 10 19 13 21 4 23 21 25 18 27
REMARK Flexibility Score: inf
ROOT
ATOM      1  C   UNL     1     -15.594  30.222  14.177  1.00  0.00     0.184 A 
ATOM      2  C   UNL     1     -15.080  30.007  12.889  1.00  0.00     0.208 A 
ATOM      3  C   UNL     1     -14.008  30.796  12.445  1.00  0.00     0.238 A 
ATOM      4  O   UNL     1     -13.516  30.565  11.310  1.00  0.00    -0.285 OA
ATOM      5  C   UNL     1     -13.476  31.801  13.290  1.00  0.00     0.111 A 
ATOM      6  C   UNL     1     -12.416  32.687  12.929  1.00  0.00     0.134 A 
ATOM      7  C   UNL     1     -11.883  33.554  13.890  1.00  0.00     0.093 A 
ATOM      8  C   UNL     1     -12.415  33.614  15.180  1.00  0.00     0.123 A 
ATOM      9  C   UNL     1     -13.488  32.796  15.525  1.00  0.00     0.094 A 
ATOM     10  C   UNL     1     -14.017  31.894  14.599  1.00  0.00     0.146 A 
ATOM     11  O   UNL     1     -15.033  31.124  14.972  1.00  0.00    -0.451 OA
ENDROOT
BRANCH   1  12
ATOM     12  C   UNL     1     -16.731  29.436  14.700  1.00  0.00     0.063 A 
ATOM     13  C   UNL     1     -19.128  29.230  15.049  1.00  0.00     0.047 A 
ATOM     14  C   UNL     1     -18.031  29.951  14.572  1.00  0.00     0.020 A 
ATOM     15  C   UNL     1     -18.944  27.981  15.648  1.00  0.00     0.119 A 
ATOM     16  C   UNL     1     -17.654  27.448  15.761  1.00  0.00     0.093 A 
ATOM     17  C   UNL     1     -16.547  28.162  15.278  1.00  0.00     0.130 A 
BRANCH  15  18
ATOM     18  O   UNL     1     -20.048  27.277  16.124  1.00  0.00    -0.508 OA
ATOM     19  H   UNL     1     -20.716  27.702  16.756  1.00  0.00     0.293 HD
ENDBRANCH  15  18
BRANCH  17  20
ATOM     20  O   UNL     1     -15.272  27.599  15.351  1.00  0.00    -0.507 OA
ATOM     21  H   UNL     1     -15.137  26.609  15.524  1.00  0.00     0.293 HD
ENDBRANCH  17  20
ENDBRANCH   1  12
BRANCH   2  22
ATOM     22  O   UNL     1     -15.611  28.997  12.083  1.00  0.00    -0.502 OA
ATOM     23  H   UNL     1     -15.733  29.107  11.084  1.00  0.00     0.293 HD
ENDBRANCH   2  22
BRANCH   6  24
ATOM     24  O   UNL     1     -11.875  32.772  11.642  1.00  0.00    -0.507 OA
ATOM     25  H   UNL     1     -12.047  32.110  10.901  1.00  0.00     0.293 HD
ENDBRANCH   6  24
BRANCH   8  26
ATOM     26  O   UNL     1     -11.889  34.492  16.125  1.00  0.00    -0.508 OA
ATOM     27  H   UNL     1     -11.090  35.080  15.916  1.00  0.00     0.293 HD
ENDBRANCH   8  26
TORSDOF 6
ENDMDL
