MODEL 1
REMARK VINA RESULT:    -2.769      0.000      0.000
REMARK INTER + INTRA:          -6.211
REMARK INTER:                  -4.711
REMARK INTRA:                  -1.500
REMARK UNBOUND:                -1.500
REMARK SMILES CCCCCCCCCCCCCC(=O)[O-]
REMARK SMILES IDX 8 1 9 2 10 3 11 4 12 5 13 6 14 7 15 8 16 9 7 10 6 11 5 12
REMARK SMILES IDX 4 13 3 14 2 15 1 16
REMARK H PARENT
REMARK Flexibility Score: inf
ROOT
ATOM      1  C   UNL     1      -6.410 -10.114  -8.573  1.00  0.00     0.000 C 
ENDROOT
BRANCH   1   2
ATOM      2  C   UNL     1      -7.940 -10.064  -8.719  1.00  0.00     0.000 C 
BRANCH   2   3
ATOM      3  C   UNL     1      -8.624  -9.383  -7.522  1.00  0.00     0.000 C 
BRANCH   3   4
ATOM      4  C   UNL     1      -9.021  -7.927  -7.820  1.00  0.00     0.000 C 
BRANCH   4   5
ATOM      5  C   UNL     1     -10.018  -7.366  -6.793  1.00  0.00     0.006 C 
BRANCH   5   6
ATOM      6  C   UNL     1      -9.880  -8.022  -5.413  1.00  0.00     0.053 C 
BRANCH   6   7
ATOM      7  C   UNL     1      -9.584  -6.988  -4.372  1.00  0.00     0.041 C 
ATOM      8  O   UNL     1     -10.042  -7.114  -3.205  1.00  0.00    -0.550 OA
ATOM      9  O   UNL     1      -8.762  -5.910  -4.676  1.00  0.00    -0.550 OA
ENDBRANCH   6   7
ENDBRANCH   5   6
ENDBRANCH   4   5
ENDBRANCH   3   4
ENDBRANCH   2   3
ENDBRANCH   1   2
BRANCH   1  10
ATOM     10  C   UNL     1      -5.685  -9.208  -9.586  1.00  0.00     0.000 C 
BRANCH  10  11
ATOM     11  C   UNL     1      -4.482  -8.423  -9.024  1.00  0.00    -0.000 C 
BRANCH  11  12
ATOM     12  C   UNL     1      -4.804  -7.478  -7.853  1.00  0.00    -0.000 C 
BRANCH  12  13
ATOM     13  C   UNL     1      -4.758  -8.182  -6.487  1.00  0.00    -0.000 C 
BRANCH  13  14
ATOM     14  C   UNL     1      -5.835  -7.664  -5.519  1.00  0.00    -0.000 C 
BRANCH  14  15
ATOM     15  C   UNL     1      -6.577  -8.798  -4.796  1.00  0.00    -0.003 C 
ATOM     16  C   UNL     1      -5.839 -10.124  -4.957  1.00  0.00     0.004 C 
ENDBRANCH  14  15
ENDBRANCH  13  14
ENDBRANCH  12  13
ENDBRANCH  11  12
ENDBRANCH  10  11
ENDBRANCH   1  10
TORSDOF 12
ENDMDL
MODEL 2
REMARK VINA RESULT:    -2.672     13.767     16.003
REMARK INTER + INTRA:          -6.046
REMARK INTER:                  -4.620
REMARK INTRA:                  -1.425
REMARK UNBOUND:                -1.500
REMARK SMILES CCCCCCCCCCCCCC(=O)[O-]
REMARK SMILES IDX 8 1 9 2 10 3 11 4 12 5 13 6 14 7 15 8 16 9 7 10 6 11 5 12
REMARK SMILES IDX 4 13 3 14 2 15 1 16
REMARK H PARENT
REMARK Flexibility Score: inf
ROOT
ATOM      1  C   UNL     1       6.351  -8.279  -5.945  1.00  0.00     0.000 C 
ENDROOT
BRANCH   1   2
ATOM      2  C   UNL     1       7.078  -9.312  -5.068  1.00  0.00     0.000 C 
BRANCH   2   3
ATOM      3  C   UNL     1       6.727  -9.173  -3.578  1.00  0.00     0.000 C 
BRANCH   3   4
ATOM      4  C   UNL     1       7.952  -8.833  -2.711  1.00  0.00     0.000 C 
BRANCH   4   5
ATOM      5  C   UNL     1       9.261  -8.828  -3.516  1.00  0.00     0.006 C 
BRANCH   5   6
ATOM      6  C   UNL     1      10.125  -7.593  -3.234  1.00  0.00     0.053 C 
BRANCH   6   7
ATOM      7  C   UNL     1       9.456  -6.358  -3.753  1.00  0.00     0.041 C 
ATOM      8  O   UNL     1       9.508  -6.077  -4.979  1.00  0.00    -0.550 OA
ATOM      9  O   UNL     1       8.732  -5.546  -2.890  1.00  0.00    -0.550 OA
ENDBRANCH   6   7
ENDBRANCH   5   6
ENDBRANCH   4   5
ENDBRANCH   3   4
ENDBRANCH   2   3
ENDBRANCH   1   2
BRANCH   1  10
ATOM     10  C   UNL     1       5.600  -8.923  -7.125  1.00  0.00     0.000 C 
BRANCH  10  11
ATOM     11  C   UNL     1       5.843  -8.263  -8.498  1.00  0.00    -0.000 C 
BRANCH  11  12
ATOM     12  C   UNL     1       6.400  -6.829  -8.448  1.00  0.00    -0.000 C 
BRANCH  12  13
ATOM     13  C   UNL     1       7.280  -6.488  -9.662  1.00  0.00    -0.000 C 
BRANCH  13  14
ATOM     14  C   UNL     1       8.636  -7.214  -9.630  1.00  0.00    -0.000 C 
BRANCH  14  15
ATOM     15  C   UNL     1       9.339  -7.095  -8.269  1.00  0.00    -0.003 C 
ATOM     16  C   UNL     1       9.666  -8.472  -7.700  1.00  0.00     0.004 C 
ENDBRANCH  14  15
ENDBRANCH  13  14
ENDBRANCH  12  13
ENDBRANCH  11  12
ENDBRANCH  10  11
ENDBRANCH   1  10
TORSDOF 12
ENDMDL
MODEL 3
REMARK VINA RESULT:    -2.248      1.234      2.641
REMARK INTER + INTRA:          -5.325
REMARK INTER:                  -4.362
REMARK INTRA:                  -0.963
REMARK UNBOUND:                -1.500
REMARK SMILES CCCCCCCCCCCCCC(=O)[O-]
REMARK SMILES IDX 8 1 9 2 10 3 11 4 12 5 13 6 14 7 15 8 16 9 7 10 6 11 5 12
REMARK SMILES IDX 4 13 3 14 2 15 1 16
REMARK H PARENT
REMARK Flexibility Score: inf
ROOT
ATOM      1  C   UNL     1      -8.293  -9.874  -9.361  1.00  0.00     0.000 C 
ENDROOT
BRANCH   1   2
ATOM      2  C   UNL     1      -9.307  -8.766  -9.030  1.00  0.00     0.000 C 
BRANCH   2   3
ATOM      3  C   UNL     1      -9.119  -8.202  -7.612  1.00  0.00     0.000 C 
BRANCH   3   4
ATOM      4  C   UNL     1      -9.582  -9.183  -6.520  1.00  0.00     0.000 C 
BRANCH   4   5
ATOM      5  C   UNL     1     -10.125  -8.466  -5.274  1.00  0.00     0.006 C 
BRANCH   5   6
ATOM      6  C   UNL     1      -9.907  -6.948  -5.322  1.00  0.00     0.053 C 
BRANCH   6   7
ATOM      7  C   UNL     1      -8.811  -6.548  -4.384  1.00  0.00     0.041 C 
ATOM      8  O   UNL     1      -9.021  -6.511  -3.143  1.00  0.00    -0.550 OA
ATOM      9  O   UNL     1      -7.543  -6.266  -4.877  1.00  0.00    -0.550 OA
ENDBRANCH   6   7
ENDBRANCH   5   6
ENDBRANCH   4   5
ENDBRANCH   3   4
ENDBRANCH   2   3
ENDBRANCH   1   2
BRANCH   1  10
ATOM     10  C   UNL     1      -6.832  -9.408  -9.218  1.00  0.00     0.000 C 
BRANCH  10  11
ATOM     11  C   UNL     1      -6.059 -10.022  -8.033  1.00  0.00    -0.000 C 
BRANCH  11  12
ATOM     12  C   UNL     1      -6.060  -9.184  -6.742  1.00  0.00    -0.000 C 
BRANCH  12  13
ATOM     13  C   UNL     1      -5.388  -7.813  -6.920  1.00  0.00    -0.000 C 
BRANCH  13  14
ATOM     14  C   UNL     1      -4.123  -7.884  -7.792  1.00  0.00    -0.000 C 
BRANCH  14  15
ATOM     15  C   UNL     1      -4.053  -6.752  -8.827  1.00  0.00    -0.003 C 
ATOM     16  C   UNL     1      -3.393  -7.229 -10.117  1.00  0.00     0.004 C 
ENDBRANCH  14  15
ENDBRANCH  13  14
ENDBRANCH  12  13
ENDBRANCH  11  12
ENDBRANCH  10  11
ENDBRANCH   1  10
TORSDOF 12
ENDMDL
MODEL 4
REMARK VINA RESULT:    -2.228     14.158     15.893
REMARK INTER + INTRA:          -5.291
REMARK INTER:                  -4.165
REMARK INTRA:                  -1.125
REMARK UNBOUND:                -1.500
REMARK SMILES CCCCCCCCCCCCCC(=O)[O-]
REMARK SMILES IDX 8 1 9 2 10 3 11 4 12 5 13 6 14 7 15 8 16 9 7 10 6 11 5 12
REMARK SMILES IDX 4 13 3 14 2 15 1 16
REMARK H PARENT
REMARK Flexibility Score: inf
ROOT
ATOM      1  C   UNL     1       6.518  -8.502  -4.967  1.00  0.00     0.000 C 
ENDROOT
BRANCH   1   2
ATOM      2  C   UNL     1       7.081  -9.798  -4.362  1.00  0.00     0.000 C 
BRANCH   2   3
ATOM      3  C   UNL     1       6.697  -9.972  -2.883  1.00  0.00     0.000 C 
BRANCH   3   4
ATOM      4  C   UNL     1       7.801  -9.489  -1.925  1.00  0.00     0.000 C 
BRANCH   4   5
ATOM      5  C   UNL     1       9.115  -9.169  -2.654  1.00  0.00     0.006 C 
BRANCH   5   6
ATOM      6  C   UNL     1       9.526  -7.697  -2.514  1.00  0.00     0.053 C 
BRANCH   6   7
ATOM      7  C   UNL     1       9.767  -7.093  -3.862  1.00  0.00     0.041 C 
ATOM      8  O   UNL     1      10.037  -7.828  -4.848  1.00  0.00    -0.550 OA
ATOM      9  O   UNL     1       9.644  -5.721  -4.040  1.00  0.00    -0.550 OA
ENDBRANCH   6   7
ENDBRANCH   5   6
ENDBRANCH   4   5
ENDBRANCH   3   4
ENDBRANCH   2   3
ENDBRANCH   1   2
BRANCH   1  10
ATOM     10  C   UNL     1       5.935  -8.707  -6.378  1.00  0.00     0.000 C 
BRANCH  10  11
ATOM     11  C   UNL     1       6.275 -10.058  -7.040  1.00  0.00    -0.000 C 
BRANCH  11  12
ATOM     12  C   UNL     1       6.068 -10.114  -8.564  1.00  0.00    -0.000 C 
BRANCH  12  13
ATOM     13  C   UNL     1       7.388 -10.041  -9.349  1.00  0.00    -0.000 C 
BRANCH  13  14
ATOM     14  C   UNL     1       7.815  -8.594  -9.650  1.00  0.00    -0.000 C 
BRANCH  14  15
ATOM     15  C   UNL     1       6.626  -7.685  -9.995  1.00  0.00    -0.003 C 
ATOM     16  C   UNL     1       6.615  -6.440  -9.113  1.00  0.00     0.004 C 
ENDBRANCH  14  15
ENDBRANCH  13  14
ENDBRANCH  12  13
ENDBRANCH  11  12
ENDBRANCH  10  11
ENDBRANCH   1  10
TORSDOF 12
ENDMDL
MODEL 5
REMARK VINA RESULT:    -1.837      2.145      4.921
REMARK INTER + INTRA:          -4.626
REMARK INTER:                  -4.272
REMARK INTRA:                  -0.354
REMARK UNBOUND:                -1.500
REMARK SMILES CCCCCCCCCCCCCC(=O)[O-]
REMARK SMILES IDX 8 1 9 2 10 3 11 4 12 5 13 6 14 7 15 8 16 9 7 10 6 11 5 12
REMARK SMILES IDX 4 13 3 14 2 15 1 16
REMARK H PARENT
REMARK Flexibility Score: inf
ROOT
ATOM      1  C   UNL     1      -9.944  -7.144  -5.805  1.00  0.00     0.000 C 
ENDROOT
BRANCH   1   2
ATOM      2  C   UNL     1      -9.434  -5.752  -5.396  1.00  0.00     0.000 C 
BRANCH   2   3
ATOM      3  C   UNL     1      -8.220  -5.823  -4.456  1.00  0.00     0.000 C 
BRANCH   3   4
ATOM      4  C   UNL     1      -7.489  -7.175  -4.536  1.00  0.00     0.000 C 
BRANCH   4   5
ATOM      5  C   UNL     1      -6.278  -7.135  -5.481  1.00  0.00     0.006 C 
BRANCH   5   6
ATOM      6  C   UNL     1      -5.301  -8.294  -5.242  1.00  0.00     0.053 C 
BRANCH   6   7
ATOM      7  C   UNL     1      -6.049  -9.545  -4.902  1.00  0.00     0.041 C 
ATOM      8  O   UNL     1      -6.745 -10.125  -5.776  1.00  0.00    -0.550 OA
ATOM      9  O   UNL     1      -5.937 -10.098  -3.632  1.00  0.00    -0.550 OA
ENDBRANCH   6   7
ENDBRANCH   5   6
ENDBRANCH   4   5
ENDBRANCH   3   4
ENDBRANCH   2   3
ENDBRANCH   1   2
BRANCH   1  10
ATOM     10  C   UNL     1      -9.898  -7.372  -7.328  1.00  0.00     0.000 C 
BRANCH  10  11
ATOM     11  C   UNL     1     -10.117  -8.830  -7.782  1.00  0.00    -0.000 C 
BRANCH  11  12
ATOM     12  C   UNL     1     -10.025  -9.066  -9.300  1.00  0.00    -0.000 C 
BRANCH  12  13
ATOM     13  C   UNL     1      -8.663  -9.632  -9.735  1.00  0.00    -0.000 C 
BRANCH  13  14
ATOM     14  C   UNL     1      -7.809 -10.095  -8.543  1.00  0.00    -0.000 C 
BRANCH  14  15
ATOM     15  C   UNL     1      -6.324  -9.737  -8.704  1.00  0.00    -0.003 C 
ATOM     16  C   UNL     1      -5.844 -10.019 -10.125  1.00  0.00     0.004 C 
ENDBRANCH  14  15
ENDBRANCH  13  14
ENDBRANCH  12  13
ENDBRANCH  11  12
ENDBRANCH  10  11
ENDBRANCH   1  10
TORSDOF 12
ENDMDL
MODEL 6
REMARK VINA RESULT:    -1.742     13.610     16.317
REMARK INTER + INTRA:          -4.464
REMARK INTER:                  -3.308
REMARK INTRA:                  -1.156
REMARK UNBOUND:                -1.500
REMARK SMILES CCCCCCCCCCCCCC(=O)[O-]
REMARK SMILES IDX 8 1 9 2 10 3 11 4 12 5 13 6 14 7 15 8 16 9 7 10 6 11 5 12
REMARK SMILES IDX 4 13 3 14 2 15 1 16
REMARK H PARENT
REMARK Flexibility Score: inf
ROOT
ATOM      1  C   UNL     1       7.879  -8.164  -3.358  1.00  0.00     0.000 C 
ENDROOT
BRANCH   1   2
ATOM      2  C   UNL     1       9.176  -7.616  -3.980  1.00  0.00     0.000 C 
BRANCH   2   3
ATOM      3  C   UNL     1       9.109  -6.103  -4.241  1.00  0.00     0.000 C 
BRANCH   3   4
ATOM      4  C   UNL     1       9.817  -5.697  -5.546  1.00  0.00     0.000 C 
BRANCH   4   5
ATOM      5  C   UNL     1       9.875  -6.845  -6.567  1.00  0.00     0.006 C 
BRANCH   5   6
ATOM      6  C   UNL     1       8.776  -6.746  -7.632  1.00  0.00     0.053 C 
BRANCH   6   7
ATOM      7  C   UNL     1       9.349  -6.273  -8.931  1.00  0.00     0.041 C 
ATOM      8  O   UNL     1       9.094  -6.889  -9.999  1.00  0.00    -0.550 OA
ATOM      9  O   UNL     1      10.125  -5.121  -8.969  1.00  0.00    -0.550 OA
ENDBRANCH   6   7
ENDBRANCH   5   6
ENDBRANCH   4   5
ENDBRANCH   3   4
ENDBRANCH   2   3
ENDBRANCH   1   2
BRANCH   1  10
ATOM     10  C   UNL     1       7.550  -9.593  -3.830  1.00  0.00     0.000 C 
BRANCH  10  11
ATOM     11  C   UNL     1       7.699  -9.836  -5.346  1.00  0.00    -0.000 C 
BRANCH  11  12
ATOM     12  C   UNL     1       6.379 -10.017  -6.116  1.00  0.00    -0.000 C 
BRANCH  12  13
ATOM     13  C   UNL     1       6.425  -9.417  -7.530  1.00  0.00    -0.000 C 
BRANCH  13  14
ATOM     14  C   UNL     1       5.025  -9.236  -8.140  1.00  0.00    -0.000 C 
BRANCH  14  15
ATOM     15  C   UNL     1       5.070  -8.895  -9.637  1.00  0.00    -0.003 C 
ATOM     16  C   UNL     1       5.650  -7.502  -9.864  1.00  0.00     0.004 C 
ENDBRANCH  14  15
ENDBRANCH  13  14
ENDBRANCH  12  13
ENDBRANCH  11  12
ENDBRANCH  10  11
ENDBRANCH   1  10
TORSDOF 12
ENDMDL
MODEL 7
REMARK VINA RESULT:    -1.278      1.328      2.805
REMARK INTER + INTRA:          -3.674
REMARK INTER:                  -3.381
REMARK INTRA:                  -0.294
REMARK UNBOUND:                -1.500
REMARK SMILES CCCCCCCCCCCCCC(=O)[O-]
REMARK SMILES IDX 8 1 9 2 10 3 11 4 12 5 13 6 14 7 15 8 16 9 7 10 6 11 5 12
REMARK SMILES IDX 4 13 3 14 2 15 1 16
REMARK H PARENT
REMARK Flexibility Score: inf
ROOT
ATOM      1  C   UNL     1      -9.525  -8.778  -9.177  1.00  0.00     0.000 C 
ENDROOT
BRANCH   1   2
ATOM      2  C   UNL     1     -10.125  -7.501  -8.566  1.00  0.00     0.000 C 
BRANCH   2   3
ATOM      3  C   UNL     1      -9.218  -6.880  -7.490  1.00  0.00     0.000 C 
BRANCH   3   4
ATOM      4  C   UNL     1      -9.997  -6.458  -6.232  1.00  0.00     0.000 C 
BRANCH   4   5
ATOM      5  C   UNL     1      -9.468  -5.152  -5.621  1.00  0.00     0.006 C 
BRANCH   5   6
ATOM      6  C   UNL     1      -8.988  -5.326  -4.174  1.00  0.00     0.053 C 
BRANCH   6   7
ATOM      7  C   UNL     1      -9.063  -6.765  -3.769  1.00  0.00     0.041 C 
ATOM      8  O   UNL     1     -10.061  -7.193  -3.132  1.00  0.00    -0.550 OA
ATOM      9  O   UNL     1      -8.054  -7.645  -4.140  1.00  0.00    -0.550 OA
ENDBRANCH   6   7
ENDBRANCH   5   6
ENDBRANCH   4   5
ENDBRANCH   3   4
ENDBRANCH   2   3
ENDBRANCH   1   2
BRANCH   1  10
ATOM     10  C   UNL     1      -8.050  -8.990  -8.785  1.00  0.00     0.000 C 
BRANCH  10  11
ATOM     11  C   UNL     1      -7.796 -10.125  -7.772  1.00  0.00    -0.000 C 
BRANCH  11  12
ATOM     12  C   UNL     1      -7.791  -9.698  -6.294  1.00  0.00    -0.000 C 
BRANCH  12  13
ATOM     13  C   UNL     1      -6.498 -10.092  -5.562  1.00  0.00    -0.000 C 
BRANCH  13  14
ATOM     14  C   UNL     1      -5.248  -9.445  -6.183  1.00  0.00    -0.000 C 
BRANCH  14  15
ATOM     15  C   UNL     1      -5.412  -7.934  -6.405  1.00  0.00    -0.003 C 
ATOM     16  C   UNL     1      -4.982  -7.538  -7.815  1.00  0.00     0.004 C 
ENDBRANCH  14  15
ENDBRANCH  13  14
ENDBRANCH  12  13
ENDBRANCH  11  12
ENDBRANCH  10  11
ENDBRANCH   1  10
TORSDOF 12
ENDMDL
