MODEL 1
REMARK VINA RESULT:     3.974      0.000      0.000
REMARK INTER + INTRA:           7.301
REMARK INTER:                   8.620
REMARK INTRA:                  -1.319
REMARK UNBOUND:                -1.319
REMARK SMILES CCCCCCCCCCCCCCCCCCCCCC(=O)[O-]
REMARK SMILES IDX 12 1 11 2 10 3 9 4 8 5 7 6 6 7 5 8 4 9 3 10 2 11 1 12 13 13
REMARK SMILES IDX 14 14 15 15 16 16 17 17 18 18 19 19 20 20 21 21 22 22 23 23
REMARK SMILES IDX 24 24
REMARK H PARENT
REMARK Flexibility Score: inf
ROOT
ATOM      1  C   UNL     1       1.995  62.190  -6.393  1.00  0.00     0.000 C 
ENDROOT
BRANCH   1   2
ATOM      2  C   UNL     1       2.931  60.997  -6.149  1.00  0.00     0.000 C 
BRANCH   2   3
ATOM      3  C   UNL     1       2.138  59.768  -5.681  1.00  0.00     0.000 C 
BRANCH   3   4
ATOM      4  C   UNL     1       1.186  59.229  -6.761  1.00  0.00    -0.000 C 
BRANCH   4   5
ATOM      5  C   UNL     1      -0.264  59.113  -6.268  1.00  0.00    -0.000 C 
BRANCH   5   6
ATOM      6  C   UNL     1      -0.424  59.770  -4.889  1.00  0.00    -0.000 C 
BRANCH   6   7
ATOM      7  C   UNL     1      -1.828  59.571  -4.295  1.00  0.00    -0.000 C 
BRANCH   7   8
ATOM      8  C   UNL     1      -2.700  60.835  -4.398  1.00  0.00    -0.000 C 
BRANCH   8   9
ATOM      9  C   UNL     1      -3.996  60.587  -5.201  1.00  0.00    -0.000 C 
BRANCH   9  10
ATOM     10  C   UNL     1      -3.942  59.325  -6.084  1.00  0.00    -0.000 C 
BRANCH  10  11
ATOM     11  C   UNL     1      -3.904  59.603  -7.596  1.00  0.00    -0.003 C 
ATOM     12  C   UNL     1      -4.485  60.968  -7.963  1.00  0.00     0.004 C 
ENDBRANCH  10  11
ENDBRANCH   9  10
ENDBRANCH   8   9
ENDBRANCH   7   8
ENDBRANCH   6   7
ENDBRANCH   5   6
ENDBRANCH   4   5
ENDBRANCH   3   4
ENDBRANCH   2   3
ENDBRANCH   1   2
BRANCH   1  13
ATOM     13  C   UNL     1       2.748  63.527  -6.517  1.00  0.00     0.000 C 
BRANCH  13  14
ATOM     14  C   UNL     1       2.020  64.617  -7.333  1.00  0.00     0.000 C 
BRANCH  14  15
ATOM     15  C   UNL     1       1.984  66.012  -6.682  1.00  0.00     0.000 C 
BRANCH  15  16
ATOM     16  C   UNL     1       0.690  66.785  -6.991  1.00  0.00     0.000 C 
BRANCH  16  17
ATOM     17  C   UNL     1       0.673  68.182  -6.347  1.00  0.00     0.000 C 
BRANCH  17  18
ATOM     18  C   UNL     1      -0.732  68.800  -6.301  1.00  0.00     0.000 C 
BRANCH  18  19
ATOM     19  C   UNL     1      -1.206  68.967  -4.850  1.00  0.00     0.000 C 
BRANCH  19  20
ATOM     20  C   UNL     1      -2.622  69.558  -4.749  1.00  0.00     0.006 C 
BRANCH  20  21
ATOM     21  C   UNL     1      -2.926  70.564  -5.868  1.00  0.00     0.053 C 
BRANCH  21  22
ATOM     22  C   UNL     1      -4.380  70.527  -6.225  1.00  0.00     0.041 C 
ATOM     23  O   UNL     1      -5.081  71.570  -6.138  1.00  0.00    -0.550 OA
ATOM     24  O   UNL     1      -4.966  69.332  -6.622  1.00  0.00    -0.550 OA
ENDBRANCH  21  22
ENDBRANCH  20  21
ENDBRANCH  19  20
ENDBRANCH  18  19
ENDBRANCH  17  18
ENDBRANCH  16  17
ENDBRANCH  15  16
ENDBRANCH  14  15
ENDBRANCH  13  14
ENDBRANCH   1  13
TORSDOF 20
ENDMDL
MODEL 2
REMARK VINA RESULT:     4.569      2.985      8.673
REMARK INTER + INTRA:           8.592
REMARK INTER:                   9.760
REMARK INTRA:                  -1.167
REMARK UNBOUND:                -1.319
REMARK SMILES CCCCCCCCCCCCCCCCCCCCCC(=O)[O-]
REMARK SMILES IDX 12 1 11 2 10 3 9 4 8 5 7 6 6 7 5 8 4 9 3 10 2 11 1 12 13 13
REMARK SMILES IDX 14 14 15 15 16 16 17 17 18 18 19 19 20 20 21 21 22 22 23 23
REMARK SMILES IDX 24 24
REMARK H PARENT
REMARK Flexibility Score: inf
ROOT
ATOM      1  C   UNL     1       2.722  62.675  -6.946  1.00  0.00     0.000 C 
ENDROOT
BRANCH   1   2
ATOM      2  C   UNL     1       2.796  64.039  -7.648  1.00  0.00     0.000 C 
BRANCH   2   3
ATOM      3  C   UNL     1       2.351  65.165  -6.703  1.00  0.00     0.000 C 
BRANCH   3   4
ATOM      4  C   UNL     1       1.253  66.051  -7.313  1.00  0.00    -0.000 C 
BRANCH   4   5
ATOM      5  C   UNL     1       1.092  67.388  -6.573  1.00  0.00    -0.000 C 
BRANCH   5   6
ATOM      6  C   UNL     1      -0.018  68.235  -7.212  1.00  0.00    -0.000 C 
BRANCH   6   7
ATOM      7  C   UNL     1      -0.602  69.277  -6.246  1.00  0.00    -0.000 C 
BRANCH   7   8
ATOM      8  C   UNL     1      -1.377  68.638  -5.081  1.00  0.00    -0.000 C 
BRANCH   8   9
ATOM      9  C   UNL     1      -2.333  69.639  -4.396  1.00  0.00    -0.000 C 
BRANCH   9  10
ATOM     10  C   UNL     1      -2.904  70.701  -5.355  1.00  0.00    -0.000 C 
BRANCH  10  11
ATOM     11  C   UNL     1      -4.166  70.263  -6.119  1.00  0.00    -0.003 C 
ATOM     12  C   UNL     1      -5.100  71.430  -6.437  1.00  0.00     0.004 C 
ENDBRANCH  10  11
ENDBRANCH   9  10
ENDBRANCH   8   9
ENDBRANCH   7   8
ENDBRANCH   6   7
ENDBRANCH   5   6
ENDBRANCH   4   5
ENDBRANCH   3   4
ENDBRANCH   2   3
ENDBRANCH   1   2
BRANCH   1  13
ATOM     13  C   UNL     1       2.746  61.492  -7.931  1.00  0.00     0.000 C 
BRANCH  13  14
ATOM     14  C   UNL     1       3.566  60.269  -7.467  1.00  0.00     0.000 C 
BRANCH  14  15
ATOM     15  C   UNL     1       2.777  59.208  -6.678  1.00  0.00     0.000 C 
BRANCH  15  16
ATOM     16  C   UNL     1       2.921  59.363  -5.153  1.00  0.00     0.000 C 
BRANCH  16  17
ATOM     17  C   UNL     1       1.617  59.830  -4.485  1.00  0.00     0.000 C 
BRANCH  17  18
ATOM     18  C   UNL     1       0.398  59.716  -5.414  1.00  0.00     0.000 C 
BRANCH  18  19
ATOM     19  C   UNL     1      -0.901  59.998  -4.645  1.00  0.00     0.000 C 
BRANCH  19  20
ATOM     20  C   UNL     1      -1.987  58.941  -4.901  1.00  0.00     0.006 C 
BRANCH  20  21
ATOM     21  C   UNL     1      -2.679  59.118  -6.260  1.00  0.00     0.053 C 
BRANCH  21  22
ATOM     22  C   UNL     1      -4.011  59.778  -6.088  1.00  0.00     0.041 C 
ATOM     23  O   UNL     1      -5.045  59.263  -6.589  1.00  0.00    -0.550 OA
ATOM     24  O   UNL     1      -4.106  60.981  -5.399  1.00  0.00    -0.550 OA
ENDBRANCH  21  22
ENDBRANCH  20  21
ENDBRANCH  19  20
ENDBRANCH  18  19
ENDBRANCH  17  18
ENDBRANCH  16  17
ENDBRANCH  15  16
ENDBRANCH  14  15
ENDBRANCH  13  14
ENDBRANCH   1  13
TORSDOF 20
ENDMDL
MODEL 3
REMARK VINA RESULT:     5.190      3.157      8.719
REMARK INTER + INTRA:           9.939
REMARK INTER:                  10.757
REMARK INTRA:                  -0.819
REMARK UNBOUND:                -1.319
REMARK SMILES CCCCCCCCCCCCCCCCCCCCCC(=O)[O-]
REMARK SMILES IDX 12 1 11 2 10 3 9 4 8 5 7 6 6 7 5 8 4 9 3 10 2 11 1 12 13 13
REMARK SMILES IDX 14 14 15 15 16 16 17 17 18 18 19 19 20 20 21 21 22 22 23 23
REMARK SMILES IDX 24 24
REMARK H PARENT
REMARK Flexibility Score: inf
ROOT
ATOM      1  C   UNL     1       2.360  63.307  -6.854  1.00  0.00     0.000 C 
ENDROOT
BRANCH   1   2
ATOM      2  C   UNL     1       2.628  64.818  -6.807  1.00  0.00     0.000 C 
BRANCH   2   3
ATOM      3  C   UNL     1       1.455  65.600  -7.417  1.00  0.00     0.000 C 
BRANCH   3   4
ATOM      4  C   UNL     1       1.120  66.877  -6.629  1.00  0.00    -0.000 C 
BRANCH   4   5
ATOM      5  C   UNL     1       0.146  67.797  -7.379  1.00  0.00    -0.000 C 
BRANCH   5   6
ATOM      6  C   UNL     1      -0.246  69.001  -6.510  1.00  0.00    -0.000 C 
BRANCH   6   7
ATOM      7  C   UNL     1      -1.631  68.843  -5.863  1.00  0.00    -0.000 C 
BRANCH   7   8
ATOM      8  C   UNL     1      -1.930  69.937  -4.824  1.00  0.00    -0.000 C 
BRANCH   8   9
ATOM      9  C   UNL     1      -2.537  71.204  -5.467  1.00  0.00    -0.000 C 
BRANCH   9  10
ATOM     10  C   UNL     1      -4.047  71.088  -5.751  1.00  0.00    -0.000 C 
BRANCH  10  11
ATOM     11  C   UNL     1      -4.492  69.722  -6.301  1.00  0.00    -0.003 C 
ATOM     12  C   UNL     1      -5.124  69.820  -7.690  1.00  0.00     0.004 C 
ENDBRANCH  10  11
ENDBRANCH   9  10
ENDBRANCH   8   9
ENDBRANCH   7   8
ENDBRANCH   6   7
ENDBRANCH   5   6
ENDBRANCH   4   5
ENDBRANCH   3   4
ENDBRANCH   2   3
ENDBRANCH   1   2
BRANCH   1  13
ATOM     13  C   UNL     1       3.134  62.595  -7.979  1.00  0.00     0.000 C 
BRANCH  13  14
ATOM     14  C   UNL     1       2.869  61.080  -8.102  1.00  0.00     0.000 C 
BRANCH  14  15
ATOM     15  C   UNL     1       4.028  60.170  -7.655  1.00  0.00     0.000 C 
BRANCH  15  16
ATOM     16  C   UNL     1       3.649  59.244  -6.486  1.00  0.00     0.000 C 
BRANCH  16  17
ATOM     17  C   UNL     1       2.129  59.040  -6.369  1.00  0.00     0.000 C 
BRANCH  17  18
ATOM     18  C   UNL     1       1.566  59.517  -5.021  1.00  0.00     0.000 C 
BRANCH  18  19
ATOM     19  C   UNL     1       0.334  60.410  -5.230  1.00  0.00     0.000 C 
BRANCH  19  20
ATOM     20  C   UNL     1      -0.647  60.360  -4.047  1.00  0.00     0.006 C 
BRANCH  20  21
ATOM     21  C   UNL     1      -1.770  59.333  -4.250  1.00  0.00     0.053 C 
BRANCH  21  22
ATOM     22  C   UNL     1      -3.107  60.003  -4.201  1.00  0.00     0.041 C 
ATOM     23  O   UNL     1      -4.078  59.442  -3.627  1.00  0.00    -0.550 OA
ATOM     24  O   UNL     1      -3.290  61.235  -4.818  1.00  0.00    -0.550 OA
ENDBRANCH  21  22
ENDBRANCH  20  21
ENDBRANCH  19  20
ENDBRANCH  18  19
ENDBRANCH  17  18
ENDBRANCH  16  17
ENDBRANCH  15  16
ENDBRANCH  14  15
ENDBRANCH  13  14
ENDBRANCH   1  13
TORSDOF 20
ENDMDL
MODEL 4
REMARK VINA RESULT:     5.457     16.037     19.746
REMARK INTER + INTRA:          10.518
REMARK INTER:                  10.497
REMARK INTRA:                   0.021
REMARK UNBOUND:                -1.319
REMARK SMILES CCCCCCCCCCCCCCCCCCCCCC(=O)[O-]
REMARK SMILES IDX 12 1 11 2 10 3 9 4 8 5 7 6 6 7 5 8 4 9 3 10 2 11 1 12 13 13
REMARK SMILES IDX 14 14 15 15 16 16 17 17 18 18 19 19 20 20 21 21 22 22 23 23
REMARK SMILES IDX 24 24
REMARK H PARENT
REMARK Flexibility Score: inf
ROOT
ATOM      1  C   UNL     1       7.592  77.334   3.008  1.00  0.00     0.000 C 
ENDROOT
BRANCH   1   2
ATOM      2  C   UNL     1       8.530  78.218   3.843  1.00  0.00     0.000 C 
BRANCH   2   3
ATOM      3  C   UNL     1       7.834  78.693   5.127  1.00  0.00     0.000 C 
BRANCH   3   4
ATOM      4  C   UNL     1       7.549  77.543   6.107  1.00  0.00    -0.000 C 
BRANCH   4   5
ATOM      5  C   UNL     1       6.049  77.353   6.376  1.00  0.00    -0.000 C 
BRANCH   5   6
ATOM      6  C   UNL     1       5.628  78.088   7.657  1.00  0.00    -0.000 C 
BRANCH   6   7
ATOM      7  C   UNL     1       4.235  77.668   8.153  1.00  0.00    -0.000 C 
BRANCH   7   8
ATOM      8  C   UNL     1       3.678  78.614   9.231  1.00  0.00    -0.000 C 
BRANCH   8   9
ATOM      9  C   UNL     1       3.432  77.892  10.574  1.00  0.00    -0.000 C 
BRANCH   9  10
ATOM     10  C   UNL     1       3.994  78.649  11.793  1.00  0.00    -0.000 C 
BRANCH  10  11
ATOM     11  C   UNL     1       5.523  78.818  11.793  1.00  0.00    -0.003 C 
ATOM     12  C   UNL     1       6.267  77.485  11.722  1.00  0.00     0.004 C 
ENDBRANCH  10  11
ENDBRANCH   9  10
ENDBRANCH   8   9
ENDBRANCH   7   8
ENDBRANCH   6   7
ENDBRANCH   5   6
ENDBRANCH   4   5
ENDBRANCH   3   4
ENDBRANCH   2   3
ENDBRANCH   1   2
BRANCH   1  13
ATOM     13  C   UNL     1       6.243  78.011   2.702  1.00  0.00     0.000 C 
BRANCH  13  14
ATOM     14  C   UNL     1       4.995  77.157   3.006  1.00  0.00     0.000 C 
BRANCH  14  15
ATOM     15  C   UNL     1       4.509  77.196   4.467  1.00  0.00     0.000 C 
BRANCH  15  16
ATOM     16  C   UNL     1       2.976  77.150   4.591  1.00  0.00     0.000 C 
BRANCH  16  17
ATOM     17  C   UNL     1       2.458  77.989   5.772  1.00  0.00     0.000 C 
BRANCH  17  18
ATOM     18  C   UNL     1       0.984  78.392   5.616  1.00  0.00     0.000 C 
BRANCH  18  19
ATOM     19  C   UNL     1       0.057  77.234   6.012  1.00  0.00     0.000 C 
BRANCH  19  20
ATOM     20  C   UNL     1      -0.679  76.620   4.810  1.00  0.00     0.006 C 
BRANCH  20  21
ATOM     21  C   UNL     1      -2.152  76.308   5.113  1.00  0.00     0.053 C 
BRANCH  21  22
ATOM     22  C   UNL     1      -2.723  75.408   4.063  1.00  0.00     0.041 C 
ATOM     23  O   UNL     1      -3.763  74.738   4.298  1.00  0.00    -0.550 OA
ATOM     24  O   UNL     1      -2.087  75.286   2.833  1.00  0.00    -0.550 OA
ENDBRANCH  21  22
ENDBRANCH  20  21
ENDBRANCH  19  20
ENDBRANCH  18  19
ENDBRANCH  17  18
ENDBRANCH  16  17
ENDBRANCH  15  16
ENDBRANCH  14  15
ENDBRANCH  13  14
ENDBRANCH   1  13
TORSDOF 20
ENDMDL
MODEL 5
REMARK VINA RESULT:     5.779      5.734      8.636
REMARK INTER + INTRA:          11.218
REMARK INTER:                   8.843
REMARK INTRA:                   2.375
REMARK UNBOUND:                -1.319
REMARK SMILES CCCCCCCCCCCCCCCCCCCCCC(=O)[O-]
REMARK SMILES IDX 12 1 11 2 10 3 9 4 8 5 7 6 6 7 5 8 4 9 3 10 2 11 1 12 13 13
REMARK SMILES IDX 14 14 15 15 16 16 17 17 18 18 19 19 20 20 21 21 22 22 23 23
REMARK SMILES IDX 24 24
REMARK H PARENT
REMARK Flexibility Score: inf
ROOT
ATOM      1  C   UNL     1      -1.877  59.894  -4.260  1.00  0.00     0.000 C 
ENDROOT
BRANCH   1   2
ATOM      2  C   UNL     1      -2.425  61.328  -4.255  1.00  0.00     0.000 C 
BRANCH   2   3
ATOM      3  C   UNL     1      -3.095  61.662  -5.596  1.00  0.00     0.000 C 
BRANCH   3   4
ATOM      4  C   UNL     1      -4.556  61.189  -5.663  1.00  0.00    -0.000 C 
BRANCH   4   5
ATOM      5  C   UNL     1      -5.042  60.971  -7.104  1.00  0.00    -0.000 C 
BRANCH   5   6
ATOM      6  C   UNL     1      -3.886  60.512  -8.005  1.00  0.00    -0.000 C 
BRANCH   6   7
ATOM      7  C   UNL     1      -3.395  59.095  -7.668  1.00  0.00    -0.000 C 
BRANCH   7   8
ATOM      8  C   UNL     1      -1.917  58.876  -8.033  1.00  0.00    -0.000 C 
BRANCH   8   9
ATOM      9  C   UNL     1      -0.968  59.225  -6.865  1.00  0.00    -0.000 C 
BRANCH   9  10
ATOM     10  C   UNL     1       0.524  59.034  -7.205  1.00  0.00    -0.000 C 
BRANCH  10  11
ATOM     11  C   UNL     1       1.481  59.950  -6.425  1.00  0.00    -0.003 C 
ATOM     12  C   UNL     1       2.663  59.194  -5.819  1.00  0.00     0.004 C 
ENDBRANCH  10  11
ENDBRANCH   9  10
ENDBRANCH   8   9
ENDBRANCH   7   8
ENDBRANCH   6   7
ENDBRANCH   5   6
ENDBRANCH   4   5
ENDBRANCH   3   4
ENDBRANCH   2   3
ENDBRANCH   1   2
BRANCH   1  13
ATOM     13  C   UNL     1      -2.264  59.098  -3.000  1.00  0.00     0.000 C 
BRANCH  13  14
ATOM     14  C   UNL     1      -3.778  58.875  -2.803  1.00  0.00     0.000 C 
BRANCH  14  15
ATOM     15  C   UNL     1      -4.337  59.321  -1.439  1.00  0.00     0.000 C 
BRANCH  15  16
ATOM     16  C   UNL     1      -3.460  58.876  -0.256  1.00  0.00     0.000 C 
BRANCH  16  17
ATOM     17  C   UNL     1      -1.958  59.002  -0.559  1.00  0.00     0.000 C 
BRANCH  17  18
ATOM     18  C   UNL     1      -1.154  59.553   0.629  1.00  0.00     0.000 C 
BRANCH  18  19
ATOM     19  C   UNL     1       0.345  59.273   0.450  1.00  0.00     0.000 C 
BRANCH  19  20
ATOM     20  C   UNL     1       1.048  60.325  -0.424  1.00  0.00     0.006 C 
BRANCH  20  21
ATOM     21  C   UNL     1       0.231  60.705  -1.667  1.00  0.00     0.053 C 
BRANCH  21  22
ATOM     22  C   UNL     1       1.011  60.424  -2.913  1.00  0.00     0.041 C 
ATOM     23  O   UNL     1       0.702  60.988  -3.996  1.00  0.00    -0.550 OA
ATOM     24  O   UNL     1       2.060  59.513  -2.884  1.00  0.00    -0.550 OA
ENDBRANCH  21  22
ENDBRANCH  20  21
ENDBRANCH  19  20
ENDBRANCH  18  19
ENDBRANCH  17  18
ENDBRANCH  16  17
ENDBRANCH  15  16
ENDBRANCH  14  15
ENDBRANCH  13  14
ENDBRANCH   1  13
TORSDOF 20
ENDMDL
MODEL 6
REMARK VINA RESULT:     6.182      3.003      8.311
REMARK INTER + INTRA:          12.092
REMARK INTER:                  13.284
REMARK INTRA:                  -1.192
REMARK UNBOUND:                -1.319
REMARK SMILES CCCCCCCCCCCCCCCCCCCCCC(=O)[O-]
REMARK SMILES IDX 12 1 11 2 10 3 9 4 8 5 7 6 6 7 5 8 4 9 3 10 2 11 1 12 13 13
REMARK SMILES IDX 14 14 15 15 16 16 17 17 18 18 19 19 20 20 21 21 22 22 23 23
REMARK SMILES IDX 24 24
REMARK H PARENT
REMARK Flexibility Score: inf
ROOT
ATOM      1  C   UNL     1       3.126  61.153  -6.785  1.00  0.00     0.000 C 
ENDROOT
BRANCH   1   2
ATOM      2  C   UNL     1       2.412  62.509  -6.693  1.00  0.00     0.000 C 
BRANCH   2   3
ATOM      3  C   UNL     1       3.150  63.572  -7.521  1.00  0.00     0.000 C 
BRANCH   3   4
ATOM      4  C   UNL     1       2.873  65.002  -7.031  1.00  0.00    -0.000 C 
BRANCH   4   5
ATOM      5  C   UNL     1       3.137  65.174  -5.528  1.00  0.00    -0.000 C 
BRANCH   5   6
ATOM      6  C   UNL     1       3.972  66.435  -5.262  1.00  0.00    -0.000 C 
BRANCH   6   7
ATOM      7  C   UNL     1       3.128  67.720  -5.269  1.00  0.00    -0.000 C 
BRANCH   7   8
ATOM      8  C   UNL     1       1.616  67.437  -5.246  1.00  0.00    -0.000 C 
BRANCH   8   9
ATOM      9  C   UNL     1       0.805  68.532  -5.972  1.00  0.00    -0.000 C 
BRANCH   9  10
ATOM     10  C   UNL     1      -0.618  68.087  -6.364  1.00  0.00    -0.000 C 
BRANCH  10  11
ATOM     11  C   UNL     1      -1.735  69.044  -5.915  1.00  0.00    -0.003 C 
ATOM     12  C   UNL     1      -1.398  69.782  -4.620  1.00  0.00     0.004 C 
ENDBRANCH  10  11
ENDBRANCH   9  10
ENDBRANCH   8   9
ENDBRANCH   7   8
ENDBRANCH   6   7
ENDBRANCH   5   6
ENDBRANCH   4   5
ENDBRANCH   3   4
ENDBRANCH   2   3
ENDBRANCH   1   2
BRANCH   1  13
ATOM     13  C   UNL     1       2.468  60.068  -5.913  1.00  0.00     0.000 C 
BRANCH  13  14
ATOM     14  C   UNL     1       1.468  59.152  -6.648  1.00  0.00     0.000 C 
BRANCH  14  15
ATOM     15  C   UNL     1       0.016  59.220  -6.140  1.00  0.00     0.000 C 
BRANCH  15  16
ATOM     16  C   UNL     1      -0.159  60.178  -4.948  1.00  0.00     0.000 C 
BRANCH  16  17
ATOM     17  C   UNL     1      -1.405  59.848  -4.109  1.00  0.00     0.000 C 
BRANCH  17  18
ATOM     18  C   UNL     1      -2.604  60.748  -4.443  1.00  0.00     0.000 C 
BRANCH  18  19
ATOM     19  C   UNL     1      -3.925  59.988  -4.256  1.00  0.00     0.000 C 
BRANCH  19  20
ATOM     20  C   UNL     1      -4.126  58.875  -5.299  1.00  0.00     0.006 C 
BRANCH  20  21
ATOM     21  C   UNL     1      -5.056  59.296  -6.445  1.00  0.00     0.053 C 
BRANCH  21  22
ATOM     22  C   UNL     1      -4.281  59.989  -7.521  1.00  0.00     0.041 C 
ATOM     23  O   UNL     1      -4.755  61.008  -8.089  1.00  0.00    -0.550 OA
ATOM     24  O   UNL     1      -3.047  59.489  -7.919  1.00  0.00    -0.550 OA
ENDBRANCH  21  22
ENDBRANCH  20  21
ENDBRANCH  19  20
ENDBRANCH  18  19
ENDBRANCH  17  18
ENDBRANCH  16  17
ENDBRANCH  15  16
ENDBRANCH  14  15
ENDBRANCH  13  14
ENDBRANCH   1  13
TORSDOF 20
ENDMDL
MODEL 7
REMARK VINA RESULT:     6.200      1.568      3.736
REMARK INTER + INTRA:          12.130
REMARK INTER:                  12.774
REMARK INTRA:                  -0.644
REMARK UNBOUND:                -1.319
REMARK SMILES CCCCCCCCCCCCCCCCCCCCCC(=O)[O-]
REMARK SMILES IDX 12 1 11 2 10 3 9 4 8 5 7 6 6 7 5 8 4 9 3 10 2 11 1 12 13 13
REMARK SMILES IDX 14 14 15 15 16 16 17 17 18 18 19 19 20 20 21 21 22 22 23 23
REMARK SMILES IDX 24 24
REMARK H PARENT
REMARK Flexibility Score: inf
ROOT
ATOM      1  C   UNL     1       1.212  59.478  -6.270  1.00  0.00     0.000 C 
ENDROOT
BRANCH   1   2
ATOM      2  C   UNL     1       0.271  59.012  -7.390  1.00  0.00     0.000 C 
BRANCH   2   3
ATOM      3  C   UNL     1      -1.169  58.875  -6.873  1.00  0.00     0.000 C 
BRANCH   3   4
ATOM      4  C   UNL     1      -2.208  58.875  -8.005  1.00  0.00    -0.000 C 
BRANCH   4   5
ATOM      5  C   UNL     1      -3.076  60.142  -8.012  1.00  0.00    -0.000 C 
BRANCH   5   6
ATOM      6  C   UNL     1      -4.102  60.106  -6.868  1.00  0.00    -0.000 C 
BRANCH   6   7
ATOM      7  C   UNL     1      -3.796  59.015  -5.830  1.00  0.00    -0.000 C 
BRANCH   7   8
ATOM      8  C   UNL     1      -3.821  59.546  -4.386  1.00  0.00    -0.000 C 
BRANCH   8   9
ATOM      9  C   UNL     1      -2.846  60.725  -4.179  1.00  0.00    -0.000 C 
BRANCH   9  10
ATOM     10  C   UNL     1      -1.382  60.285  -3.976  1.00  0.00    -0.000 C 
BRANCH  10  11
ATOM     11  C   UNL     1      -0.856  60.453  -2.540  1.00  0.00    -0.003 C 
ATOM     12  C   UNL     1       0.670  60.419  -2.460  1.00  0.00     0.004 C 
ENDBRANCH  10  11
ENDBRANCH   9  10
ENDBRANCH   8   9
ENDBRANCH   7   8
ENDBRANCH   6   7
ENDBRANCH   5   6
ENDBRANCH   4   5
ENDBRANCH   3   4
ENDBRANCH   2   3
ENDBRANCH   1   2
BRANCH   1  13
ATOM     13  C   UNL     1       2.283  60.469  -6.759  1.00  0.00     0.000 C 
BRANCH  13  14
ATOM     14  C   UNL     1       2.280  61.841  -6.054  1.00  0.00     0.000 C 
BRANCH  14  15
ATOM     15  C   UNL     1       2.422  63.061  -6.983  1.00  0.00     0.000 C 
BRANCH  15  16
ATOM     16  C   UNL     1       2.746  64.360  -6.225  1.00  0.00     0.000 C 
BRANCH  16  17
ATOM     17  C   UNL     1       2.245  65.612  -6.965  1.00  0.00     0.000 C 
BRANCH  17  18
ATOM     18  C   UNL     1       2.530  66.911  -6.197  1.00  0.00     0.000 C 
BRANCH  18  19
ATOM     19  C   UNL     1       1.239  67.478  -5.588  1.00  0.00     0.000 C 
BRANCH  19  20
ATOM     20  C   UNL     1       0.303  68.093  -6.642  1.00  0.00     0.006 C 
BRANCH  20  21
ATOM     21  C   UNL     1      -0.340  69.406  -6.171  1.00  0.00     0.053 C 
BRANCH  21  22
ATOM     22  C   UNL     1      -1.441  69.130  -5.197  1.00  0.00     0.041 C 
ATOM     23  O   UNL     1      -2.523  68.619  -5.589  1.00  0.00    -0.550 OA
ATOM     24  O   UNL     1      -1.284  69.468  -3.858  1.00  0.00    -0.550 OA
ENDBRANCH  21  22
ENDBRANCH  20  21
ENDBRANCH  19  20
ENDBRANCH  18  19
ENDBRANCH  17  18
ENDBRANCH  16  17
ENDBRANCH  15  16
ENDBRANCH  14  15
ENDBRANCH  13  14
ENDBRANCH   1  13
TORSDOF 20
ENDMDL
