MODEL 1
REMARK VINA RESULT:    54.287      0.000      0.000
REMARK INTER + INTRA:          75.750
REMARK INTER:                  74.916
REMARK INTRA:                   0.835
REMARK UNBOUND:                 0.835
REMARK SMILES CC[C@@H](CC[C@@H](C)[C@@H]1CC[C@@H]2[C@H]3CC=C4C[C@@H](O)CC[C@@]4(C)[C@H]3CC[C@@]21C)C(C)C
REMARK SMILES IDX 5 1 4 2 3 3 2 4 1 5 28 6 29 7 30 8 6 9 7 10 8 11 9 12 26 13
REMARK SMILES IDX 10 14 11 15 25 16 27 17 12 18 24 19 23 20 13 21 21 22 14 23
REMARK SMILES IDX 15 24 20 25 22 26 16 27 19 28 17 29 18 30
REMARK H PARENT 18 31
REMARK Flexibility Score: inf
ROOT
ATOM      1  C   UNL     1     -36.297  27.997  -1.450  1.00  0.00     0.004 C 
ENDROOT
BRANCH   1   2
ATOM      2  C   UNL     1     -34.924  28.703  -1.529  1.00  0.00     0.004 C 
BRANCH   2   3
ATOM      3  C   UNL     1     -34.742  29.566  -2.808  1.00  0.00    -0.009 C 
BRANCH   3   4
ATOM      4  C   UNL     1     -33.452  30.441  -2.748  1.00  0.00     0.000 C 
ATOM      5  C   UNL     1     -32.438  30.067  -1.659  1.00  0.00     0.004 C 
ENDBRANCH   3   4
BRANCH   3   6
ATOM      6  C   UNL     1     -36.036  30.345  -3.228  1.00  0.00    -0.014 C 
ATOM      7  C   UNL     1     -36.315  31.538  -2.299  1.00  0.00     0.007 C 
ATOM      8  C   UNL     1     -37.288  29.468  -3.351  1.00  0.00     0.007 C 
ENDBRANCH   3   6
ENDBRANCH   2   3
ENDBRANCH   1   2
BRANCH   1   9
ATOM      9  C   UNL     1     -36.284  26.750  -0.518  1.00  0.00    -0.011 C 
ATOM     10  C   UNL     1     -35.017  26.791   0.360  1.00  0.00     0.008 C 
BRANCH   9  11
ATOM     11  C   UNL     1     -37.626  26.664   0.313  1.00  0.00    -0.002 C 
ATOM     12  C   UNL     1     -37.932  27.853   1.230  1.00  0.00     0.005 C 
ATOM     13  C   UNL     1     -37.816  25.412   1.234  1.00  0.00    -0.026 C 
ATOM     14  C   UNL     1     -38.997  27.365   2.203  1.00  0.00     0.005 C 
ATOM     15  C   UNL     1     -39.065  25.830   2.074  1.00  0.00    -0.001 C 
ATOM     16  C   UNL     1     -36.575  25.162   2.146  1.00  0.00     0.007 C 
ATOM     17  C   UNL     1     -38.079  24.155   0.370  1.00  0.00     0.012 C 
ATOM     18  C   UNL     1     -39.264  25.148   3.464  1.00  0.00     0.000 C 
ATOM     19  C   UNL     1     -36.873  24.334   3.402  1.00  0.00     0.005 C 
ATOM     20  C   UNL     1     -37.950  25.017   4.273  1.00  0.00     0.003 C 
ATOM     21  C   UNL     1     -39.996  23.801   3.347  1.00  0.00     0.031 C 
ATOM     22  C   UNL     1     -38.210  24.375   5.705  1.00  0.00    -0.008 C 
ATOM     23  C   UNL     1     -40.119  23.089   4.659  1.00  0.00    -0.027 C 
ATOM     24  C   UNL     1     -39.246  23.242   5.674  1.00  0.00    -0.065 C 
ATOM     25  C   UNL     1     -36.894  23.815   6.334  1.00  0.00     0.014 C 
ATOM     26  C   UNL     1     -38.760  25.500   6.628  1.00  0.00     0.016 C 
ATOM     27  C   UNL     1     -39.442  22.407   6.928  1.00  0.00     0.063 C 
ATOM     28  C   UNL     1     -37.107  23.062   7.660  1.00  0.00     0.033 C 
ATOM     29  C   UNL     1     -38.102  21.905   7.488  1.00  0.00     0.118 C 
BRANCH  29  30
ATOM     30  O   UNL     1     -37.552  20.932   6.637  1.00  0.00    -0.393 OA
ATOM     31  H   UNL     1     -37.344  20.141   7.198  1.00  0.00     0.210 HD
ENDBRANCH  29  30
ENDBRANCH   9  11
ENDBRANCH   1   9
TORSDOF 7
ENDMDL
MODEL 2
REMARK VINA RESULT:    55.285      3.061      6.268
REMARK INTER + INTRA:          77.128
REMARK INTER:                  76.213
REMARK INTRA:                   0.915
REMARK UNBOUND:                 0.835
REMARK SMILES CC[C@@H](CC[C@@H](C)[C@@H]1CC[C@@H]2[C@H]3CC=C4C[C@@H](O)CC[C@@]4(C)[C@H]3CC[C@@]21C)C(C)C
REMARK SMILES IDX 5 1 4 2 3 3 2 4 1 5 28 6 29 7 30 8 6 9 7 10 8 11 9 12 26 13
REMARK SMILES IDX 10 14 11 15 25 16 27 17 12 18 24 19 23 20 13 21 21 22 14 23
REMARK SMILES IDX 15 24 20 25 22 26 16 27 19 28 17 29 18 30
REMARK H PARENT 18 31
REMARK Flexibility Score: inf
ROOT
ATOM      1  C   UNL     1     -40.025  24.636   3.350  1.00  0.00     0.004 C 
ENDROOT
BRANCH   1   2
ATOM      2  C   UNL     1     -38.614  24.757   2.731  1.00  0.00     0.004 C 
BRANCH   2   3
ATOM      3  C   UNL     1     -38.320  26.156   2.124  1.00  0.00    -0.009 C 
BRANCH   3   4
ATOM      4  C   UNL     1     -39.620  26.993   1.918  1.00  0.00     0.000 C 
ATOM      5  C   UNL     1     -39.920  28.042   2.996  1.00  0.00     0.004 C 
ENDBRANCH   3   4
BRANCH   3   6
ATOM      6  C   UNL     1     -37.374  26.110   0.874  1.00  0.00    -0.014 C 
ATOM      7  C   UNL     1     -36.875  27.509   0.478  1.00  0.00     0.007 C 
ATOM      8  C   UNL     1     -37.975  25.400  -0.345  1.00  0.00     0.007 C 
ENDBRANCH   3   6
ENDBRANCH   2   3
ENDBRANCH   1   2
BRANCH   1   9
ATOM      9  C   UNL     1     -40.124  23.509   4.420  1.00  0.00    -0.011 C 
ATOM     10  C   UNL     1     -39.543  22.207   3.833  1.00  0.00     0.008 C 
BRANCH   9  11
ATOM     11  C   UNL     1     -39.431  23.960   5.768  1.00  0.00    -0.002 C 
ATOM     12  C   UNL     1     -39.598  25.433   6.155  1.00  0.00     0.005 C 
ATOM     13  C   UNL     1     -37.894  23.700   5.901  1.00  0.00    -0.026 C 
ATOM     14  C   UNL     1     -38.531  25.710   7.205  1.00  0.00     0.005 C 
ATOM     15  C   UNL     1     -37.550  24.521   7.185  1.00  0.00    -0.001 C 
ATOM     16  C   UNL     1     -37.102  24.223   4.662  1.00  0.00     0.007 C 
ATOM     17  C   UNL     1     -37.626  22.186   6.079  1.00  0.00     0.012 C 
ATOM     18  C   UNL     1     -36.075  24.996   7.368  1.00  0.00     0.000 C 
ATOM     19  C   UNL     1     -35.616  24.494   4.934  1.00  0.00     0.005 C 
ATOM     20  C   UNL     1     -35.440  25.536   6.061  1.00  0.00     0.003 C 
ATOM     21  C   UNL     1     -35.196  23.916   8.020  1.00  0.00     0.031 C 
ATOM     22  C   UNL     1     -33.961  26.064   6.307  1.00  0.00    -0.008 C 
ATOM     23  C   UNL     1     -33.758  24.319   8.124  1.00  0.00    -0.027 C 
ATOM     24  C   UNL     1     -33.163  25.182   7.277  1.00  0.00    -0.065 C 
ATOM     25  C   UNL     1     -33.157  26.172   4.972  1.00  0.00     0.014 C 
ATOM     26  C   UNL     1     -34.071  27.484   6.934  1.00  0.00     0.016 C 
ATOM     27  C   UNL     1     -31.677  25.452   7.446  1.00  0.00     0.063 C 
ATOM     28  C   UNL     1     -31.677  26.551   5.163  1.00  0.00     0.033 C 
ATOM     29  C   UNL     1     -30.964  25.555   6.089  1.00  0.00     0.118 C 
BRANCH  29  30
ATOM     30  O   UNL     1     -30.909  24.293   5.472  1.00  0.00    -0.393 OA
ATOM     31  H   UNL     1     -31.314  24.393   4.572  1.00  0.00     0.210 HD
ENDBRANCH  29  30
ENDBRANCH   9  11
ENDBRANCH   1   9
TORSDOF 7
ENDMDL
