MODEL 1
REMARK VINA RESULT:    -4.690      0.000      0.000
REMARK INTER + INTRA:          -5.899
REMARK INTER:                  -5.787
REMARK INTRA:                  -0.112
REMARK UNBOUND:                -0.112
REMARK SMILES Oc1cc(O)c2cc(O)c(-c3cc(O)c(O)c(O)c3)[o+]c2c1
REMARK SMILES IDX 10 1 20 2 21 3 22 4 2 5 3 6 4 7 6 8 7 9 8 10 11 11 12 12
REMARK SMILES IDX 13 13 19 14 15 15 17 16 14 17 16 19 18 21 9 23 1 25 5 27
REMARK H PARENT 14 18 16 20 18 22 9 24 1 26 5 28
REMARK Flexibility Score: inf
ROOT
ATOM      1  C   UNL     1      27.632   4.758 -13.137  1.00  0.00     0.402 A 
ATOM      2  O   UNL     1      28.407   5.632 -13.774  1.00  0.00    -0.202 OA
ATOM      3  C   UNL     1      29.258   5.288 -14.735  1.00  0.00     0.368 A 
ATOM      4  C   UNL     1      30.032   6.278 -15.345  1.00  0.00     0.162 A 
ATOM      5  C   UNL     1      30.936   5.943 -16.357  1.00  0.00     0.128 A 
ATOM      6  C   UNL     1      31.068   4.612 -16.760  1.00  0.00     0.093 A 
ATOM      7  C   UNL     1      30.304   3.601 -16.165  1.00  0.00     0.136 A 
ATOM      8  C   UNL     1      29.382   3.936 -15.139  1.00  0.00     0.125 A 
ATOM      9  C   UNL     1      28.565   2.991 -14.496  1.00  0.00     0.078 A 
ATOM     10  C   UNL     1      27.677   3.398 -13.496  1.00  0.00     0.223 A 
ENDROOT
BRANCH   1  11
ATOM     11  C   UNL     1      26.733   5.264 -12.075  1.00  0.00     0.091 A 
ATOM     12  C   UNL     1      27.277   5.955 -10.981  1.00  0.00     0.068 A 
ATOM     13  C   UNL     1      26.450   6.428  -9.953  1.00  0.00     0.162 A 
ATOM     14  C   UNL     1      25.349   5.020 -12.110  1.00  0.00     0.068 A 
ATOM     15  C   UNL     1      25.066   6.197 -10.006  1.00  0.00     0.200 A 
ATOM     16  C   UNL     1      24.518   5.489 -11.083  1.00  0.00     0.162 A 
BRANCH  13  17
ATOM     17  O   UNL     1      27.001   7.125  -8.878  1.00  0.00    -0.504 OA
ATOM     18  H   UNL     1      27.331   6.647  -8.048  1.00  0.00     0.293 HD
ENDBRANCH  13  17
BRANCH  15  19
ATOM     19  O   UNL     1      24.222   6.659  -8.995  1.00  0.00    -0.502 OA
ATOM     20  H   UNL     1      23.432   6.118  -8.663  1.00  0.00     0.293 HD
ENDBRANCH  15  19
BRANCH  16  21
ATOM     21  O   UNL     1      23.145   5.250 -11.125  1.00  0.00    -0.504 OA
ATOM     22  H   UNL     1      22.647   5.174 -12.003  1.00  0.00     0.293 HD
ENDBRANCH  16  21
ENDBRANCH   1  11
BRANCH  10  23
ATOM     23  O   UNL     1      26.830   2.468 -12.892  1.00  0.00    -0.500 OA
ATOM     24  H   UNL     1      27.087   1.993 -12.034  1.00  0.00     0.294 HD
ENDBRANCH  10  23
BRANCH   5  25
ATOM     25  O   UNL     1      31.712   6.926 -16.970  1.00  0.00    -0.507 OA
ATOM     26  H   UNL     1      31.704   7.055 -17.975  1.00  0.00     0.293 HD
ENDBRANCH   5  25
BRANCH   7  27
ATOM     27  O   UNL     1      30.497   2.295 -16.623  1.00  0.00    -0.507 OA
ATOM     28  H   UNL     1      31.292   1.719 -16.386  1.00  0.00     0.293 HD
ENDBRANCH   7  27
TORSDOF 7
ENDMDL
MODEL 2
REMARK VINA RESULT:    -4.646      1.306      7.421
REMARK INTER + INTRA:          -5.844
REMARK INTER:                  -6.128
REMARK INTRA:                   0.284
REMARK UNBOUND:                -0.112
REMARK SMILES Oc1cc(O)c2cc(O)c(-c3cc(O)c(O)c(O)c3)[o+]c2c1
REMARK SMILES IDX 10 1 20 2 21 3 22 4 2 5 3 6 4 7 6 8 7 9 8 10 11 11 12 12
REMARK SMILES IDX 13 13 19 14 15 15 17 16 14 17 16 19 18 21 9 23 1 25 5 27
REMARK H PARENT 14 18 16 20 18 22 9 24 1 26 5 28
REMARK Flexibility Score: inf
ROOT
ATOM      1  C   UNL     1      27.739   5.072 -13.468  1.00  0.00     0.402 A 
ATOM      2  O   UNL     1      26.647   4.323 -13.344  1.00  0.00    -0.202 OA
ATOM      3  C   UNL     1      25.659   4.605 -12.503  1.00  0.00     0.368 A 
ATOM      4  C   UNL     1      24.551   3.755 -12.443  1.00  0.00     0.162 A 
ATOM      5  C   UNL     1      23.499   4.028 -11.564  1.00  0.00     0.128 A 
ATOM      6  C   UNL     1      23.554   5.155 -10.741  1.00  0.00     0.093 A 
ATOM      7  C   UNL     1      24.653   6.022 -10.781  1.00  0.00     0.136 A 
ATOM      8  C   UNL     1      25.723   5.752 -11.674  1.00  0.00     0.125 A 
ATOM      9  C   UNL     1      26.857   6.573 -11.791  1.00  0.00     0.078 A 
ATOM     10  C   UNL     1      27.869   6.243 -12.697  1.00  0.00     0.223 A 
ENDROOT
BRANCH   1  11
ATOM     11  C   UNL     1      28.776   4.645 -14.434  1.00  0.00     0.091 A 
ATOM     12  C   UNL     1      28.887   3.288 -14.772  1.00  0.00     0.068 A 
ATOM     13  C   UNL     1      29.873   2.854 -15.670  1.00  0.00     0.162 A 
ATOM     14  C   UNL     1      29.689   5.563 -14.982  1.00  0.00     0.068 A 
ATOM     15  C   UNL     1      30.768   3.781 -16.226  1.00  0.00     0.200 A 
ATOM     16  C   UNL     1      30.678   5.134 -15.878  1.00  0.00     0.162 A 
BRANCH  13  17
ATOM     17  O   UNL     1      29.965   1.504 -16.008  1.00  0.00    -0.504 OA
ATOM     18  H   UNL     1      29.364   1.090 -16.710  1.00  0.00     0.293 HD
ENDBRANCH  13  17
BRANCH  15  19
ATOM     19  O   UNL     1      31.757   3.374 -17.124  1.00  0.00    -0.502 OA
ATOM     20  H   UNL     1      31.963   3.893 -17.970  1.00  0.00     0.293 HD
ENDBRANCH  15  19
BRANCH  16  21
ATOM     21  O   UNL     1      31.577   6.049 -16.423  1.00  0.00    -0.504 OA
ATOM     22  H   UNL     1      31.846   6.012 -17.399  1.00  0.00     0.293 HD
ENDBRANCH  16  21
ENDBRANCH   1  11
BRANCH  10  23
ATOM     23  O   UNL     1      28.971   7.084 -12.851  1.00  0.00    -0.500 OA
ATOM     24  H   UNL     1      29.101   7.903 -12.268  1.00  0.00     0.294 HD
ENDBRANCH  10  23
BRANCH   5  25
ATOM     25  O   UNL     1      22.391   3.185 -11.500  1.00  0.00    -0.507 OA
ATOM     26  H   UNL     1      22.085   2.779 -10.622  1.00  0.00     0.293 HD
ENDBRANCH   5  25
BRANCH   7  27
ATOM     27  O   UNL     1      24.633   7.125  -9.923  1.00  0.00    -0.507 OA
ATOM     28  H   UNL     1      24.504   7.068  -8.923  1.00  0.00     0.293 HD
ENDBRANCH   7  27
TORSDOF 7
ENDMDL
MODEL 3
REMARK VINA RESULT:    -4.594      1.276      7.295
REMARK INTER + INTRA:          -5.780
REMARK INTER:                  -6.058
REMARK INTRA:                   0.278
REMARK UNBOUND:                -0.112
REMARK SMILES Oc1cc(O)c2cc(O)c(-c3cc(O)c(O)c(O)c3)[o+]c2c1
REMARK SMILES IDX 10 1 20 2 21 3 22 4 2 5 3 6 4 7 6 8 7 9 8 10 11 11 12 12
REMARK SMILES IDX 13 13 19 14 15 15 17 16 14 17 16 19 18 21 9 23 1 25 5 27
REMARK H PARENT 14 18 16 20 18 22 9 24 1 26 5 28
REMARK Flexibility Score: inf
ROOT
ATOM      1  C   UNL     1      27.757   5.003 -13.362  1.00  0.00     0.402 A 
ATOM      2  O   UNL     1      26.637   4.294 -13.259  1.00  0.00    -0.202 OA
ATOM      3  C   UNL     1      25.651   4.602 -12.422  1.00  0.00     0.368 A 
ATOM      4  C   UNL     1      24.512   3.793 -12.384  1.00  0.00     0.162 A 
ATOM      5  C   UNL     1      23.463   4.094 -11.511  1.00  0.00     0.128 A 
ATOM      6  C   UNL     1      23.553   5.206 -10.672  1.00  0.00     0.093 A 
ATOM      7  C   UNL     1      24.683   6.032 -10.690  1.00  0.00     0.136 A 
ATOM      8  C   UNL     1      25.751   5.734 -11.577  1.00  0.00     0.125 A 
ATOM      9  C   UNL     1      26.916   6.513 -11.673  1.00  0.00     0.078 A 
ATOM     10  C   UNL     1      27.924   6.158 -12.574  1.00  0.00     0.223 A 
ENDROOT
BRANCH   1  11
ATOM     11  C   UNL     1      28.786   4.551 -14.325  1.00  0.00     0.091 A 
ATOM     12  C   UNL     1      29.630   5.497 -14.928  1.00  0.00     0.068 A 
ATOM     13  C   UNL     1      30.601   5.098 -15.858  1.00  0.00     0.162 A 
ATOM     14  C   UNL     1      28.903   3.199 -14.691  1.00  0.00     0.068 A 
ATOM     15  C   UNL     1      30.723   3.742 -16.203  1.00  0.00     0.200 A 
ATOM     16  C   UNL     1      29.871   2.795 -15.622  1.00  0.00     0.162 A 
BRANCH  13  17
ATOM     17  O   UNL     1      31.442   6.045 -16.440  1.00  0.00    -0.504 OA
ATOM     18  H   UNL     1      31.206   6.499 -17.314  1.00  0.00     0.293 HD
ENDBRANCH  13  17
BRANCH  15  19
ATOM     19  O   UNL     1      31.683   3.320 -17.124  1.00  0.00    -0.502 OA
ATOM     20  H   UNL     1      32.263   3.974 -17.636  1.00  0.00     0.293 HD
ENDBRANCH  15  19
BRANCH  16  21
ATOM     21  O   UNL     1      29.987   1.452 -15.977  1.00  0.00    -0.504 OA
ATOM     22  H   UNL     1      29.704   1.118 -16.891  1.00  0.00     0.293 HD
ENDBRANCH  16  21
ENDBRANCH   1  11
BRANCH  10  23
ATOM     23  O   UNL     1      29.058   6.959 -12.706  1.00  0.00    -0.500 OA
ATOM     24  H   UNL     1      28.989   7.955 -12.882  1.00  0.00     0.294 HD
ENDBRANCH  10  23
BRANCH   5  25
ATOM     25  O   UNL     1      22.324   3.292 -11.468  1.00  0.00    -0.507 OA
ATOM     26  H   UNL     1      22.129   2.610 -12.193  1.00  0.00     0.293 HD
ENDBRANCH   5  25
BRANCH   7  27
ATOM     27  O   UNL     1      24.697   7.124  -9.818  1.00  0.00    -0.507 OA
ATOM     28  H   UNL     1      25.192   7.145  -8.938  1.00  0.00     0.293 HD
ENDBRANCH   7  27
TORSDOF 7
ENDMDL
MODEL 4
REMARK VINA RESULT:    -4.326      0.248      1.806
REMARK INTER + INTRA:          -5.450
REMARK INTER:                  -5.396
REMARK INTRA:                  -0.054
REMARK UNBOUND:                -0.112
REMARK SMILES Oc1cc(O)c2cc(O)c(-c3cc(O)c(O)c(O)c3)[o+]c2c1
REMARK SMILES IDX 10 1 20 2 21 3 22 4 2 5 3 6 4 7 6 8 7 9 8 10 11 11 12 12
REMARK SMILES IDX 13 13 19 14 15 15 17 16 14 17 16 19 18 21 9 23 1 25 5 27
REMARK H PARENT 14 18 16 20 18 22 9 24 1 26 5 28
REMARK Flexibility Score: inf
ROOT
ATOM      1  C   UNL     1      27.452   4.647 -13.054  1.00  0.00     0.402 A 
ATOM      2  O   UNL     1      28.291   5.494 -13.645  1.00  0.00    -0.202 OA
ATOM      3  C   UNL     1      29.117   5.140 -14.623  1.00  0.00     0.368 A 
ATOM      4  C   UNL     1      29.964   6.102 -15.181  1.00  0.00     0.162 A 
ATOM      5  C   UNL     1      30.845   5.755 -16.208  1.00  0.00     0.128 A 
ATOM      6  C   UNL     1      30.882   4.441 -16.680  1.00  0.00     0.093 A 
ATOM      7  C   UNL     1      30.045   3.458 -16.139  1.00  0.00     0.136 A 
ATOM      8  C   UNL     1      29.145   3.805 -15.096  1.00  0.00     0.125 A 
ATOM      9  C   UNL     1      28.260   2.890 -14.503  1.00  0.00     0.078 A 
ATOM     10  C   UNL     1      27.400   3.307 -13.483  1.00  0.00     0.223 A 
ENDROOT
BRANCH   1  11
ATOM     11  C   UNL     1      26.588   5.161 -11.968  1.00  0.00     0.091 A 
ATOM     12  C   UNL     1      25.199   4.972 -12.044  1.00  0.00     0.068 A 
ATOM     13  C   UNL     1      24.355   5.465 -11.039  1.00  0.00     0.162 A 
ATOM     14  C   UNL     1      27.121   5.883 -10.886  1.00  0.00     0.068 A 
ATOM     15  C   UNL     1      24.899   6.168  -9.952  1.00  0.00     0.200 A 
ATOM     16  C   UNL     1      26.282   6.380  -9.880  1.00  0.00     0.162 A 
BRANCH  13  17
ATOM     17  O   UNL     1      22.978   5.259 -11.119  1.00  0.00    -0.504 OA
ATOM     18  H   UNL     1      22.400   5.782 -11.765  1.00  0.00     0.293 HD
ENDBRANCH  13  17
BRANCH  15  19
ATOM     19  O   UNL     1      24.080   6.667  -8.937  1.00  0.00    -0.502 OA
ATOM     20  H   UNL     1      24.370   7.431  -8.338  1.00  0.00     0.293 HD
ENDBRANCH  15  19
BRANCH  16  21
ATOM     21  O   UNL     1      26.816   7.090  -8.806  1.00  0.00    -0.504 OA
ATOM     22  H   UNL     1      27.399   7.906  -8.947  1.00  0.00     0.293 HD
ENDBRANCH  16  21
ENDBRANCH   1  11
BRANCH  10  23
ATOM     23  O   UNL     1      26.486   2.411 -12.928  1.00  0.00    -0.500 OA
ATOM     24  H   UNL     1      25.748   2.721 -12.307  1.00  0.00     0.294 HD
ENDBRANCH  10  23
BRANCH   5  25
ATOM     25  O   UNL     1      31.692   6.710 -16.770  1.00  0.00    -0.507 OA
ATOM     26  H   UNL     1      31.759   7.647 -16.389  1.00  0.00     0.293 HD
ENDBRANCH   5  25
BRANCH   7  27
ATOM     27  O   UNL     1      30.145   2.167 -16.663  1.00  0.00    -0.507 OA
ATOM     28  H   UNL     1      29.753   1.343 -16.230  1.00  0.00     0.293 HD
ENDBRANCH   7  27
TORSDOF 7
ENDMDL
MODEL 5
REMARK VINA RESULT:    -4.112      1.338      7.222
REMARK INTER + INTRA:          -5.186
REMARK INTER:                  -4.809
REMARK INTRA:                  -0.377
REMARK UNBOUND:                -0.112
REMARK SMILES Oc1cc(O)c2cc(O)c(-c3cc(O)c(O)c(O)c3)[o+]c2c1
REMARK SMILES IDX 10 1 20 2 21 3 22 4 2 5 3 6 4 7 6 8 7 9 8 10 11 11 12 12
REMARK SMILES IDX 13 13 19 14 15 15 17 16 14 17 16 19 18 21 9 23 1 25 5 27
REMARK H PARENT 14 18 16 20 18 22 9 24 1 26 5 28
REMARK Flexibility Score: inf
ROOT
ATOM      1  C   UNL     1      27.774   5.258 -13.748  1.00  0.00     0.402 A 
ATOM      2  O   UNL     1      28.020   5.352 -12.444  1.00  0.00    -0.202 OA
ATOM      3  C   UNL     1      27.132   5.801 -11.564  1.00  0.00     0.368 A 
ATOM      4  C   UNL     1      27.485   5.865 -10.212  1.00  0.00     0.162 A 
ATOM      5  C   UNL     1      26.571   6.336  -9.267  1.00  0.00     0.128 A 
ATOM      6  C   UNL     1      25.299   6.747  -9.672  1.00  0.00     0.093 A 
ATOM      7  C   UNL     1      24.921   6.693 -11.019  1.00  0.00     0.136 A 
ATOM      8  C   UNL     1      25.844   6.213 -11.984  1.00  0.00     0.125 A 
ATOM      9  C   UNL     1      25.548   6.111 -13.354  1.00  0.00     0.078 A 
ATOM     10  C   UNL     1      26.508   5.624 -14.245  1.00  0.00     0.223 A 
ENDROOT
BRANCH   1  11
ATOM     11  C   UNL     1      28.850   4.752 -14.629  1.00  0.00     0.091 A 
ATOM     12  C   UNL     1      28.930   3.377 -14.900  1.00  0.00     0.068 A 
ATOM     13  C   UNL     1      29.951   2.868 -15.716  1.00  0.00     0.162 A 
ATOM     14  C   UNL     1      29.829   5.611 -15.159  1.00  0.00     0.068 A 
ATOM     15  C   UNL     1      30.913   3.737 -16.256  1.00  0.00     0.200 A 
ATOM     16  C   UNL     1      30.852   5.107 -15.973  1.00  0.00     0.162 A 
BRANCH  13  17
ATOM     17  O   UNL     1      30.012   1.502 -15.988  1.00  0.00    -0.504 OA
ATOM     18  H   UNL     1      29.274   1.028 -16.494  1.00  0.00     0.293 HD
ENDBRANCH  13  17
BRANCH  15  19
ATOM     19  O   UNL     1      31.937   3.255 -17.073  1.00  0.00    -0.502 OA
ATOM     20  H   UNL     1      32.141   3.662 -17.978  1.00  0.00     0.293 HD
ENDBRANCH  15  19
BRANCH  16  21
ATOM     21  O   UNL     1      31.816   5.964 -16.502  1.00  0.00    -0.504 OA
ATOM     22  H   UNL     1      32.628   5.611 -16.993  1.00  0.00     0.293 HD
ENDBRANCH  16  21
ENDBRANCH   1  11
BRANCH  10  23
ATOM     23  O   UNL     1      26.198   5.476 -15.596  1.00  0.00    -0.500 OA
ATOM     24  H   UNL     1      25.241   5.387 -15.916  1.00  0.00     0.294 HD
ENDBRANCH  10  23
BRANCH   5  25
ATOM     25  O   UNL     1      26.916   6.402  -7.918  1.00  0.00    -0.507 OA
ATOM     26  H   UNL     1      26.896   7.279  -7.409  1.00  0.00     0.293 HD
ENDBRANCH   5  25
BRANCH   7  27
ATOM     27  O   UNL     1      23.632   7.125 -11.344  1.00  0.00    -0.507 OA
ATOM     28  H   UNL     1      23.082   7.757 -10.779  1.00  0.00     0.293 HD
ENDBRANCH   7  27
TORSDOF 7
ENDMDL
MODEL 6
REMARK VINA RESULT:    -3.957      2.715      3.715
REMARK INTER + INTRA:          -4.994
REMARK INTER:                  -5.169
REMARK INTRA:                   0.175
REMARK UNBOUND:                -0.112
REMARK SMILES Oc1cc(O)c2cc(O)c(-c3cc(O)c(O)c(O)c3)[o+]c2c1
REMARK SMILES IDX 10 1 20 2 21 3 22 4 2 5 3 6 4 7 6 8 7 9 8 10 11 11 12 12
REMARK SMILES IDX 13 13 19 14 15 15 17 16 14 17 16 19 18 21 9 23 1 25 5 27
REMARK H PARENT 14 18 16 20 18 22 9 24 1 26 5 28
REMARK Flexibility Score: inf
ROOT
ATOM      1  C   UNL     1      27.117   3.793 -14.101  1.00  0.00     0.402 A 
ATOM      2  O   UNL     1      28.195   3.189 -14.592  1.00  0.00    -0.202 OA
ATOM      3  C   UNL     1      29.086   3.801 -15.365  1.00  0.00     0.368 A 
ATOM      4  C   UNL     1      30.188   3.081 -15.835  1.00  0.00     0.162 A 
ATOM      5  C   UNL     1      31.138   3.700 -16.652  1.00  0.00     0.128 A 
ATOM      6  C   UNL     1      30.987   5.044 -17.001  1.00  0.00     0.093 A 
ATOM      7  C   UNL     1      29.892   5.788 -16.543  1.00  0.00     0.136 A 
ATOM      8  C   UNL     1      28.925   5.165 -15.711  1.00  0.00     0.125 A 
ATOM      9  C   UNL     1      27.804   5.835 -15.195  1.00  0.00     0.078 A 
ATOM     10  C   UNL     1      26.896   5.156 -14.377  1.00  0.00     0.223 A 
ENDROOT
BRANCH   1  11
ATOM     11  C   UNL     1      26.192   2.999 -13.260  1.00  0.00     0.091 A 
ATOM     12  C   UNL     1      26.684   1.895 -12.547  1.00  0.00     0.068 A 
ATOM     13  C   UNL     1      25.826   1.115 -11.759  1.00  0.00     0.162 A 
ATOM     14  C   UNL     1      24.819   3.295 -13.201  1.00  0.00     0.068 A 
ATOM     15  C   UNL     1      24.459   1.429 -11.691  1.00  0.00     0.200 A 
ATOM     16  C   UNL     1      23.957   2.517 -12.416  1.00  0.00     0.162 A 
BRANCH  13  17
ATOM     17  O   UNL     1      26.328   0.027 -11.045  1.00  0.00    -0.504 OA
ATOM     18  H   UNL     1      27.202  -0.417 -11.299  1.00  0.00     0.293 HD
ENDBRANCH  13  17
BRANCH  15  19
ATOM     19  O   UNL     1      23.585   0.669 -10.911  1.00  0.00    -0.502 OA
ATOM     20  H   UNL     1      22.841   0.117 -11.320  1.00  0.00     0.293 HD
ENDBRANCH  15  19
BRANCH  16  21
ATOM     21  O   UNL     1      22.597   2.818 -12.356  1.00  0.00    -0.504 OA
ATOM     22  H   UNL     1      21.906   2.249 -12.830  1.00  0.00     0.293 HD
ENDBRANCH  16  21
ENDBRANCH   1  11
BRANCH  10  23
ATOM     23  O   UNL     1      25.810   5.833 -13.824  1.00  0.00    -0.500 OA
ATOM     24  H   UNL     1      25.067   6.209 -14.401  1.00  0.00     0.294 HD
ENDBRANCH  10  23
BRANCH   5  25
ATOM     25  O   UNL     1      32.240   2.989 -17.125  1.00  0.00    -0.507 OA
ATOM     26  H   UNL     1      33.053   3.462 -17.503  1.00  0.00     0.293 HD
ENDBRANCH   5  25
BRANCH   7  27
ATOM     27  O   UNL     1      29.811   7.125 -16.940  1.00  0.00    -0.507 OA
ATOM     28  H   UNL     1      30.462   7.844 -16.658  1.00  0.00     0.293 HD
ENDBRANCH   7  27
TORSDOF 7
ENDMDL
MODEL 7
REMARK VINA RESULT:    -3.944      1.736      3.490
REMARK INTER + INTRA:          -4.978
REMARK INTER:                  -5.329
REMARK INTRA:                   0.350
REMARK UNBOUND:                -0.112
REMARK SMILES Oc1cc(O)c2cc(O)c(-c3cc(O)c(O)c(O)c3)[o+]c2c1
REMARK SMILES IDX 10 1 20 2 21 3 22 4 2 5 3 6 4 7 6 8 7 9 8 10 11 11 12 12
REMARK SMILES IDX 13 13 19 14 15 15 17 16 14 17 16 19 18 21 9 23 1 25 5 27
REMARK H PARENT 14 18 16 20 18 22 9 24 1 26 5 28
REMARK Flexibility Score: inf
ROOT
ATOM      1  C   UNL     1      27.315   4.746 -13.818  1.00  0.00     0.402 A 
ATOM      2  O   UNL     1      28.059   3.871 -14.489  1.00  0.00    -0.202 OA
ATOM      3  C   UNL     1      29.192   4.195 -15.103  1.00  0.00     0.368 A 
ATOM      4  C   UNL     1      29.903   3.204 -15.786  1.00  0.00     0.162 A 
ATOM      5  C   UNL     1      31.096   3.518 -16.442  1.00  0.00     0.128 A 
ATOM      6  C   UNL     1      31.581   4.828 -16.416  1.00  0.00     0.093 A 
ATOM      7  C   UNL     1      30.888   5.839 -15.739  1.00  0.00     0.136 A 
ATOM      8  C   UNL     1      29.676   5.525 -15.069  1.00  0.00     0.125 A 
ATOM      9  C   UNL     1      28.922   6.470 -14.354  1.00  0.00     0.078 A 
ATOM     10  C   UNL     1      27.740   6.085 -13.714  1.00  0.00     0.223 A 
ENDROOT
BRANCH   1  11
ATOM     11  C   UNL     1      26.066   4.265 -13.185  1.00  0.00     0.091 A 
ATOM     12  C   UNL     1      25.514   3.041 -13.593  1.00  0.00     0.068 A 
ATOM     13  C   UNL     1      24.322   2.571 -13.025  1.00  0.00     0.162 A 
ATOM     14  C   UNL     1      25.389   5.033 -12.222  1.00  0.00     0.068 A 
ATOM     15  C   UNL     1      23.663   3.336 -12.049  1.00  0.00     0.200 A 
ATOM     16  C   UNL     1      24.196   4.569 -11.652  1.00  0.00     0.162 A 
BRANCH  13  17
ATOM     17  O   UNL     1      23.790   1.346 -13.428  1.00  0.00    -0.504 OA
ATOM     18  H   UNL     1      24.372   0.621 -13.829  1.00  0.00     0.293 HD
ENDBRANCH  13  17
BRANCH  15  19
ATOM     19  O   UNL     1      22.476   2.889 -11.467  1.00  0.00    -0.502 OA
ATOM     20  H   UNL     1      22.397   1.974 -11.040  1.00  0.00     0.293 HD
ENDBRANCH  15  19
BRANCH  16  21
ATOM     21  O   UNL     1      23.531   5.332 -10.693  1.00  0.00    -0.504 OA
ATOM     22  H   UNL     1      22.597   5.097 -10.383  1.00  0.00     0.293 HD
ENDBRANCH  16  21
ENDBRANCH   1  11
BRANCH  10  23
ATOM     23  O   UNL     1      27.017   7.011 -12.963  1.00  0.00    -0.500 OA
ATOM     24  H   UNL     1      26.345   7.636 -13.393  1.00  0.00     0.294 HD
ENDBRANCH  10  23
BRANCH   5  25
ATOM     25  O   UNL     1      31.811   2.536 -17.125  1.00  0.00    -0.507 OA
ATOM     26  H   UNL     1      32.620   2.766 -17.690  1.00  0.00     0.293 HD
ENDBRANCH   5  25
BRANCH   7  27
ATOM     27  O   UNL     1      31.437   7.123 -15.764  1.00  0.00    -0.507 OA
ATOM     28  H   UNL     1      32.363   7.355 -15.433  1.00  0.00     0.293 HD
ENDBRANCH   7  27
TORSDOF 7
ENDMDL
MODEL 8
REMARK VINA RESULT:    -3.760      1.334      2.760
REMARK INTER + INTRA:          -4.751
REMARK INTER:                  -5.176
REMARK INTRA:                   0.424
REMARK UNBOUND:                -0.112
REMARK SMILES Oc1cc(O)c2cc(O)c(-c3cc(O)c(O)c(O)c3)[o+]c2c1
REMARK SMILES IDX 10 1 20 2 21 3 22 4 2 5 3 6 4 7 6 8 7 9 8 10 11 11 12 12
REMARK SMILES IDX 13 13 19 14 15 15 17 16 14 17 16 19 18 21 9 23 1 25 5 27
REMARK H PARENT 14 18 16 20 18 22 9 24 1 26 5 28
REMARK Flexibility Score: inf
ROOT
ATOM      1  C   UNL     1      27.390   4.829 -13.629  1.00  0.00     0.402 A 
ATOM      2  O   UNL     1      27.650   3.678 -14.244  1.00  0.00    -0.202 OA
ATOM      3  C   UNL     1      28.685   3.503 -15.057  1.00  0.00     0.368 A 
ATOM      4  C   UNL     1      28.875   2.256 -15.659  1.00  0.00     0.162 A 
ATOM      5  C   UNL     1      29.954   2.046 -16.522  1.00  0.00     0.128 A 
ATOM      6  C   UNL     1      30.848   3.087 -16.785  1.00  0.00     0.093 A 
ATOM      7  C   UNL     1      30.680   4.345 -16.195  1.00  0.00     0.136 A 
ATOM      8  C   UNL     1      29.587   4.564 -15.316  1.00  0.00     0.125 A 
ATOM      9  C   UNL     1      29.349   5.788 -14.669  1.00  0.00     0.078 A 
ATOM     10  C   UNL     1      28.253   5.926 -13.813  1.00  0.00     0.223 A 
ENDROOT
BRANCH   1  11
ATOM     11  C   UNL     1      26.198   4.902 -12.754  1.00  0.00     0.091 A 
ATOM     12  C   UNL     1      26.068   5.969 -11.852  1.00  0.00     0.068 A 
ATOM     13  C   UNL     1      24.959   6.052 -10.998  1.00  0.00     0.162 A 
ATOM     14  C   UNL     1      25.216   3.895 -12.768  1.00  0.00     0.068 A 
ATOM     15  C   UNL     1      23.974   5.052 -11.032  1.00  0.00     0.200 A 
ATOM     16  C   UNL     1      24.106   3.973 -11.915  1.00  0.00     0.162 A 
BRANCH  13  17
ATOM     17  O   UNL     1      24.836   7.125 -10.115  1.00  0.00    -0.504 OA
ATOM     18  H   UNL     1      24.899   8.084 -10.433  1.00  0.00     0.293 HD
ENDBRANCH  13  17
BRANCH  15  19
ATOM     19  O   UNL     1      22.859   5.114 -10.194  1.00  0.00    -0.502 OA
ATOM     20  H   UNL     1      22.068   4.491 -10.304  1.00  0.00     0.293 HD
ENDBRANCH  15  19
BRANCH  16  21
ATOM     21  O   UNL     1      23.133   2.976 -11.936  1.00  0.00    -0.504 OA
ATOM     22  H   UNL     1      23.263   2.096 -11.451  1.00  0.00     0.293 HD
ENDBRANCH  16  21
ENDBRANCH   1  11
BRANCH  10  23
ATOM     23  O   UNL     1      28.043   7.125 -13.132  1.00  0.00    -0.500 OA
ATOM     24  H   UNL     1      27.192   7.298 -12.609  1.00  0.00     0.294 HD
ENDBRANCH  10  23
BRANCH   5  25
ATOM     25  O   UNL     1      30.150   0.805 -17.125  1.00  0.00    -0.507 OA
ATOM     26  H   UNL     1      30.903   0.189 -16.838  1.00  0.00     0.293 HD
ENDBRANCH   5  25
BRANCH   7  27
ATOM     27  O   UNL     1      31.616   5.334 -16.511  1.00  0.00    -0.507 OA
ATOM     28  H   UNL     1      31.390   6.210 -16.962  1.00  0.00     0.293 HD
ENDBRANCH   7  27
TORSDOF 7
ENDMDL
MODEL 9
REMARK VINA RESULT:    -2.581      2.663      4.037
REMARK INTER + INTRA:          -3.297
REMARK INTER:                  -2.913
REMARK INTRA:                  -0.384
REMARK UNBOUND:                -0.112
REMARK SMILES Oc1cc(O)c2cc(O)c(-c3cc(O)c(O)c(O)c3)[o+]c2c1
REMARK SMILES IDX 10 1 20 2 21 3 22 4 2 5 3 6 4 7 6 8 7 9 8 10 11 11 12 12
REMARK SMILES IDX 13 13 19 14 15 15 17 16 14 17 16 19 18 21 9 23 1 25 5 27
REMARK H PARENT 14 18 16 20 18 22 9 24 1 26 5 28
REMARK Flexibility Score: inf
ROOT
ATOM      1  C   UNL     1      26.441   4.395 -13.250  1.00  0.00     0.402 A 
ATOM      2  O   UNL     1      27.366   4.821 -12.394  1.00  0.00    -0.202 OA
ATOM      3  C   UNL     1      28.412   5.556 -12.755  1.00  0.00     0.368 A 
ATOM      4  C   UNL     1      29.333   5.954 -11.781  1.00  0.00     0.162 A 
ATOM      5  C   UNL     1      30.444   6.724 -12.135  1.00  0.00     0.128 A 
ATOM      6  C   UNL     1      30.636   7.099 -13.466  1.00  0.00     0.093 A 
ATOM      7  C   UNL     1      29.729   6.713 -14.461  1.00  0.00     0.136 A 
ATOM      8  C   UNL     1      28.597   5.932 -14.107  1.00  0.00     0.125 A 
ATOM      9  C   UNL     1      27.629   5.512 -15.034  1.00  0.00     0.078 A 
ATOM     10  C   UNL     1      26.538   4.748 -14.610  1.00  0.00     0.223 A 
ENDROOT
BRANCH   1  11
ATOM     11  C   UNL     1      25.327   3.573 -12.726  1.00  0.00     0.091 A 
ATOM     12  C   UNL     1      24.204   4.207 -12.170  1.00  0.00     0.068 A 
ATOM     13  C   UNL     1      23.144   3.452 -11.649  1.00  0.00     0.162 A 
ATOM     14  C   UNL     1      25.390   2.169 -12.725  1.00  0.00     0.068 A 
ATOM     15  C   UNL     1      23.208   2.049 -11.669  1.00  0.00     0.200 A 
ATOM     16  C   UNL     1      24.333   1.410 -12.204  1.00  0.00     0.162 A 
BRANCH  13  17
ATOM     17  O   UNL     1      22.028   4.093 -11.110  1.00  0.00    -0.504 OA
ATOM     18  H   UNL     1      21.086   3.809 -11.349  1.00  0.00     0.293 HD
ENDBRANCH  13  17
BRANCH  15  19
ATOM     19  O   UNL     1      22.163   1.276 -11.159  1.00  0.00    -0.502 OA
ATOM     20  H   UNL     1      21.311   1.111 -11.681  1.00  0.00     0.293 HD
ENDBRANCH  15  19
BRANCH  16  21
ATOM     21  O   UNL     1      24.398   0.018 -12.209  1.00  0.00    -0.504 OA
ATOM     22  H   UNL     1      24.327  -0.521 -11.355  1.00  0.00     0.293 HD
ENDBRANCH  16  21
ENDBRANCH   1  11
BRANCH  10  23
ATOM     23  O   UNL     1      25.550   4.372 -15.520  1.00  0.00    -0.500 OA
ATOM     24  H   UNL     1      25.521   3.441 -15.919  1.00  0.00     0.294 HD
ENDBRANCH  10  23
BRANCH   5  25
ATOM     25  O   UNL     1      31.366   7.125 -11.169  1.00  0.00    -0.507 OA
ATOM     26  H   UNL     1      31.695   6.486 -10.454  1.00  0.00     0.293 HD
ENDBRANCH   5  25
BRANCH   7  27
ATOM     27  O   UNL     1      29.994   7.125 -15.769  1.00  0.00    -0.507 OA
ATOM     28  H   UNL     1      29.347   7.642 -16.347  1.00  0.00     0.293 HD
ENDBRANCH   7  27
TORSDOF 7
ENDMDL
