MODEL 1
REMARK VINA RESULT:    -4.478      0.000      0.000
REMARK INTER + INTRA:         -11.519
REMARK INTER:                  -8.667
REMARK INTRA:                  -2.852
REMARK UNBOUND:                -2.852
REMARK SMILES CCCCCCCCCCCCCCCCCC(=O)[O-]
REMARK SMILES IDX 10 1 11 2 12 3 13 4 14 5 15 6 16 7 17 8 18 9 19 10 20 11
REMARK SMILES IDX 9 12 8 13 7 14 6 15 5 16 4 17 3 18 2 19 1 20
REMARK H PARENT
REMARK Flexibility Score: inf
ROOT
ATOM      1  C   UNL     1      18.346 -35.144  23.643  1.00  0.00     0.000 C 
ENDROOT
BRANCH   1   2
ATOM      2  C   UNL     1      16.862 -34.746  23.607  1.00  0.00     0.000 C 
BRANCH   2   3
ATOM      3  C   UNL     1      16.620 -33.315  24.111  1.00  0.00     0.000 C 
BRANCH   3   4
ATOM      4  C   UNL     1      15.556 -32.606  23.258  1.00  0.00     0.000 C 
BRANCH   4   5
ATOM      5  C   UNL     1      14.938 -33.526  22.192  1.00  0.00     0.000 C 
BRANCH   5   6
ATOM      6  C   UNL     1      14.221 -32.742  21.079  1.00  0.00     0.000 C 
BRANCH   6   7
ATOM      7  C   UNL     1      13.971 -31.273  21.460  1.00  0.00     0.006 C 
BRANCH   7   8
ATOM      8  C   UNL     1      12.496 -30.984  21.765  1.00  0.00     0.053 C 
BRANCH   8   9
ATOM      9  C   UNL     1      12.378 -30.041  22.921  1.00  0.00     0.041 C 
ATOM     10  O   UNL     1      13.146 -30.153  23.912  1.00  0.00    -0.550 OA
ATOM     11  O   UNL     1      11.387 -29.068  22.925  1.00  0.00    -0.550 OA
ENDBRANCH   8   9
ENDBRANCH   7   8
ENDBRANCH   6   7
ENDBRANCH   5   6
ENDBRANCH   4   5
ENDBRANCH   3   4
ENDBRANCH   2   3
ENDBRANCH   1   2
BRANCH   1  12
ATOM     12  C   UNL     1      18.605 -36.523  23.018  1.00  0.00     0.000 C 
BRANCH  12  13
ATOM     13  C   UNL     1      18.864 -36.403  21.512  1.00  0.00    -0.000 C 
BRANCH  13  14
ATOM     14  C   UNL     1      17.658 -36.910  20.705  1.00  0.00    -0.000 C 
BRANCH  14  15
ATOM     15  C   UNL     1      16.969 -35.793  19.904  1.00  0.00    -0.000 C 
BRANCH  15  16
ATOM     16  C   UNL     1      17.961 -34.750  19.368  1.00  0.00    -0.000 C 
BRANCH  16  17
ATOM     17  C   UNL     1      17.738 -33.386  20.036  1.00  0.00    -0.000 C 
BRANCH  17  18
ATOM     18  C   UNL     1      19.016 -32.816  20.679  1.00  0.00    -0.000 C 
BRANCH  18  19
ATOM     19  C   UNL     1      18.786 -31.634  21.637  1.00  0.00    -0.003 C 
ATOM     20  C   UNL     1      17.847 -30.572  21.065  1.00  0.00     0.004 C 
ENDBRANCH  18  19
ENDBRANCH  17  18
ENDBRANCH  16  17
ENDBRANCH  15  16
ENDBRANCH  14  15
ENDBRANCH  13  14
ENDBRANCH  12  13
ENDBRANCH   1  12
TORSDOF 16
ENDMDL
MODEL 2
REMARK VINA RESULT:    -4.467      1.496      3.157
REMARK INTER + INTRA:         -11.498
REMARK INTER:                  -9.119
REMARK INTRA:                  -2.379
REMARK UNBOUND:                -2.852
REMARK SMILES CCCCCCCCCCCCCCCCCC(=O)[O-]
REMARK SMILES IDX 10 1 11 2 12 3 13 4 14 5 15 6 16 7 17 8 18 9 19 10 20 11
REMARK SMILES IDX 9 12 8 13 7 14 6 15 5 16 4 17 3 18 2 19 1 20
REMARK H PARENT
REMARK Flexibility Score: inf
ROOT
ATOM      1  C   UNL     1      17.175 -34.619  21.333  1.00  0.00     0.000 C 
ENDROOT
BRANCH   1   2
ATOM      2  C   UNL     1      15.646 -34.764  21.293  1.00  0.00     0.000 C 
BRANCH   2   3
ATOM      3  C   UNL     1      14.956 -33.580  20.599  1.00  0.00     0.000 C 
BRANCH   3   4
ATOM      4  C   UNL     1      14.457 -32.555  21.629  1.00  0.00     0.000 C 
BRANCH   4   5
ATOM      5  C   UNL     1      13.508 -31.511  21.019  1.00  0.00     0.000 C 
BRANCH   5   6
ATOM      6  C   UNL     1      12.501 -30.958  22.042  1.00  0.00     0.000 C 
BRANCH   6   7
ATOM      7  C   UNL     1      13.179 -30.480  23.337  1.00  0.00     0.006 C 
BRANCH   7   8
ATOM      8  C   UNL     1      13.709 -29.044  23.232  1.00  0.00     0.053 C 
BRANCH   8   9
ATOM      9  C   UNL     1      12.806 -28.101  23.962  1.00  0.00     0.041 C 
ATOM     10  O   UNL     1      13.286 -27.115  24.583  1.00  0.00    -0.550 OA
ATOM     11  O   UNL     1      11.438 -28.337  23.999  1.00  0.00    -0.550 OA
ENDBRANCH   8   9
ENDBRANCH   7   8
ENDBRANCH   6   7
ENDBRANCH   5   6
ENDBRANCH   4   5
ENDBRANCH   3   4
ENDBRANCH   2   3
ENDBRANCH   1   2
BRANCH   1  12
ATOM     12  C   UNL     1      17.859 -35.764  22.095  1.00  0.00     0.000 C 
BRANCH  12  13
ATOM     13  C   UNL     1      18.356 -35.291  23.467  1.00  0.00    -0.000 C 
BRANCH  13  14
ATOM     14  C   UNL     1      17.317 -35.588  24.560  1.00  0.00    -0.000 C 
BRANCH  14  15
ATOM     15  C   UNL     1      16.582 -34.324  25.037  1.00  0.00    -0.000 C 
BRANCH  15  16
ATOM     16  C   UNL     1      17.419 -33.049  24.858  1.00  0.00    -0.000 C 
BRANCH  16  17
ATOM     17  C   UNL     1      16.667 -32.013  24.011  1.00  0.00    -0.000 C 
BRANCH  17  18
ATOM     18  C   UNL     1      17.578 -30.885  23.493  1.00  0.00    -0.000 C 
BRANCH  18  19
ATOM     19  C   UNL     1      17.174 -30.302  22.127  1.00  0.00    -0.003 C 
ATOM     20  C   UNL     1      17.883 -30.977  20.953  1.00  0.00     0.004 C 
ENDBRANCH  18  19
ENDBRANCH  17  18
ENDBRANCH  16  17
ENDBRANCH  15  16
ENDBRANCH  14  15
ENDBRANCH  13  14
ENDBRANCH  12  13
ENDBRANCH   1  12
TORSDOF 16
ENDMDL
MODEL 3
REMARK VINA RESULT:    -4.437      3.292      5.795
REMARK INTER + INTRA:         -11.438
REMARK INTER:                  -8.388
REMARK INTRA:                  -3.051
REMARK UNBOUND:                -2.852
REMARK SMILES CCCCCCCCCCCCCCCCCC(=O)[O-]
REMARK SMILES IDX 10 1 11 2 12 3 13 4 14 5 15 6 16 7 17 8 18 9 19 10 20 11
REMARK SMILES IDX 9 12 8 13 7 14 6 15 5 16 4 17 3 18 2 19 1 20
REMARK H PARENT
REMARK Flexibility Score: inf
ROOT
ATOM      1  C   UNL     1      14.877 -30.947  21.354  1.00  0.00     0.000 C 
ENDROOT
BRANCH   1   2
ATOM      2  C   UNL     1      14.037 -32.068  21.986  1.00  0.00     0.000 C 
BRANCH   2   3
ATOM      3  C   UNL     1      13.622 -31.755  23.431  1.00  0.00     0.000 C 
BRANCH   3   4
ATOM      4  C   UNL     1      14.093 -32.861  24.388  1.00  0.00     0.000 C 
BRANCH   4   5
ATOM      5  C   UNL     1      15.290 -33.654  23.839  1.00  0.00     0.000 C 
BRANCH   5   6
ATOM      6  C   UNL     1      16.634 -33.169  24.411  1.00  0.00     0.000 C 
BRANCH   6   7
ATOM      7  C   UNL     1      17.830 -33.960  23.857  1.00  0.00     0.006 C 
BRANCH   7   8
ATOM      8  C   UNL     1      17.445 -35.373  23.401  1.00  0.00     0.053 C 
BRANCH   8   9
ATOM      9  C   UNL     1      18.666 -36.228  23.267  1.00  0.00     0.041 C 
ATOM     10  O   UNL     1      19.433 -36.088  22.278  1.00  0.00    -0.550 OA
ATOM     11  O   UNL     1      18.931 -37.214  24.208  1.00  0.00    -0.550 OA
ENDBRANCH   8   9
ENDBRANCH   7   8
ENDBRANCH   6   7
ENDBRANCH   5   6
ENDBRANCH   4   5
ENDBRANCH   3   4
ENDBRANCH   2   3
ENDBRANCH   1   2
BRANCH   1  12
ATOM     12  C   UNL     1      15.346 -29.906  22.382  1.00  0.00     0.000 C 
BRANCH  12  13
ATOM     13  C   UNL     1      16.873 -29.926  22.525  1.00  0.00    -0.000 C 
BRANCH  13  14
ATOM     14  C   UNL     1      17.532 -30.582  21.301  1.00  0.00    -0.000 C 
BRANCH  14  15
ATOM     15  C   UNL     1      18.789 -31.388  21.667  1.00  0.00    -0.000 C 
BRANCH  15  16
ATOM     16  C   UNL     1      19.059 -32.541  20.689  1.00  0.00    -0.000 C 
BRANCH  16  17
ATOM     17  C   UNL     1      17.744 -33.177  20.215  1.00  0.00    -0.000 C 
BRANCH  17  18
ATOM     18  C   UNL     1      17.951 -34.542  19.531  1.00  0.00    -0.000 C 
BRANCH  18  19
ATOM     19  C   UNL     1      16.732 -35.481  19.580  1.00  0.00    -0.003 C 
ATOM     20  C   UNL     1      15.537 -34.875  20.315  1.00  0.00     0.004 C 
ENDBRANCH  18  19
ENDBRANCH  17  18
ENDBRANCH  16  17
ENDBRANCH  15  16
ENDBRANCH  14  15
ENDBRANCH  13  14
ENDBRANCH  12  13
ENDBRANCH   1  12
TORSDOF 16
ENDMDL
MODEL 4
REMARK VINA RESULT:    -4.423      1.470      2.866
REMARK INTER + INTRA:         -11.412
REMARK INTER:                  -8.672
REMARK INTRA:                  -2.740
REMARK UNBOUND:                -2.852
REMARK SMILES CCCCCCCCCCCCCCCCCC(=O)[O-]
REMARK SMILES IDX 10 1 11 2 12 3 13 4 14 5 15 6 16 7 17 8 18 9 19 10 20 11
REMARK SMILES IDX 9 12 8 13 7 14 6 15 5 16 4 17 3 18 2 19 1 20
REMARK H PARENT
REMARK Flexibility Score: inf
ROOT
ATOM      1  C   UNL     1      19.236 -34.022  22.610  1.00  0.00     0.000 C 
ENDROOT
BRANCH   1   2
ATOM      2  C   UNL     1      18.715 -32.576  22.566  1.00  0.00     0.000 C 
BRANCH   2   3
ATOM      3  C   UNL     1      18.925 -31.912  21.197  1.00  0.00     0.000 C 
BRANCH   3   4
ATOM      4  C   UNL     1      17.977 -30.716  21.016  1.00  0.00     0.000 C 
BRANCH   4   5
ATOM      5  C   UNL     1      16.542 -31.019  21.477  1.00  0.00     0.000 C 
BRANCH   5   6
ATOM      6  C   UNL     1      15.768 -29.750  21.873  1.00  0.00     0.000 C 
BRANCH   6   7
ATOM      7  C   UNL     1      14.948 -29.938  23.160  1.00  0.00     0.006 C 
BRANCH   7   8
ATOM      8  C   UNL     1      14.056 -31.185  23.116  1.00  0.00     0.053 C 
BRANCH   8   9
ATOM      9  C   UNL     1      12.955 -31.004  22.119  1.00  0.00     0.041 C 
ATOM     10  O   UNL     1      12.991 -31.613  21.017  1.00  0.00    -0.550 OA
ATOM     11  O   UNL     1      11.914 -30.123  22.384  1.00  0.00    -0.550 OA
ENDBRANCH   8   9
ENDBRANCH   7   8
ENDBRANCH   6   7
ENDBRANCH   5   6
ENDBRANCH   4   5
ENDBRANCH   3   4
ENDBRANCH   2   3
ENDBRANCH   1   2
BRANCH   1  12
ATOM     12  C   UNL     1      18.541 -34.870  23.685  1.00  0.00     0.000 C 
BRANCH  12  13
ATOM     13  C   UNL     1      18.257 -36.286  23.169  1.00  0.00    -0.000 C 
BRANCH  13  14
ATOM     14  C   UNL     1      18.761 -36.457  21.727  1.00  0.00    -0.000 C 
BRANCH  14  15
ATOM     15  C   UNL     1      17.922 -37.463  20.922  1.00  0.00    -0.000 C 
BRANCH  15  16
ATOM     16  C   UNL     1      17.204 -36.816  19.729  1.00  0.00    -0.000 C 
BRANCH  16  17
ATOM     17  C   UNL     1      17.746 -35.404  19.463  1.00  0.00    -0.000 C 
BRANCH  17  18
ATOM     18  C   UNL     1      16.645 -34.326  19.475  1.00  0.00    -0.000 C 
BRANCH  18  19
ATOM     19  C   UNL     1      15.361 -34.721  20.227  1.00  0.00    -0.003 C 
ATOM     20  C   UNL     1      15.405 -34.372  21.714  1.00  0.00     0.004 C 
ENDBRANCH  18  19
ENDBRANCH  17  18
ENDBRANCH  16  17
ENDBRANCH  15  16
ENDBRANCH  14  15
ENDBRANCH  13  14
ENDBRANCH  12  13
ENDBRANCH   1  12
TORSDOF 16
ENDMDL
MODEL 5
REMARK VINA RESULT:    -4.381      1.457      3.497
REMARK INTER + INTRA:         -11.330
REMARK INTER:                  -8.633
REMARK INTRA:                  -2.697
REMARK UNBOUND:                -2.852
REMARK SMILES CCCCCCCCCCCCCCCCCC(=O)[O-]
REMARK SMILES IDX 10 1 11 2 12 3 13 4 14 5 15 6 16 7 17 8 18 9 19 10 20 11
REMARK SMILES IDX 9 12 8 13 7 14 6 15 5 16 4 17 3 18 2 19 1 20
REMARK H PARENT
REMARK Flexibility Score: inf
ROOT
ATOM      1  C   UNL     1      17.870 -34.267  19.174  1.00  0.00     0.000 C 
ENDROOT
BRANCH   1   2
ATOM      2  C   UNL     1      18.488 -33.215  20.109  1.00  0.00     0.000 C 
BRANCH   2   3
ATOM      3  C   UNL     1      17.436 -32.280  20.727  1.00  0.00     0.000 C 
BRANCH   3   4
ATOM      4  C   UNL     1      18.067 -31.377  21.797  1.00  0.00     0.000 C 
BRANCH   4   5
ATOM      5  C   UNL     1      17.023 -30.734  22.725  1.00  0.00     0.000 C 
BRANCH   5   6
ATOM      6  C   UNL     1      16.415 -29.451  22.131  1.00  0.00     0.000 C 
BRANCH   6   7
ATOM      7  C   UNL     1      14.897 -29.359  22.359  1.00  0.00     0.006 C 
BRANCH   7   8
ATOM      8  C   UNL     1      14.290 -30.682  22.843  1.00  0.00     0.053 C 
BRANCH   8   9
ATOM      9  C   UNL     1      13.174 -31.104  21.940  1.00  0.00     0.041 C 
ATOM     10  O   UNL     1      11.988 -30.767  22.195  1.00  0.00    -0.550 OA
ATOM     11  O   UNL     1      13.438 -31.914  20.842  1.00  0.00    -0.550 OA
ENDBRANCH   8   9
ENDBRANCH   7   8
ENDBRANCH   6   7
ENDBRANCH   5   6
ENDBRANCH   4   5
ENDBRANCH   3   4
ENDBRANCH   2   3
ENDBRANCH   1   2
BRANCH   1  12
ATOM     12  C   UNL     1      16.552 -34.840  19.715  1.00  0.00     0.000 C 
BRANCH  12  13
ATOM     13  C   UNL     1      16.522 -36.367  19.582  1.00  0.00    -0.000 C 
BRANCH  13  14
ATOM     14  C   UNL     1      17.879 -36.980  19.963  1.00  0.00    -0.000 C 
BRANCH  14  15
ATOM     15  C   UNL     1      18.038 -37.168  21.481  1.00  0.00    -0.000 C 
BRANCH  15  16
ATOM     16  C   UNL     1      19.148 -36.287  22.073  1.00  0.00    -0.000 C 
BRANCH  16  17
ATOM     17  C   UNL     1      18.811 -35.875  23.514  1.00  0.00    -0.000 C 
BRANCH  17  18
ATOM     18  C   UNL     1      17.975 -34.584  23.589  1.00  0.00    -0.000 C 
BRANCH  18  19
ATOM     19  C   UNL     1      16.532 -34.775  24.087  1.00  0.00    -0.003 C 
ATOM     20  C   UNL     1      15.490 -34.151  23.158  1.00  0.00     0.004 C 
ENDBRANCH  18  19
ENDBRANCH  17  18
ENDBRANCH  16  17
ENDBRANCH  15  16
ENDBRANCH  14  15
ENDBRANCH  13  14
ENDBRANCH  12  13
ENDBRANCH   1  12
TORSDOF 16
ENDMDL
MODEL 6
REMARK VINA RESULT:    -4.366      1.560      3.540
REMARK INTER + INTRA:         -11.302
REMARK INTER:                  -8.397
REMARK INTRA:                  -2.905
REMARK UNBOUND:                -2.852
REMARK SMILES CCCCCCCCCCCCCCCCCC(=O)[O-]
REMARK SMILES IDX 10 1 11 2 12 3 13 4 14 5 15 6 16 7 17 8 18 9 19 10 20 11
REMARK SMILES IDX 9 12 8 13 7 14 6 15 5 16 4 17 3 18 2 19 1 20
REMARK H PARENT
REMARK Flexibility Score: inf
ROOT
ATOM      1  C   UNL     1      18.475 -33.353  20.207  1.00  0.00     0.000 C 
ENDROOT
BRANCH   1   2
ATOM      2  C   UNL     1      17.979 -31.964  20.640  1.00  0.00     0.000 C 
BRANCH   2   3
ATOM      3  C   UNL     1      18.374 -31.618  22.084  1.00  0.00     0.000 C 
BRANCH   3   4
ATOM      4  C   UNL     1      17.391 -30.607  22.693  1.00  0.00     0.000 C 
BRANCH   4   5
ATOM      5  C   UNL     1      16.152 -30.375  21.812  1.00  0.00     0.000 C 
BRANCH   5   6
ATOM      6  C   UNL     1      15.074 -29.535  22.519  1.00  0.00     0.000 C 
BRANCH   6   7
ATOM      7  C   UNL     1      14.105 -30.395  23.346  1.00  0.00     0.006 C 
BRANCH   7   8
ATOM      8  C   UNL     1      12.917 -29.592  23.891  1.00  0.00     0.053 C 
BRANCH   8   9
ATOM      9  C   UNL     1      11.790 -29.597  22.907  1.00  0.00     0.041 C 
ATOM     10  O   UNL     1      10.912 -28.695  22.943  1.00  0.00    -0.550 OA
ATOM     11  O   UNL     1      11.680 -30.627  21.981  1.00  0.00    -0.550 OA
ENDBRANCH   8   9
ENDBRANCH   7   8
ENDBRANCH   6   7
ENDBRANCH   5   6
ENDBRANCH   4   5
ENDBRANCH   3   4
ENDBRANCH   2   3
ENDBRANCH   1   2
BRANCH   1  12
ATOM     12  C   UNL     1      17.364 -34.210  19.581  1.00  0.00     0.000 C 
BRANCH  12  13
ATOM     13  C   UNL     1      15.995 -33.848  20.169  1.00  0.00    -0.000 C 
BRANCH  13  14
ATOM     14  C   UNL     1      15.671 -34.725  21.389  1.00  0.00    -0.000 C 
BRANCH  14  15
ATOM     15  C   UNL     1      15.359 -33.898  22.647  1.00  0.00    -0.000 C 
BRANCH  15  16
ATOM     16  C   UNL     1      16.284 -34.240  23.824  1.00  0.00    -0.000 C 
BRANCH  16  17
ATOM     17  C   UNL     1      17.393 -35.209  23.388  1.00  0.00    -0.000 C 
BRANCH  17  18
ATOM     18  C   UNL     1      18.793 -34.766  23.851  1.00  0.00    -0.000 C 
BRANCH  18  19
ATOM     19  C   UNL     1      19.950 -35.230  22.948  1.00  0.00    -0.003 C 
ATOM     20  C   UNL     1      21.077 -34.203  22.842  1.00  0.00     0.004 C 
ENDBRANCH  18  19
ENDBRANCH  17  18
ENDBRANCH  16  17
ENDBRANCH  15  16
ENDBRANCH  14  15
ENDBRANCH  13  14
ENDBRANCH  12  13
ENDBRANCH   1  12
TORSDOF 16
ENDMDL
MODEL 7
REMARK VINA RESULT:    -4.343      1.420      3.476
REMARK INTER + INTRA:         -11.257
REMARK INTER:                  -8.301
REMARK INTRA:                  -2.957
REMARK UNBOUND:                -2.852
REMARK SMILES CCCCCCCCCCCCCCCCCC(=O)[O-]
REMARK SMILES IDX 10 1 11 2 12 3 13 4 14 5 15 6 16 7 17 8 18 9 19 10 20 11
REMARK SMILES IDX 9 12 8 13 7 14 6 15 5 16 4 17 3 18 2 19 1 20
REMARK H PARENT
REMARK Flexibility Score: inf
ROOT
ATOM      1  C   UNL     1      18.302 -33.080  23.792  1.00  0.00     0.000 C 
ENDROOT
BRANCH   1   2
ATOM      2  C   UNL     1      19.074 -32.905  22.474  1.00  0.00     0.000 C 
BRANCH   2   3
ATOM      3  C   UNL     1      18.369 -31.954  21.496  1.00  0.00     0.000 C 
BRANCH   3   4
ATOM      4  C   UNL     1      17.815 -30.723  22.230  1.00  0.00     0.000 C 
BRANCH   4   5
ATOM      5  C   UNL     1      16.419 -30.312  21.736  1.00  0.00     0.000 C 
BRANCH   5   6
ATOM      6  C   UNL     1      15.540 -29.734  22.859  1.00  0.00     0.000 C 
BRANCH   6   7
ATOM      7  C   UNL     1      14.038 -29.907  22.580  1.00  0.00     0.006 C 
BRANCH   7   8
ATOM      8  C   UNL     1      13.201 -29.969  23.864  1.00  0.00     0.053 C 
BRANCH   8   9
ATOM      9  C   UNL     1      12.426 -28.702  24.042  1.00  0.00     0.041 C 
ATOM     10  O   UNL     1      12.923 -27.738  24.683  1.00  0.00    -0.550 OA
ATOM     11  O   UNL     1      11.133 -28.601  23.543  1.00  0.00    -0.550 OA
ENDBRANCH   8   9
ENDBRANCH   7   8
ENDBRANCH   6   7
ENDBRANCH   5   6
ENDBRANCH   4   5
ENDBRANCH   3   4
ENDBRANCH   2   3
ENDBRANCH   1   2
BRANCH   1  12
ATOM     12  C   UNL     1      17.270 -34.215  23.729  1.00  0.00     0.000 C 
BRANCH  12  13
ATOM     13  C   UNL     1      15.908 -33.750  24.257  1.00  0.00    -0.000 C 
BRANCH  13  14
ATOM     14  C   UNL     1      14.971 -33.368  23.101  1.00  0.00    -0.000 C 
BRANCH  14  15
ATOM     15  C   UNL     1      15.063 -34.344  21.917  1.00  0.00    -0.000 C 
BRANCH  15  16
ATOM     16  C   UNL     1      15.226 -33.627  20.569  1.00  0.00    -0.000 C 
BRANCH  16  17
ATOM     17  C   UNL     1      16.265 -34.337  19.690  1.00  0.00    -0.000 C 
BRANCH  17  18
ATOM     18  C   UNL     1      16.499 -35.802  20.103  1.00  0.00    -0.000 C 
BRANCH  18  19
ATOM     19  C   UNL     1      17.977 -36.210  20.236  1.00  0.00    -0.003 C 
ATOM     20  C   UNL     1      18.269 -37.000  21.511  1.00  0.00     0.004 C 
ENDBRANCH  18  19
ENDBRANCH  17  18
ENDBRANCH  16  17
ENDBRANCH  15  16
ENDBRANCH  14  15
ENDBRANCH  13  14
ENDBRANCH  12  13
ENDBRANCH   1  12
TORSDOF 16
ENDMDL
MODEL 8
REMARK VINA RESULT:    -4.334      2.257      5.739
REMARK INTER + INTRA:         -11.240
REMARK INTER:                  -9.052
REMARK INTRA:                  -2.188
REMARK UNBOUND:                -2.852
REMARK SMILES CCCCCCCCCCCCCCCCCC(=O)[O-]
REMARK SMILES IDX 10 1 11 2 12 3 13 4 14 5 15 6 16 7 17 8 18 9 19 10 20 11
REMARK SMILES IDX 9 12 8 13 7 14 6 15 5 16 4 17 3 18 2 19 1 20
REMARK H PARENT
REMARK Flexibility Score: inf
ROOT
ATOM      1  C   UNL     1      16.745 -34.814  19.628  1.00  0.00     0.000 C 
ENDROOT
BRANCH   1   2
ATOM      2  C   UNL     1      16.801 -36.346  19.515  1.00  0.00     0.000 C 
BRANCH   2   3
ATOM      3  C   UNL     1      17.646 -36.992  20.623  1.00  0.00     0.000 C 
BRANCH   3   4
ATOM      4  C   UNL     1      18.468 -35.934  21.373  1.00  0.00     0.000 C 
BRANCH   4   5
ATOM      5  C   UNL     1      18.371 -36.076  22.901  1.00  0.00     0.000 C 
BRANCH   5   6
ATOM      6  C   UNL     1      18.251 -34.719  23.615  1.00  0.00     0.000 C 
BRANCH   6   7
ATOM      7  C   UNL     1      18.944 -33.584  22.843  1.00  0.00     0.006 C 
BRANCH   7   8
ATOM      8  C   UNL     1      18.164 -32.265  22.904  1.00  0.00     0.053 C 
BRANCH   8   9
ATOM      9  C   UNL     1      18.054 -31.662  21.539  1.00  0.00     0.041 C 
ATOM     10  O   UNL     1      18.764 -32.096  20.594  1.00  0.00    -0.550 OA
ATOM     11  O   UNL     1      17.203 -30.586  21.321  1.00  0.00    -0.550 OA
ENDBRANCH   8   9
ENDBRANCH   7   8
ENDBRANCH   6   7
ENDBRANCH   5   6
ENDBRANCH   4   5
ENDBRANCH   3   4
ENDBRANCH   2   3
ENDBRANCH   1   2
BRANCH   1  12
ATOM     12  C   UNL     1      15.367 -34.303  20.074  1.00  0.00     0.000 C 
BRANCH  12  13
ATOM     13  C   UNL     1      15.299 -34.167  21.599  1.00  0.00    -0.000 C 
BRANCH  13  14
ATOM     14  C   UNL     1      14.574 -32.874  22.005  1.00  0.00    -0.000 C 
BRANCH  14  15
ATOM     15  C   UNL     1      14.397 -32.746  23.527  1.00  0.00    -0.000 C 
BRANCH  15  16
ATOM     16  C   UNL     1      13.966 -31.336  23.956  1.00  0.00    -0.000 C 
BRANCH  16  17
ATOM     17  C   UNL     1      13.654 -30.461  22.734  1.00  0.00    -0.000 C 
BRANCH  17  18
ATOM     18  C   UNL     1      12.227 -29.883  22.758  1.00  0.00    -0.000 C 
BRANCH  18  19
ATOM     19  C   UNL     1      11.977 -28.821  23.843  1.00  0.00    -0.003 C 
ATOM     20  C   UNL     1      13.069 -27.753  23.899  1.00  0.00     0.004 C 
ENDBRANCH  18  19
ENDBRANCH  17  18
ENDBRANCH  16  17
ENDBRANCH  15  16
ENDBRANCH  14  15
ENDBRANCH  13  14
ENDBRANCH  12  13
ENDBRANCH   1  12
TORSDOF 16
ENDMDL
MODEL 9
REMARK VINA RESULT:    -4.307      1.413      3.451
REMARK INTER + INTRA:         -11.188
REMARK INTER:                  -8.505
REMARK INTRA:                  -2.683
REMARK UNBOUND:                -2.852
REMARK SMILES CCCCCCCCCCCCCCCCCC(=O)[O-]
REMARK SMILES IDX 10 1 11 2 12 3 13 4 14 5 15 6 16 7 17 8 18 9 19 10 20 11
REMARK SMILES IDX 9 12 8 13 7 14 6 15 5 16 4 17 3 18 2 19 1 20
REMARK H PARENT
REMARK Flexibility Score: inf
ROOT
ATOM      1  C   UNL     1      17.157 -35.161  21.380  1.00  0.00     0.000 C 
ENDROOT
BRANCH   1   2
ATOM      2  C   UNL     1      16.267 -35.111  20.128  1.00  0.00     0.000 C 
BRANCH   2   3
ATOM      3  C   UNL     1      15.004 -34.260  20.332  1.00  0.00     0.000 C 
BRANCH   3   4
ATOM      4  C   UNL     1      14.978 -33.646  21.740  1.00  0.00     0.000 C 
BRANCH   4   5
ATOM      5  C   UNL     1      14.749 -32.125  21.722  1.00  0.00     0.000 C 
BRANCH   5   6
ATOM      6  C   UNL     1      13.477 -31.729  20.951  1.00  0.00     0.000 C 
BRANCH   6   7
ATOM      7  C   UNL     1      12.468 -30.971  21.829  1.00  0.00     0.006 C 
BRANCH   7   8
ATOM      8  C   UNL     1      13.013 -30.670  23.231  1.00  0.00     0.053 C 
BRANCH   8   9
ATOM      9  C   UNL     1      12.830 -29.222  23.561  1.00  0.00     0.041 C 
ATOM     10  O   UNL     1      11.708 -28.795  23.943  1.00  0.00    -0.550 OA
ATOM     11  O   UNL     1      13.885 -28.333  23.398  1.00  0.00    -0.550 OA
ENDBRANCH   8   9
ENDBRANCH   7   8
ENDBRANCH   6   7
ENDBRANCH   5   6
ENDBRANCH   4   5
ENDBRANCH   3   4
ENDBRANCH   2   3
ENDBRANCH   1   2
BRANCH   1  12
ATOM     12  C   UNL     1      18.559 -34.584  21.134  1.00  0.00     0.000 C 
BRANCH  12  13
ATOM     13  C   UNL     1      18.523 -33.493  20.057  1.00  0.00    -0.000 C 
BRANCH  13  14
ATOM     14  C   UNL     1      18.178 -32.127  20.669  1.00  0.00    -0.000 C 
BRANCH  14  15
ATOM     15  C   UNL     1      18.933 -31.858  21.981  1.00  0.00    -0.000 C 
BRANCH  15  16
ATOM     16  C   UNL     1      18.091 -31.073  22.998  1.00  0.00    -0.000 C 
BRANCH  16  17
ATOM     17  C   UNL     1      17.670 -31.970  24.171  1.00  0.00    -0.000 C 
BRANCH  17  18
ATOM     18  C   UNL     1      18.692 -33.081  24.474  1.00  0.00    -0.000 C 
BRANCH  18  19
ATOM     19  C   UNL     1      18.084 -34.397  24.991  1.00  0.00    -0.003 C 
ATOM     20  C   UNL     1      16.556 -34.371  25.043  1.00  0.00     0.004 C 
ENDBRANCH  18  19
ENDBRANCH  17  18
ENDBRANCH  16  17
ENDBRANCH  15  16
ENDBRANCH  14  15
ENDBRANCH  13  14
ENDBRANCH  12  13
ENDBRANCH   1  12
TORSDOF 16
ENDMDL
