MODEL 1
REMARK VINA RESULT:    -3.423      0.000      0.000
REMARK INTER + INTRA:          -7.955
REMARK INTER:                  -5.824
REMARK INTRA:                  -2.131
REMARK UNBOUND:                -2.131
REMARK SMILES CCCCCCCCCCCCCC(=O)[O-]
REMARK SMILES IDX 8 1 9 2 10 3 11 4 12 5 13 6 14 7 15 8 16 9 7 10 6 11 5 12
REMARK SMILES IDX 4 13 3 14 2 15 1 16
REMARK H PARENT
REMARK Flexibility Score: inf
ROOT
ATOM      1  C   UNL     1      -9.207   8.810 -21.940  1.00  0.00     0.000 C 
ENDROOT
BRANCH   1   2
ATOM      2  C   UNL     1      -9.830   9.984 -21.173  1.00  0.00     0.000 C 
BRANCH   2   3
ATOM      3  C   UNL     1      -9.149  10.172 -19.808  1.00  0.00     0.000 C 
BRANCH   3   4
ATOM      4  C   UNL     1     -10.138  10.087 -18.636  1.00  0.00     0.000 C 
BRANCH   4   5
ATOM      5  C   UNL     1      -9.540   9.390 -17.405  1.00  0.00     0.006 C 
BRANCH   5   6
ATOM      6  C   UNL     1      -8.038   9.668 -17.294  1.00  0.00     0.053 C 
BRANCH   6   7
ATOM      7  C   UNL     1      -7.773  10.708 -16.251  1.00  0.00     0.041 C 
ATOM      8  O   UNL     1      -8.255  10.582 -15.095  1.00  0.00    -0.550 OA
ATOM      9  O   UNL     1      -6.953  11.791 -16.542  1.00  0.00    -0.550 OA
ENDBRANCH   6   7
ENDBRANCH   5   6
ENDBRANCH   4   5
ENDBRANCH   3   4
ENDBRANCH   2   3
ENDBRANCH   1   2
BRANCH   1  10
ATOM     10  C   UNL     1      -8.274   7.951 -21.067  1.00  0.00     0.000 C 
BRANCH  10  11
ATOM     11  C   UNL     1      -8.794   6.533 -20.755  1.00  0.00    -0.000 C 
BRANCH  11  12
ATOM     12  C   UNL     1      -9.786   6.446 -19.582  1.00  0.00    -0.000 C 
BRANCH  12  13
ATOM     13  C   UNL     1     -11.235   6.222 -20.040  1.00  0.00    -0.000 C 
BRANCH  13  14
ATOM     14  C   UNL     1     -12.183   7.228 -19.376  1.00  0.00    -0.000 C 
BRANCH  14  15
ATOM     15  C   UNL     1     -12.809   8.162 -20.417  1.00  0.00    -0.003 C 
ATOM     16  C   UNL     1     -12.989   7.454 -21.757  1.00  0.00     0.004 C 
ENDBRANCH  14  15
ENDBRANCH  13  14
ENDBRANCH  12  13
ENDBRANCH  11  12
ENDBRANCH  10  11
ENDBRANCH   1  10
TORSDOF 12
ENDMDL
MODEL 2
REMARK VINA RESULT:    -3.377      3.543      5.593
REMARK INTER + INTRA:          -7.876
REMARK INTER:                  -6.107
REMARK INTRA:                  -1.769
REMARK UNBOUND:                -2.131
REMARK SMILES CCCCCCCCCCCCCC(=O)[O-]
REMARK SMILES IDX 8 1 9 2 10 3 11 4 12 5 13 6 14 7 15 8 16 9 7 10 6 11 5 12
REMARK SMILES IDX 4 13 3 14 2 15 1 16
REMARK H PARENT
REMARK Flexibility Score: inf
ROOT
ATOM      1  C   UNL     1      -9.389   9.488 -17.399  1.00  0.00     0.000 C 
ENDROOT
BRANCH   1   2
ATOM      2  C   UNL     1      -9.787  10.102 -18.748  1.00  0.00     0.000 C 
BRANCH   2   3
ATOM      3  C   UNL     1     -10.639   9.121 -19.568  1.00  0.00     0.000 C 
BRANCH   3   4
ATOM      4  C   UNL     1     -10.746   7.736 -18.911  1.00  0.00     0.000 C 
BRANCH   4   5
ATOM      5  C   UNL     1     -12.028   6.989 -19.308  1.00  0.00     0.006 C 
BRANCH   5   6
ATOM      6  C   UNL     1     -11.763   6.026 -20.470  1.00  0.00     0.053 C 
BRANCH   6   7
ATOM      7  C   UNL     1     -12.255   6.610 -21.756  1.00  0.00     0.041 C 
ATOM      8  O   UNL     1     -11.703   6.301 -22.844  1.00  0.00    -0.550 OA
ATOM      9  O   UNL     1     -13.355   7.458 -21.759  1.00  0.00    -0.550 OA
ENDBRANCH   6   7
ENDBRANCH   5   6
ENDBRANCH   4   5
ENDBRANCH   3   4
ENDBRANCH   2   3
ENDBRANCH   1   2
BRANCH   1  10
ATOM     10  C   UNL     1      -7.923   9.765 -17.022  1.00  0.00     0.000 C 
BRANCH  10  11
ATOM     11  C   UNL     1      -6.928   9.728 -18.200  1.00  0.00    -0.000 C 
BRANCH  11  12
ATOM     12  C   UNL     1      -6.107   8.433 -18.321  1.00  0.00    -0.000 C 
BRANCH  12  13
ATOM     13  C   UNL     1      -6.961   7.218 -18.712  1.00  0.00    -0.000 C 
BRANCH  13  14
ATOM     14  C   UNL     1      -7.317   7.255 -20.203  1.00  0.00    -0.000 C 
BRANCH  14  15
ATOM     15  C   UNL     1      -7.951   5.932 -20.650  1.00  0.00    -0.003 C 
ATOM     16  C   UNL     1      -8.230   5.023 -19.456  1.00  0.00     0.004 C 
ENDBRANCH  14  15
ENDBRANCH  13  14
ENDBRANCH  12  13
ENDBRANCH  11  12
ENDBRANCH  10  11
ENDBRANCH   1  10
TORSDOF 12
ENDMDL
MODEL 3
REMARK VINA RESULT:    -3.361      1.327      2.562
REMARK INTER + INTRA:          -7.849
REMARK INTER:                  -5.620
REMARK INTRA:                  -2.229
REMARK UNBOUND:                -2.131
REMARK SMILES CCCCCCCCCCCCCC(=O)[O-]
REMARK SMILES IDX 8 1 9 2 10 3 11 4 12 5 13 6 14 7 15 8 16 9 7 10 6 11 5 12
REMARK SMILES IDX 4 13 3 14 2 15 1 16
REMARK H PARENT
REMARK Flexibility Score: inf
ROOT
ATOM      1  C   UNL     1      -9.022   9.262 -21.882  1.00  0.00     0.000 C 
ENDROOT
BRANCH   1   2
ATOM      2  C   UNL     1      -9.218   7.764 -22.150  1.00  0.00     0.000 C 
BRANCH   2   3
ATOM      3  C   UNL     1      -8.625   6.920 -21.010  1.00  0.00     0.000 C 
BRANCH   3   4
ATOM      4  C   UNL     1      -7.444   7.614 -20.313  1.00  0.00     0.000 C 
BRANCH   4   5
ATOM      5  C   UNL     1      -7.536   7.543 -18.781  1.00  0.00     0.006 C 
BRANCH   5   6
ATOM      6  C   UNL     1      -6.563   8.529 -18.127  1.00  0.00     0.053 C 
BRANCH   6   7
ATOM      7  C   UNL     1      -7.266   9.801 -17.772  1.00  0.00     0.041 C 
ATOM      8  O   UNL     1      -8.060   9.834 -16.796  1.00  0.00    -0.550 OA
ATOM      9  O   UNL     1      -7.006  10.962 -18.489  1.00  0.00    -0.550 OA
ENDBRANCH   6   7
ENDBRANCH   5   6
ENDBRANCH   4   5
ENDBRANCH   3   4
ENDBRANCH   2   3
ENDBRANCH   1   2
BRANCH   1  10
ATOM     10  C   UNL     1     -10.298   9.950 -21.362  1.00  0.00     0.000 C 
BRANCH  10  11
ATOM     11  C   UNL     1     -10.276  10.320 -19.865  1.00  0.00    -0.000 C 
BRANCH  11  12
ATOM     12  C   UNL     1     -10.871   9.259 -18.923  1.00  0.00    -0.000 C 
BRANCH  12  13
ATOM     13  C   UNL     1     -12.121   8.579 -19.501  1.00  0.00    -0.000 C 
BRANCH  13  14
ATOM     14  C   UNL     1     -11.993   7.052 -19.438  1.00  0.00    -0.000 C 
BRANCH  14  15
ATOM     15  C   UNL     1     -12.352   6.414 -20.785  1.00  0.00    -0.003 C 
ATOM     16  C   UNL     1     -13.074   7.407 -21.691  1.00  0.00     0.004 C 
ENDBRANCH  14  15
ENDBRANCH  13  14
ENDBRANCH  12  13
ENDBRANCH  11  12
ENDBRANCH  10  11
ENDBRANCH   1  10
TORSDOF 12
ENDMDL
MODEL 4
REMARK VINA RESULT:    -3.351      1.389      3.431
REMARK INTER + INTRA:          -7.833
REMARK INTER:                  -5.968
REMARK INTRA:                  -1.864
REMARK UNBOUND:                -2.131
REMARK SMILES CCCCCCCCCCCCCC(=O)[O-]
REMARK SMILES IDX 8 1 9 2 10 3 11 4 12 5 13 6 14 7 15 8 16 9 7 10 6 11 5 12
REMARK SMILES IDX 4 13 3 14 2 15 1 16
REMARK H PARENT
REMARK Flexibility Score: inf
ROOT
ATOM      1  C   UNL     1     -12.298   7.016 -19.585  1.00  0.00     0.000 C 
ENDROOT
BRANCH   1   2
ATOM      2  C   UNL     1     -12.469   8.531 -19.413  1.00  0.00     0.000 C 
BRANCH   2   3
ATOM      3  C   UNL     1     -11.183   9.170 -18.865  1.00  0.00     0.000 C 
BRANCH   3   4
ATOM      4  C   UNL     1     -10.082   8.137 -18.583  1.00  0.00     0.000 C 
BRANCH   4   5
ATOM      5  C   UNL     1      -8.770   8.782 -18.111  1.00  0.00     0.006 C 
BRANCH   5   6
ATOM      6  C   UNL     1      -9.036  10.126 -17.427  1.00  0.00     0.053 C 
BRANCH   6   7
ATOM      7  C   UNL     1      -8.065  10.346 -16.309  1.00  0.00     0.041 C 
ATOM      8  O   UNL     1      -6.838  10.481 -16.554  1.00  0.00    -0.550 OA
ATOM      9  O   UNL     1      -8.523  10.449 -15.001  1.00  0.00    -0.550 OA
ENDBRANCH   6   7
ENDBRANCH   5   6
ENDBRANCH   4   5
ENDBRANCH   3   4
ENDBRANCH   2   3
ENDBRANCH   1   2
BRANCH   1  10
ATOM     10  C   UNL     1     -12.387   6.565 -21.055  1.00  0.00     0.000 C 
BRANCH  10  11
ATOM     11  C   UNL     1     -12.349   7.707 -22.091  1.00  0.00    -0.000 C 
BRANCH  11  12
ATOM     12  C   UNL     1     -11.007   7.876 -22.826  1.00  0.00    -0.000 C 
BRANCH  12  13
ATOM     13  C   UNL     1     -10.458   9.308 -22.744  1.00  0.00    -0.000 C 
BRANCH  13  14
ATOM     14  C   UNL     1      -9.149   9.349 -21.945  1.00  0.00    -0.000 C 
BRANCH  14  15
ATOM     15  C   UNL     1      -8.909  10.742 -21.353  1.00  0.00    -0.003 C 
ATOM     16  C   UNL     1     -10.179  11.587 -21.399  1.00  0.00     0.004 C 
ENDBRANCH  14  15
ENDBRANCH  13  14
ENDBRANCH  12  13
ENDBRANCH  11  12
ENDBRANCH  10  11
ENDBRANCH   1  10
TORSDOF 12
ENDMDL
MODEL 5
REMARK VINA RESULT:    -3.341      1.728      3.601
REMARK INTER + INTRA:          -7.815
REMARK INTER:                  -5.770
REMARK INTRA:                  -2.045
REMARK UNBOUND:                -2.131
REMARK SMILES CCCCCCCCCCCCCC(=O)[O-]
REMARK SMILES IDX 8 1 9 2 10 3 11 4 12 5 13 6 14 7 15 8 16 9 7 10 6 11 5 12
REMARK SMILES IDX 4 13 3 14 2 15 1 16
REMARK H PARENT
REMARK Flexibility Score: inf
ROOT
ATOM      1  C   UNL     1     -12.777   7.360 -21.496  1.00  0.00     0.000 C 
ENDROOT
BRANCH   1   2
ATOM      2  C   UNL     1     -12.393   7.208 -20.017  1.00  0.00     0.000 C 
BRANCH   2   3
ATOM      3  C   UNL     1     -12.583   8.533 -19.262  1.00  0.00     0.000 C 
BRANCH   3   4
ATOM      4  C   UNL     1     -11.260   9.283 -19.040  1.00  0.00     0.000 C 
BRANCH   4   5
ATOM      5  C   UNL     1     -10.140   8.369 -18.522  1.00  0.00     0.006 C 
BRANCH   5   6
ATOM      6  C   UNL     1      -9.245   9.112 -17.524  1.00  0.00     0.053 C 
BRANCH   6   7
ATOM      7  C   UNL     1      -7.934   9.459 -18.154  1.00  0.00     0.041 C 
ATOM      8  O   UNL     1      -7.852  10.428 -18.953  1.00  0.00    -0.550 OA
ATOM      9  O   UNL     1      -6.791   8.742 -17.821  1.00  0.00    -0.550 OA
ENDBRANCH   6   7
ENDBRANCH   5   6
ENDBRANCH   4   5
ENDBRANCH   3   4
ENDBRANCH   2   3
ENDBRANCH   1   2
BRANCH   1  10
ATOM     10  C   UNL     1     -11.578   7.194 -22.447  1.00  0.00     0.000 C 
BRANCH  10  11
ATOM     11  C   UNL     1     -10.746   8.472 -22.677  1.00  0.00    -0.000 C 
BRANCH  11  12
ATOM     12  C   UNL     1      -9.279   8.386 -22.222  1.00  0.00    -0.000 C 
BRANCH  12  13
ATOM     13  C   UNL     1      -8.857   6.961 -21.833  1.00  0.00    -0.000 C 
BRANCH  13  14
ATOM     14  C   UNL     1      -7.639   6.985 -20.901  1.00  0.00    -0.000 C 
BRANCH  14  15
ATOM     15  C   UNL     1      -7.687   5.823 -19.903  1.00  0.00    -0.003 C 
ATOM     16  C   UNL     1      -9.061   5.158 -19.896  1.00  0.00     0.004 C 
ENDBRANCH  14  15
ENDBRANCH  13  14
ENDBRANCH  12  13
ENDBRANCH  11  12
ENDBRANCH  10  11
ENDBRANCH   1  10
TORSDOF 12
ENDMDL
MODEL 6
REMARK VINA RESULT:    -3.337      3.286      5.338
REMARK INTER + INTRA:          -7.808
REMARK INTER:                  -5.593
REMARK INTRA:                  -2.215
REMARK UNBOUND:                -2.131
REMARK SMILES CCCCCCCCCCCCCC(=O)[O-]
REMARK SMILES IDX 8 1 9 2 10 3 11 4 12 5 13 6 14 7 15 8 16 9 7 10 6 11 5 12
REMARK SMILES IDX 4 13 3 14 2 15 1 16
REMARK H PARENT
REMARK Flexibility Score: inf
ROOT
ATOM      1  C   UNL     1      -7.226   6.938 -20.291  1.00  0.00     0.000 C 
ENDROOT
BRANCH   1   2
ATOM      2  C   UNL     1      -7.559   5.853 -19.257  1.00  0.00     0.000 C 
BRANCH   2   3
ATOM      3  C   UNL     1      -8.874   5.142 -19.612  1.00  0.00     0.000 C 
BRANCH   3   4
ATOM      4  C   UNL     1      -9.515   5.688 -20.897  1.00  0.00     0.000 C 
BRANCH   4   5
ATOM      5  C   UNL     1     -10.915   5.110 -21.153  1.00  0.00     0.006 C 
BRANCH   5   6
ATOM      6  C   UNL     1     -11.977   5.874 -20.358  1.00  0.00     0.053 C 
BRANCH   6   7
ATOM      7  C   UNL     1     -12.526   7.005 -21.170  1.00  0.00     0.041 C 
ATOM      8  O   UNL     1     -12.473   6.967 -22.427  1.00  0.00    -0.550 OA
ATOM      9  O   UNL     1     -13.140   8.080 -20.539  1.00  0.00    -0.550 OA
ENDBRANCH   6   7
ENDBRANCH   5   6
ENDBRANCH   4   5
ENDBRANCH   3   4
ENDBRANCH   2   3
ENDBRANCH   1   2
BRANCH   1  10
ATOM     10  C   UNL     1      -6.537   8.167 -19.671  1.00  0.00     0.000 C 
BRANCH  10  11
ATOM     11  C   UNL     1      -6.776   8.355 -18.159  1.00  0.00    -0.000 C 
BRANCH  11  12
ATOM     12  C   UNL     1      -7.919   9.319 -17.794  1.00  0.00    -0.000 C 
BRANCH  12  13
ATOM     13  C   UNL     1      -9.221   8.591 -17.431  1.00  0.00    -0.000 C 
BRANCH  13  14
ATOM     14  C   UNL     1     -10.196   8.587 -18.615  1.00  0.00    -0.000 C 
BRANCH  14  15
ATOM     15  C   UNL     1     -10.016   9.839 -19.480  1.00  0.00    -0.003 C 
ATOM     16  C   UNL     1      -9.852   9.474 -20.952  1.00  0.00     0.004 C 
ENDBRANCH  14  15
ENDBRANCH  13  14
ENDBRANCH  12  13
ENDBRANCH  11  12
ENDBRANCH  10  11
ENDBRANCH   1  10
TORSDOF 12
ENDMDL
MODEL 7
REMARK VINA RESULT:    -3.290      3.176      4.882
REMARK INTER + INTRA:          -7.729
REMARK INTER:                  -5.784
REMARK INTRA:                  -1.945
REMARK UNBOUND:                -2.131
REMARK SMILES CCCCCCCCCCCCCC(=O)[O-]
REMARK SMILES IDX 8 1 9 2 10 3 11 4 12 5 13 6 14 7 15 8 16 9 7 10 6 11 5 12
REMARK SMILES IDX 4 13 3 14 2 15 1 16
REMARK H PARENT
REMARK Flexibility Score: inf
ROOT
ATOM      1  C   UNL     1     -13.113   7.389 -21.525  1.00  0.00     0.000 C 
ENDROOT
BRANCH   1   2
ATOM      2  C   UNL     1     -13.108   8.484 -20.449  1.00  0.00     0.000 C 
BRANCH   2   3
ATOM      3  C   UNL     1     -12.231   8.075 -19.255  1.00  0.00     0.000 C 
BRANCH   3   4
ATOM      4  C   UNL     1     -11.018   8.999 -19.068  1.00  0.00     0.000 C 
BRANCH   4   5
ATOM      5  C   UNL     1     -10.835   9.981 -20.235  1.00  0.00     0.006 C 
BRANCH   5   6
ATOM      6  C   UNL     1      -9.692   9.535 -21.152  1.00  0.00     0.053 C 
BRANCH   6   7
ATOM      7  C   UNL     1      -9.996   9.884 -22.575  1.00  0.00     0.041 C 
ATOM      8  O   UNL     1      -9.641  10.997 -23.044  1.00  0.00    -0.550 OA
ATOM      9  O   UNL     1     -10.628   8.960 -23.398  1.00  0.00    -0.550 OA
ENDBRANCH   6   7
ENDBRANCH   5   6
ENDBRANCH   4   5
ENDBRANCH   3   4
ENDBRANCH   2   3
ENDBRANCH   1   2
BRANCH   1  10
ATOM     10  C   UNL     1     -12.333   6.130 -21.104  1.00  0.00     0.000 C 
BRANCH  10  11
ATOM     11  C   UNL     1     -11.199   5.714 -22.063  1.00  0.00    -0.000 C 
BRANCH  11  12
ATOM     12  C   UNL     1      -9.775   5.922 -21.519  1.00  0.00    -0.000 C 
BRANCH  12  13
ATOM     13  C   UNL     1      -9.657   5.610 -20.020  1.00  0.00    -0.000 C 
BRANCH  13  14
ATOM     14  C   UNL     1      -8.232   5.171 -19.661  1.00  0.00    -0.000 C 
BRANCH  14  15
ATOM     15  C   UNL     1      -7.261   6.356 -19.718  1.00  0.00    -0.003 C 
ATOM     16  C   UNL     1      -7.659   7.444 -18.725  1.00  0.00     0.004 C 
ENDBRANCH  14  15
ENDBRANCH  13  14
ENDBRANCH  12  13
ENDBRANCH  11  12
ENDBRANCH  10  11
ENDBRANCH   1  10
TORSDOF 12
ENDMDL
MODEL 8
REMARK VINA RESULT:    -3.272      1.205      2.762
REMARK INTER + INTRA:          -7.697
REMARK INTER:                  -5.629
REMARK INTRA:                  -2.068
REMARK UNBOUND:                -2.131
REMARK SMILES CCCCCCCCCCCCCC(=O)[O-]
REMARK SMILES IDX 8 1 9 2 10 3 11 4 12 5 13 6 14 7 15 8 16 9 7 10 6 11 5 12
REMARK SMILES IDX 4 13 3 14 2 15 1 16
REMARK H PARENT
REMARK Flexibility Score: inf
ROOT
ATOM      1  C   UNL     1      -9.562   5.294 -19.976  1.00  0.00     0.000 C 
ENDROOT
BRANCH   1   2
ATOM      2  C   UNL     1      -8.480   6.213 -20.559  1.00  0.00     0.000 C 
BRANCH   2   3
ATOM      3  C   UNL     1      -7.571   6.763 -19.448  1.00  0.00     0.000 C 
BRANCH   3   4
ATOM      4  C   UNL     1      -7.963   8.183 -19.010  1.00  0.00     0.000 C 
BRANCH   4   5
ATOM      5  C   UNL     1      -8.881   8.191 -17.778  1.00  0.00     0.006 C 
BRANCH   5   6
ATOM      6  C   UNL     1      -9.285   9.621 -17.406  1.00  0.00     0.053 C 
BRANCH   6   7
ATOM      7  C   UNL     1      -8.414  10.142 -16.307  1.00  0.00     0.041 C 
ATOM      8  O   UNL     1      -8.784  10.049 -15.108  1.00  0.00    -0.550 OA
ATOM      9  O   UNL     1      -7.171  10.687 -16.604  1.00  0.00    -0.550 OA
ENDBRANCH   6   7
ENDBRANCH   5   6
ENDBRANCH   4   5
ENDBRANCH   3   4
ENDBRANCH   2   3
ENDBRANCH   1   2
BRANCH   1  10
ATOM     10  C   UNL     1     -10.718   5.032 -20.958  1.00  0.00     0.000 C 
BRANCH  10  11
ATOM     11  C   UNL     1     -11.986   5.876 -20.715  1.00  0.00    -0.000 C 
BRANCH  11  12
ATOM     12  C   UNL     1     -12.017   6.636 -19.377  1.00  0.00    -0.000 C 
BRANCH  12  13
ATOM     13  C   UNL     1     -12.076   8.161 -19.557  1.00  0.00    -0.000 C 
BRANCH  13  14
ATOM     14  C   UNL     1     -11.807   8.552 -21.015  1.00  0.00    -0.000 C 
BRANCH  14  15
ATOM     15  C   UNL     1     -10.606   9.499 -21.117  1.00  0.00    -0.003 C 
ATOM     16  C   UNL     1      -9.756   9.180 -22.344  1.00  0.00     0.004 C 
ENDBRANCH  14  15
ENDBRANCH  13  14
ENDBRANCH  12  13
ENDBRANCH  11  12
ENDBRANCH  10  11
ENDBRANCH   1  10
TORSDOF 12
ENDMDL
MODEL 9
REMARK VINA RESULT:    -3.265      1.258      3.452
REMARK INTER + INTRA:          -7.686
REMARK INTER:                  -5.851
REMARK INTRA:                  -1.835
REMARK UNBOUND:                -2.131
REMARK SMILES CCCCCCCCCCCCCC(=O)[O-]
REMARK SMILES IDX 8 1 9 2 10 3 11 4 12 5 13 6 14 7 15 8 16 9 7 10 6 11 5 12
REMARK SMILES IDX 4 13 3 14 2 15 1 16
REMARK H PARENT
REMARK Flexibility Score: inf
ROOT
ATOM      1  C   UNL     1     -12.615   8.130 -20.027  1.00  0.00     0.000 C 
ENDROOT
BRANCH   1   2
ATOM      2  C   UNL     1     -12.009   6.963 -19.234  1.00  0.00     0.000 C 
BRANCH   2   3
ATOM      3  C   UNL     1     -10.641   7.348 -18.649  1.00  0.00     0.000 C 
BRANCH   3   4
ATOM      4  C   UNL     1     -10.373   8.859 -18.714  1.00  0.00     0.000 C 
BRANCH   4   5
ATOM      5  C   UNL     1      -8.970   9.234 -18.215  1.00  0.00     0.006 C 
BRANCH   5   6
ATOM      6  C   UNL     1      -9.017   9.721 -16.763  1.00  0.00     0.053 C 
BRANCH   6   7
ATOM      7  C   UNL     1      -7.781  10.495 -16.430  1.00  0.00     0.041 C 
ATOM      8  O   UNL     1      -7.155  11.108 -17.333  1.00  0.00    -0.550 OA
ATOM      9  O   UNL     1      -7.347  10.579 -15.112  1.00  0.00    -0.550 OA
ENDBRANCH   6   7
ENDBRANCH   5   6
ENDBRANCH   4   5
ENDBRANCH   3   4
ENDBRANCH   2   3
ENDBRANCH   1   2
BRANCH   1  10
ATOM     10  C   UNL     1     -13.061   7.725 -21.443  1.00  0.00     0.000 C 
BRANCH  10  11
ATOM     11  C   UNL     1     -11.941   7.173 -22.348  1.00  0.00    -0.000 C 
BRANCH  11  12
ATOM     12  C   UNL     1     -10.767   8.136 -22.596  1.00  0.00    -0.000 C 
BRANCH  12  13
ATOM     13  C   UNL     1      -9.423   7.578 -22.104  1.00  0.00    -0.000 C 
BRANCH  13  14
ATOM     14  C   UNL     1      -9.460   6.047 -22.026  1.00  0.00    -0.000 C 
BRANCH  14  15
ATOM     15  C   UNL     1      -8.551   5.532 -20.904  1.00  0.00    -0.003 C 
ATOM     16  C   UNL     1      -7.516   6.581 -20.507  1.00  0.00     0.004 C 
ENDBRANCH  14  15
ENDBRANCH  13  14
ENDBRANCH  12  13
ENDBRANCH  11  12
ENDBRANCH  10  11
ENDBRANCH   1  10
TORSDOF 12
ENDMDL
