MODEL 1
REMARK VINA RESULT:    -5.220      0.000      0.000
REMARK INTER + INTRA:         -18.017
REMARK INTER:                 -13.765
REMARK INTRA:                  -4.252
REMARK UNBOUND:                -4.252
REMARK SMILES CCCCCCCCCCCCCCCCCCCCCCCCCCCCCC(=O)[O-]
REMARK SMILES IDX 16 1 17 2 18 3 19 4 20 5 21 6 22 7 23 8 24 9 25 10 26 11
REMARK SMILES IDX 27 12 28 13 29 14 30 15 31 16 32 17 15 18 14 19 13 20 12 21
REMARK SMILES IDX 11 22 10 23 9 24 8 25 7 26 6 27 5 28 4 29 3 30 2 31 1 32
REMARK H PARENT
REMARK Flexibility Score: inf
ROOT
ATOM      1  C   UNL     1      42.091  -4.904  27.132  1.00  0.00     0.000 C 
ENDROOT
BRANCH   1   2
ATOM      2  C   UNL     1      42.383  -5.606  28.476  1.00  0.00     0.000 C 
BRANCH   2   3
ATOM      3  C   UNL     1      42.690  -4.631  29.630  1.00  0.00     0.000 C 
BRANCH   3   4
ATOM      4  C   UNL     1      41.788  -3.384  29.690  1.00  0.00     0.000 C 
BRANCH   4   5
ATOM      5  C   UNL     1      42.463  -2.077  29.233  1.00  0.00     0.000 C 
BRANCH   5   6
ATOM      6  C   UNL     1      43.953  -2.015  29.605  1.00  0.00     0.000 C 
BRANCH   6   7
ATOM      7  C   UNL     1      44.792  -1.240  28.572  1.00  0.00     0.000 C 
BRANCH   7   8
ATOM      8  C   UNL     1      45.808  -2.093  27.787  1.00  0.00     0.000 C 
BRANCH   8   9
ATOM      9  C   UNL     1      45.492  -3.599  27.727  1.00  0.00     0.000 C 
BRANCH   9  10
ATOM     10  C   UNL     1      46.318  -4.341  26.668  1.00  0.00     0.000 C 
BRANCH  10  11
ATOM     11  C   UNL     1      46.067  -5.855  26.731  1.00  0.00     0.000 C 
BRANCH  11  12
ATOM     12  C   UNL     1      45.153  -6.334  25.583  1.00  0.00     0.000 C 
BRANCH  12  13
ATOM     13  C   UNL     1      45.618  -7.646  24.923  1.00  0.00     0.006 C 
BRANCH  13  14
ATOM     14  C   UNL     1      46.431  -7.445  23.630  1.00  0.00     0.053 C 
BRANCH  14  15
ATOM     15  C   UNL     1      47.847  -7.018  23.889  1.00  0.00     0.041 C 
ATOM     16  O   UNL     1      48.251  -5.887  23.508  1.00  0.00    -0.550 OA
ATOM     17  O   UNL     1      48.701  -7.842  24.609  1.00  0.00    -0.550 OA
ENDBRANCH  14  15
ENDBRANCH  13  14
ENDBRANCH  12  13
ENDBRANCH  11  12
ENDBRANCH  10  11
ENDBRANCH   9  10
ENDBRANCH   8   9
ENDBRANCH   7   8
ENDBRANCH   6   7
ENDBRANCH   5   6
ENDBRANCH   4   5
ENDBRANCH   3   4
ENDBRANCH   2   3
ENDBRANCH   1   2
BRANCH   1  18
ATOM     18  C   UNL     1      40.645  -5.118  26.658  1.00  0.00     0.000 C 
BRANCH  18  19
ATOM     19  C   UNL     1      39.964  -3.778  26.355  1.00  0.00     0.000 C 
BRANCH  19  20
ATOM     20  C   UNL     1      38.560  -3.718  26.975  1.00  0.00     0.000 C 
BRANCH  20  21
ATOM     21  C   UNL     1      38.389  -2.520  27.934  1.00  0.00     0.000 C 
BRANCH  21  22
ATOM     22  C   UNL     1      37.728  -2.887  29.277  1.00  0.00     0.000 C 
BRANCH  22  23
ATOM     23  C   UNL     1      38.289  -4.150  29.956  1.00  0.00     0.000 C 
BRANCH  23  24
ATOM     24  C   UNL     1      37.274  -5.292  30.147  1.00  0.00    -0.000 C 
BRANCH  24  25
ATOM     25  C   UNL     1      37.792  -6.647  29.643  1.00  0.00    -0.000 C 
BRANCH  25  26
ATOM     26  C   UNL     1      37.515  -6.814  28.140  1.00  0.00    -0.000 C 
BRANCH  26  27
ATOM     27  C   UNL     1      38.421  -7.867  27.484  1.00  0.00    -0.000 C 
BRANCH  27  28
ATOM     28  C   UNL     1      38.380  -7.808  25.948  1.00  0.00    -0.000 C 
BRANCH  28  29
ATOM     29  C   UNL     1      37.399  -6.748  25.416  1.00  0.00    -0.000 C 
BRANCH  29  30
ATOM     30  C   UNL     1      36.110  -7.314  24.792  1.00  0.00    -0.000 C 
BRANCH  30  31
ATOM     31  C   UNL     1      34.910  -7.260  25.749  1.00  0.00    -0.003 C 
ATOM     32  C   UNL     1      34.321  -8.650  25.969  1.00  0.00     0.004 C 
ENDBRANCH  30  31
ENDBRANCH  29  30
ENDBRANCH  28  29
ENDBRANCH  27  28
ENDBRANCH  26  27
ENDBRANCH  25  26
ENDBRANCH  24  25
ENDBRANCH  23  24
ENDBRANCH  22  23
ENDBRANCH  21  22
ENDBRANCH  20  21
ENDBRANCH  19  20
ENDBRANCH  18  19
ENDBRANCH   1  18
TORSDOF 28
ENDMDL
MODEL 2
REMARK VINA RESULT:    -5.049      3.127      8.874
REMARK INTER + INTRA:         -17.566
REMARK INTER:                 -12.356
REMARK INTRA:                  -5.210
REMARK UNBOUND:                -4.252
REMARK SMILES CCCCCCCCCCCCCCCCCCCCCCCCCCCCCC(=O)[O-]
REMARK SMILES IDX 16 1 17 2 18 3 19 4 20 5 21 6 22 7 23 8 24 9 25 10 26 11
REMARK SMILES IDX 27 12 28 13 29 14 30 15 31 16 32 17 15 18 14 19 13 20 12 21
REMARK SMILES IDX 11 22 10 23 9 24 8 25 7 26 6 27 5 28 4 29 3 30 2 31 1 32
REMARK H PARENT
REMARK Flexibility Score: inf
ROOT
ATOM      1  C   UNL     1      41.522  -4.783  31.242  1.00  0.00     0.000 C 
ENDROOT
BRANCH   1   2
ATOM      2  C   UNL     1      40.461  -5.904  31.238  1.00  0.00     0.000 C 
BRANCH   2   3
ATOM      3  C   UNL     1      40.484  -6.774  29.966  1.00  0.00     0.000 C 
BRANCH   3   4
ATOM      4  C   UNL     1      39.564  -6.293  28.828  1.00  0.00     0.000 C 
BRANCH   4   5
ATOM      5  C   UNL     1      40.293  -5.890  27.533  1.00  0.00     0.000 C 
BRANCH   5   6
ATOM      6  C   UNL     1      39.939  -4.469  27.068  1.00  0.00     0.000 C 
BRANCH   6   7
ATOM      7  C   UNL     1      39.564  -3.537  28.235  1.00  0.00     0.000 C 
BRANCH   7   8
ATOM      8  C   UNL     1      38.223  -2.794  28.071  1.00  0.00     0.000 C 
BRANCH   8   9
ATOM      9  C   UNL     1      37.369  -2.694  29.348  1.00  0.00     0.000 C 
BRANCH   9  10
ATOM     10  C   UNL     1      36.976  -4.065  29.913  1.00  0.00     0.000 C 
BRANCH  10  11
ATOM     11  C   UNL     1      35.718  -4.609  29.220  1.00  0.00     0.000 C 
BRANCH  11  12
ATOM     12  C   UNL     1      35.973  -5.979  28.556  1.00  0.00     0.000 C 
BRANCH  12  13
ATOM     13  C   UNL     1      36.327  -5.890  27.060  1.00  0.00     0.006 C 
BRANCH  13  14
ATOM     14  C   UNL     1      36.838  -7.211  26.455  1.00  0.00     0.053 C 
BRANCH  14  15
ATOM     15  C   UNL     1      37.236  -7.079  25.013  1.00  0.00     0.041 C 
ATOM     16  O   UNL     1      36.359  -7.084  24.107  1.00  0.00    -0.550 OA
ATOM     17  O   UNL     1      38.568  -6.883  24.673  1.00  0.00    -0.550 OA
ENDBRANCH  14  15
ENDBRANCH  13  14
ENDBRANCH  12  13
ENDBRANCH  11  12
ENDBRANCH  10  11
ENDBRANCH   9  10
ENDBRANCH   8   9
ENDBRANCH   7   8
ENDBRANCH   6   7
ENDBRANCH   5   6
ENDBRANCH   4   5
ENDBRANCH   3   4
ENDBRANCH   2   3
ENDBRANCH   1   2
BRANCH   1  18
ATOM     18  C   UNL     1      42.804  -5.179  30.493  1.00  0.00     0.000 C 
BRANCH  18  19
ATOM     19  C   UNL     1      43.090  -4.207  29.343  1.00  0.00     0.000 C 
BRANCH  19  20
ATOM     20  C   UNL     1      44.117  -4.793  28.365  1.00  0.00     0.000 C 
BRANCH  20  21
ATOM     21  C   UNL     1      43.585  -4.854  26.916  1.00  0.00     0.000 C 
BRANCH  21  22
ATOM     22  C   UNL     1      44.013  -6.120  26.149  1.00  0.00     0.000 C 
BRANCH  22  23
ATOM     23  C   UNL     1      45.236  -6.852  26.730  1.00  0.00     0.000 C 
BRANCH  23  24
ATOM     24  C   UNL     1      45.820  -7.959  25.833  1.00  0.00    -0.000 C 
BRANCH  24  25
ATOM     25  C   UNL     1      45.820  -7.587  24.343  1.00  0.00    -0.000 C 
BRANCH  25  26
ATOM     26  C   UNL     1      47.208  -7.097  23.902  1.00  0.00    -0.000 C 
BRANCH  26  27
ATOM     27  C   UNL     1      48.348  -7.747  24.702  1.00  0.00    -0.000 C 
BRANCH  27  28
ATOM     28  C   UNL     1      49.287  -6.710  25.342  1.00  0.00    -0.000 C 
BRANCH  28  29
ATOM     29  C   UNL     1      48.810  -5.262  25.134  1.00  0.00    -0.000 C 
BRANCH  29  30
ATOM     30  C   UNL     1      48.120  -4.625  26.353  1.00  0.00    -0.000 C 
BRANCH  30  31
ATOM     31  C   UNL     1      46.944  -3.717  25.968  1.00  0.00    -0.003 C 
ATOM     32  C   UNL     1      46.683  -2.668  27.044  1.00  0.00     0.004 C 
ENDBRANCH  30  31
ENDBRANCH  29  30
ENDBRANCH  28  29
ENDBRANCH  27  28
ENDBRANCH  26  27
ENDBRANCH  25  26
ENDBRANCH  24  25
ENDBRANCH  23  24
ENDBRANCH  22  23
ENDBRANCH  21  22
ENDBRANCH  20  21
ENDBRANCH  19  20
ENDBRANCH  18  19
ENDBRANCH   1  18
TORSDOF 28
ENDMDL
MODEL 3
REMARK VINA RESULT:    -5.006      1.596      6.122
REMARK INTER + INTRA:         -17.452
REMARK INTER:                 -12.834
REMARK INTRA:                  -4.619
REMARK UNBOUND:                -4.252
REMARK SMILES CCCCCCCCCCCCCCCCCCCCCCCCCCCCCC(=O)[O-]
REMARK SMILES IDX 16 1 17 2 18 3 19 4 20 5 21 6 22 7 23 8 24 9 25 10 26 11
REMARK SMILES IDX 27 12 28 13 29 14 30 15 31 16 32 17 15 18 14 19 13 20 12 21
REMARK SMILES IDX 11 22 10 23 9 24 8 25 7 26 6 27 5 28 4 29 3 30 2 31 1 32
REMARK H PARENT
REMARK Flexibility Score: inf
ROOT
ATOM      1  C   UNL     1      34.967  -7.674  25.090  1.00  0.00     0.000 C 
ENDROOT
BRANCH   1   2
ATOM      2  C   UNL     1      36.154  -7.043  24.332  1.00  0.00     0.000 C 
BRANCH   2   3
ATOM      3  C   UNL     1      37.505  -7.193  25.059  1.00  0.00     0.000 C 
BRANCH   3   4
ATOM      4  C   UNL     1      38.287  -5.882  25.263  1.00  0.00     0.000 C 
BRANCH   4   5
ATOM      5  C   UNL     1      38.022  -5.172  26.604  1.00  0.00     0.000 C 
BRANCH   5   6
ATOM      6  C   UNL     1      39.266  -4.456  27.154  1.00  0.00     0.000 C 
BRANCH   6   7
ATOM      7  C   UNL     1      40.581  -5.063  26.631  1.00  0.00     0.000 C 
BRANCH   7   8
ATOM      8  C   UNL     1      41.859  -4.529  27.308  1.00  0.00     0.000 C 
BRANCH   8   9
ATOM      9  C   UNL     1      43.081  -5.462  27.227  1.00  0.00     0.000 C 
BRANCH   9  10
ATOM     10  C   UNL     1      44.213  -5.046  28.176  1.00  0.00     0.000 C 
BRANCH  10  11
ATOM     11  C   UNL     1      45.581  -5.480  27.629  1.00  0.00     0.000 C 
BRANCH  11  12
ATOM     12  C   UNL     1      46.302  -4.326  26.902  1.00  0.00     0.000 C 
BRANCH  12  13
ATOM     13  C   UNL     1      47.420  -4.791  25.950  1.00  0.00     0.006 C 
BRANCH  13  14
ATOM     14  C   UNL     1      47.180  -6.180  25.328  1.00  0.00     0.053 C 
BRANCH  14  15
ATOM     15  C   UNL     1      48.158  -6.511  24.239  1.00  0.00     0.041 C 
ATOM     16  O   UNL     1      48.588  -7.687  24.105  1.00  0.00    -0.550 OA
ATOM     17  O   UNL     1      48.544  -5.534  23.330  1.00  0.00    -0.550 OA
ENDBRANCH  14  15
ENDBRANCH  13  14
ENDBRANCH  12  13
ENDBRANCH  11  12
ENDBRANCH  10  11
ENDBRANCH   9  10
ENDBRANCH   8   9
ENDBRANCH   7   8
ENDBRANCH   6   7
ENDBRANCH   5   6
ENDBRANCH   4   5
ENDBRANCH   3   4
ENDBRANCH   2   3
ENDBRANCH   1   2
BRANCH   1  18
ATOM     18  C   UNL     1      34.949  -7.295  26.579  1.00  0.00     0.000 C 
BRANCH  18  19
ATOM     19  C   UNL     1      34.801  -8.541  27.460  1.00  0.00     0.000 C 
BRANCH  19  20
ATOM     20  C   UNL     1      36.027  -8.728  28.365  1.00  0.00     0.000 C 
BRANCH  20  21
ATOM     21  C   UNL     1      36.947  -9.872  27.884  1.00  0.00     0.000 C 
BRANCH  21  22
ATOM     22  C   UNL     1      38.431  -9.472  27.774  1.00  0.00     0.000 C 
BRANCH  22  23
ATOM     23  C   UNL     1      38.784  -8.103  28.384  1.00  0.00     0.000 C 
BRANCH  23  24
ATOM     24  C   UNL     1      39.983  -8.111  29.351  1.00  0.00    -0.000 C 
BRANCH  24  25
ATOM     25  C   UNL     1      40.339  -6.712  29.877  1.00  0.00    -0.000 C 
BRANCH  25  26
ATOM     26  C   UNL     1      41.679  -6.736  30.629  1.00  0.00    -0.000 C 
BRANCH  26  27
ATOM     27  C   UNL     1      42.044  -5.370  31.231  1.00  0.00    -0.000 C 
BRANCH  27  28
ATOM     28  C   UNL     1      40.983  -4.294  30.943  1.00  0.00    -0.000 C 
BRANCH  28  29
ATOM     29  C   UNL     1      41.527  -2.862  31.093  1.00  0.00    -0.000 C 
BRANCH  29  30
ATOM     30  C   UNL     1      42.972  -2.664  30.601  1.00  0.00    -0.000 C 
BRANCH  30  31
ATOM     31  C   UNL     1      43.074  -1.679  29.427  1.00  0.00    -0.003 C 
ATOM     32  C   UNL     1      44.491  -1.639  28.865  1.00  0.00     0.004 C 
ENDBRANCH  30  31
ENDBRANCH  29  30
ENDBRANCH  28  29
ENDBRANCH  27  28
ENDBRANCH  26  27
ENDBRANCH  25  26
ENDBRANCH  24  25
ENDBRANCH  23  24
ENDBRANCH  22  23
ENDBRANCH  21  22
ENDBRANCH  20  21
ENDBRANCH  19  20
ENDBRANCH  18  19
ENDBRANCH   1  18
TORSDOF 28
ENDMDL
MODEL 4
REMARK VINA RESULT:    -4.955      1.690      3.121
REMARK INTER + INTRA:         -17.316
REMARK INTER:                 -13.874
REMARK INTRA:                  -3.443
REMARK UNBOUND:                -4.252
REMARK SMILES CCCCCCCCCCCCCCCCCCCCCCCCCCCCCC(=O)[O-]
REMARK SMILES IDX 16 1 17 2 18 3 19 4 20 5 21 6 22 7 23 8 24 9 25 10 26 11
REMARK SMILES IDX 27 12 28 13 29 14 30 15 31 16 32 17 15 18 14 19 13 20 12 21
REMARK SMILES IDX 11 22 10 23 9 24 8 25 7 26 6 27 5 28 4 29 3 30 2 31 1 32
REMARK H PARENT
REMARK Flexibility Score: inf
ROOT
ATOM      1  C   UNL     1      43.235  -2.315  30.748  1.00  0.00     0.000 C 
ENDROOT
BRANCH   1   2
ATOM      2  C   UNL     1      42.641  -2.259  32.171  1.00  0.00     0.000 C 
BRANCH   2   3
ATOM      3  C   UNL     1      42.062  -3.602  32.655  1.00  0.00     0.000 C 
BRANCH   3   4
ATOM      4  C   UNL     1      42.622  -4.850  31.945  1.00  0.00     0.000 C 
BRANCH   4   5
ATOM      5  C   UNL     1      41.624  -5.569  31.019  1.00  0.00     0.000 C 
BRANCH   5   6
ATOM      6  C   UNL     1      42.307  -6.252  29.823  1.00  0.00     0.000 C 
BRANCH   6   7
ATOM      7  C   UNL     1      42.455  -5.317  28.609  1.00  0.00     0.000 C 
BRANCH   7   8
ATOM      8  C   UNL     1      43.907  -4.960  28.234  1.00  0.00     0.000 C 
BRANCH   8   9
ATOM      9  C   UNL     1      44.659  -6.039  27.432  1.00  0.00     0.000 C 
BRANCH   9  10
ATOM     10  C   UNL     1      45.262  -5.500  26.128  1.00  0.00     0.000 C 
BRANCH  10  11
ATOM     11  C   UNL     1      45.942  -6.621  25.328  1.00  0.00     0.000 C 
BRANCH  11  12
ATOM     12  C   UNL     1      47.459  -6.685  25.604  1.00  0.00     0.000 C 
BRANCH  12  13
ATOM     13  C   UNL     1      48.330  -6.401  24.365  1.00  0.00     0.006 C 
BRANCH  13  14
ATOM     14  C   UNL     1      48.800  -7.665  23.623  1.00  0.00     0.053 C 
BRANCH  14  15
ATOM     15  C   UNL     1      48.261  -7.758  22.225  1.00  0.00     0.041 C 
ATOM     16  O   UNL     1      49.042  -7.712  21.237  1.00  0.00    -0.550 OA
ATOM     17  O   UNL     1      46.904  -7.961  22.014  1.00  0.00    -0.550 OA
ENDBRANCH  14  15
ENDBRANCH  13  14
ENDBRANCH  12  13
ENDBRANCH  11  12
ENDBRANCH  10  11
ENDBRANCH   9  10
ENDBRANCH   8   9
ENDBRANCH   7   8
ENDBRANCH   6   7
ENDBRANCH   5   6
ENDBRANCH   4   5
ENDBRANCH   3   4
ENDBRANCH   2   3
ENDBRANCH   1   2
BRANCH   1  18
ATOM     18  C   UNL     1      42.299  -1.706  29.692  1.00  0.00     0.000 C 
BRANCH  18  19
ATOM     19  C   UNL     1      41.111  -0.999  30.356  1.00  0.00     0.000 C 
BRANCH  19  20
ATOM     20  C   UNL     1      39.782  -1.440  29.726  1.00  0.00     0.000 C 
BRANCH  20  21
ATOM     21  C   UNL     1      39.736  -2.958  29.445  1.00  0.00     0.000 C 
BRANCH  21  22
ATOM     22  C   UNL     1      38.313  -3.509  29.236  1.00  0.00     0.000 C 
BRANCH  22  23
ATOM     23  C   UNL     1      37.989  -3.949  27.797  1.00  0.00     0.000 C 
BRANCH  23  24
ATOM     24  C   UNL     1      39.187  -3.941  26.828  1.00  0.00    -0.000 C 
BRANCH  24  25
ATOM     25  C   UNL     1      39.789  -5.336  26.605  1.00  0.00    -0.000 C 
BRANCH  25  26
ATOM     26  C   UNL     1      38.888  -6.423  27.211  1.00  0.00    -0.000 C 
BRANCH  26  27
ATOM     27  C   UNL     1      38.459  -7.479  26.180  1.00  0.00    -0.000 C 
BRANCH  27  28
ATOM     28  C   UNL     1      38.070  -6.861  24.827  1.00  0.00    -0.000 C 
BRANCH  28  29
ATOM     29  C   UNL     1      36.561  -6.956  24.538  1.00  0.00    -0.000 C 
BRANCH  29  30
ATOM     30  C   UNL     1      35.757  -7.783  25.558  1.00  0.00    -0.000 C 
BRANCH  30  31
ATOM     31  C   UNL     1      34.243  -7.731  25.309  1.00  0.00    -0.003 C 
ATOM     32  C   UNL     1      33.917  -6.886  24.082  1.00  0.00     0.004 C 
ENDBRANCH  30  31
ENDBRANCH  29  30
ENDBRANCH  28  29
ENDBRANCH  27  28
ENDBRANCH  26  27
ENDBRANCH  25  26
ENDBRANCH  24  25
ENDBRANCH  23  24
ENDBRANCH  22  23
ENDBRANCH  21  22
ENDBRANCH  20  21
ENDBRANCH  19  20
ENDBRANCH  18  19
ENDBRANCH   1  18
TORSDOF 28
ENDMDL
MODEL 5
REMARK VINA RESULT:    -4.940      1.927      3.142
REMARK INTER + INTRA:         -17.278
REMARK INTER:                 -12.172
REMARK INTRA:                  -5.106
REMARK UNBOUND:                -4.252
REMARK SMILES CCCCCCCCCCCCCCCCCCCCCCCCCCCCCC(=O)[O-]
REMARK SMILES IDX 16 1 17 2 18 3 19 4 20 5 21 6 22 7 23 8 24 9 25 10 26 11
REMARK SMILES IDX 27 12 28 13 29 14 30 15 31 16 32 17 15 18 14 19 13 20 12 21
REMARK SMILES IDX 11 22 10 23 9 24 8 25 7 26 6 27 5 28 4 29 3 30 2 31 1 32
REMARK H PARENT
REMARK Flexibility Score: inf
ROOT
ATOM      1  C   UNL     1      41.992  -6.500  29.944  1.00  0.00     0.000 C 
ENDROOT
BRANCH   1   2
ATOM      2  C   UNL     1      42.473  -5.480  30.998  1.00  0.00     0.000 C 
BRANCH   2   3
ATOM      3  C   UNL     1      41.352  -4.568  31.534  1.00  0.00     0.000 C 
BRANCH   3   4
ATOM      4  C   UNL     1      41.685  -3.064  31.552  1.00  0.00     0.000 C 
BRANCH   4   5
ATOM      5  C   UNL     1      43.126  -2.716  31.135  1.00  0.00     0.000 C 
BRANCH   5   6
ATOM      6  C   UNL     1      43.184  -1.676  30.005  1.00  0.00     0.000 C 
BRANCH   6   7
ATOM      7  C   UNL     1      44.078  -2.121  28.833  1.00  0.00     0.000 C 
BRANCH   7   8
ATOM      8  C   UNL     1      43.914  -3.596  28.412  1.00  0.00     0.000 C 
BRANCH   8   9
ATOM      9  C   UNL     1      45.201  -4.282  27.920  1.00  0.00     0.000 C 
BRANCH   9  10
ATOM     10  C   UNL     1      44.989  -5.758  27.558  1.00  0.00     0.000 C 
BRANCH  10  11
ATOM     11  C   UNL     1      44.514  -5.909  26.105  1.00  0.00     0.000 C 
BRANCH  11  12
ATOM     12  C   UNL     1      45.114  -7.160  25.430  1.00  0.00     0.000 C 
BRANCH  12  13
ATOM     13  C   UNL     1      46.510  -7.544  25.958  1.00  0.00     0.006 C 
BRANCH  13  14
ATOM     14  C   UNL     1      47.654  -7.272  24.964  1.00  0.00     0.053 C 
BRANCH  14  15
ATOM     15  C   UNL     1      48.435  -6.033  25.295  1.00  0.00     0.041 C 
ATOM     16  O   UNL     1      47.856  -4.916  25.370  1.00  0.00    -0.550 OA
ATOM     17  O   UNL     1      49.789  -6.121  25.587  1.00  0.00    -0.550 OA
ENDBRANCH  14  15
ENDBRANCH  13  14
ENDBRANCH  12  13
ENDBRANCH  11  12
ENDBRANCH  10  11
ENDBRANCH   9  10
ENDBRANCH   8   9
ENDBRANCH   7   8
ENDBRANCH   6   7
ENDBRANCH   5   6
ENDBRANCH   4   5
ENDBRANCH   3   4
ENDBRANCH   2   3
ENDBRANCH   1   2
BRANCH   1  18
ATOM     18  C   UNL     1      40.790  -5.991  29.134  1.00  0.00     0.000 C 
BRANCH  18  19
ATOM     19  C   UNL     1      41.179  -5.744  27.672  1.00  0.00     0.000 C 
BRANCH  19  20
ATOM     20  C   UNL     1      40.570  -4.435  27.150  1.00  0.00     0.000 C 
BRANCH  20  21
ATOM     21  C   UNL     1      40.001  -3.555  28.285  1.00  0.00     0.000 C 
BRANCH  21  22
ATOM     22  C   UNL     1      38.498  -3.247  28.140  1.00  0.00     0.000 C 
BRANCH  22  23
ATOM     23  C   UNL     1      37.555  -4.357  28.640  1.00  0.00     0.000 C 
BRANCH  23  24
ATOM     24  C   UNL     1      36.962  -5.254  27.538  1.00  0.00    -0.000 C 
BRANCH  24  25
ATOM     25  C   UNL     1      37.314  -6.738  27.719  1.00  0.00    -0.000 C 
BRANCH  25  26
ATOM     26  C   UNL     1      37.954  -7.308  26.442  1.00  0.00    -0.000 C 
BRANCH  26  27
ATOM     27  C   UNL     1      38.595  -8.686  26.666  1.00  0.00    -0.000 C 
BRANCH  27  28
ATOM     28  C   UNL     1      37.836  -9.530  27.703  1.00  0.00    -0.000 C 
BRANCH  28  29
ATOM     29  C   UNL     1      38.769 -10.203  28.726  1.00  0.00    -0.000 C 
BRANCH  29  30
ATOM     30  C   UNL     1      39.377  -9.251  29.772  1.00  0.00    -0.000 C 
BRANCH  30  31
ATOM     31  C   UNL     1      39.763  -9.963  31.076  1.00  0.00    -0.003 C 
ATOM     32  C   UNL     1      41.178  -9.592  31.507  1.00  0.00     0.004 C 
ENDBRANCH  30  31
ENDBRANCH  29  30
ENDBRANCH  28  29
ENDBRANCH  27  28
ENDBRANCH  26  27
ENDBRANCH  25  26
ENDBRANCH  24  25
ENDBRANCH  23  24
ENDBRANCH  22  23
ENDBRANCH  21  22
ENDBRANCH  20  21
ENDBRANCH  19  20
ENDBRANCH  18  19
ENDBRANCH   1  18
TORSDOF 28
ENDMDL
MODEL 6
REMARK VINA RESULT:    -4.922      1.467      6.115
REMARK INTER + INTRA:         -17.230
REMARK INTER:                 -13.512
REMARK INTRA:                  -3.719
REMARK UNBOUND:                -4.252
REMARK SMILES CCCCCCCCCCCCCCCCCCCCCCCCCCCCCC(=O)[O-]
REMARK SMILES IDX 16 1 17 2 18 3 19 4 20 5 21 6 22 7 23 8 24 9 25 10 26 11
REMARK SMILES IDX 27 12 28 13 29 14 30 15 31 16 32 17 15 18 14 19 13 20 12 21
REMARK SMILES IDX 11 22 10 23 9 24 8 25 7 26 6 27 5 28 4 29 3 30 2 31 1 32
REMARK H PARENT
REMARK Flexibility Score: inf
ROOT
ATOM      1  C   UNL     1      34.275  -7.001  24.358  1.00  0.00     0.000 C 
ENDROOT
BRANCH   1   2
ATOM      2  C   UNL     1      35.544  -7.725  24.858  1.00  0.00     0.000 C 
BRANCH   2   3
ATOM      3  C   UNL     1      36.851  -6.969  24.549  1.00  0.00     0.000 C 
BRANCH   3   4
ATOM      4  C   UNL     1      37.904  -6.997  25.673  1.00  0.00     0.000 C 
BRANCH   4   5
ATOM      5  C   UNL     1      38.712  -5.696  25.835  1.00  0.00     0.000 C 
BRANCH   5   6
ATOM      6  C   UNL     1      39.826  -5.815  26.887  1.00  0.00     0.000 C 
BRANCH   6   7
ATOM      7  C   UNL     1      40.849  -4.668  26.801  1.00  0.00     0.000 C 
BRANCH   7   8
ATOM      8  C   UNL     1      42.324  -5.114  26.735  1.00  0.00     0.000 C 
BRANCH   8   9
ATOM      9  C   UNL     1      43.015  -5.295  28.099  1.00  0.00     0.000 C 
BRANCH   9  10
ATOM     10  C   UNL     1      44.440  -4.726  28.127  1.00  0.00     0.000 C 
BRANCH  10  11
ATOM     11  C   UNL     1      45.258  -5.224  26.927  1.00  0.00     0.000 C 
BRANCH  11  12
ATOM     12  C   UNL     1      46.389  -4.243  26.555  1.00  0.00     0.000 C 
BRANCH  12  13
ATOM     13  C   UNL     1      47.650  -4.928  25.994  1.00  0.00     0.006 C 
BRANCH  13  14
ATOM     14  C   UNL     1      47.395  -6.326  25.402  1.00  0.00     0.053 C 
BRANCH  14  15
ATOM     15  C   UNL     1      48.311  -6.654  24.258  1.00  0.00     0.041 C 
ATOM     16  O   UNL     1      48.975  -7.724  24.261  1.00  0.00    -0.550 OA
ATOM     17  O   UNL     1      48.381  -5.809  23.159  1.00  0.00    -0.550 OA
ENDBRANCH  14  15
ENDBRANCH  13  14
ENDBRANCH  12  13
ENDBRANCH  11  12
ENDBRANCH  10  11
ENDBRANCH   9  10
ENDBRANCH   8   9
ENDBRANCH   7   8
ENDBRANCH   6   7
ENDBRANCH   5   6
ENDBRANCH   4   5
ENDBRANCH   3   4
ENDBRANCH   2   3
ENDBRANCH   1   2
BRANCH   1  18
ATOM     18  C   UNL     1      33.326  -6.614  25.503  1.00  0.00     0.000 C 
BRANCH  18  19
ATOM     19  C   UNL     1      33.835  -7.156  26.844  1.00  0.00     0.000 C 
BRANCH  19  20
ATOM     20  C   UNL     1      34.287  -6.016  27.767  1.00  0.00     0.000 C 
BRANCH  20  21
ATOM     21  C   UNL     1      35.644  -6.307  28.444  1.00  0.00     0.000 C 
BRANCH  21  22
ATOM     22  C   UNL     1      36.474  -5.044  28.744  1.00  0.00     0.000 C 
BRANCH  22  23
ATOM     23  C   UNL     1      35.686  -3.722  28.706  1.00  0.00     0.000 C 
BRANCH  23  24
ATOM     24  C   UNL     1      36.539  -2.461  28.476  1.00  0.00    -0.000 C 
BRANCH  24  25
ATOM     25  C   UNL     1      38.006  -2.780  28.150  1.00  0.00    -0.000 C 
BRANCH  25  26
ATOM     26  C   UNL     1      38.954  -1.990  29.065  1.00  0.00    -0.000 C 
BRANCH  26  27
ATOM     27  C   UNL     1      39.442  -2.815  30.266  1.00  0.00    -0.000 C 
BRANCH  27  28
ATOM     28  C   UNL     1      40.915  -3.239  30.133  1.00  0.00    -0.000 C 
BRANCH  28  29
ATOM     29  C   UNL     1      41.808  -2.126  29.556  1.00  0.00    -0.000 C 
BRANCH  29  30
ATOM     30  C   UNL     1      43.071  -1.818  30.379  1.00  0.00    -0.000 C 
BRANCH  30  31
ATOM     31  C   UNL     1      43.058  -0.409  30.989  1.00  0.00    -0.003 C 
ATOM     32  C   UNL     1      41.665   0.206  30.920  1.00  0.00     0.004 C 
ENDBRANCH  30  31
ENDBRANCH  29  30
ENDBRANCH  28  29
ENDBRANCH  27  28
ENDBRANCH  26  27
ENDBRANCH  25  26
ENDBRANCH  24  25
ENDBRANCH  23  24
ENDBRANCH  22  23
ENDBRANCH  21  22
ENDBRANCH  20  21
ENDBRANCH  19  20
ENDBRANCH  18  19
ENDBRANCH   1  18
TORSDOF 28
ENDMDL
MODEL 7
REMARK VINA RESULT:    -4.883      1.627      5.346
REMARK INTER + INTRA:         -17.129
REMARK INTER:                 -12.712
REMARK INTRA:                  -4.416
REMARK UNBOUND:                -4.252
REMARK SMILES CCCCCCCCCCCCCCCCCCCCCCCCCCCCCC(=O)[O-]
REMARK SMILES IDX 16 1 17 2 18 3 19 4 20 5 21 6 22 7 23 8 24 9 25 10 26 11
REMARK SMILES IDX 27 12 28 13 29 14 30 15 31 16 32 17 15 18 14 19 13 20 12 21
REMARK SMILES IDX 11 22 10 23 9 24 8 25 7 26 6 27 5 28 4 29 3 30 2 31 1 32
REMARK H PARENT
REMARK Flexibility Score: inf
ROOT
ATOM      1  C   UNL     1      36.178  -7.744  25.418  1.00  0.00     0.000 C 
ENDROOT
BRANCH   1   2
ATOM      2  C   UNL     1      37.273  -6.701  25.112  1.00  0.00     0.000 C 
BRANCH   2   3
ATOM      3  C   UNL     1      38.690  -7.152  25.516  1.00  0.00     0.000 C 
BRANCH   3   4
ATOM      4  C   UNL     1      38.922  -7.302  27.031  1.00  0.00     0.000 C 
BRANCH   4   5
ATOM      5  C   UNL     1      39.659  -6.123  27.693  1.00  0.00     0.000 C 
BRANCH   5   6
ATOM      6  C   UNL     1      40.153  -5.083  26.674  1.00  0.00     0.000 C 
BRANCH   6   7
ATOM      7  C   UNL     1      41.456  -4.391  27.114  1.00  0.00     0.000 C 
BRANCH   7   8
ATOM      8  C   UNL     1      42.457  -5.300  27.856  1.00  0.00     0.000 C 
BRANCH   8   9
ATOM      9  C   UNL     1      43.838  -4.672  28.122  1.00  0.00     0.000 C 
BRANCH   9  10
ATOM     10  C   UNL     1      44.983  -5.444  27.454  1.00  0.00     0.000 C 
BRANCH  10  11
ATOM     11  C   UNL     1      44.596  -5.893  26.038  1.00  0.00     0.000 C 
BRANCH  11  12
ATOM     12  C   UNL     1      45.138  -7.300  25.712  1.00  0.00     0.000 C 
BRANCH  12  13
ATOM     13  C   UNL     1      46.651  -7.458  25.958  1.00  0.00     0.006 C 
BRANCH  13  14
ATOM     14  C   UNL     1      47.518  -7.240  24.704  1.00  0.00     0.053 C 
BRANCH  14  15
ATOM     15  C   UNL     1      48.089  -5.854  24.621  1.00  0.00     0.041 C 
ATOM     16  O   UNL     1      48.548  -5.418  23.532  1.00  0.00    -0.550 OA
ATOM     17  O   UNL     1      48.053  -5.019  25.730  1.00  0.00    -0.550 OA
ENDBRANCH  14  15
ENDBRANCH  13  14
ENDBRANCH  12  13
ENDBRANCH  11  12
ENDBRANCH  10  11
ENDBRANCH   9  10
ENDBRANCH   8   9
ENDBRANCH   7   8
ENDBRANCH   6   7
ENDBRANCH   5   6
ENDBRANCH   4   5
ENDBRANCH   3   4
ENDBRANCH   2   3
ENDBRANCH   1   2
BRANCH   1  18
ATOM     18  C   UNL     1      34.773  -7.254  25.036  1.00  0.00     0.000 C 
BRANCH  18  19
ATOM     19  C   UNL     1      33.712  -7.850  25.969  1.00  0.00     0.000 C 
BRANCH  19  20
ATOM     20  C   UNL     1      34.217  -9.142  26.628  1.00  0.00     0.000 C 
BRANCH  20  21
ATOM     21  C   UNL     1      33.865  -9.217  28.129  1.00  0.00     0.000 C 
BRANCH  21  22
ATOM     22  C   UNL     1      35.095  -9.290  29.054  1.00  0.00     0.000 C 
BRANCH  22  23
ATOM     23  C   UNL     1      35.975  -8.027  29.068  1.00  0.00     0.000 C 
BRANCH  23  24
ATOM     24  C   UNL     1      35.378  -6.824  29.821  1.00  0.00    -0.000 C 
BRANCH  24  25
ATOM     25  C   UNL     1      34.851  -5.729  28.882  1.00  0.00    -0.000 C 
BRANCH  25  26
ATOM     26  C   UNL     1      35.994  -5.130  28.046  1.00  0.00    -0.000 C 
BRANCH  26  27
ATOM     27  C   UNL     1      36.905  -4.203  28.866  1.00  0.00    -0.000 C 
BRANCH  27  28
ATOM     28  C   UNL     1      37.079  -2.820  28.217  1.00  0.00    -0.000 C 
BRANCH  28  29
ATOM     29  C   UNL     1      38.490  -2.238  28.418  1.00  0.00    -0.000 C 
BRANCH  29  30
ATOM     30  C   UNL     1      39.221  -2.734  29.678  1.00  0.00    -0.000 C 
BRANCH  30  31
ATOM     31  C   UNL     1      40.157  -1.676  30.281  1.00  0.00    -0.003 C 
ATOM     32  C   UNL     1      41.572  -1.817  29.731  1.00  0.00     0.004 C 
ENDBRANCH  30  31
ENDBRANCH  29  30
ENDBRANCH  28  29
ENDBRANCH  27  28
ENDBRANCH  26  27
ENDBRANCH  25  26
ENDBRANCH  24  25
ENDBRANCH  23  24
ENDBRANCH  22  23
ENDBRANCH  21  22
ENDBRANCH  20  21
ENDBRANCH  19  20
ENDBRANCH  18  19
ENDBRANCH   1  18
TORSDOF 28
ENDMDL
MODEL 8
REMARK VINA RESULT:    -4.859      3.044      9.297
REMARK INTER + INTRA:         -17.063
REMARK INTER:                 -13.237
REMARK INTRA:                  -3.827
REMARK UNBOUND:                -4.252
REMARK SMILES CCCCCCCCCCCCCCCCCCCCCCCCCCCCCC(=O)[O-]
REMARK SMILES IDX 16 1 17 2 18 3 19 4 20 5 21 6 22 7 23 8 24 9 25 10 26 11
REMARK SMILES IDX 27 12 28 13 29 14 30 15 31 16 32 17 15 18 14 19 13 20 12 21
REMARK SMILES IDX 11 22 10 23 9 24 8 25 7 26 6 27 5 28 4 29 3 30 2 31 1 32
REMARK H PARENT
REMARK Flexibility Score: inf
ROOT
ATOM      1  C   UNL     1      37.478  -7.101  25.550  1.00  0.00     0.000 C 
ENDROOT
BRANCH   1   2
ATOM      2  C   UNL     1      36.538  -6.988  24.331  1.00  0.00     0.000 C 
BRANCH   2   3
ATOM      3  C   UNL     1      35.183  -7.696  24.524  1.00  0.00     0.000 C 
BRANCH   3   4
ATOM      4  C   UNL     1      33.946  -6.848  24.174  1.00  0.00     0.000 C 
BRANCH   4   5
ATOM      5  C   UNL     1      32.954  -6.642  25.334  1.00  0.00     0.000 C 
BRANCH   5   6
ATOM      6  C   UNL     1      33.478  -7.194  26.670  1.00  0.00     0.000 C 
BRANCH   6   7
ATOM      7  C   UNL     1      32.878  -8.567  27.021  1.00  0.00     0.000 C 
BRANCH   7   8
ATOM      8  C   UNL     1      33.742  -9.435  27.958  1.00  0.00     0.000 C 
BRANCH   8   9
ATOM      9  C   UNL     1      35.211  -9.600  27.527  1.00  0.00     0.000 C 
BRANCH   9  10
ATOM     10  C   UNL     1      36.192  -9.512  28.704  1.00  0.00     0.000 C 
BRANCH  10  11
ATOM     11  C   UNL     1      37.645  -9.642  28.224  1.00  0.00     0.000 C 
BRANCH  11  12
ATOM     12  C   UNL     1      38.652  -9.246  29.325  1.00  0.00     0.000 C 
BRANCH  12  13
ATOM     13  C   UNL     1      39.448  -7.966  29.010  1.00  0.00     0.006 C 
BRANCH  13  14
ATOM     14  C   UNL     1      39.446  -6.928  30.148  1.00  0.00     0.053 C 
BRANCH  14  15
ATOM     15  C   UNL     1      40.782  -6.793  30.819  1.00  0.00     0.041 C 
ATOM     16  O   UNL     1      41.603  -7.749  30.801  1.00  0.00    -0.550 OA
ATOM     17  O   UNL     1      41.147  -5.590  31.408  1.00  0.00    -0.550 OA
ENDBRANCH  14  15
ENDBRANCH  13  14
ENDBRANCH  12  13
ENDBRANCH  11  12
ENDBRANCH  10  11
ENDBRANCH   9  10
ENDBRANCH   8   9
ENDBRANCH   7   8
ENDBRANCH   6   7
ENDBRANCH   5   6
ENDBRANCH   4   5
ENDBRANCH   3   4
ENDBRANCH   2   3
ENDBRANCH   1   2
BRANCH   1  18
ATOM     18  C   UNL     1      36.997  -6.265  26.746  1.00  0.00     0.000 C 
BRANCH  18  19
ATOM     19  C   UNL     1      38.037  -5.206  27.128  1.00  0.00     0.000 C 
BRANCH  19  20
ATOM     20  C   UNL     1      39.071  -5.016  26.009  1.00  0.00     0.000 C 
BRANCH  20  21
ATOM     21  C   UNL     1      40.359  -4.324  26.507  1.00  0.00     0.000 C 
BRANCH  21  22
ATOM     22  C   UNL     1      41.282  -5.244  27.329  1.00  0.00     0.000 C 
BRANCH  22  23
ATOM     23  C   UNL     1      42.292  -4.514  28.233  1.00  0.00     0.000 C 
BRANCH  23  24
ATOM     24  C   UNL     1      43.616  -5.265  28.469  1.00  0.00    -0.000 C 
BRANCH  24  25
ATOM     25  C   UNL     1      44.830  -4.548  27.859  1.00  0.00    -0.000 C 
BRANCH  25  26
ATOM     26  C   UNL     1      45.134  -5.087  26.453  1.00  0.00    -0.000 C 
BRANCH  26  27
ATOM     27  C   UNL     1      44.709  -6.553  26.277  1.00  0.00    -0.000 C 
BRANCH  27  28
ATOM     28  C   UNL     1      45.902  -7.523  26.317  1.00  0.00    -0.000 C 
BRANCH  28  29
ATOM     29  C   UNL     1      46.602  -7.669  24.954  1.00  0.00    -0.000 C 
BRANCH  29  30
ATOM     30  C   UNL     1      47.947  -6.930  24.834  1.00  0.00    -0.000 C 
BRANCH  30  31
ATOM     31  C   UNL     1      48.343  -6.641  23.379  1.00  0.00    -0.003 C 
ATOM     32  C   UNL     1      47.502  -7.462  22.407  1.00  0.00     0.004 C 
ENDBRANCH  30  31
ENDBRANCH  29  30
ENDBRANCH  28  29
ENDBRANCH  27  28
ENDBRANCH  26  27
ENDBRANCH  25  26
ENDBRANCH  24  25
ENDBRANCH  23  24
ENDBRANCH  22  23
ENDBRANCH  21  22
ENDBRANCH  20  21
ENDBRANCH  19  20
ENDBRANCH  18  19
ENDBRANCH   1  18
TORSDOF 28
ENDMDL
MODEL 9
REMARK VINA RESULT:    -4.787      1.645      5.330
REMARK INTER + INTRA:         -16.874
REMARK INTER:                 -12.559
REMARK INTRA:                  -4.314
REMARK UNBOUND:                -4.252
REMARK SMILES CCCCCCCCCCCCCCCCCCCCCCCCCCCCCC(=O)[O-]
REMARK SMILES IDX 16 1 17 2 18 3 19 4 20 5 21 6 22 7 23 8 24 9 25 10 26 11
REMARK SMILES IDX 27 12 28 13 29 14 30 15 31 16 32 17 15 18 14 19 13 20 12 21
REMARK SMILES IDX 11 22 10 23 9 24 8 25 7 26 6 27 5 28 4 29 3 30 2 31 1 32
REMARK H PARENT
REMARK Flexibility Score: inf
ROOT
ATOM      1  C   UNL     1      34.482  -7.006  24.774  1.00  0.00     0.000 C 
ENDROOT
BRANCH   1   2
ATOM      2  C   UNL     1      35.917  -7.037  24.206  1.00  0.00     0.000 C 
BRANCH   2   3
ATOM      3  C   UNL     1      37.001  -7.283  25.274  1.00  0.00     0.000 C 
BRANCH   3   4
ATOM      4  C   UNL     1      38.362  -6.619  24.990  1.00  0.00     0.000 C 
BRANCH   4   5
ATOM      5  C   UNL     1      38.745  -5.489  25.964  1.00  0.00     0.000 C 
BRANCH   5   6
ATOM      6  C   UNL     1      40.136  -5.688  26.587  1.00  0.00     0.000 C 
BRANCH   6   7
ATOM      7  C   UNL     1      40.911  -4.367  26.746  1.00  0.00     0.000 C 
BRANCH   7   8
ATOM      8  C   UNL     1      41.284  -4.001  28.196  1.00  0.00     0.000 C 
BRANCH   8   9
ATOM      9  C   UNL     1      42.288  -4.952  28.874  1.00  0.00     0.000 C 
BRANCH   9  10
ATOM     10  C   UNL     1      43.702  -4.845  28.287  1.00  0.00     0.000 C 
BRANCH  10  11
ATOM     11  C   UNL     1      44.060  -6.097  27.474  1.00  0.00     0.000 C 
BRANCH  11  12
ATOM     12  C   UNL     1      45.318  -5.880  26.607  1.00  0.00     0.000 C 
BRANCH  12  13
ATOM     13  C   UNL     1      45.615  -7.040  25.638  1.00  0.00     0.006 C 
BRANCH  13  14
ATOM     14  C   UNL     1      47.112  -7.379  25.503  1.00  0.00     0.053 C 
BRANCH  14  15
ATOM     15  C   UNL     1      47.772  -6.667  24.357  1.00  0.00     0.041 C 
ATOM     16  O   UNL     1      47.942  -7.254  23.256  1.00  0.00    -0.550 OA
ATOM     17  O   UNL     1      48.138  -5.334  24.485  1.00  0.00    -0.550 OA
ENDBRANCH  14  15
ENDBRANCH  13  14
ENDBRANCH  12  13
ENDBRANCH  11  12
ENDBRANCH  10  11
ENDBRANCH   9  10
ENDBRANCH   8   9
ENDBRANCH   7   8
ENDBRANCH   6   7
ENDBRANCH   5   6
ENDBRANCH   4   5
ENDBRANCH   3   4
ENDBRANCH   2   3
ENDBRANCH   1   2
BRANCH   1  18
ATOM     18  C   UNL     1      34.456  -6.900  26.307  1.00  0.00     0.000 C 
BRANCH  18  19
ATOM     19  C   UNL     1      33.287  -7.701  26.892  1.00  0.00     0.000 C 
BRANCH  19  20
ATOM     20  C   UNL     1      33.526  -9.211  26.752  1.00  0.00     0.000 C 
BRANCH  20  21
ATOM     21  C   UNL     1      34.970  -9.617  27.120  1.00  0.00     0.000 C 
BRANCH  21  22
ATOM     22  C   UNL     1      35.132 -10.083  28.580  1.00  0.00     0.000 C 
BRANCH  22  23
ATOM     23  C   UNL     1      36.588 -10.205  29.067  1.00  0.00     0.000 C 
BRANCH  23  24
ATOM     24  C   UNL     1      37.656 -10.092  27.963  1.00  0.00    -0.000 C 
BRANCH  24  25
ATOM     25  C   UNL     1      38.649  -8.945  28.204  1.00  0.00    -0.000 C 
BRANCH  25  26
ATOM     26  C   UNL     1      37.988  -7.806  28.996  1.00  0.00    -0.000 C 
BRANCH  26  27
ATOM     27  C   UNL     1      39.009  -6.803  29.554  1.00  0.00    -0.000 C 
BRANCH  27  28
ATOM     28  C   UNL     1      38.369  -5.456  29.931  1.00  0.00    -0.000 C 
BRANCH  28  29
ATOM     29  C   UNL     1      36.863  -5.399  29.614  1.00  0.00    -0.000 C 
BRANCH  29  30
ATOM     30  C   UNL     1      36.494  -4.566  28.374  1.00  0.00    -0.000 C 
BRANCH  30  31
ATOM     31  C   UNL     1      36.580  -3.054  28.623  1.00  0.00    -0.003 C 
ATOM     32  C   UNL     1      37.794  -2.450  27.924  1.00  0.00     0.004 C 
ENDBRANCH  30  31
ENDBRANCH  29  30
ENDBRANCH  28  29
ENDBRANCH  27  28
ENDBRANCH  26  27
ENDBRANCH  25  26
ENDBRANCH  24  25
ENDBRANCH  23  24
ENDBRANCH  22  23
ENDBRANCH  21  22
ENDBRANCH  20  21
ENDBRANCH  19  20
ENDBRANCH  18  19
ENDBRANCH   1  18
TORSDOF 28
ENDMDL
