MODEL 1
REMARK VINA RESULT:    -4.070      0.000      0.000
REMARK INTER + INTRA:         -12.353
REMARK INTER:                  -8.830
REMARK INTRA:                  -3.523
REMARK UNBOUND:                -3.523
REMARK SMILES CCCCCCCCCCCCCCCCCCCCCC(=O)[O-]
REMARK SMILES IDX 12 1 11 2 10 3 9 4 8 5 7 6 6 7 5 8 4 9 3 10 2 11 1 12 13 13
REMARK SMILES IDX 14 14 15 15 16 16 17 17 18 18 19 19 20 20 21 21 22 22 23 23
REMARK SMILES IDX 24 24
REMARK H PARENT
REMARK Flexibility Score: inf
ROOT
ATOM      1  C   UNL     1      31.500   7.688  33.586  1.00  0.00     0.000 C 
ENDROOT
BRANCH   1   2
ATOM      2  C   UNL     1      32.940   7.839  34.108  1.00  0.00     0.000 C 
BRANCH   2   3
ATOM      3  C   UNL     1      33.830   6.637  33.725  1.00  0.00     0.000 C 
BRANCH   3   4
ATOM      4  C   UNL     1      35.204   6.638  34.417  1.00  0.00    -0.000 C 
BRANCH   4   5
ATOM      5  C   UNL     1      36.022   7.906  34.123  1.00  0.00    -0.000 C 
BRANCH   5   6
ATOM      6  C   UNL     1      37.349   7.599  33.414  1.00  0.00    -0.000 C 
BRANCH   6   7
ATOM      7  C   UNL     1      37.144   7.012  32.007  1.00  0.00    -0.000 C 
BRANCH   7   8
ATOM      8  C   UNL     1      36.653   8.058  30.989  1.00  0.00    -0.000 C 
BRANCH   8   9
ATOM      9  C   UNL     1      35.225   7.832  30.456  1.00  0.00    -0.000 C 
BRANCH   9  10
ATOM     10  C   UNL     1      34.491   9.144  30.133  1.00  0.00    -0.000 C 
BRANCH  10  11
ATOM     11  C   UNL     1      34.231   9.998  31.383  1.00  0.00    -0.003 C 
ATOM     12  C   UNL     1      32.923  10.786  31.304  1.00  0.00     0.004 C 
ENDBRANCH  10  11
ENDBRANCH   9  10
ENDBRANCH   8   9
ENDBRANCH   7   8
ENDBRANCH   6   7
ENDBRANCH   5   6
ENDBRANCH   4   5
ENDBRANCH   3   4
ENDBRANCH   2   3
ENDBRANCH   1   2
BRANCH   1  13
ATOM     13  C   UNL     1      31.437   7.020  32.203  1.00  0.00     0.000 C 
BRANCH  13  14
ATOM     14  C   UNL     1      30.705   7.839  31.123  1.00  0.00     0.000 C 
BRANCH  14  15
ATOM     15  C   UNL     1      29.901   6.971  30.130  1.00  0.00     0.000 C 
BRANCH  15  16
ATOM     16  C   UNL     1      30.286   7.257  28.667  1.00  0.00     0.000 C 
BRANCH  16  17
ATOM     17  C   UNL     1      31.595   8.051  28.542  1.00  0.00     0.000 C 
BRANCH  17  18
ATOM     18  C   UNL     1      31.421   9.358  27.751  1.00  0.00     0.000 C 
BRANCH  18  19
ATOM     19  C   UNL     1      29.968   9.865  27.760  1.00  0.00     0.000 C 
BRANCH  19  20
ATOM     20  C   UNL     1      29.745  11.021  28.752  1.00  0.00     0.006 C 
BRANCH  20  21
ATOM     21  C   UNL     1      28.592  10.735  29.725  1.00  0.00     0.053 C 
BRANCH  21  22
ATOM     22  C   UNL     1      28.545  11.734  30.841  1.00  0.00     0.041 C 
ATOM     23  O   UNL     1      29.610  12.122  31.388  1.00  0.00    -0.550 OA
ATOM     24  O   UNL     1      27.327  12.249  31.267  1.00  0.00    -0.550 OA
ENDBRANCH  21  22
ENDBRANCH  20  21
ENDBRANCH  19  20
ENDBRANCH  18  19
ENDBRANCH  17  18
ENDBRANCH  16  17
ENDBRANCH  15  16
ENDBRANCH  14  15
ENDBRANCH  13  14
ENDBRANCH   1  13
TORSDOF 20
ENDMDL
MODEL 2
REMARK VINA RESULT:    -4.004      1.328      2.165
REMARK INTER + INTRA:         -12.209
REMARK INTER:                  -8.482
REMARK INTRA:                  -3.726
REMARK UNBOUND:                -3.523
REMARK SMILES CCCCCCCCCCCCCCCCCCCCCC(=O)[O-]
REMARK SMILES IDX 12 1 11 2 10 3 9 4 8 5 7 6 6 7 5 8 4 9 3 10 2 11 1 12 13 13
REMARK SMILES IDX 14 14 15 15 16 16 17 17 18 18 19 19 20 20 21 21 22 22 23 23
REMARK SMILES IDX 24 24
REMARK H PARENT
REMARK Flexibility Score: inf
ROOT
ATOM      1  C   UNL     1      31.411   6.956  32.414  1.00  0.00     0.000 C 
ENDROOT
BRANCH   1   2
ATOM      2  C   UNL     1      31.027   8.014  33.465  1.00  0.00     0.000 C 
BRANCH   2   3
ATOM      3  C   UNL     1      31.742   7.784  34.814  1.00  0.00     0.000 C 
BRANCH   3   4
ATOM      4  C   UNL     1      32.810   6.679  34.768  1.00  0.00    -0.000 C 
BRANCH   4   5
ATOM      5  C   UNL     1      34.216   7.189  35.126  1.00  0.00    -0.000 C 
BRANCH   5   6
ATOM      6  C   UNL     1      34.731   8.241  34.133  1.00  0.00    -0.000 C 
BRANCH   6   7
ATOM      7  C   UNL     1      35.929   7.737  33.308  1.00  0.00    -0.000 C 
BRANCH   7   8
ATOM      8  C   UNL     1      35.503   6.975  32.040  1.00  0.00    -0.000 C 
BRANCH   8   9
ATOM      9  C   UNL     1      36.030   7.562  30.717  1.00  0.00    -0.000 C 
BRANCH   9  10
ATOM     10  C   UNL     1      37.189   8.552  30.918  1.00  0.00    -0.000 C 
BRANCH  10  11
ATOM     11  C   UNL     1      36.909   9.925  30.288  1.00  0.00    -0.003 C 
ATOM     12  C   UNL     1      36.058  10.827  31.183  1.00  0.00     0.004 C 
ENDBRANCH  10  11
ENDBRANCH   9  10
ENDBRANCH   8   9
ENDBRANCH   7   8
ENDBRANCH   6   7
ENDBRANCH   5   6
ENDBRANCH   4   5
ENDBRANCH   3   4
ENDBRANCH   2   3
ENDBRANCH   1   2
BRANCH   1  13
ATOM     13  C   UNL     1      31.768   7.575  31.053  1.00  0.00     0.000 C 
BRANCH  13  14
ATOM     14  C   UNL     1      32.542   8.904  31.131  1.00  0.00     0.000 C 
BRANCH  14  15
ATOM     15  C   UNL     1      33.089   9.380  29.766  1.00  0.00     0.000 C 
BRANCH  15  16
ATOM     16  C   UNL     1      32.655   8.457  28.614  1.00  0.00     0.000 C 
BRANCH  16  17
ATOM     17  C   UNL     1      31.708   9.150  27.622  1.00  0.00     0.000 C 
BRANCH  17  18
ATOM     18  C   UNL     1      30.228   9.000  28.013  1.00  0.00     0.000 C 
BRANCH  18  19
ATOM     19  C   UNL     1      29.655  10.272  28.660  1.00  0.00     0.000 C 
BRANCH  19  20
ATOM     20  C   UNL     1      29.118  10.029  30.082  1.00  0.00     0.006 C 
BRANCH  20  21
ATOM     21  C   UNL     1      29.612  11.088  31.077  1.00  0.00     0.053 C 
BRANCH  21  22
ATOM     22  C   UNL     1      29.402  12.479  30.560  1.00  0.00     0.041 C 
ATOM     23  O   UNL     1      30.392  13.213  30.302  1.00  0.00    -0.550 OA
ATOM     24  O   UNL     1      28.117  12.959  30.347  1.00  0.00    -0.550 OA
ENDBRANCH  21  22
ENDBRANCH  20  21
ENDBRANCH  19  20
ENDBRANCH  18  19
ENDBRANCH  17  18
ENDBRANCH  16  17
ENDBRANCH  15  16
ENDBRANCH  14  15
ENDBRANCH  13  14
ENDBRANCH   1  13
TORSDOF 20
ENDMDL
MODEL 3
REMARK VINA RESULT:    -3.984      3.044      6.788
REMARK INTER + INTRA:         -12.166
REMARK INTER:                  -8.690
REMARK INTRA:                  -3.477
REMARK UNBOUND:                -3.523
REMARK SMILES CCCCCCCCCCCCCCCCCCCCCC(=O)[O-]
REMARK SMILES IDX 12 1 11 2 10 3 9 4 8 5 7 6 6 7 5 8 4 9 3 10 2 11 1 12 13 13
REMARK SMILES IDX 14 14 15 15 16 16 17 17 18 18 19 19 20 20 21 21 22 22 23 23
REMARK SMILES IDX 24 24
REMARK H PARENT
REMARK Flexibility Score: inf
ROOT
ATOM      1  C   UNL     1      30.723   9.709  28.451  1.00  0.00     0.000 C 
ENDROOT
BRANCH   1   2
ATOM      2  C   UNL     1      29.854  10.410  27.391  1.00  0.00     0.000 C 
BRANCH   2   3
ATOM      3  C   UNL     1      28.714  11.237  28.024  1.00  0.00     0.000 C 
BRANCH   3   4
ATOM      4  C   UNL     1      28.353  10.803  29.454  1.00  0.00    -0.000 C 
BRANCH   4   5
ATOM      5  C   UNL     1      28.256  11.984  30.434  1.00  0.00    -0.000 C 
BRANCH   5   6
ATOM      6  C   UNL     1      29.218  11.843  31.622  1.00  0.00    -0.000 C 
BRANCH   6   7
ATOM      7  C   UNL     1      30.680  12.121  31.234  1.00  0.00    -0.000 C 
BRANCH   7   8
ATOM      8  C   UNL     1      30.841  13.398  30.388  1.00  0.00    -0.000 C 
BRANCH   8   9
ATOM      9  C   UNL     1      31.687  14.510  31.035  1.00  0.00    -0.000 C 
BRANCH   9  10
ATOM     10  C   UNL     1      32.736  13.970  32.022  1.00  0.00    -0.000 C 
BRANCH  10  11
ATOM     11  C   UNL     1      32.517  14.482  33.454  1.00  0.00    -0.003 C 
ATOM     12  C   UNL     1      32.203  13.361  34.445  1.00  0.00     0.004 C 
ENDBRANCH  10  11
ENDBRANCH   9  10
ENDBRANCH   8   9
ENDBRANCH   7   8
ENDBRANCH   6   7
ENDBRANCH   5   6
ENDBRANCH   4   5
ENDBRANCH   3   4
ENDBRANCH   2   3
ENDBRANCH   1   2
BRANCH   1  13
ATOM     13  C   UNL     1      30.993   8.233  28.117  1.00  0.00     0.000 C 
BRANCH  13  14
ATOM     14  C   UNL     1      30.390   7.224  29.112  1.00  0.00     0.000 C 
BRANCH  14  15
ATOM     15  C   UNL     1      30.217   7.793  30.538  1.00  0.00     0.000 C 
BRANCH  15  16
ATOM     16  C   UNL     1      31.027   7.002  31.580  1.00  0.00     0.000 C 
BRANCH  16  17
ATOM     17  C   UNL     1      32.447   7.557  31.777  1.00  0.00     0.000 C 
BRANCH  17  18
ATOM     18  C   UNL     1      32.458   9.074  32.032  1.00  0.00     0.000 C 
BRANCH  18  19
ATOM     19  C   UNL     1      33.520   9.806  31.195  1.00  0.00     0.000 C 
BRANCH  19  20
ATOM     20  C   UNL     1      34.064   8.949  30.037  1.00  0.00     0.006 C 
BRANCH  20  21
ATOM     21  C   UNL     1      35.597   8.868  30.047  1.00  0.00     0.053 C 
BRANCH  21  22
ATOM     22  C   UNL     1      36.111   8.190  31.280  1.00  0.00     0.041 C 
ATOM     23  O   UNL     1      35.918   6.959  31.452  1.00  0.00    -0.550 OA
ATOM     24  O   UNL     1      36.819   8.914  32.231  1.00  0.00    -0.550 OA
ENDBRANCH  21  22
ENDBRANCH  20  21
ENDBRANCH  19  20
ENDBRANCH  18  19
ENDBRANCH  17  18
ENDBRANCH  16  17
ENDBRANCH  15  16
ENDBRANCH  14  15
ENDBRANCH  13  14
ENDBRANCH   1  13
TORSDOF 20
ENDMDL
MODEL 4
REMARK VINA RESULT:    -3.968      2.194      4.147
REMARK INTER + INTRA:         -12.131
REMARK INTER:                  -8.164
REMARK INTRA:                  -3.967
REMARK UNBOUND:                -3.523
REMARK SMILES CCCCCCCCCCCCCCCCCCCCCC(=O)[O-]
REMARK SMILES IDX 12 1 11 2 10 3 9 4 8 5 7 6 6 7 5 8 4 9 3 10 2 11 1 12 13 13
REMARK SMILES IDX 14 14 15 15 16 16 17 17 18 18 19 19 20 20 21 21 22 22 23 23
REMARK SMILES IDX 24 24
REMARK H PARENT
REMARK Flexibility Score: inf
ROOT
ATOM      1  C   UNL     1      31.554   8.881  28.197  1.00  0.00     0.000 C 
ENDROOT
BRANCH   1   2
ATOM      2  C   UNL     1      33.004   8.439  28.464  1.00  0.00     0.000 C 
BRANCH   2   3
ATOM      3  C   UNL     1      33.643   9.210  29.640  1.00  0.00     0.000 C 
BRANCH   3   4
ATOM      4  C   UNL     1      34.787   8.449  30.331  1.00  0.00    -0.000 C 
BRANCH   4   5
ATOM      5  C   UNL     1      35.223   9.095  31.656  1.00  0.00    -0.000 C 
BRANCH   5   6
ATOM      6  C   UNL     1      34.844  10.581  31.739  1.00  0.00    -0.000 C 
BRANCH   6   7
ATOM      7  C   UNL     1      35.143  11.189  33.121  1.00  0.00    -0.000 C 
BRANCH   7   8
ATOM      8  C   UNL     1      34.866  12.703  33.179  1.00  0.00    -0.000 C 
BRANCH   8   9
ATOM      9  C   UNL     1      34.002  13.255  32.031  1.00  0.00    -0.000 C 
BRANCH   9  10
ATOM     10  C   UNL     1      32.799  14.075  32.524  1.00  0.00    -0.000 C 
BRANCH  10  11
ATOM     11  C   UNL     1      32.162  13.484  33.791  1.00  0.00    -0.003 C 
ATOM     12  C   UNL     1      32.163  14.459  34.969  1.00  0.00     0.004 C 
ENDBRANCH  10  11
ENDBRANCH   9  10
ENDBRANCH   8   9
ENDBRANCH   7   8
ENDBRANCH   6   7
ENDBRANCH   5   6
ENDBRANCH   4   5
ENDBRANCH   3   4
ENDBRANCH   2   3
ENDBRANCH   1   2
BRANCH   1  13
ATOM     13  C   UNL     1      30.531   7.771  28.489  1.00  0.00     0.000 C 
BRANCH  13  14
ATOM     14  C   UNL     1      29.984   7.760  29.929  1.00  0.00     0.000 C 
BRANCH  14  15
ATOM     15  C   UNL     1      30.608   6.663  30.819  1.00  0.00     0.000 C 
BRANCH  15  16
ATOM     16  C   UNL     1      31.635   7.235  31.812  1.00  0.00     0.000 C 
BRANCH  16  17
ATOM     17  C   UNL     1      31.008   8.213  32.817  1.00  0.00     0.000 C 
BRANCH  17  18
ATOM     18  C   UNL     1      31.546   9.646  32.663  1.00  0.00     0.000 C 
BRANCH  18  19
ATOM     19  C   UNL     1      30.500  10.610  32.079  1.00  0.00     0.000 C 
BRANCH  19  20
ATOM     20  C   UNL     1      30.993  11.329  30.810  1.00  0.00     0.006 C 
BRANCH  20  21
ATOM     21  C   UNL     1      29.965  12.337  30.278  1.00  0.00     0.053 C 
BRANCH  21  22
ATOM     22  C   UNL     1      28.640  11.691  30.006  1.00  0.00     0.041 C 
ATOM     23  O   UNL     1      28.523  10.860  29.068  1.00  0.00    -0.550 OA
ATOM     24  O   UNL     1      27.540  11.993  30.797  1.00  0.00    -0.550 OA
ENDBRANCH  21  22
ENDBRANCH  20  21
ENDBRANCH  19  20
ENDBRANCH  18  19
ENDBRANCH  17  18
ENDBRANCH  16  17
ENDBRANCH  15  16
ENDBRANCH  14  15
ENDBRANCH  13  14
ENDBRANCH   1  13
TORSDOF 20
ENDMDL
MODEL 5
REMARK VINA RESULT:    -3.967      1.818      4.951
REMARK INTER + INTRA:         -12.128
REMARK INTER:                  -8.408
REMARK INTRA:                  -3.720
REMARK UNBOUND:                -3.523
REMARK SMILES CCCCCCCCCCCCCCCCCCCCCC(=O)[O-]
REMARK SMILES IDX 12 1 11 2 10 3 9 4 8 5 7 6 6 7 5 8 4 9 3 10 2 11 1 12 13 13
REMARK SMILES IDX 14 14 15 15 16 16 17 17 18 18 19 19 20 20 21 21 22 22 23 23
REMARK SMILES IDX 24 24
REMARK H PARENT
REMARK Flexibility Score: inf
ROOT
ATOM      1  C   UNL     1      37.508   9.384  30.354  1.00  0.00     0.000 C 
ENDROOT
BRANCH   1   2
ATOM      2  C   UNL     1      37.844   8.761  31.720  1.00  0.00     0.000 C 
BRANCH   2   3
ATOM      3  C   UNL     1      37.239   7.350  31.885  1.00  0.00     0.000 C 
BRANCH   3   4
ATOM      4  C   UNL     1      35.858   7.188  31.228  1.00  0.00    -0.000 C 
BRANCH   4   5
ATOM      5  C   UNL     1      34.713   7.737  32.095  1.00  0.00    -0.000 C 
BRANCH   5   6
ATOM      6  C   UNL     1      33.493   8.157  31.262  1.00  0.00    -0.000 C 
BRANCH   6   7
ATOM      7  C   UNL     1      33.869   8.557  29.825  1.00  0.00    -0.000 C 
BRANCH   7   8
ATOM      8  C   UNL     1      32.685   9.152  29.041  1.00  0.00    -0.000 C 
BRANCH   8   9
ATOM      9  C   UNL     1      31.753   8.119  28.381  1.00  0.00    -0.000 C 
BRANCH   9  10
ATOM     10  C   UNL     1      30.276   8.310  28.764  1.00  0.00    -0.000 C 
BRANCH  10  11
ATOM     11  C   UNL     1      29.920   7.629  30.094  1.00  0.00    -0.003 C 
ATOM     12  C   UNL     1      29.953   6.103  30.008  1.00  0.00     0.004 C 
ENDBRANCH  10  11
ENDBRANCH   9  10
ENDBRANCH   8   9
ENDBRANCH   7   8
ENDBRANCH   6   7
ENDBRANCH   5   6
ENDBRANCH   4   5
ENDBRANCH   3   4
ENDBRANCH   2   3
ENDBRANCH   1   2
BRANCH   1  13
ATOM     13  C   UNL     1      36.812  10.749  30.478  1.00  0.00     0.000 C 
BRANCH  13  14
ATOM     14  C   UNL     1      36.770  11.325  31.906  1.00  0.00     0.000 C 
BRANCH  14  15
ATOM     15  C   UNL     1      35.362  11.298  32.541  1.00  0.00     0.000 C 
BRANCH  15  16
ATOM     16  C   UNL     1      34.269  11.728  31.546  1.00  0.00     0.000 C 
BRANCH  16  17
ATOM     17  C   UNL     1      33.054  12.366  32.237  1.00  0.00     0.000 C 
BRANCH  17  18
ATOM     18  C   UNL     1      32.446  11.459  33.321  1.00  0.00     0.000 C 
BRANCH  18  19
ATOM     19  C   UNL     1      30.983  11.086  33.028  1.00  0.00     0.000 C 
BRANCH  19  20
ATOM     20  C   UNL     1      30.724  10.810  31.537  1.00  0.00     0.006 C 
BRANCH  20  21
ATOM     21  C   UNL     1      29.420  11.454  31.045  1.00  0.00     0.053 C 
BRANCH  21  22
ATOM     22  C   UNL     1      29.501  11.841  29.600  1.00  0.00     0.041 C 
ATOM     23  O   UNL     1      30.614  12.109  29.078  1.00  0.00    -0.550 OA
ATOM     24  O   UNL     1      28.349  11.889  28.825  1.00  0.00    -0.550 OA
ENDBRANCH  21  22
ENDBRANCH  20  21
ENDBRANCH  19  20
ENDBRANCH  18  19
ENDBRANCH  17  18
ENDBRANCH  16  17
ENDBRANCH  15  16
ENDBRANCH  14  15
ENDBRANCH  13  14
ENDBRANCH   1  13
TORSDOF 20
ENDMDL
MODEL 6
REMARK VINA RESULT:    -3.959      1.577      5.565
REMARK INTER + INTRA:         -12.111
REMARK INTER:                  -8.656
REMARK INTRA:                  -3.456
REMARK UNBOUND:                -3.523
REMARK SMILES CCCCCCCCCCCCCCCCCCCCCC(=O)[O-]
REMARK SMILES IDX 12 1 11 2 10 3 9 4 8 5 7 6 6 7 5 8 4 9 3 10 2 11 1 12 13 13
REMARK SMILES IDX 14 14 15 15 16 16 17 17 18 18 19 19 20 20 21 21 22 22 23 23
REMARK SMILES IDX 24 24
REMARK H PARENT
REMARK Flexibility Score: inf
ROOT
ATOM      1  C   UNL     1      32.407   7.961  33.208  1.00  0.00     0.000 C 
ENDROOT
BRANCH   1   2
ATOM      2  C   UNL     1      31.003   7.817  32.593  1.00  0.00     0.000 C 
BRANCH   2   3
ATOM      3  C   UNL     1      30.987   6.840  31.397  1.00  0.00     0.000 C 
BRANCH   3   4
ATOM      4  C   UNL     1      29.918   7.171  30.342  1.00  0.00    -0.000 C 
BRANCH   4   5
ATOM      5  C   UNL     1      30.509   7.406  28.942  1.00  0.00    -0.000 C 
BRANCH   5   6
ATOM      6  C   UNL     1      31.877   8.102  28.990  1.00  0.00    -0.000 C 
BRANCH   6   7
ATOM      7  C   UNL     1      31.765   9.632  28.877  1.00  0.00    -0.000 C 
BRANCH   7   8
ATOM      8  C   UNL     1      30.566  10.082  28.022  1.00  0.00    -0.000 C 
BRANCH   8   9
ATOM      9  C   UNL     1      29.870  11.371  28.497  1.00  0.00    -0.000 C 
BRANCH   9  10
ATOM     10  C   UNL     1      28.397  11.152  28.882  1.00  0.00    -0.000 C 
BRANCH  10  11
ATOM     11  C   UNL     1      28.109  11.524  30.345  1.00  0.00    -0.003 C 
ATOM     12  C   UNL     1      29.281  11.222  31.278  1.00  0.00     0.004 C 
ENDBRANCH  10  11
ENDBRANCH   9  10
ENDBRANCH   8   9
ENDBRANCH   7   8
ENDBRANCH   6   7
ENDBRANCH   5   6
ENDBRANCH   4   5
ENDBRANCH   3   4
ENDBRANCH   2   3
ENDBRANCH   1   2
BRANCH   1  13
ATOM     13  C   UNL     1      33.518   7.445  32.279  1.00  0.00     0.000 C 
BRANCH  13  14
ATOM     14  C   UNL     1      34.908   7.335  32.935  1.00  0.00     0.000 C 
BRANCH  14  15
ATOM     15  C   UNL     1      36.038   7.007  31.934  1.00  0.00     0.000 C 
BRANCH  15  16
ATOM     16  C   UNL     1      35.857   7.743  30.594  1.00  0.00     0.000 C 
BRANCH  16  17
ATOM     17  C   UNL     1      36.930   8.818  30.358  1.00  0.00     0.000 C 
BRANCH  17  18
ATOM     18  C   UNL     1      36.481  10.214  30.821  1.00  0.00     0.000 C 
BRANCH  18  19
ATOM     19  C   UNL     1      34.955  10.397  30.753  1.00  0.00     0.000 C 
BRANCH  19  20
ATOM     20  C   UNL     1      34.381  11.098  31.997  1.00  0.00     0.006 C 
BRANCH  20  21
ATOM     21  C   UNL     1      32.942  11.585  31.776  1.00  0.00     0.053 C 
BRANCH  21  22
ATOM     22  C   UNL     1      32.737  12.974  32.300  1.00  0.00     0.041 C 
ATOM     23  O   UNL     1      31.771  13.225  33.067  1.00  0.00    -0.550 OA
ATOM     24  O   UNL     1      33.622  13.988  31.956  1.00  0.00    -0.550 OA
ENDBRANCH  21  22
ENDBRANCH  20  21
ENDBRANCH  19  20
ENDBRANCH  18  19
ENDBRANCH  17  18
ENDBRANCH  16  17
ENDBRANCH  15  16
ENDBRANCH  14  15
ENDBRANCH  13  14
ENDBRANCH   1  13
TORSDOF 20
ENDMDL
MODEL 7
REMARK VINA RESULT:    -3.906      1.633      3.107
REMARK INTER + INTRA:         -11.995
REMARK INTER:                  -8.565
REMARK INTRA:                  -3.431
REMARK UNBOUND:                -3.523
REMARK SMILES CCCCCCCCCCCCCCCCCCCCCC(=O)[O-]
REMARK SMILES IDX 12 1 11 2 10 3 9 4 8 5 7 6 6 7 5 8 4 9 3 10 2 11 1 12 13 13
REMARK SMILES IDX 14 14 15 15 16 16 17 17 18 18 19 19 20 20 21 21 22 22 23 23
REMARK SMILES IDX 24 24
REMARK H PARENT
REMARK Flexibility Score: inf
ROOT
ATOM      1  C   UNL     1      34.096   6.787  33.711  1.00  0.00     0.000 C 
ENDROOT
BRANCH   1   2
ATOM      2  C   UNL     1      35.545   7.174  33.370  1.00  0.00     0.000 C 
BRANCH   2   3
ATOM      3  C   UNL     1      35.858   7.000  31.868  1.00  0.00     0.000 C 
BRANCH   3   4
ATOM      4  C   UNL     1      37.073   7.813  31.390  1.00  0.00    -0.000 C 
BRANCH   4   5
ATOM      5  C   UNL     1      36.704   8.890  30.355  1.00  0.00    -0.000 C 
BRANCH   5   6
ATOM      6  C   UNL     1      35.219   9.276  30.411  1.00  0.00    -0.000 C 
BRANCH   6   7
ATOM      7  C   UNL     1      35.001  10.709  30.928  1.00  0.00    -0.000 C 
BRANCH   7   8
ATOM      8  C   UNL     1      34.982  10.792  32.466  1.00  0.00    -0.000 C 
BRANCH   8   9
ATOM      9  C   UNL     1      33.941  11.762  33.055  1.00  0.00    -0.000 C 
BRANCH   9  10
ATOM     10  C   UNL     1      32.942  12.281  32.008  1.00  0.00    -0.000 C 
BRANCH  10  11
ATOM     11  C   UNL     1      31.484  12.180  32.482  1.00  0.00    -0.003 C 
ATOM     12  C   UNL     1      31.298  11.182  33.625  1.00  0.00     0.004 C 
ENDBRANCH  10  11
ENDBRANCH   9  10
ENDBRANCH   8   9
ENDBRANCH   7   8
ENDBRANCH   6   7
ENDBRANCH   5   6
ENDBRANCH   4   5
ENDBRANCH   3   4
ENDBRANCH   2   3
ENDBRANCH   1   2
BRANCH   1  13
ATOM     13  C   UNL     1      33.089   7.899  33.378  1.00  0.00     0.000 C 
BRANCH  13  14
ATOM     14  C   UNL     1      32.412   7.765  32.000  1.00  0.00     0.000 C 
BRANCH  14  15
ATOM     15  C   UNL     1      31.051   7.035  32.050  1.00  0.00     0.000 C 
BRANCH  15  16
ATOM     16  C   UNL     1      30.640   6.479  30.675  1.00  0.00     0.000 C 
BRANCH  16  17
ATOM     17  C   UNL     1      30.059   7.558  29.748  1.00  0.00     0.000 C 
BRANCH  17  18
ATOM     18  C   UNL     1      30.957   7.838  28.531  1.00  0.00     0.000 C 
BRANCH  18  19
ATOM     19  C   UNL     1      31.667   9.200  28.620  1.00  0.00     0.000 C 
BRANCH  19  20
ATOM     20  C   UNL     1      30.968  10.175  29.585  1.00  0.00     0.006 C 
BRANCH  20  21
ATOM     21  C   UNL     1      30.546  11.476  28.889  1.00  0.00     0.053 C 
BRANCH  21  22
ATOM     22  C   UNL     1      29.099  11.455  28.498  1.00  0.00     0.041 C 
ATOM     23  O   UNL     1      28.260  12.135  29.144  1.00  0.00    -0.550 OA
ATOM     24  O   UNL     1      28.680  10.699  27.411  1.00  0.00    -0.550 OA
ENDBRANCH  21  22
ENDBRANCH  20  21
ENDBRANCH  19  20
ENDBRANCH  18  19
ENDBRANCH  17  18
ENDBRANCH  16  17
ENDBRANCH  15  16
ENDBRANCH  14  15
ENDBRANCH  13  14
ENDBRANCH   1  13
TORSDOF 20
ENDMDL
MODEL 8
REMARK VINA RESULT:    -3.903      1.702      4.540
REMARK INTER + INTRA:         -11.991
REMARK INTER:                  -7.981
REMARK INTRA:                  -4.010
REMARK UNBOUND:                -3.523
REMARK SMILES CCCCCCCCCCCCCCCCCCCCCC(=O)[O-]
REMARK SMILES IDX 12 1 11 2 10 3 9 4 8 5 7 6 6 7 5 8 4 9 3 10 2 11 1 12 13 13
REMARK SMILES IDX 14 14 15 15 16 16 17 17 18 18 19 19 20 20 21 21 22 22 23 23
REMARK SMILES IDX 24 24
REMARK H PARENT
REMARK Flexibility Score: inf
ROOT
ATOM      1  C   UNL     1      34.533   9.105  30.073  1.00  0.00     0.000 C 
ENDROOT
BRANCH   1   2
ATOM      2  C   UNL     1      36.045   9.053  30.361  1.00  0.00     0.000 C 
BRANCH   2   3
ATOM      3  C   UNL     1      36.451   7.773  31.123  1.00  0.00     0.000 C 
BRANCH   3   4
ATOM      4  C   UNL     1      35.264   7.019  31.743  1.00  0.00    -0.000 C 
BRANCH   4   5
ATOM      5  C   UNL     1      35.067   7.332  33.236  1.00  0.00    -0.000 C 
BRANCH   5   6
ATOM      6  C   UNL     1      33.716   8.003  33.523  1.00  0.00    -0.000 C 
BRANCH   6   7
ATOM      7  C   UNL     1      32.536   7.020  33.422  1.00  0.00    -0.000 C 
BRANCH   7   8
ATOM      8  C   UNL     1      31.384   7.558  32.553  1.00  0.00    -0.000 C 
BRANCH   8   9
ATOM      9  C   UNL     1      31.446   7.161  31.066  1.00  0.00    -0.000 C 
BRANCH   9  10
ATOM     10  C   UNL     1      30.514   8.005  30.180  1.00  0.00    -0.000 C 
BRANCH  10  11
ATOM     11  C   UNL     1      30.688   7.701  28.684  1.00  0.00    -0.003 C 
ATOM     12  C   UNL     1      31.754   8.573  28.020  1.00  0.00     0.004 C 
ENDBRANCH  10  11
ENDBRANCH   9  10
ENDBRANCH   8   9
ENDBRANCH   7   8
ENDBRANCH   6   7
ENDBRANCH   5   6
ENDBRANCH   4   5
ENDBRANCH   3   4
ENDBRANCH   2   3
ENDBRANCH   1   2
BRANCH   1  13
ATOM     13  C   UNL     1      33.841  10.301  30.747  1.00  0.00     0.000 C 
BRANCH  13  14
ATOM     14  C   UNL     1      34.715  11.067  31.759  1.00  0.00     0.000 C 
BRANCH  14  15
ATOM     15  C   UNL     1      34.063  12.368  32.276  1.00  0.00     0.000 C 
BRANCH  15  16
ATOM     16  C   UNL     1      33.298  12.150  33.593  1.00  0.00     0.000 C 
BRANCH  16  17
ATOM     17  C   UNL     1      31.786  12.388  33.448  1.00  0.00     0.000 C 
BRANCH  17  18
ATOM     18  C   UNL     1      31.005  11.088  33.190  1.00  0.00     0.000 C 
BRANCH  18  19
ATOM     19  C   UNL     1      30.205  11.130  31.878  1.00  0.00     0.000 C 
BRANCH  19  20
ATOM     20  C   UNL     1      30.669  12.251  30.930  1.00  0.00     0.006 C 
BRANCH  20  21
ATOM     21  C   UNL     1      30.555  11.846  29.454  1.00  0.00     0.053 C 
BRANCH  21  22
ATOM     22  C   UNL     1      29.129  11.636  29.042  1.00  0.00     0.041 C 
ATOM     23  O   UNL     1      28.809  10.623  28.368  1.00  0.00    -0.550 OA
ATOM     24  O   UNL     1      28.153  12.549  29.417  1.00  0.00    -0.550 OA
ENDBRANCH  21  22
ENDBRANCH  20  21
ENDBRANCH  19  20
ENDBRANCH  18  19
ENDBRANCH  17  18
ENDBRANCH  16  17
ENDBRANCH  15  16
ENDBRANCH  14  15
ENDBRANCH  13  14
ENDBRANCH   1  13
TORSDOF 20
ENDMDL
MODEL 9
REMARK VINA RESULT:    -3.894      2.806      6.454
REMARK INTER + INTRA:         -11.971
REMARK INTER:                  -7.669
REMARK INTRA:                  -4.302
REMARK UNBOUND:                -3.523
REMARK SMILES CCCCCCCCCCCCCCCCCCCCCC(=O)[O-]
REMARK SMILES IDX 12 1 11 2 10 3 9 4 8 5 7 6 6 7 5 8 4 9 3 10 2 11 1 12 13 13
REMARK SMILES IDX 14 14 15 15 16 16 17 17 18 18 19 19 20 20 21 21 22 22 23 23
REMARK SMILES IDX 24 24
REMARK H PARENT
REMARK Flexibility Score: inf
ROOT
ATOM      1  C   UNL     1      32.035   9.524  33.365  1.00  0.00     0.000 C 
ENDROOT
BRANCH   1   2
ATOM      2  C   UNL     1      30.955   8.892  32.469  1.00  0.00     0.000 C 
BRANCH   2   3
ATOM      3  C   UNL     1      31.102   7.358  32.370  1.00  0.00     0.000 C 
BRANCH   3   4
ATOM      4  C   UNL     1      31.037   6.822  30.931  1.00  0.00    -0.000 C 
BRANCH   4   5
ATOM      5  C   UNL     1      30.520   7.864  29.924  1.00  0.00    -0.000 C 
BRANCH   5   6
ATOM      6  C   UNL     1      31.454   8.028  28.716  1.00  0.00    -0.000 C 
BRANCH   6   7
ATOM      7  C   UNL     1      31.365   9.430  28.089  1.00  0.00    -0.000 C 
BRANCH   7   8
ATOM      8  C   UNL     1      30.231  10.282  28.689  1.00  0.00    -0.000 C 
BRANCH   8   9
ATOM      9  C   UNL     1      30.642  11.699  29.132  1.00  0.00    -0.000 C 
BRANCH   9  10
ATOM     10  C   UNL     1      30.015  12.115  30.473  1.00  0.00    -0.000 C 
BRANCH  10  11
ATOM     11  C   UNL     1      28.715  11.355  30.777  1.00  0.00    -0.003 C 
ATOM     12  C   UNL     1      27.536  12.284  31.066  1.00  0.00     0.004 C 
ENDBRANCH  10  11
ENDBRANCH   9  10
ENDBRANCH   8   9
ENDBRANCH   7   8
ENDBRANCH   6   7
ENDBRANCH   5   6
ENDBRANCH   4   5
ENDBRANCH   3   4
ENDBRANCH   2   3
ENDBRANCH   1   2
BRANCH   1  13
ATOM     13  C   UNL     1      32.448  10.929  32.897  1.00  0.00     0.000 C 
BRANCH  13  14
ATOM     14  C   UNL     1      33.780  10.987  32.125  1.00  0.00     0.000 C 
BRANCH  14  15
ATOM     15  C   UNL     1      33.707  10.343  30.723  1.00  0.00     0.000 C 
BRANCH  15  16
ATOM     16  C   UNL     1      34.985   9.558  30.378  1.00  0.00     0.000 C 
BRANCH  16  17
ATOM     17  C   UNL     1      34.767   8.037  30.382  1.00  0.00     0.000 C 
BRANCH  17  18
ATOM     18  C   UNL     1      35.588   7.324  31.470  1.00  0.00     0.000 C 
BRANCH  18  19
ATOM     19  C   UNL     1      34.828   7.207  32.802  1.00  0.00     0.000 C 
BRANCH  19  20
ATOM     20  C   UNL     1      35.427   8.090  33.911  1.00  0.00     0.006 C 
BRANCH  20  21
ATOM     21  C   UNL     1      36.892   8.454  33.635  1.00  0.00     0.053 C 
BRANCH  21  22
ATOM     22  C   UNL     1      37.087   9.936  33.526  1.00  0.00     0.041 C 
ATOM     23  O   UNL     1      37.632  10.429  32.504  1.00  0.00    -0.550 OA
ATOM     24  O   UNL     1      36.652  10.774  34.544  1.00  0.00    -0.550 OA
ENDBRANCH  21  22
ENDBRANCH  20  21
ENDBRANCH  19  20
ENDBRANCH  18  19
ENDBRANCH  17  18
ENDBRANCH  16  17
ENDBRANCH  15  16
ENDBRANCH  14  15
ENDBRANCH  13  14
ENDBRANCH   1  13
TORSDOF 20
ENDMDL
