MODEL 1
REMARK VINA RESULT:    -5.890      0.000      0.000
REMARK INTER + INTRA:          -7.214
REMARK INTER:                  -6.923
REMARK INTRA:                  -0.291
REMARK UNBOUND:                -0.291
REMARK SMILES O=c1cc(-c2ccc(O)c(O)c2)oc2cc(O)cc(O)c12
REMARK SMILES IDX 4 1 3 2 2 3 1 4 21 5 19 6 18 7 16 8 15 9 14 10 13 11 5 12
REMARK SMILES IDX 6 13 7 14 8 15 12 16 10 17 9 18 11 20 20 22 17 24
REMARK H PARENT 9 19 11 21 20 23 17 25
REMARK Flexibility Score: inf
ROOT
ATOM      1  C   UNL     1      12.713 -15.199  19.188  1.00  0.00     0.138 A 
ATOM      2  C   UNL     1      12.958 -16.335  18.405  1.00  0.00     0.100 A 
ATOM      3  C   UNL     1      12.946 -16.229  17.013  1.00  0.00     0.197 A 
ATOM      4  O   UNL     1      13.223 -17.254  16.339  1.00  0.00    -0.289 OA
ATOM      5  C   UNL     1      12.653 -14.986  16.404  1.00  0.00     0.107 A 
ATOM      6  C   UNL     1      12.578 -14.767  14.995  1.00  0.00     0.134 A 
ATOM      7  C   UNL     1      12.376 -13.468  14.509  1.00  0.00     0.093 A 
ATOM      8  C   UNL     1      12.188 -12.394  15.377  1.00  0.00     0.123 A 
ATOM      9  C   UNL     1      12.209 -12.605  16.756  1.00  0.00     0.094 A 
ATOM     10  C   UNL     1      12.442 -13.881  17.273  1.00  0.00     0.146 A 
ATOM     11  O   UNL     1      12.471 -14.036  18.592  1.00  0.00    -0.456 OA
ENDROOT
BRANCH   1  12
ATOM     12  C   UNL     1      12.711 -15.254  20.672  1.00  0.00     0.021 A 
ATOM     13  C   UNL     1      12.004 -14.280  21.398  1.00  0.00     0.016 A 
ATOM     14  C   UNL     1      11.991 -14.304  22.795  1.00  0.00     0.051 A 
ATOM     15  C   UNL     1      12.692 -15.297  23.491  1.00  0.00     0.157 A 
ATOM     16  C   UNL     1      13.425 -16.242  21.379  1.00  0.00     0.062 A 
ATOM     17  C   UNL     1      13.413 -16.264  22.782  1.00  0.00     0.158 A 
BRANCH  15  18
ATOM     18  O   UNL     1      12.680 -15.325  24.883  1.00  0.00    -0.504 OA
ATOM     19  H   UNL     1      12.385 -16.150  25.394  1.00  0.00     0.293 HD
ENDBRANCH  15  18
BRANCH  17  20
ATOM     20  O   UNL     1      14.118 -17.245  23.477  1.00  0.00    -0.504 OA
ATOM     21  H   UNL     1      14.804 -17.005  24.184  1.00  0.00     0.293 HD
ENDBRANCH  17  20
ENDBRANCH   1  12
BRANCH   6  22
ATOM     22  O   UNL     1      12.673 -15.781  14.038  1.00  0.00    -0.507 OA
ATOM     23  H   UNL     1      12.057 -16.577  13.973  1.00  0.00     0.293 HD
ENDBRANCH   6  22
BRANCH   8  24
ATOM     24  O   UNL     1      11.975 -11.119  14.856  1.00  0.00    -0.508 OA
ATOM     25  H   UNL     1      12.390 -10.297  15.280  1.00  0.00     0.293 HD
ENDBRANCH   8  24
TORSDOF 5
ENDMDL
MODEL 2
REMARK VINA RESULT:    -5.734     12.135     14.835
REMARK INTER + INTRA:          -7.031
REMARK INTER:                  -6.730
REMARK INTRA:                  -0.301
REMARK UNBOUND:                -0.291
REMARK SMILES O=c1cc(-c2ccc(O)c(O)c2)oc2cc(O)cc(O)c12
REMARK SMILES IDX 4 1 3 2 2 3 1 4 21 5 19 6 18 7 16 8 15 9 14 10 13 11 5 12
REMARK SMILES IDX 6 13 7 14 8 15 12 16 10 17 9 18 11 20 20 22 17 24
REMARK H PARENT 9 19 11 21 20 23 17 25
REMARK Flexibility Score: inf
ROOT
ATOM      1  C   UNL     1      16.035  -6.161   8.458  1.00  0.00     0.138 A 
ATOM      2  C   UNL     1      14.871  -5.833   7.750  1.00  0.00     0.100 A 
ATOM      3  C   UNL     1      14.403  -4.518   7.764  1.00  0.00     0.197 A 
ATOM      4  O   UNL     1      13.388  -4.242   7.074  1.00  0.00    -0.289 OA
ATOM      5  C   UNL     1      15.087  -3.535   8.520  1.00  0.00     0.107 A 
ATOM      6  C   UNL     1      14.683  -2.170   8.637  1.00  0.00     0.134 A 
ATOM      7  C   UNL     1      15.496  -1.268   9.335  1.00  0.00     0.093 A 
ATOM      8  C   UNL     1      16.664  -1.690   9.968  1.00  0.00     0.123 A 
ATOM      9  C   UNL     1      17.042  -3.032   9.903  1.00  0.00     0.094 A 
ATOM     10  C   UNL     1      16.271  -3.950   9.186  1.00  0.00     0.146 A 
ATOM     11  O   UNL     1      16.676  -5.215   9.134  1.00  0.00    -0.456 OA
ENDROOT
BRANCH   1  12
ATOM     12  C   UNL     1      16.575  -7.544   8.480  1.00  0.00     0.021 A 
ATOM     13  C   UNL     1      16.452  -8.352   7.335  1.00  0.00     0.016 A 
ATOM     14  C   UNL     1      16.945  -9.659   7.330  1.00  0.00     0.051 A 
ATOM     15  C   UNL     1      17.561 -10.185   8.472  1.00  0.00     0.157 A 
ATOM     16  C   UNL     1      17.184  -8.086   9.630  1.00  0.00     0.062 A 
ATOM     17  C   UNL     1      17.677  -9.400   9.624  1.00  0.00     0.158 A 
BRANCH  15  18
ATOM     18  O   UNL     1      18.055 -11.488   8.471  1.00  0.00    -0.504 OA
ATOM     19  H   UNL     1      18.854 -11.752   9.035  1.00  0.00     0.293 HD
ENDBRANCH  15  18
BRANCH  17  20
ATOM     20  O   UNL     1      18.281  -9.930  10.763  1.00  0.00    -0.504 OA
ATOM     21  H   UNL     1      17.862 -10.697  11.277  1.00  0.00     0.293 HD
ENDBRANCH  17  20
ENDBRANCH   1  12
BRANCH   6  22
ATOM     22  O   UNL     1      13.495  -1.657   8.110  1.00  0.00    -0.507 OA
ATOM     23  H   UNL     1      13.132  -0.733   8.289  1.00  0.00     0.293 HD
ENDBRANCH   6  22
BRANCH   8  24
ATOM     24  O   UNL     1      17.439  -0.767  10.667  1.00  0.00    -0.508 OA
ATOM     25  H   UNL     1      17.160   0.204  10.749  1.00  0.00     0.293 HD
ENDBRANCH   8  24
TORSDOF 5
ENDMDL
MODEL 3
REMARK VINA RESULT:    -5.678     11.859     15.530
REMARK INTER + INTRA:          -6.965
REMARK INTER:                  -6.702
REMARK INTRA:                  -0.263
REMARK UNBOUND:                -0.291
REMARK SMILES O=c1cc(-c2ccc(O)c(O)c2)oc2cc(O)cc(O)c12
REMARK SMILES IDX 4 1 3 2 2 3 1 4 21 5 19 6 18 7 16 8 15 9 14 10 13 11 5 12
REMARK SMILES IDX 6 13 7 14 8 15 12 16 10 17 9 18 11 20 20 22 17 24
REMARK H PARENT 9 19 11 21 20 23 17 25
REMARK Flexibility Score: inf
ROOT
ATOM      1  C   UNL     1      16.202  -5.657   7.858  1.00  0.00     0.138 A 
ATOM      2  C   UNL     1      15.668  -6.412   6.806  1.00  0.00     0.100 A 
ATOM      3  C   UNL     1      15.821  -7.800   6.805  1.00  0.00     0.197 A 
ATOM      4  O   UNL     1      15.283  -8.455   5.876  1.00  0.00    -0.289 OA
ATOM      5  C   UNL     1      16.545  -8.429   7.847  1.00  0.00     0.107 A 
ATOM      6  C   UNL     1      16.795  -9.832   7.932  1.00  0.00     0.134 A 
ATOM      7  C   UNL     1      17.440 -10.350   9.064  1.00  0.00     0.093 A 
ATOM      8  C   UNL     1      17.894  -9.512  10.082  1.00  0.00     0.123 A 
ATOM      9  C   UNL     1      17.700  -8.134   9.984  1.00  0.00     0.094 A 
ATOM     10  C   UNL     1      17.030  -7.590   8.886  1.00  0.00     0.146 A 
ATOM     11  O   UNL     1      16.849  -6.274   8.841  1.00  0.00    -0.456 OA
ENDROOT
BRANCH   1  12
ATOM     12  C   UNL     1      16.070  -4.179   7.908  1.00  0.00     0.021 A 
ATOM     13  C   UNL     1      15.272  -3.590   8.905  1.00  0.00     0.016 A 
ATOM     14  C   UNL     1      15.125  -2.203   8.971  1.00  0.00     0.051 A 
ATOM     15  C   UNL     1      15.765  -1.379   8.037  1.00  0.00     0.157 A 
ATOM     16  C   UNL     1      16.700  -3.345   6.963  1.00  0.00     0.062 A 
ATOM     17  C   UNL     1      16.550  -1.951   7.029  1.00  0.00     0.158 A 
BRANCH  15  18
ATOM     18  O   UNL     1      15.622   0.005   8.100  1.00  0.00    -0.504 OA
ATOM     19  H   UNL     1      16.405   0.609   8.321  1.00  0.00     0.293 HD
ENDBRANCH  15  18
BRANCH  17  20
ATOM     20  O   UNL     1      17.177  -1.130   6.093  1.00  0.00    -0.504 OA
ATOM     21  H   UNL     1      17.994  -0.580   6.333  1.00  0.00     0.293 HD
ENDBRANCH  17  20
ENDBRANCH   1  12
BRANCH   6  22
ATOM     22  O   UNL     1      16.455 -10.751   6.936  1.00  0.00    -0.507 OA
ATOM     23  H   UNL     1      15.577 -10.770   6.439  1.00  0.00     0.293 HD
ENDBRANCH   6  22
BRANCH   8  24
ATOM     24  O   UNL     1      18.546 -10.062  11.184  1.00  0.00    -0.508 OA
ATOM     25  H   UNL     1      19.316  -9.584  11.637  1.00  0.00     0.293 HD
ENDBRANCH   8  24
TORSDOF 5
ENDMDL
MODEL 4
REMARK VINA RESULT:    -5.632      1.849      7.629
REMARK INTER + INTRA:          -6.911
REMARK INTER:                  -6.619
REMARK INTRA:                  -0.291
REMARK UNBOUND:                -0.291
REMARK SMILES O=c1cc(-c2ccc(O)c(O)c2)oc2cc(O)cc(O)c12
REMARK SMILES IDX 4 1 3 2 2 3 1 4 21 5 19 6 18 7 16 8 15 9 14 10 13 11 5 12
REMARK SMILES IDX 6 13 7 14 8 15 12 16 10 17 9 18 11 20 20 22 17 24
REMARK H PARENT 9 19 11 21 20 23 17 25
REMARK Flexibility Score: inf
ROOT
ATOM      1  C   UNL     1      13.174 -15.882  19.794  1.00  0.00     0.138 A 
ATOM      2  C   UNL     1      13.697 -14.871  20.611  1.00  0.00     0.100 A 
ATOM      3  C   UNL     1      13.749 -15.059  21.994  1.00  0.00     0.197 A 
ATOM      4  O   UNL     1      14.275 -14.156  22.695  1.00  0.00    -0.289 OA
ATOM      5  C   UNL     1      13.243 -16.253  22.562  1.00  0.00     0.107 A 
ATOM      6  C   UNL     1      13.212 -16.540  23.960  1.00  0.00     0.134 A 
ATOM      7  C   UNL     1      12.776 -17.798  24.396  1.00  0.00     0.093 A 
ATOM      8  C   UNL     1      12.317 -18.755  23.493  1.00  0.00     0.123 A 
ATOM      9  C   UNL     1      12.295 -18.467  22.128  1.00  0.00     0.094 A 
ATOM     10  C   UNL     1      12.756 -17.234  21.658  1.00  0.00     0.146 A 
ATOM     11  O   UNL     1      12.735 -17.007  20.349  1.00  0.00    -0.456 OA
ENDROOT
BRANCH   1  12
ATOM     12  C   UNL     1      13.092 -15.734  18.319  1.00  0.00     0.021 A 
ATOM     13  C   UNL     1      13.026 -16.884  17.513  1.00  0.00     0.016 A 
ATOM     14  C   UNL     1      12.954 -16.775  16.122  1.00  0.00     0.051 A 
ATOM     15  C   UNL     1      12.959 -15.514  15.512  1.00  0.00     0.157 A 
ATOM     16  C   UNL     1      13.110 -14.470  17.697  1.00  0.00     0.062 A 
ATOM     17  C   UNL     1      13.041 -14.361  16.300  1.00  0.00     0.158 A 
BRANCH  15  18
ATOM     18  O   UNL     1      12.887 -15.401  14.125  1.00  0.00    -0.504 OA
ATOM     19  H   UNL     1      13.386 -14.674  13.626  1.00  0.00     0.293 HD
ENDBRANCH  15  18
BRANCH  17  20
ATOM     20  O   UNL     1      13.057 -13.108  15.690  1.00  0.00    -0.504 OA
ATOM     21  H   UNL     1      12.532 -12.327  16.067  1.00  0.00     0.293 HD
ENDBRANCH  17  20
ENDBRANCH   1  12
BRANCH   6  22
ATOM     22  O   UNL     1      13.574 -15.628  24.955  1.00  0.00    -0.507 OA
ATOM     23  H   UNL     1      14.499 -15.534  25.348  1.00  0.00     0.293 HD
ENDBRANCH   6  22
BRANCH   8  24
ATOM     24  O   UNL     1      11.876 -19.990  23.965  1.00  0.00    -0.508 OA
ATOM     25  H   UNL     1      10.889 -20.204  24.047  1.00  0.00     0.293 HD
ENDBRANCH   8  24
TORSDOF 5
ENDMDL
MODEL 5
REMARK VINA RESULT:    -5.475     12.207     15.603
REMARK INTER + INTRA:          -6.726
REMARK INTER:                  -6.462
REMARK INTRA:                  -0.263
REMARK UNBOUND:                -0.291
REMARK SMILES O=c1cc(-c2ccc(O)c(O)c2)oc2cc(O)cc(O)c12
REMARK SMILES IDX 4 1 3 2 2 3 1 4 21 5 19 6 18 7 16 8 15 9 14 10 13 11 5 12
REMARK SMILES IDX 6 13 7 14 8 15 12 16 10 17 9 18 11 20 20 22 17 24
REMARK H PARENT 9 19 11 21 20 23 17 25
REMARK Flexibility Score: inf
ROOT
ATOM      1  C   UNL     1      16.617  -5.174   8.539  1.00  0.00     0.138 A 
ATOM      2  C   UNL     1      17.831  -5.432   9.189  1.00  0.00     0.100 A 
ATOM      3  C   UNL     1      18.203  -6.750   9.459  1.00  0.00     0.197 A 
ATOM      4  O   UNL     1      19.323  -6.952   9.995  1.00  0.00    -0.289 OA
ATOM      5  C   UNL     1      17.337  -7.812   9.106  1.00  0.00     0.107 A 
ATOM      6  C   UNL     1      17.594  -9.193   9.363  1.00  0.00     0.134 A 
ATOM      7  C   UNL     1      16.706 -10.162   8.877  1.00  0.00     0.093 A 
ATOM      8  C   UNL     1      15.543  -9.800   8.199  1.00  0.00     0.123 A 
ATOM      9  C   UNL     1      15.256  -8.452   7.986  1.00  0.00     0.094 A 
ATOM     10  C   UNL     1      16.139  -7.462   8.427  1.00  0.00     0.146 A 
ATOM     11  O   UNL     1      15.836  -6.190   8.189  1.00  0.00    -0.456 OA
ENDROOT
BRANCH   1  12
ATOM     12  C   UNL     1      16.171  -3.792   8.230  1.00  0.00     0.021 A 
ATOM     13  C   UNL     1      15.122  -3.223   8.973  1.00  0.00     0.016 A 
ATOM     14  C   UNL     1      14.678  -1.926   8.699  1.00  0.00     0.051 A 
ATOM     15  C   UNL     1      15.267  -1.181   7.671  1.00  0.00     0.157 A 
ATOM     16  C   UNL     1      16.751  -3.040   7.188  1.00  0.00     0.062 A 
ATOM     17  C   UNL     1      16.302  -1.739   6.912  1.00  0.00     0.158 A 
BRANCH  15  18
ATOM     18  O   UNL     1      14.828   0.113   7.396  1.00  0.00    -0.504 OA
ATOM     19  H   UNL     1      14.054   0.528   7.900  1.00  0.00     0.293 HD
ENDBRANCH  15  18
BRANCH  17  20
ATOM     20  O   UNL     1      16.880  -0.999   5.882  1.00  0.00    -0.504 OA
ATOM     21  H   UNL     1      16.756  -1.256   4.910  1.00  0.00     0.293 HD
ENDBRANCH  17  20
ENDBRANCH   1  12
BRANCH   6  22
ATOM     22  O   UNL     1      18.685  -9.663  10.099  1.00  0.00    -0.507 OA
ATOM     23  H   UNL     1      18.667  -9.890  11.082  1.00  0.00     0.293 HD
ENDBRANCH   6  22
BRANCH   8  24
ATOM     24  O   UNL     1      14.676 -10.792   7.745  1.00  0.00    -0.508 OA
ATOM     25  H   UNL     1      14.387 -10.839   6.775  1.00  0.00     0.293 HD
ENDBRANCH   8  24
TORSDOF 5
ENDMDL
MODEL 6
REMARK VINA RESULT:    -5.399     12.125     14.926
REMARK INTER + INTRA:          -6.637
REMARK INTER:                  -6.352
REMARK INTRA:                  -0.285
REMARK UNBOUND:                -0.291
REMARK SMILES O=c1cc(-c2ccc(O)c(O)c2)oc2cc(O)cc(O)c12
REMARK SMILES IDX 4 1 3 2 2 3 1 4 21 5 19 6 18 7 16 8 15 9 14 10 13 11 5 12
REMARK SMILES IDX 6 13 7 14 8 15 12 16 10 17 9 18 11 20 20 22 17 24
REMARK H PARENT 9 19 11 21 20 23 17 25
REMARK Flexibility Score: inf
ROOT
ATOM      1  C   UNL     1      16.280  -6.038   8.529  1.00  0.00     0.138 A 
ATOM      2  C   UNL     1      16.968  -5.052   9.248  1.00  0.00     0.100 A 
ATOM      3  C   UNL     1      16.515  -3.732   9.214  1.00  0.00     0.197 A 
ATOM      4  O   UNL     1      17.121  -2.879   9.913  1.00  0.00    -0.289 OA
ATOM      5  C   UNL     1      15.387  -3.394   8.428  1.00  0.00     0.107 A 
ATOM      6  C   UNL     1      14.856  -2.076   8.290  1.00  0.00     0.134 A 
ATOM      7  C   UNL     1      13.675  -1.881   7.561  1.00  0.00     0.093 A 
ATOM      8  C   UNL     1      13.040  -2.944   6.919  1.00  0.00     0.123 A 
ATOM      9  C   UNL     1      13.578  -4.227   7.006  1.00  0.00     0.094 A 
ATOM     10  C   UNL     1      14.735  -4.461   7.753  1.00  0.00     0.146 A 
ATOM     11  O   UNL     1      15.205  -5.702   7.825  1.00  0.00    -0.456 OA
ENDROOT
BRANCH   1  12
ATOM     12  C   UNL     1      16.719  -7.457   8.528  1.00  0.00     0.021 A 
ATOM     13  C   UNL     1      16.526  -8.238   7.375  1.00  0.00     0.016 A 
ATOM     14  C   UNL     1      16.924  -9.577   7.347  1.00  0.00     0.051 A 
ATOM     15  C   UNL     1      17.512 -10.161   8.476  1.00  0.00     0.157 A 
ATOM     16  C   UNL     1      17.299  -8.056   9.664  1.00  0.00     0.062 A 
ATOM     17  C   UNL     1      17.696  -9.402   9.636  1.00  0.00     0.158 A 
BRANCH  15  18
ATOM     18  O   UNL     1      17.911 -11.496   8.452  1.00  0.00    -0.504 OA
ATOM     19  H   UNL     1      18.742 -11.792   7.953  1.00  0.00     0.293 HD
ENDBRANCH  15  18
BRANCH  17  20
ATOM     20  O   UNL     1      18.271  -9.989  10.761  1.00  0.00    -0.504 OA
ATOM     21  H   UNL     1      18.039 -10.934  11.044  1.00  0.00     0.293 HD
ENDBRANCH  17  20
ENDBRANCH   1  12
BRANCH   6  22
ATOM     22  O   UNL     1      15.452  -0.930   8.824  1.00  0.00    -0.507 OA
ATOM     23  H   UNL     1      14.972  -0.067   9.028  1.00  0.00     0.293 HD
ENDBRANCH   6  22
BRANCH   8  24
ATOM     24  O   UNL     1      11.876  -2.709   6.190  1.00  0.00    -0.508 OA
ATOM     25  H   UNL     1      11.373  -3.463   5.738  1.00  0.00     0.293 HD
ENDBRANCH   8  24
TORSDOF 5
ENDMDL
MODEL 7
REMARK VINA RESULT:    -5.372     12.159     13.709
REMARK INTER + INTRA:          -6.605
REMARK INTER:                  -6.328
REMARK INTRA:                  -0.277
REMARK UNBOUND:                -0.291
REMARK SMILES O=c1cc(-c2ccc(O)c(O)c2)oc2cc(O)cc(O)c12
REMARK SMILES IDX 4 1 3 2 2 3 1 4 21 5 19 6 18 7 16 8 15 9 14 10 13 11 5 12
REMARK SMILES IDX 6 13 7 14 8 15 12 16 10 17 9 18 11 20 20 22 17 24
REMARK H PARENT 9 19 11 21 20 23 17 25
REMARK Flexibility Score: inf
ROOT
ATOM      1  C   UNL     1      16.232  -9.779   8.098  1.00  0.00     0.138 A 
ATOM      2  C   UNL     1      17.091  -9.750   9.205  1.00  0.00     0.100 A 
ATOM      3  C   UNL     1      17.678  -8.544   9.592  1.00  0.00     0.197 A 
ATOM      4  O   UNL     1      18.401  -8.540  10.622  1.00  0.00    -0.289 OA
ATOM      5  C   UNL     1      17.430  -7.368   8.843  1.00  0.00     0.107 A 
ATOM      6  C   UNL     1      18.001  -6.089   9.122  1.00  0.00     0.134 A 
ATOM      7  C   UNL     1      17.603  -4.977   8.369  1.00  0.00     0.093 A 
ATOM      8  C   UNL     1      16.703  -5.107   7.312  1.00  0.00     0.123 A 
ATOM      9  C   UNL     1      16.177  -6.360   6.999  1.00  0.00     0.094 A 
ATOM     10  C   UNL     1      16.527  -7.483   7.752  1.00  0.00     0.146 A 
ATOM     11  O   UNL     1      15.990  -8.655   7.431  1.00  0.00    -0.456 OA
ENDROOT
BRANCH   1  12
ATOM     12  C   UNL     1      15.583 -11.034   7.642  1.00  0.00     0.021 A 
ATOM     13  C   UNL     1      14.210 -11.029   7.336  1.00  0.00     0.016 A 
ATOM     14  C   UNL     1      13.572 -12.197   6.911  1.00  0.00     0.051 A 
ATOM     15  C   UNL     1      14.292 -13.392   6.794  1.00  0.00     0.157 A 
ATOM     16  C   UNL     1      16.298 -12.243   7.535  1.00  0.00     0.062 A 
ATOM     17  C   UNL     1      15.655 -13.416   7.110  1.00  0.00     0.158 A 
BRANCH  15  18
ATOM     18  O   UNL     1      13.660 -14.559   6.369  1.00  0.00    -0.504 OA
ATOM     19  H   UNL     1      13.091 -15.113   6.999  1.00  0.00     0.293 HD
ENDBRANCH  15  18
BRANCH  17  20
ATOM     20  O   UNL     1      16.367 -14.610   7.003  1.00  0.00    -0.504 OA
ATOM     21  H   UNL     1      16.572 -15.027   6.102  1.00  0.00     0.293 HD
ENDBRANCH  17  20
ENDBRANCH   1  12
BRANCH   6  22
ATOM     22  O   UNL     1      18.969  -5.861  10.104  1.00  0.00    -0.507 OA
ATOM     23  H   UNL     1      18.960  -6.256  11.032  1.00  0.00     0.293 HD
ENDBRANCH   6  22
BRANCH   8  24
ATOM     24  O   UNL     1      16.343  -3.980   6.575  1.00  0.00    -0.508 OA
ATOM     25  H   UNL     1      16.346  -3.987   5.562  1.00  0.00     0.293 HD
ENDBRANCH   8  24
TORSDOF 5
ENDMDL
MODEL 8
REMARK VINA RESULT:    -5.319     12.611     13.813
REMARK INTER + INTRA:          -6.542
REMARK INTER:                  -6.244
REMARK INTRA:                  -0.298
REMARK UNBOUND:                -0.291
REMARK SMILES O=c1cc(-c2ccc(O)c(O)c2)oc2cc(O)cc(O)c12
REMARK SMILES IDX 4 1 3 2 2 3 1 4 21 5 19 6 18 7 16 8 15 9 14 10 13 11 5 12
REMARK SMILES IDX 6 13 7 14 8 15 12 16 10 17 9 18 11 20 20 22 17 24
REMARK H PARENT 9 19 11 21 20 23 17 25
REMARK Flexibility Score: inf
ROOT
ATOM      1  C   UNL     1      16.438  -9.401   7.828  1.00  0.00     0.138 A 
ATOM      2  C   UNL     1      15.171  -9.998   7.804  1.00  0.00     0.100 A 
ATOM      3  C   UNL     1      15.042 -11.329   7.401  1.00  0.00     0.197 A 
ATOM      4  O   UNL     1      13.900 -11.853   7.443  1.00  0.00    -0.289 OA
ATOM      5  C   UNL     1      16.186 -12.052   6.987  1.00  0.00     0.107 A 
ATOM      6  C   UNL     1      16.172 -13.403   6.522  1.00  0.00     0.134 A 
ATOM      7  C   UNL     1      17.382 -14.045   6.232  1.00  0.00     0.093 A 
ATOM      8  C   UNL     1      18.599 -13.371   6.332  1.00  0.00     0.123 A 
ATOM      9  C   UNL     1      18.620 -12.036   6.736  1.00  0.00     0.094 A 
ATOM     10  C   UNL     1      17.434 -11.377   7.066  1.00  0.00     0.146 A 
ATOM     11  O   UNL     1      17.500 -10.111   7.464  1.00  0.00    -0.456 OA
ENDROOT
BRANCH   1  12
ATOM     12  C   UNL     1      16.632  -7.989   8.245  1.00  0.00     0.021 A 
ATOM     13  C   UNL     1      15.698  -7.017   7.846  1.00  0.00     0.016 A 
ATOM     14  C   UNL     1      15.859  -5.680   8.219  1.00  0.00     0.051 A 
ATOM     15  C   UNL     1      16.962  -5.290   8.987  1.00  0.00     0.157 A 
ATOM     16  C   UNL     1      17.747  -7.586   9.007  1.00  0.00     0.062 A 
ATOM     17  C   UNL     1      17.909  -6.243   9.378  1.00  0.00     0.158 A 
BRANCH  15  18
ATOM     18  O   UNL     1      17.125  -3.958   9.362  1.00  0.00    -0.504 OA
ATOM     19  H   UNL     1      17.340  -3.699  10.318  1.00  0.00     0.293 HD
ENDBRANCH  15  18
BRANCH  17  20
ATOM     20  O   UNL     1      19.012  -5.850  10.134  1.00  0.00    -0.504 OA
ATOM     21  H   UNL     1      19.960  -6.003   9.810  1.00  0.00     0.293 HD
ENDBRANCH  17  20
ENDBRANCH   1  12
BRANCH   6  22
ATOM     22  O   UNL     1      15.007 -14.146   6.310  1.00  0.00    -0.507 OA
ATOM     23  H   UNL     1      14.799 -15.035   6.740  1.00  0.00     0.293 HD
ENDBRANCH   6  22
BRANCH   8  24
ATOM     24  O   UNL     1      19.782 -14.039   6.020  1.00  0.00    -0.508 OA
ATOM     25  H   UNL     1      20.138 -14.068   5.072  1.00  0.00     0.293 HD
ENDBRANCH   8  24
TORSDOF 5
ENDMDL
MODEL 9
REMARK VINA RESULT:    -5.095     12.265     13.454
REMARK INTER + INTRA:          -6.279
REMARK INTER:                  -5.996
REMARK INTRA:                  -0.283
REMARK UNBOUND:                -0.291
REMARK SMILES O=c1cc(-c2ccc(O)c(O)c2)oc2cc(O)cc(O)c12
REMARK SMILES IDX 4 1 3 2 2 3 1 4 21 5 19 6 18 7 16 8 15 9 14 10 13 11 5 12
REMARK SMILES IDX 6 13 7 14 8 15 12 16 10 17 9 18 11 20 20 22 17 24
REMARK H PARENT 9 19 11 21 20 23 17 25
REMARK Flexibility Score: inf
ROOT
ATOM      1  C   UNL     1      16.414  -9.268   7.947  1.00  0.00     0.138 A 
ATOM      2  C   UNL     1      17.526 -10.074   7.669  1.00  0.00     0.100 A 
ATOM      3  C   UNL     1      17.340 -11.421   7.354  1.00  0.00     0.197 A 
ATOM      4  O   UNL     1      18.352 -12.106   7.056  1.00  0.00    -0.289 OA
ATOM      5  C   UNL     1      16.035 -11.970   7.352  1.00  0.00     0.107 A 
ATOM      6  C   UNL     1      15.727 -13.338   7.080  1.00  0.00     0.134 A 
ATOM      7  C   UNL     1      14.387 -13.742   7.010  1.00  0.00     0.093 A 
ATOM      8  C   UNL     1      13.349 -12.845   7.260  1.00  0.00     0.123 A 
ATOM      9  C   UNL     1      13.640 -11.518   7.576  1.00  0.00     0.094 A 
ATOM     10  C   UNL     1      14.964 -11.075   7.620  1.00  0.00     0.146 A 
ATOM     11  O   UNL     1      15.197  -9.799   7.908  1.00  0.00    -0.456 OA
ENDROOT
BRANCH   1  12
ATOM     12  C   UNL     1      16.555  -7.830   8.291  1.00  0.00     0.021 A 
ATOM     13  C   UNL     1      15.607  -6.910   7.811  1.00  0.00     0.016 A 
ATOM     14  C   UNL     1      15.718  -5.550   8.113  1.00  0.00     0.051 A 
ATOM     15  C   UNL     1      16.785  -5.085   8.891  1.00  0.00     0.157 A 
ATOM     16  C   UNL     1      17.633  -7.353   9.063  1.00  0.00     0.062 A 
ATOM     17  C   UNL     1      17.746  -5.987   9.363  1.00  0.00     0.158 A 
BRANCH  15  18
ATOM     18  O   UNL     1      16.899  -3.731   9.196  1.00  0.00    -0.504 OA
ATOM     19  H   UNL     1      17.283  -3.069   8.532  1.00  0.00     0.293 HD
ENDBRANCH  15  18
BRANCH  17  20
ATOM     20  O   UNL     1      18.812  -5.520  10.129  1.00  0.00    -0.504 OA
ATOM     21  H   UNL     1      19.705  -5.999  10.144  1.00  0.00     0.293 HD
ENDBRANCH  17  20
ENDBRANCH   1  12
BRANCH   6  22
ATOM     22  O   UNL     1      16.687 -14.335   6.893  1.00  0.00    -0.507 OA
ATOM     23  H   UNL     1      16.865 -14.815   6.023  1.00  0.00     0.293 HD
ENDBRANCH   6  22
BRANCH   8  24
ATOM     24  O   UNL     1      12.029 -13.288   7.197  1.00  0.00    -0.508 OA
ATOM     25  H   UNL     1      11.605 -13.801   7.962  1.00  0.00     0.293 HD
ENDBRANCH   8  24
TORSDOF 5
ENDMDL
