MODEL 1
REMARK VINA RESULT:    -8.484      0.000      0.000
REMARK INTER + INTRA:         -10.250
REMARK INTER:                 -10.220
REMARK INTRA:                  -0.029
REMARK UNBOUND:                -0.029
REMARK SMILES O=c1c(O)c(-c2ccc(O)c(O)c2)oc2cc(O)cc(O)c12
REMARK SMILES IDX 5 1 3 2 2 3 1 4 22 5 20 6 19 7 17 8 16 9 15 10 14 11 6 12
REMARK SMILES IDX 7 13 8 14 9 15 13 16 11 17 10 18 12 20 4 22 21 24 18 26
REMARK H PARENT 10 19 12 21 4 23 21 25 18 27
REMARK Flexibility Score: inf
ROOT
ATOM      1  C   UNL     1      21.425   3.525  27.368  1.00  0.00     0.180 A 
ATOM      2  C   UNL     1      21.414   3.924  26.020  1.00  0.00     0.208 A 
ATOM      3  C   UNL     1      20.732   3.135  25.081  1.00  0.00     0.238 A 
ATOM      4  O   UNL     1      20.773   3.468  23.867  1.00  0.00    -0.285 OA
ATOM      5  C   UNL     1      20.057   1.964  25.503  1.00  0.00     0.111 A 
ATOM      6  C   UNL     1      19.301   1.110  24.644  1.00  0.00     0.134 A 
ATOM      7  C   UNL     1      18.783  -0.090  25.145  1.00  0.00     0.093 A 
ATOM      8  C   UNL     1      18.938  -0.437  26.487  1.00  0.00     0.123 A 
ATOM      9  C   UNL     1      19.624   0.419  27.349  1.00  0.00     0.094 A 
ATOM     10  C   UNL     1      20.183   1.607  26.871  1.00  0.00     0.146 A 
ATOM     11  O   UNL     1      20.836   2.388  27.721  1.00  0.00    -0.452 OA
ENDROOT
BRANCH   1  12
ATOM     12  C   UNL     1      22.100   4.319  28.419  1.00  0.00     0.025 A 
ATOM     13  C   UNL     1      21.789   5.681  28.563  1.00  0.00     0.016 A 
ATOM     14  C   UNL     1      22.429   6.455  29.535  1.00  0.00     0.051 A 
ATOM     15  C   UNL     1      23.399   5.881  30.367  1.00  0.00     0.157 A 
ATOM     16  C   UNL     1      23.089   3.753  29.244  1.00  0.00     0.062 A 
ATOM     17  C   UNL     1      23.732   4.529  30.218  1.00  0.00     0.158 A 
BRANCH  15  18
ATOM     18  O   UNL     1      24.038   6.648  31.340  1.00  0.00    -0.504 OA
ATOM     19  H   UNL     1      24.836   6.295  31.854  1.00  0.00     0.293 HD
ENDBRANCH  15  18
BRANCH  17  20
ATOM     20  O   UNL     1      24.708   3.965  31.039  1.00  0.00    -0.504 OA
ATOM     21  H   UNL     1      25.206   3.124  30.769  1.00  0.00     0.293 HD
ENDBRANCH  17  20
ENDBRANCH   1  12
BRANCH   2  22
ATOM     22  O   UNL     1      22.106   5.072  25.622  1.00  0.00    -0.502 OA
ATOM     23  H   UNL     1      22.994   5.339  26.027  1.00  0.00     0.293 HD
ENDBRANCH   2  22
BRANCH   6  24
ATOM     24  O   UNL     1      19.008   1.407  23.310  1.00  0.00    -0.507 OA
ATOM     25  H   UNL     1      18.083   1.399  22.908  1.00  0.00     0.293 HD
ENDBRANCH   6  24
BRANCH   8  26
ATOM     26  O   UNL     1      18.396  -1.633  26.955  1.00  0.00    -0.508 OA
ATOM     27  H   UNL     1      17.412  -1.847  26.848  1.00  0.00     0.293 HD
ENDBRANCH   8  26
TORSDOF 6
ENDMDL
MODEL 2
REMARK VINA RESULT:    -7.796      1.680      1.726
REMARK INTER + INTRA:          -9.420
REMARK INTER:                  -9.275
REMARK INTRA:                  -0.145
REMARK UNBOUND:                -0.029
REMARK SMILES O=c1c(O)c(-c2ccc(O)c(O)c2)oc2cc(O)cc(O)c12
REMARK SMILES IDX 5 1 3 2 2 3 1 4 22 5 20 6 19 7 17 8 16 9 15 10 14 11 6 12
REMARK SMILES IDX 7 13 8 14 9 15 13 16 11 17 10 18 12 20 4 22 21 24 18 26
REMARK H PARENT 10 19 12 21 4 23 21 25 18 27
REMARK Flexibility Score: inf
ROOT
ATOM      1  C   UNL     1      21.516   2.565  27.657  1.00  0.00     0.180 A 
ATOM      2  C   UNL     1      22.262   1.880  26.682  1.00  0.00     0.208 A 
ATOM      3  C   UNL     1      21.622   0.918  25.886  1.00  0.00     0.238 A 
ATOM      4  O   UNL     1      22.309   0.269  25.053  1.00  0.00    -0.285 OA
ATOM      5  C   UNL     1      20.241   0.661  26.063  1.00  0.00     0.111 A 
ATOM      6  C   UNL     1      19.482  -0.264  25.284  1.00  0.00     0.134 A 
ATOM      7  C   UNL     1      18.152  -0.531  25.633  1.00  0.00     0.093 A 
ATOM      8  C   UNL     1      17.535   0.140  26.688  1.00  0.00     0.123 A 
ATOM      9  C   UNL     1      18.250   1.090  27.417  1.00  0.00     0.094 A 
ATOM     10  C   UNL     1      19.590   1.353  27.117  1.00  0.00     0.146 A 
ATOM     11  O   UNL     1      20.237   2.256  27.842  1.00  0.00    -0.452 OA
ENDROOT
BRANCH   1  12
ATOM     12  C   UNL     1      22.113   3.611  28.516  1.00  0.00     0.025 A 
ATOM     13  C   UNL     1      21.684   4.942  28.384  1.00  0.00     0.016 A 
ATOM     14  C   UNL     1      22.249   5.950  29.170  1.00  0.00     0.051 A 
ATOM     15  C   UNL     1      23.262   5.643  30.089  1.00  0.00     0.157 A 
ATOM     16  C   UNL     1      23.145   3.313  29.425  1.00  0.00     0.062 A 
ATOM     17  C   UNL     1      23.713   4.323  30.213  1.00  0.00     0.158 A 
BRANCH  15  18
ATOM     18  O   UNL     1      23.827   6.645  30.877  1.00  0.00    -0.504 OA
ATOM     19  H   UNL     1      23.667   6.686  31.876  1.00  0.00     0.293 HD
ENDBRANCH  15  18
BRANCH  17  20
ATOM     20  O   UNL     1      24.731   4.024  31.118  1.00  0.00    -0.504 OA
ATOM     21  H   UNL     1      25.623   3.655  30.809  1.00  0.00     0.293 HD
ENDBRANCH  17  20
ENDBRANCH   1  12
BRANCH   2  22
ATOM     22  O   UNL     1      23.629   2.132  26.539  1.00  0.00    -0.502 OA
ATOM     23  H   UNL     1      24.201   2.475  27.301  1.00  0.00     0.293 HD
ENDBRANCH   2  22
BRANCH   6  24
ATOM     24  O   UNL     1      19.974  -0.920  24.153  1.00  0.00    -0.507 OA
ATOM     25  H   UNL     1      19.603  -0.816  23.221  1.00  0.00     0.293 HD
ENDBRANCH   6  24
BRANCH   8  26
ATOM     26  O   UNL     1      16.205  -0.140  26.997  1.00  0.00    -0.508 OA
ATOM     27  H   UNL     1      15.947  -0.957  27.537  1.00  0.00     0.293 HD
ENDBRANCH   8  26
TORSDOF 6
ENDMDL
MODEL 3
REMARK VINA RESULT:    -7.725      1.505      2.902
REMARK INTER + INTRA:          -9.334
REMARK INTER:                  -9.011
REMARK INTRA:                  -0.323
REMARK UNBOUND:                -0.029
REMARK SMILES O=c1c(O)c(-c2ccc(O)c(O)c2)oc2cc(O)cc(O)c12
REMARK SMILES IDX 5 1 3 2 2 3 1 4 22 5 20 6 19 7 17 8 16 9 15 10 14 11 6 12
REMARK SMILES IDX 7 13 8 14 9 15 13 16 11 17 10 18 12 20 4 22 21 24 18 26
REMARK H PARENT 10 19 12 21 4 23 21 25 18 27
REMARK Flexibility Score: inf
ROOT
ATOM      1  C   UNL     1      21.476   3.665  27.195  1.00  0.00     0.180 A 
ATOM      2  C   UNL     1      20.201   3.094  27.345  1.00  0.00     0.208 A 
ATOM      3  C   UNL     1      19.647   2.373  26.276  1.00  0.00     0.238 A 
ATOM      4  O   UNL     1      18.481   1.911  26.397  1.00  0.00    -0.285 OA
ATOM      5  C   UNL     1      20.380   2.218  25.074  1.00  0.00     0.111 A 
ATOM      6  C   UNL     1      19.933   1.474  23.941  1.00  0.00     0.134 A 
ATOM      7  C   UNL     1      20.685   1.496  22.760  1.00  0.00     0.093 A 
ATOM      8  C   UNL     1      21.897   2.181  22.691  1.00  0.00     0.123 A 
ATOM      9  C   UNL     1      22.373   2.863  23.812  1.00  0.00     0.094 A 
ATOM     10  C   UNL     1      21.628   2.888  24.994  1.00  0.00     0.146 A 
ATOM     11  O   UNL     1      22.112   3.557  26.033  1.00  0.00    -0.452 OA
ENDROOT
BRANCH   1  12
ATOM     12  C   UNL     1      22.136   4.417  28.285  1.00  0.00     0.025 A 
ATOM     13  C   UNL     1      21.912   5.798  28.406  1.00  0.00     0.016 A 
ATOM     14  C   UNL     1      22.542   6.532  29.415  1.00  0.00     0.051 A 
ATOM     15  C   UNL     1      23.416   5.898  30.309  1.00  0.00     0.157 A 
ATOM     16  C   UNL     1      23.030   3.789  29.172  1.00  0.00     0.062 A 
ATOM     17  C   UNL     1      23.663   4.525  30.183  1.00  0.00     0.158 A 
BRANCH  15  18
ATOM     18  O   UNL     1      24.044   6.625  31.318  1.00  0.00    -0.504 OA
ATOM     19  H   UNL     1      24.357   7.577  31.168  1.00  0.00     0.293 HD
ENDBRANCH  15  18
BRANCH  17  20
ATOM     20  O   UNL     1      24.544   3.900  31.065  1.00  0.00    -0.504 OA
ATOM     21  H   UNL     1      25.540   4.085  31.039  1.00  0.00     0.293 HD
ENDBRANCH  17  20
ENDBRANCH   1  12
BRANCH   2  22
ATOM     22  O   UNL     1      19.484   3.278  28.531  1.00  0.00    -0.502 OA
ATOM     23  H   UNL     1      19.892   3.707  29.352  1.00  0.00     0.293 HD
ENDBRANCH   2  22
BRANCH   6  24
ATOM     24  O   UNL     1      18.782   0.681  23.934  1.00  0.00    -0.507 OA
ATOM     25  H   UNL     1      18.762  -0.301  23.701  1.00  0.00     0.293 HD
ENDBRANCH   6  24
BRANCH   8  26
ATOM     26  O   UNL     1      22.627   2.169  21.504  1.00  0.00    -0.508 OA
ATOM     27  H   UNL     1      22.933   1.303  21.078  1.00  0.00     0.293 HD
ENDBRANCH   8  26
TORSDOF 6
ENDMDL
MODEL 4
REMARK VINA RESULT:    -7.648     12.915     14.815
REMARK INTER + INTRA:          -9.243
REMARK INTER:                  -9.229
REMARK INTRA:                  -0.013
REMARK UNBOUND:                -0.029
REMARK SMILES O=c1c(O)c(-c2ccc(O)c(O)c2)oc2cc(O)cc(O)c12
REMARK SMILES IDX 5 1 3 2 2 3 1 4 22 5 20 6 19 7 17 8 16 9 15 10 14 11 6 12
REMARK SMILES IDX 7 13 8 14 9 15 13 16 11 17 10 18 12 20 4 22 21 24 18 26
REMARK H PARENT 10 19 12 21 4 23 21 25 18 27
REMARK Flexibility Score: inf
ROOT
ATOM      1  C   UNL     1       8.109   5.720  28.290  1.00  0.00     0.180 A 
ATOM      2  C   UNL     1       7.735   4.392  28.556  1.00  0.00     0.208 A 
ATOM      3  C   UNL     1       8.006   3.848  29.821  1.00  0.00     0.238 A 
ATOM      4  O   UNL     1       7.718   2.641  30.035  1.00  0.00    -0.285 OA
ATOM      5  C   UNL     1       8.635   4.643  30.810  1.00  0.00     0.111 A 
ATOM      6  C   UNL     1       8.921   4.207  32.139  1.00  0.00     0.134 A 
ATOM      7  C   UNL     1       9.662   5.034  32.992  1.00  0.00     0.093 A 
ATOM      8  C   UNL     1      10.071   6.304  32.588  1.00  0.00     0.123 A 
ATOM      9  C   UNL     1       9.744   6.764  31.311  1.00  0.00     0.094 A 
ATOM     10  C   UNL     1       9.037   5.948  30.424  1.00  0.00     0.146 A 
ATOM     11  O   UNL     1       8.756   6.420  29.216  1.00  0.00    -0.452 OA
ENDROOT
BRANCH   1  12
ATOM     12  C   UNL     1       7.834   6.372  26.989  1.00  0.00     0.025 A 
ATOM     13  C   UNL     1       8.852   7.099  26.351  1.00  0.00     0.016 A 
ATOM     14  C   UNL     1       8.608   7.740  25.133  1.00  0.00     0.051 A 
ATOM     15  C   UNL     1       7.339   7.674  24.543  1.00  0.00     0.157 A 
ATOM     16  C   UNL     1       6.556   6.327  26.403  1.00  0.00     0.062 A 
ATOM     17  C   UNL     1       6.310   6.970  25.182  1.00  0.00     0.158 A 
BRANCH  15  18
ATOM     18  O   UNL     1       7.092   8.310  23.328  1.00  0.00    -0.504 OA
ATOM     19  H   UNL     1       6.981   9.315  23.268  1.00  0.00     0.293 HD
ENDBRANCH  15  18
BRANCH  17  20
ATOM     20  O   UNL     1       5.045   6.920  24.599  1.00  0.00    -0.504 OA
ATOM     21  H   UNL     1       4.493   6.070  24.605  1.00  0.00     0.293 HD
ENDBRANCH  17  20
ENDBRANCH   1  12
BRANCH   2  22
ATOM     22  O   UNL     1       7.135   3.618  27.558  1.00  0.00    -0.502 OA
ATOM     23  H   UNL     1       6.133   3.594  27.417  1.00  0.00     0.293 HD
ENDBRANCH   2  22
BRANCH   6  24
ATOM     24  O   UNL     1       8.481   2.994  32.674  1.00  0.00    -0.507 OA
ATOM     25  H   UNL     1       7.554   2.614  32.551  1.00  0.00     0.293 HD
ENDBRANCH   6  24
BRANCH   8  26
ATOM     26  O   UNL     1      10.794   7.107  33.468  1.00  0.00    -0.508 OA
ATOM     27  H   UNL     1      11.336   7.898  33.142  1.00  0.00     0.293 HD
ENDBRANCH   8  26
TORSDOF 6
ENDMDL
MODEL 5
REMARK VINA RESULT:    -7.642      2.299      2.881
REMARK INTER + INTRA:          -9.235
REMARK INTER:                  -9.190
REMARK INTRA:                  -0.045
REMARK UNBOUND:                -0.029
REMARK SMILES O=c1c(O)c(-c2ccc(O)c(O)c2)oc2cc(O)cc(O)c12
REMARK SMILES IDX 5 1 3 2 2 3 1 4 22 5 20 6 19 7 17 8 16 9 15 10 14 11 6 12
REMARK SMILES IDX 7 13 8 14 9 15 13 16 11 17 10 18 12 20 4 22 21 24 18 26
REMARK H PARENT 10 19 12 21 4 23 21 25 18 27
REMARK Flexibility Score: inf
ROOT
ATOM      1  C   UNL     1      21.845   2.547  27.573  1.00  0.00     0.180 A 
ATOM      2  C   UNL     1      20.490   2.178  27.512  1.00  0.00     0.208 A 
ATOM      3  C   UNL     1      20.116   1.090  26.707  1.00  0.00     0.238 A 
ATOM      4  O   UNL     1      18.894   0.799  26.614  1.00  0.00    -0.285 OA
ATOM      5  C   UNL     1      21.103   0.375  25.986  1.00  0.00     0.111 A 
ATOM      6  C   UNL     1      20.842  -0.769  25.172  1.00  0.00     0.134 A 
ATOM      7  C   UNL     1      21.875  -1.318  24.402  1.00  0.00     0.093 A 
ATOM      8  C   UNL     1      23.170  -0.807  24.465  1.00  0.00     0.123 A 
ATOM      9  C   UNL     1      23.449   0.273  25.304  1.00  0.00     0.094 A 
ATOM     10  C   UNL     1      22.432   0.865  26.058  1.00  0.00     0.146 A 
ATOM     11  O   UNL     1      22.737   1.897  26.834  1.00  0.00    -0.452 OA
ENDROOT
BRANCH   1  12
ATOM     12  C   UNL     1      22.319   3.666  28.418  1.00  0.00     0.025 A 
ATOM     13  C   UNL     1      21.781   4.950  28.230  1.00  0.00     0.016 A 
ATOM     14  C   UNL     1      22.230   6.025  29.002  1.00  0.00     0.051 A 
ATOM     15  C   UNL     1      23.232   5.835  29.963  1.00  0.00     0.157 A 
ATOM     16  C   UNL     1      23.340   3.485  29.369  1.00  0.00     0.062 A 
ATOM     17  C   UNL     1      23.791   4.563  30.142  1.00  0.00     0.158 A 
BRANCH  15  18
ATOM     18  O   UNL     1      23.681   6.904  30.736  1.00  0.00    -0.504 OA
ATOM     19  H   UNL     1      23.415   7.859  30.525  1.00  0.00     0.293 HD
ENDBRANCH  15  18
BRANCH  17  20
ATOM     20  O   UNL     1      24.799   4.380  31.089  1.00  0.00    -0.504 OA
ATOM     21  H   UNL     1      25.585   3.766  30.913  1.00  0.00     0.293 HD
ENDBRANCH  17  20
ENDBRANCH   1  12
BRANCH   2  22
ATOM     22  O   UNL     1      19.530   2.911  28.214  1.00  0.00    -0.502 OA
ATOM     23  H   UNL     1      18.657   3.207  27.794  1.00  0.00     0.293 HD
ENDBRANCH   2  22
BRANCH   6  24
ATOM     24  O   UNL     1      19.604  -1.414  25.107  1.00  0.00    -0.507 OA
ATOM     25  H   UNL     1      18.802  -1.069  24.601  1.00  0.00     0.293 HD
ENDBRANCH   6  24
BRANCH   8  26
ATOM     26  O   UNL     1      24.177  -1.388  23.697  1.00  0.00    -0.508 OA
ATOM     27  H   UNL     1      23.990  -1.763  22.774  1.00  0.00     0.293 HD
ENDBRANCH   8  26
TORSDOF 6
ENDMDL
MODEL 6
REMARK VINA RESULT:    -7.483     13.314     14.909
REMARK INTER + INTRA:          -9.043
REMARK INTER:                  -9.299
REMARK INTRA:                   0.256
REMARK UNBOUND:                -0.029
REMARK SMILES O=c1c(O)c(-c2ccc(O)c(O)c2)oc2cc(O)cc(O)c12
REMARK SMILES IDX 5 1 3 2 2 3 1 4 22 5 20 6 19 7 17 8 16 9 15 10 14 11 6 12
REMARK SMILES IDX 7 13 8 14 9 15 13 16 11 17 10 18 12 20 4 22 21 24 18 26
REMARK H PARENT 10 19 12 21 4 23 21 25 18 27
REMARK Flexibility Score: inf
ROOT
ATOM      1  C   UNL     1       7.522   4.402  28.179  1.00  0.00     0.180 A 
ATOM      2  C   UNL     1       8.330   4.544  29.320  1.00  0.00     0.208 A 
ATOM      3  C   UNL     1       8.337   3.521  30.281  1.00  0.00     0.238 A 
ATOM      4  O   UNL     1       9.021   3.680  31.328  1.00  0.00    -0.285 OA
ATOM      5  C   UNL     1       7.549   2.362  30.084  1.00  0.00     0.111 A 
ATOM      6  C   UNL     1       7.512   1.245  30.973  1.00  0.00     0.134 A 
ATOM      7  C   UNL     1       6.598   0.210  30.742  1.00  0.00     0.093 A 
ATOM      8  C   UNL     1       5.768   0.217  29.622  1.00  0.00     0.123 A 
ATOM      9  C   UNL     1       5.839   1.275  28.714  1.00  0.00     0.094 A 
ATOM     10  C   UNL     1       6.715   2.341  28.936  1.00  0.00     0.146 A 
ATOM     11  O   UNL     1       6.745   3.331  28.053  1.00  0.00    -0.452 OA
ENDROOT
BRANCH   1  12
ATOM     12  C   UNL     1       7.480   5.425  27.110  1.00  0.00     0.025 A 
ATOM     13  C   UNL     1       8.640   6.156  26.809  1.00  0.00     0.016 A 
ATOM     14  C   UNL     1       8.619   7.142  25.818  1.00  0.00     0.051 A 
ATOM     15  C   UNL     1       7.433   7.419  25.124  1.00  0.00     0.157 A 
ATOM     16  C   UNL     1       6.287   5.721  26.425  1.00  0.00     0.062 A 
ATOM     17  C   UNL     1       6.265   6.710  25.432  1.00  0.00     0.158 A 
BRANCH  15  18
ATOM     18  O   UNL     1       7.408   8.399  24.134  1.00  0.00    -0.504 OA
ATOM     19  H   UNL     1       8.079   9.158  24.122  1.00  0.00     0.293 HD
ENDBRANCH  15  18
BRANCH  17  20
ATOM     20  O   UNL     1       5.084   6.999  24.750  1.00  0.00    -0.504 OA
ATOM     21  H   UNL     1       5.072   7.623  23.951  1.00  0.00     0.293 HD
ENDBRANCH  17  20
ENDBRANCH   1  12
BRANCH   2  22
ATOM     22  O   UNL     1       9.083   5.706  29.507  1.00  0.00    -0.502 OA
ATOM     23  H   UNL     1       8.657   6.609  29.674  1.00  0.00     0.293 HD
ENDBRANCH   2  22
BRANCH   6  24
ATOM     24  O   UNL     1       8.362   1.094  32.071  1.00  0.00    -0.507 OA
ATOM     25  H   UNL     1       8.869   1.846  32.514  1.00  0.00     0.293 HD
ENDBRANCH   6  24
BRANCH   8  26
ATOM     26  O   UNL     1       4.881  -0.838  29.416  1.00  0.00    -0.508 OA
ATOM     27  H   UNL     1       4.275  -1.173  30.155  1.00  0.00     0.293 HD
ENDBRANCH   8  26
TORSDOF 6
ENDMDL
MODEL 7
REMARK VINA RESULT:    -7.332     13.336     15.613
REMARK INTER + INTRA:          -8.862
REMARK INTER:                  -8.585
REMARK INTRA:                  -0.277
REMARK UNBOUND:                -0.029
REMARK SMILES O=c1c(O)c(-c2ccc(O)c(O)c2)oc2cc(O)cc(O)c12
REMARK SMILES IDX 5 1 3 2 2 3 1 4 22 5 20 6 19 7 17 8 16 9 15 10 14 11 6 12
REMARK SMILES IDX 7 13 8 14 9 15 13 16 11 17 10 18 12 20 4 22 21 24 18 26
REMARK H PARENT 10 19 12 21 4 23 21 25 18 27
REMARK Flexibility Score: inf
ROOT
ATOM      1  C   UNL     1       6.814   3.480  28.771  1.00  0.00     0.180 A 
ATOM      2  C   UNL     1       8.124   3.967  28.918  1.00  0.00     0.208 A 
ATOM      3  C   UNL     1       8.541   5.048  28.127  1.00  0.00     0.238 A 
ATOM      4  O   UNL     1       9.733   5.444  28.224  1.00  0.00    -0.285 OA
ATOM      5  C   UNL     1       7.640   5.640  27.209  1.00  0.00     0.111 A 
ATOM      6  C   UNL     1       7.944   6.767  26.386  1.00  0.00     0.134 A 
ATOM      7  C   UNL     1       7.019   7.187  25.422  1.00  0.00     0.093 A 
ATOM      8  C   UNL     1       5.778   6.564  25.295  1.00  0.00     0.123 A 
ATOM      9  C   UNL     1       5.447   5.501  26.136  1.00  0.00     0.094 A 
ATOM     10  C   UNL     1       6.363   5.036  27.084  1.00  0.00     0.146 A 
ATOM     11  O   UNL     1       6.012   4.015  27.856  1.00  0.00    -0.452 OA
ENDROOT
BRANCH   1  12
ATOM     12  C   UNL     1       6.292   2.361  29.588  1.00  0.00     0.025 A 
ATOM     13  C   UNL     1       5.927   2.592  30.924  1.00  0.00     0.016 A 
ATOM     14  C   UNL     1       5.453   1.546  31.719  1.00  0.00     0.051 A 
ATOM     15  C   UNL     1       5.350   0.251  31.194  1.00  0.00     0.157 A 
ATOM     16  C   UNL     1       6.207   1.055  29.072  1.00  0.00     0.062 A 
ATOM     17  C   UNL     1       5.732   0.005  29.870  1.00  0.00     0.158 A 
BRANCH  15  18
ATOM     18  O   UNL     1       4.875  -0.795  31.983  1.00  0.00    -0.504 OA
ATOM     19  H   UNL     1       5.487  -1.535  32.308  1.00  0.00     0.293 HD
ENDBRANCH  15  18
BRANCH  17  20
ATOM     20  O   UNL     1       5.642  -1.288  29.355  1.00  0.00    -0.504 OA
ATOM     21  H   UNL     1       5.171  -2.028  29.861  1.00  0.00     0.293 HD
ENDBRANCH  17  20
ENDBRANCH   1  12
BRANCH   2  22
ATOM     22  O   UNL     1       9.004   3.354  29.814  1.00  0.00    -0.502 OA
ATOM     23  H   UNL     1       8.867   3.382  30.817  1.00  0.00     0.293 HD
ENDBRANCH   2  22
BRANCH   6  24
ATOM     24  O   UNL     1       9.118   7.517  26.493  1.00  0.00    -0.507 OA
ATOM     25  H   UNL     1       9.559   7.774  27.364  1.00  0.00     0.293 HD
ENDBRANCH   6  24
BRANCH   8  26
ATOM     26  O   UNL     1       4.876   7.019  24.336  1.00  0.00    -0.508 OA
ATOM     27  H   UNL     1       5.189   7.386  23.445  1.00  0.00     0.293 HD
ENDBRANCH   8  26
TORSDOF 6
ENDMDL
MODEL 8
REMARK VINA RESULT:    -7.259      2.974      7.292
REMARK INTER + INTRA:          -8.774
REMARK INTER:                  -8.912
REMARK INTRA:                   0.138
REMARK UNBOUND:                -0.029
REMARK SMILES O=c1c(O)c(-c2ccc(O)c(O)c2)oc2cc(O)cc(O)c12
REMARK SMILES IDX 5 1 3 2 2 3 1 4 22 5 20 6 19 7 17 8 16 9 15 10 14 11 6 12
REMARK SMILES IDX 7 13 8 14 9 15 13 16 11 17 10 18 12 20 4 22 21 24 18 26
REMARK H PARENT 10 19 12 21 4 23 21 25 18 27
REMARK Flexibility Score: inf
ROOT
ATOM      1  C   UNL     1      17.658   0.198  26.602  1.00  0.00     0.180 A 
ATOM      2  C   UNL     1      18.015  -0.349  25.357  1.00  0.00     0.208 A 
ATOM      3  C   UNL     1      19.164   0.127  24.708  1.00  0.00     0.238 A 
ATOM      4  O   UNL     1      19.448  -0.328  23.569  1.00  0.00    -0.285 OA
ATOM      5  C   UNL     1      19.953   1.133  25.318  1.00  0.00     0.111 A 
ATOM      6  C   UNL     1      21.160   1.661  24.769  1.00  0.00     0.134 A 
ATOM      7  C   UNL     1      21.788   2.745  25.395  1.00  0.00     0.093 A 
ATOM      8  C   UNL     1      21.289   3.277  26.583  1.00  0.00     0.123 A 
ATOM      9  C   UNL     1      20.143   2.729  27.161  1.00  0.00     0.094 A 
ATOM     10  C   UNL     1      19.474   1.670  26.541  1.00  0.00     0.146 A 
ATOM     11  O   UNL     1      18.382   1.186  27.117  1.00  0.00    -0.452 OA
ENDROOT
BRANCH   1  12
ATOM     12  C   UNL     1      16.475  -0.270  27.358  1.00  0.00     0.025 A 
ATOM     13  C   UNL     1      15.722   0.653  28.103  1.00  0.00     0.016 A 
ATOM     14  C   UNL     1      14.614   0.230  28.842  1.00  0.00     0.051 A 
ATOM     15  C   UNL     1      14.251  -1.123  28.859  1.00  0.00     0.157 A 
ATOM     16  C   UNL     1      16.119  -1.631  27.396  1.00  0.00     0.062 A 
ATOM     17  C   UNL     1      15.008  -2.055  28.138  1.00  0.00     0.158 A 
BRANCH  15  18
ATOM     18  O   UNL     1      13.146  -1.549  29.592  1.00  0.00    -0.504 OA
ATOM     19  H   UNL     1      12.665  -0.929  30.235  1.00  0.00     0.293 HD
ENDBRANCH  15  18
BRANCH  17  20
ATOM     20  O   UNL     1      14.654  -3.403  28.168  1.00  0.00    -0.504 OA
ATOM     21  H   UNL     1      13.725  -3.700  28.444  1.00  0.00     0.293 HD
ENDBRANCH  17  20
ENDBRANCH   1  12
BRANCH   2  22
ATOM     22  O   UNL     1      17.211  -1.326  24.763  1.00  0.00    -0.502 OA
ATOM     23  H   UNL     1      16.523  -1.106  24.054  1.00  0.00     0.293 HD
ENDBRANCH   2  22
BRANCH   6  24
ATOM     24  O   UNL     1      21.794   1.143  23.636  1.00  0.00    -0.507 OA
ATOM     25  H   UNL     1      21.974   0.163  23.475  1.00  0.00     0.293 HD
ENDBRANCH   6  24
BRANCH   8  26
ATOM     26  O   UNL     1      21.948   4.346  27.188  1.00  0.00    -0.508 OA
ATOM     27  H   UNL     1      22.324   5.113  26.644  1.00  0.00     0.293 HD
ENDBRANCH   8  26
TORSDOF 6
ENDMDL
MODEL 9
REMARK VINA RESULT:    -7.146     12.901     14.728
REMARK INTER + INTRA:          -8.638
REMARK INTER:                  -8.327
REMARK INTRA:                  -0.311
REMARK UNBOUND:                -0.029
REMARK SMILES O=c1c(O)c(-c2ccc(O)c(O)c2)oc2cc(O)cc(O)c12
REMARK SMILES IDX 5 1 3 2 2 3 1 4 22 5 20 6 19 7 17 8 16 9 15 10 14 11 6 12
REMARK SMILES IDX 7 13 8 14 9 15 13 16 11 17 10 18 12 20 4 22 21 24 18 26
REMARK H PARENT 10 19 12 21 4 23 21 25 18 27
REMARK Flexibility Score: inf
ROOT
ATOM      1  C   UNL     1       7.944   5.603  29.094  1.00  0.00     0.180 A 
ATOM      2  C   UNL     1       7.544   6.283  30.257  1.00  0.00     0.208 A 
ATOM      3  C   UNL     1       7.813   5.709  31.509  1.00  0.00     0.238 A 
ATOM      4  O   UNL     1       7.403   6.296  32.545  1.00  0.00    -0.285 OA
ATOM      5  C   UNL     1       8.493   4.469  31.584  1.00  0.00     0.111 A 
ATOM      6  C   UNL     1       8.854   3.815  32.801  1.00  0.00     0.134 A 
ATOM      7  C   UNL     1       9.409   2.530  32.755  1.00  0.00     0.093 A 
ATOM      8  C   UNL     1       9.676   1.903  31.539  1.00  0.00     0.123 A 
ATOM      9  C   UNL     1       9.383   2.559  30.343  1.00  0.00     0.094 A 
ATOM     10  C   UNL     1       8.795   3.827  30.356  1.00  0.00     0.146 A 
ATOM     11  O   UNL     1       8.522   4.411  29.196  1.00  0.00    -0.452 OA
ENDROOT
BRANCH   1  12
ATOM     12  C   UNL     1       7.718   6.157  27.740  1.00  0.00     0.025 A 
ATOM     13  C   UNL     1       8.615   7.105  27.223  1.00  0.00     0.016 A 
ATOM     14  C   UNL     1       8.410   7.657  25.956  1.00  0.00     0.051 A 
ATOM     15  C   UNL     1       7.298   7.279  25.193  1.00  0.00     0.157 A 
ATOM     16  C   UNL     1       6.591   5.796  26.979  1.00  0.00     0.062 A 
ATOM     17  C   UNL     1       6.385   6.350  25.708  1.00  0.00     0.158 A 
BRANCH  15  18
ATOM     18  O   UNL     1       7.091   7.825  23.928  1.00  0.00    -0.504 OA
ATOM     19  H   UNL     1       7.725   7.639  23.160  1.00  0.00     0.293 HD
ENDBRANCH  15  18
BRANCH  17  20
ATOM     20  O   UNL     1       5.271   5.987  24.952  1.00  0.00    -0.504 OA
ATOM     21  H   UNL     1       5.175   5.055  24.564  1.00  0.00     0.293 HD
ENDBRANCH  17  20
ENDBRANCH   1  12
BRANCH   2  22
ATOM     22  O   UNL     1       6.854   7.495  30.160  1.00  0.00    -0.502 OA
ATOM     23  H   UNL     1       6.259   7.720  29.372  1.00  0.00     0.293 HD
ENDBRANCH   2  22
BRANCH   6  24
ATOM     24  O   UNL     1       8.715   4.390  34.067  1.00  0.00    -0.507 OA
ATOM     25  H   UNL     1       9.451   4.866  34.567  1.00  0.00     0.293 HD
ENDBRANCH   6  24
BRANCH   8  26
ATOM     26  O   UNL     1      10.244   0.631  31.531  1.00  0.00    -0.508 OA
ATOM     27  H   UNL     1      11.244   0.496  31.622  1.00  0.00     0.293 HD
ENDBRANCH   8  26
TORSDOF 6
ENDMDL
