MODEL 1
REMARK VINA RESULT:    -3.835      0.000      0.000
REMARK INTER + INTRA:          -8.451
REMARK INTER:                  -6.525
REMARK INTRA:                  -1.925
REMARK UNBOUND:                -1.925
REMARK SMILES CCCCCCCCCCCCCC(=O)[O-]
REMARK SMILES IDX 8 1 9 2 10 3 11 4 12 5 13 6 14 7 15 8 16 9 7 10 6 11 5 12
REMARK SMILES IDX 4 13 3 14 2 15 1 16
REMARK H PARENT
REMARK Flexibility Score: inf
ROOT
ATOM      1  C   UNL     1     127.772 145.943 108.711  1.00  0.00     0.000 C 
ENDROOT
BRANCH   1   2
ATOM      2  C   UNL     1     129.309 145.999 108.646  1.00  0.00     0.000 C 
BRANCH   2   3
ATOM      3  C   UNL     1     130.003 144.646 108.407  1.00  0.00     0.000 C 
BRANCH   3   4
ATOM      4  C   UNL     1     131.149 144.732 107.385  1.00  0.00     0.000 C 
BRANCH   4   5
ATOM      5  C   UNL     1     130.852 145.726 106.250  1.00  0.00     0.006 C 
BRANCH   5   6
ATOM      6  C   UNL     1     131.918 146.823 106.129  1.00  0.00     0.053 C 
BRANCH   6   7
ATOM      7  C   UNL     1     133.289 146.229 106.199  1.00  0.00     0.041 C 
ATOM      8  O   UNL     1     133.705 145.483 105.274  1.00  0.00    -0.550 OA
ATOM      9  O   UNL     1     134.126 146.537 107.263  1.00  0.00    -0.550 OA
ENDBRANCH   6   7
ENDBRANCH   5   6
ENDBRANCH   4   5
ENDBRANCH   3   4
ENDBRANCH   2   3
ENDBRANCH   1   2
BRANCH   1  10
ATOM     10  C   UNL     1     127.150 145.159 107.546  1.00  0.00     0.000 C 
BRANCH  10  11
ATOM     11  C   UNL     1     127.062 146.026 106.284  1.00  0.00    -0.000 C 
BRANCH  11  12
ATOM     12  C   UNL     1     127.487 145.236 105.041  1.00  0.00    -0.000 C 
BRANCH  12  13
ATOM     13  C   UNL     1     127.372 143.725 105.284  1.00  0.00    -0.000 C 
BRANCH  13  14
ATOM     14  C   UNL     1     128.722 142.993 105.162  1.00  0.00    -0.000 C 
BRANCH  14  15
ATOM     15  C   UNL     1     128.946 141.873 106.192  1.00  0.00    -0.003 C 
ATOM     16  C   UNL     1     127.648 141.379 106.831  1.00  0.00     0.004 C 
ENDBRANCH  14  15
ENDBRANCH  13  14
ENDBRANCH  12  13
ENDBRANCH  11  12
ENDBRANCH  10  11
ENDBRANCH   1  10
TORSDOF 12
ENDMDL
MODEL 2
REMARK VINA RESULT:    -3.680      1.135      2.031
REMARK INTER + INTRA:          -8.187
REMARK INTER:                  -6.566
REMARK INTRA:                  -1.620
REMARK UNBOUND:                -1.925
REMARK SMILES CCCCCCCCCCCCCC(=O)[O-]
REMARK SMILES IDX 8 1 9 2 10 3 11 4 12 5 13 6 14 7 15 8 16 9 7 10 6 11 5 12
REMARK SMILES IDX 4 13 3 14 2 15 1 16
REMARK H PARENT
REMARK Flexibility Score: inf
ROOT
ATOM      1  C   UNL     1     129.367 144.935 108.442  1.00  0.00     0.000 C 
ENDROOT
BRANCH   1   2
ATOM      2  C   UNL     1     130.573 145.796 108.026  1.00  0.00     0.000 C 
BRANCH   2   3
ATOM      3  C   UNL     1     130.855 145.841 106.513  1.00  0.00     0.000 C 
BRANCH   3   4
ATOM      4  C   UNL     1     131.978 146.823 106.141  1.00  0.00     0.000 C 
BRANCH   4   5
ATOM      5  C   UNL     1     133.224 146.111 105.589  1.00  0.00     0.006 C 
BRANCH   5   6
ATOM      6  C   UNL     1     133.888 145.192 106.623  1.00  0.00     0.053 C 
BRANCH   6   7
ATOM      7  C   UNL     1     134.445 145.995 107.755  1.00  0.00     0.041 C 
ATOM      8  O   UNL     1     133.945 145.900 108.907  1.00  0.00    -0.550 OA
ATOM      9  O   UNL     1     135.548 146.814 107.549  1.00  0.00    -0.550 OA
ENDBRANCH   6   7
ENDBRANCH   5   6
ENDBRANCH   4   5
ENDBRANCH   3   4
ENDBRANCH   2   3
ENDBRANCH   1   2
BRANCH   1  10
ATOM     10  C   UNL     1     128.043 145.715 108.440  1.00  0.00     0.000 C 
BRANCH  10  11
ATOM     11  C   UNL     1     127.046 145.103 107.449  1.00  0.00    -0.000 C 
BRANCH  11  12
ATOM     12  C   UNL     1     126.977 145.925 106.157  1.00  0.00    -0.000 C 
BRANCH  12  13
ATOM     13  C   UNL     1     127.480 145.108 104.958  1.00  0.00    -0.000 C 
BRANCH  13  14
ATOM     14  C   UNL     1     127.598 143.604 105.264  1.00  0.00    -0.000 C 
BRANCH  14  15
ATOM     15  C   UNL     1     129.028 143.042 105.202  1.00  0.00    -0.003 C 
ATOM     16  C   UNL     1     129.316 142.015 106.297  1.00  0.00     0.004 C 
ENDBRANCH  14  15
ENDBRANCH  13  14
ENDBRANCH  12  13
ENDBRANCH  11  12
ENDBRANCH  10  11
ENDBRANCH   1  10
TORSDOF 12
ENDMDL
MODEL 3
REMARK VINA RESULT:    -3.671      1.224      3.015
REMARK INTER + INTRA:          -8.172
REMARK INTER:                  -6.079
REMARK INTRA:                  -2.093
REMARK UNBOUND:                -1.925
REMARK SMILES CCCCCCCCCCCCCC(=O)[O-]
REMARK SMILES IDX 8 1 9 2 10 3 11 4 12 5 13 6 14 7 15 8 16 9 7 10 6 11 5 12
REMARK SMILES IDX 4 13 3 14 2 15 1 16
REMARK H PARENT
REMARK Flexibility Score: inf
ROOT
ATOM      1  C   UNL     1     127.763 142.675 105.975  1.00  0.00     0.000 C 
ENDROOT
BRANCH   1   2
ATOM      2  C   UNL     1     129.175 142.065 106.038  1.00  0.00     0.000 C 
BRANCH   2   3
ATOM      3  C   UNL     1     130.281 142.908 105.378  1.00  0.00     0.000 C 
BRANCH   3   4
ATOM      4  C   UNL     1     131.067 143.762 106.388  1.00  0.00     0.000 C 
BRANCH   4   5
ATOM      5  C   UNL     1     131.026 145.261 106.049  1.00  0.00     0.006 C 
BRANCH   5   6
ATOM      6  C   UNL     1     131.685 146.130 107.127  1.00  0.00     0.053 C 
BRANCH   6   7
ATOM      7  C   UNL     1     133.121 146.381 106.791  1.00  0.00     0.041 C 
ATOM      8  O   UNL     1     133.919 146.786 107.677  1.00  0.00    -0.550 OA
ATOM      9  O   UNL     1     133.589 146.121 105.509  1.00  0.00    -0.550 OA
ENDBRANCH   6   7
ENDBRANCH   5   6
ENDBRANCH   4   5
ENDBRANCH   3   4
ENDBRANCH   2   3
ENDBRANCH   1   2
BRANCH   1  10
ATOM     10  C   UNL     1     127.649 143.822 104.960  1.00  0.00     0.000 C 
BRANCH  10  11
ATOM     11  C   UNL     1     127.329 145.148 105.662  1.00  0.00    -0.000 C 
BRANCH  11  12
ATOM     12  C   UNL     1     127.097 144.935 107.163  1.00  0.00    -0.000 C 
BRANCH  12  13
ATOM     13  C   UNL     1     127.903 145.945 107.993  1.00  0.00    -0.000 C 
BRANCH  13  14
ATOM     14  C   UNL     1     128.356 145.380 109.351  1.00  0.00    -0.000 C 
BRANCH  14  15
ATOM     15  C   UNL     1     128.868 143.929 109.310  1.00  0.00    -0.003 C 
ATOM     16  C   UNL     1     127.952 142.950 110.044  1.00  0.00     0.004 C 
ENDBRANCH  14  15
ENDBRANCH  13  14
ENDBRANCH  12  13
ENDBRANCH  11  12
ENDBRANCH  10  11
ENDBRANCH   1  10
TORSDOF 12
ENDMDL
MODEL 4
REMARK VINA RESULT:    -3.664      2.409      5.314
REMARK INTER + INTRA:          -8.160
REMARK INTER:                  -6.765
REMARK INTRA:                  -1.395
REMARK UNBOUND:                -1.925
REMARK SMILES CCCCCCCCCCCCCC(=O)[O-]
REMARK SMILES IDX 8 1 9 2 10 3 11 4 12 5 13 6 14 7 15 8 16 9 7 10 6 11 5 12
REMARK SMILES IDX 4 13 3 14 2 15 1 16
REMARK H PARENT
REMARK Flexibility Score: inf
ROOT
ATOM      1  C   UNL     1     129.114 143.127 105.196  1.00  0.00     0.000 C 
ENDROOT
BRANCH   1   2
ATOM      2  C   UNL     1     127.639 143.539 105.351  1.00  0.00     0.000 C 
BRANCH   2   3
ATOM      3  C   UNL     1     127.308 144.972 104.896  1.00  0.00     0.000 C 
BRANCH   3   4
ATOM      4  C   UNL     1     127.013 145.921 106.070  1.00  0.00     0.000 C 
BRANCH   4   5
ATOM      5  C   UNL     1     126.956 145.187 107.420  1.00  0.00     0.006 C 
BRANCH   5   6
ATOM      6  C   UNL     1     127.058 146.141 108.617  1.00  0.00     0.053 C 
BRANCH   6   7
ATOM      7  C   UNL     1     128.302 145.863 109.400  1.00  0.00     0.041 C 
ATOM      8  O   UNL     1     129.380 146.443 109.105  1.00  0.00    -0.550 OA
ATOM      9  O   UNL     1     128.260 145.001 110.488  1.00  0.00    -0.550 OA
ENDBRANCH   6   7
ENDBRANCH   5   6
ENDBRANCH   4   5
ENDBRANCH   3   4
ENDBRANCH   2   3
ENDBRANCH   1   2
BRANCH   1  10
ATOM     10  C   UNL     1     129.955 143.424 106.446  1.00  0.00     0.000 C 
BRANCH  10  11
ATOM     11  C   UNL     1     131.136 144.343 106.108  1.00  0.00    -0.000 C 
BRANCH  11  12
ATOM     12  C   UNL     1     130.687 145.807 106.017  1.00  0.00    -0.000 C 
BRANCH  12  13
ATOM     13  C   UNL     1     131.897 146.751 105.987  1.00  0.00    -0.000 C 
BRANCH  13  14
ATOM     14  C   UNL     1     133.101 146.208 106.778  1.00  0.00    -0.000 C 
BRANCH  14  15
ATOM     15  C   UNL     1     133.283 146.818 108.179  1.00  0.00    -0.003 C 
ATOM     16  C   UNL     1     132.903 145.856 109.304  1.00  0.00     0.004 C 
ENDBRANCH  14  15
ENDBRANCH  13  14
ENDBRANCH  12  13
ENDBRANCH  11  12
ENDBRANCH  10  11
ENDBRANCH   1  10
TORSDOF 12
ENDMDL
MODEL 5
REMARK VINA RESULT:    -3.630      2.712      5.622
REMARK INTER + INTRA:          -8.102
REMARK INTER:                  -6.717
REMARK INTRA:                  -1.386
REMARK UNBOUND:                -1.925
REMARK SMILES CCCCCCCCCCCCCC(=O)[O-]
REMARK SMILES IDX 8 1 9 2 10 3 11 4 12 5 13 6 14 7 15 8 16 9 7 10 6 11 5 12
REMARK SMILES IDX 4 13 3 14 2 15 1 16
REMARK H PARENT
REMARK Flexibility Score: inf
ROOT
ATOM      1  C   UNL     1     129.107 142.809 105.637  1.00  0.00     0.000 C 
ENDROOT
BRANCH   1   2
ATOM      2  C   UNL     1     127.688 143.405 105.605  1.00  0.00     0.000 C 
BRANCH   2   3
ATOM      3  C   UNL     1     127.551 144.727 104.830  1.00  0.00     0.000 C 
BRANCH   3   4
ATOM      4  C   UNL     1     127.336 145.942 105.750  1.00  0.00     0.000 C 
BRANCH   4   5
ATOM      5  C   UNL     1     126.875 145.538 107.160  1.00  0.00     0.006 C 
BRANCH   5   6
ATOM      6  C   UNL     1     127.848 145.994 108.254  1.00  0.00     0.053 C 
BRANCH   6   7
ATOM      7  C   UNL     1     127.941 144.962 109.333  1.00  0.00     0.041 C 
ATOM      8  O   UNL     1     127.384 143.842 109.189  1.00  0.00    -0.550 OA
ATOM      9  O   UNL     1     128.684 145.219 110.478  1.00  0.00    -0.550 OA
ENDBRANCH   6   7
ENDBRANCH   5   6
ENDBRANCH   4   5
ENDBRANCH   3   4
ENDBRANCH   2   3
ENDBRANCH   1   2
BRANCH   1  10
ATOM     10  C   UNL     1     130.051 143.555 106.592  1.00  0.00     0.000 C 
BRANCH  10  11
ATOM     11  C   UNL     1     131.076 144.387 105.812  1.00  0.00    -0.000 C 
BRANCH  11  12
ATOM     12  C   UNL     1     130.921 145.882 106.119  1.00  0.00    -0.000 C 
BRANCH  12  13
ATOM     13  C   UNL     1     132.292 146.565 106.231  1.00  0.00    -0.000 C 
BRANCH  13  14
ATOM     14  C   UNL     1     133.466 145.588 106.040  1.00  0.00    -0.000 C 
BRANCH  14  15
ATOM     15  C   UNL     1     134.576 146.088 105.099  1.00  0.00    -0.003 C 
ATOM     16  C   UNL     1     135.960 146.078 105.748  1.00  0.00     0.004 C 
ENDBRANCH  14  15
ENDBRANCH  13  14
ENDBRANCH  12  13
ENDBRANCH  11  12
ENDBRANCH  10  11
ENDBRANCH   1  10
TORSDOF 12
ENDMDL
MODEL 6
REMARK VINA RESULT:    -3.604      3.186      5.354
REMARK INTER + INTRA:          -8.057
REMARK INTER:                  -5.873
REMARK INTRA:                  -2.184
REMARK UNBOUND:                -1.925
REMARK SMILES CCCCCCCCCCCCCC(=O)[O-]
REMARK SMILES IDX 8 1 9 2 10 3 11 4 12 5 13 6 14 7 15 8 16 9 7 10 6 11 5 12
REMARK SMILES IDX 4 13 3 14 2 15 1 16
REMARK H PARENT
REMARK Flexibility Score: inf
ROOT
ATOM      1  C   UNL     1     127.540 143.750 104.930  1.00  0.00     0.000 C 
ENDROOT
BRANCH   1   2
ATOM      2  C   UNL     1     127.615 145.282 105.062  1.00  0.00     0.000 C 
BRANCH   2   3
ATOM      3  C   UNL     1     126.911 145.868 106.298  1.00  0.00     0.000 C 
BRANCH   3   4
ATOM      4  C   UNL     1     127.807 145.883 107.548  1.00  0.00     0.000 C 
BRANCH   4   5
ATOM      5  C   UNL     1     127.171 145.145 108.738  1.00  0.00     0.006 C 
BRANCH   5   6
ATOM      6  C   UNL     1     128.164 144.899 109.881  1.00  0.00     0.053 C 
BRANCH   6   7
ATOM      7  C   UNL     1     127.719 143.743 110.719  1.00  0.00     0.041 C 
ATOM      8  O   UNL     1     127.416 142.647 110.178  1.00  0.00    -0.550 OA
ATOM      9  O   UNL     1     127.684 143.859 112.102  1.00  0.00    -0.550 OA
ENDBRANCH   6   7
ENDBRANCH   5   6
ENDBRANCH   4   5
ENDBRANCH   3   4
ENDBRANCH   2   3
ENDBRANCH   1   2
BRANCH   1  10
ATOM     10  C   UNL     1     128.855 143.050 105.303  1.00  0.00     0.000 C 
BRANCH  10  11
ATOM     11  C   UNL     1     128.715 142.283 106.623  1.00  0.00    -0.000 C 
BRANCH  11  12
ATOM     12  C   UNL     1     129.887 142.587 107.565  1.00  0.00    -0.000 C 
BRANCH  12  13
ATOM     13  C   UNL     1     130.924 143.487 106.879  1.00  0.00    -0.000 C 
BRANCH  13  14
ATOM     14  C   UNL     1     131.595 144.476 107.850  1.00  0.00    -0.000 C 
BRANCH  14  15
ATOM     15  C   UNL     1     131.409 145.961 107.492  1.00  0.00    -0.003 C 
ATOM     16  C   UNL     1     131.170 146.191 106.000  1.00  0.00     0.004 C 
ENDBRANCH  14  15
ENDBRANCH  13  14
ENDBRANCH  12  13
ENDBRANCH  11  12
ENDBRANCH  10  11
ENDBRANCH   1  10
TORSDOF 12
ENDMDL
MODEL 7
REMARK VINA RESULT:    -3.603      2.441      5.477
REMARK INTER + INTRA:          -8.055
REMARK INTER:                  -6.590
REMARK INTRA:                  -1.465
REMARK UNBOUND:                -1.925
REMARK SMILES CCCCCCCCCCCCCC(=O)[O-]
REMARK SMILES IDX 8 1 9 2 10 3 11 4 12 5 13 6 14 7 15 8 16 9 7 10 6 11 5 12
REMARK SMILES IDX 4 13 3 14 2 15 1 16
REMARK H PARENT
REMARK Flexibility Score: inf
ROOT
ATOM      1  C   UNL     1     130.779 144.575 106.288  1.00  0.00     0.000 C 
ENDROOT
BRANCH   1   2
ATOM      2  C   UNL     1     129.546 143.786 105.812  1.00  0.00     0.000 C 
BRANCH   2   3
ATOM      3  C   UNL     1     128.328 144.644 105.428  1.00  0.00     0.000 C 
BRANCH   3   4
ATOM      4  C   UNL     1     127.229 144.641 106.504  1.00  0.00     0.000 C 
BRANCH   4   5
ATOM      5  C   UNL     1     127.077 146.005 107.196  1.00  0.00     0.006 C 
BRANCH   5   6
ATOM      6  C   UNL     1     127.113 145.901 108.726  1.00  0.00     0.053 C 
BRANCH   6   7
ATOM      7  C   UNL     1     128.510 145.660 109.201  1.00  0.00     0.041 C 
ATOM      8  O   UNL     1     129.309 146.624 109.337  1.00  0.00    -0.550 OA
ATOM      9  O   UNL     1     128.917 144.376 109.539  1.00  0.00    -0.550 OA
ENDBRANCH   6   7
ENDBRANCH   5   6
ENDBRANCH   4   5
ENDBRANCH   3   4
ENDBRANCH   2   3
ENDBRANCH   1   2
BRANCH   1  10
ATOM     10  C   UNL     1     130.646 146.089 106.063  1.00  0.00     0.000 C 
BRANCH  10  11
ATOM     11  C   UNL     1     132.019 146.733 105.833  1.00  0.00    -0.000 C 
BRANCH  11  12
ATOM     12  C   UNL     1     132.966 146.446 107.004  1.00  0.00    -0.000 C 
BRANCH  12  13
ATOM     13  C   UNL     1     134.315 145.912 106.503  1.00  0.00    -0.000 C 
BRANCH  13  14
ATOM     14  C   UNL     1     134.493 146.067 104.981  1.00  0.00    -0.000 C 
BRANCH  14  15
ATOM     15  C   UNL     1     134.658 144.744 104.212  1.00  0.00    -0.003 C 
ATOM     16  C   UNL     1     134.319 143.515 105.055  1.00  0.00     0.004 C 
ENDBRANCH  14  15
ENDBRANCH  13  14
ENDBRANCH  12  13
ENDBRANCH  11  12
ENDBRANCH  10  11
ENDBRANCH   1  10
TORSDOF 12
ENDMDL
MODEL 8
REMARK VINA RESULT:    -3.558      1.890      3.915
REMARK INTER + INTRA:          -7.979
REMARK INTER:                  -6.106
REMARK INTRA:                  -1.873
REMARK UNBOUND:                -1.925
REMARK SMILES CCCCCCCCCCCCCC(=O)[O-]
REMARK SMILES IDX 8 1 9 2 10 3 11 4 12 5 13 6 14 7 15 8 16 9 7 10 6 11 5 12
REMARK SMILES IDX 4 13 3 14 2 15 1 16
REMARK H PARENT
REMARK Flexibility Score: inf
ROOT
ATOM      1  C   UNL     1     127.270 145.096 105.022  1.00  0.00     0.000 C 
ENDROOT
BRANCH   1   2
ATOM      2  C   UNL     1     127.855 145.768 106.278  1.00  0.00     0.000 C 
BRANCH   2   3
ATOM      3  C   UNL     1     126.875 145.918 107.456  1.00  0.00     0.000 C 
BRANCH   3   4
ATOM      4  C   UNL     1     127.298 145.108 108.693  1.00  0.00     0.000 C 
BRANCH   4   5
ATOM      5  C   UNL     1     128.823 144.946 108.798  1.00  0.00     0.006 C 
BRANCH   5   6
ATOM      6  C   UNL     1     129.481 146.056 109.629  1.00  0.00     0.053 C 
BRANCH   6   7
ATOM      7  C   UNL     1     130.941 145.784 109.800  1.00  0.00     0.041 C 
ATOM      8  O   UNL     1     131.387 144.613 109.676  1.00  0.00    -0.550 OA
ATOM      9  O   UNL     1     131.819 146.831 110.049  1.00  0.00    -0.550 OA
ENDBRANCH   6   7
ENDBRANCH   5   6
ENDBRANCH   4   5
ENDBRANCH   3   4
ENDBRANCH   2   3
ENDBRANCH   1   2
BRANCH   1  10
ATOM     10  C   UNL     1     127.986 143.788 104.653  1.00  0.00     0.000 C 
BRANCH  10  11
ATOM     11  C   UNL     1     127.817 142.738 105.758  1.00  0.00    -0.000 C 
BRANCH  11  12
ATOM     12  C   UNL     1     129.176 142.307 106.321  1.00  0.00    -0.000 C 
BRANCH  12  13
ATOM     13  C   UNL     1     130.327 142.887 105.486  1.00  0.00    -0.000 C 
BRANCH  13  14
ATOM     14  C   UNL     1     131.536 143.307 106.342  1.00  0.00    -0.000 C 
BRANCH  14  15
ATOM     15  C   UNL     1     132.194 144.634 105.924  1.00  0.00    -0.003 C 
ATOM     16  C   UNL     1     131.289 145.846 106.144  1.00  0.00     0.004 C 
ENDBRANCH  14  15
ENDBRANCH  13  14
ENDBRANCH  12  13
ENDBRANCH  11  12
ENDBRANCH  10  11
ENDBRANCH   1  10
TORSDOF 12
ENDMDL
MODEL 9
REMARK VINA RESULT:    -3.532      3.258      5.416
REMARK INTER + INTRA:          -7.936
REMARK INTER:                  -6.214
REMARK INTRA:                  -1.722
REMARK UNBOUND:                -1.925
REMARK SMILES CCCCCCCCCCCCCC(=O)[O-]
REMARK SMILES IDX 8 1 9 2 10 3 11 4 12 5 13 6 14 7 15 8 16 9 7 10 6 11 5 12
REMARK SMILES IDX 4 13 3 14 2 15 1 16
REMARK H PARENT
REMARK Flexibility Score: inf
ROOT
ATOM      1  C   UNL     1     127.451 146.017 106.114  1.00  0.00     0.000 C 
ENDROOT
BRANCH   1   2
ATOM      2  C   UNL     1     127.454 145.233 104.789  1.00  0.00     0.000 C 
BRANCH   2   3
ATOM      3  C   UNL     1     127.557 143.704 104.933  1.00  0.00     0.000 C 
BRANCH   3   4
ATOM      4  C   UNL     1     128.996 143.222 105.185  1.00  0.00     0.000 C 
BRANCH   4   5
ATOM      5  C   UNL     1     129.051 141.980 106.090  1.00  0.00     0.006 C 
BRANCH   5   6
ATOM      6  C   UNL     1     127.667 141.564 106.608  1.00  0.00     0.053 C 
BRANCH   6   7
ATOM      7  C   UNL     1     127.636 140.095 106.887  1.00  0.00     0.041 C 
ATOM      8  O   UNL     1     127.260 139.288 105.996  1.00  0.00    -0.550 OA
ATOM      9  O   UNL     1     128.067 139.611 108.115  1.00  0.00    -0.550 OA
ENDBRANCH   6   7
ENDBRANCH   5   6
ENDBRANCH   4   5
ENDBRANCH   3   4
ENDBRANCH   2   3
ENDBRANCH   1   2
BRANCH   1  10
ATOM     10  C   UNL     1     126.940 145.187 107.301  1.00  0.00     0.000 C 
BRANCH  10  11
ATOM     11  C   UNL     1     127.187 145.915 108.628  1.00  0.00    -0.000 C 
BRANCH  11  12
ATOM     12  C   UNL     1     128.678 145.915 108.988  1.00  0.00    -0.000 C 
BRANCH  12  13
ATOM     13  C   UNL     1     129.332 144.574 108.624  1.00  0.00    -0.000 C 
BRANCH  13  14
ATOM     14  C   UNL     1     130.863 144.668 108.495  1.00  0.00    -0.000 C 
BRANCH  14  15
ATOM     15  C   UNL     1     131.372 145.899 107.723  1.00  0.00    -0.003 C 
ATOM     16  C   UNL     1     131.121 145.807 106.218  1.00  0.00     0.004 C 
ENDBRANCH  14  15
ENDBRANCH  13  14
ENDBRANCH  12  13
ENDBRANCH  11  12
ENDBRANCH  10  11
ENDBRANCH   1  10
TORSDOF 12
ENDMDL
