MODEL 1
REMARK VINA RESULT:    -4.602      0.000      0.000
REMARK INTER + INTRA:          -5.049
REMARK INTER:                  -5.005
REMARK INTRA:                  -0.043
REMARK UNBOUND:                -0.043
REMARK SMILES COc1cc2ccc(=O)oc2cc1O
REMARK SMILES IDX 3 1 13 2 12 3 11 4 5 5 4 6 6 7 7 8 8 9 9 10 10 11 2 12 1 13
REMARK SMILES IDX 14 14
REMARK H PARENT 14 15
REMARK Flexibility Score: inf
ROOT
ATOM      1  C   UNL     1      13.116  15.249  20.075  1.00  0.00     0.161 A 
ATOM      2  C   UNL     1      12.172  14.516  19.328  1.00  0.00     0.161 A 
ATOM      3  C   UNL     1      11.193  13.758  19.979  1.00  0.00     0.098 A 
ATOM      4  C   UNL     1      11.139  13.720  21.375  1.00  0.00     0.142 A 
ATOM      5  C   UNL     1      12.080  14.450  22.131  1.00  0.00     0.022 A 
ATOM      6  C   UNL     1      13.063  15.209  21.483  1.00  0.00     0.062 A 
ATOM      7  C   UNL     1      12.000  14.391  23.526  1.00  0.00     0.019 A 
ATOM      8  C   UNL     1      11.004  13.621  24.125  1.00  0.00     0.094 A 
ATOM      9  C   UNL     1      10.106  12.923  23.310  1.00  0.00     0.336 A 
ATOM     10  O   UNL     1       9.199  12.221  23.829  1.00  0.00    -0.246 OA
ATOM     11  O   UNL     1      10.203  12.996  21.984  1.00  0.00    -0.423 OA
ENDROOT
BRANCH   1  12
ATOM     12  O   UNL     1      14.086  15.998  19.390  1.00  0.00    -0.493 OA
ATOM     13  C   UNL     1      15.125  16.742  20.017  1.00  0.00     0.278 C 
ENDBRANCH   1  12
BRANCH   2  14
ATOM     14  O   UNL     1      12.192  14.529  17.933  1.00  0.00    -0.504 OA
ATOM     15  H   UNL     1      11.901  13.731  17.381  1.00  0.00     0.293 HD
ENDBRANCH   2  14
TORSDOF 2
ENDMDL
MODEL 2
REMARK VINA RESULT:    -4.588      1.213      4.751
REMARK INTER + INTRA:          -5.034
REMARK INTER:                  -4.978
REMARK INTRA:                  -0.056
REMARK UNBOUND:                -0.043
REMARK SMILES COc1cc2ccc(=O)oc2cc1O
REMARK SMILES IDX 3 1 13 2 12 3 11 4 5 5 4 6 6 7 7 8 8 9 9 10 10 11 2 12 1 13
REMARK SMILES IDX 14 14
REMARK H PARENT 14 15
REMARK Flexibility Score: inf
ROOT
ATOM      1  C   UNL     1      10.661  13.131  22.247  1.00  0.00     0.161 A 
ATOM      2  C   UNL     1      10.542  13.151  20.844  1.00  0.00     0.161 A 
ATOM      3  C   UNL     1      11.428  13.912  20.072  1.00  0.00     0.098 A 
ATOM      4  C   UNL     1      12.439  14.658  20.684  1.00  0.00     0.142 A 
ATOM      5  C   UNL     1      12.565  14.644  22.089  1.00  0.00     0.022 A 
ATOM      6  C   UNL     1      11.680  13.884  22.865  1.00  0.00     0.062 A 
ATOM      7  C   UNL     1      13.586  15.401  22.673  1.00  0.00     0.019 A 
ATOM      8  C   UNL     1      14.443  16.141  21.858  1.00  0.00     0.094 A 
ATOM      9  C   UNL     1      14.256  16.107  20.471  1.00  0.00     0.336 A 
ATOM     10  O   UNL     1      15.018  16.767  19.718  1.00  0.00    -0.246 OA
ATOM     11  O   UNL     1      13.277  15.377  19.941  1.00  0.00    -0.423 OA
ENDROOT
BRANCH   1  12
ATOM     12  O   UNL     1       9.755  12.358  22.991  1.00  0.00    -0.493 OA
ATOM     13  C   UNL     1       8.903  12.868  24.011  1.00  0.00     0.278 C 
ENDBRANCH   1  12
BRANCH   2  14
ATOM     14  O   UNL     1       9.547  12.420  20.195  1.00  0.00    -0.504 OA
ATOM     15  H   UNL     1       9.136  12.725  19.321  1.00  0.00     0.293 HD
ENDBRANCH   2  14
TORSDOF 2
ENDMDL
MODEL 3
REMARK VINA RESULT:    -4.581      1.868      4.652
REMARK INTER + INTRA:          -5.026
REMARK INTER:                  -4.984
REMARK INTRA:                  -0.043
REMARK UNBOUND:                -0.043
REMARK SMILES COc1cc2ccc(=O)oc2cc1O
REMARK SMILES IDX 3 1 13 2 12 3 11 4 5 5 4 6 6 7 7 8 8 9 9 10 10 11 2 12 1 13
REMARK SMILES IDX 14 14
REMARK H PARENT 14 15
REMARK Flexibility Score: inf
ROOT
ATOM      1  C   UNL     1      11.131  12.954  19.856  1.00  0.00     0.161 A 
ATOM      2  C   UNL     1      10.863  12.987  21.238  1.00  0.00     0.161 A 
ATOM      3  C   UNL     1      11.581  13.850  22.075  1.00  0.00     0.098 A 
ATOM      4  C   UNL     1      12.567  14.688  21.549  1.00  0.00     0.142 A 
ATOM      5  C   UNL     1      12.843  14.662  20.165  1.00  0.00     0.022 A 
ATOM      6  C   UNL     1      12.128  13.799  19.325  1.00  0.00     0.062 A 
ATOM      7  C   UNL     1      13.836  15.512  19.669  1.00  0.00     0.019 A 
ATOM      8  C   UNL     1      14.521  16.353  20.546  1.00  0.00     0.094 A 
ATOM      9  C   UNL     1      14.194  16.323  21.906  1.00  0.00     0.336 A 
ATOM     10  O   UNL     1      14.799  17.074  22.715  1.00  0.00    -0.246 OA
ATOM     11  O   UNL     1      13.243  15.506  22.353  1.00  0.00    -0.423 OA
ENDROOT
BRANCH   1  12
ATOM     12  O   UNL     1      10.394  12.076  19.045  1.00  0.00    -0.493 OA
ATOM     13  C   UNL     1       9.144  12.390  18.441  1.00  0.00     0.278 C 
ENDBRANCH   1  12
BRANCH   2  14
ATOM     14  O   UNL     1       9.886  12.167  21.802  1.00  0.00    -0.504 OA
ATOM     15  H   UNL     1       9.976  11.158  21.827  1.00  0.00     0.293 HD
ENDBRANCH   2  14
TORSDOF 2
ENDMDL
MODEL 4
REMARK VINA RESULT:    -4.574      2.076      3.713
REMARK INTER + INTRA:          -5.018
REMARK INTER:                  -4.953
REMARK INTRA:                  -0.065
REMARK UNBOUND:                -0.043
REMARK SMILES COc1cc2ccc(=O)oc2cc1O
REMARK SMILES IDX 3 1 13 2 12 3 11 4 5 5 4 6 6 7 7 8 8 9 9 10 10 11 2 12 1 13
REMARK SMILES IDX 14 14
REMARK H PARENT 14 15
REMARK Flexibility Score: inf
ROOT
ATOM      1  C   UNL     1      11.563  13.364  19.723  1.00  0.00     0.161 A 
ATOM      2  C   UNL     1      12.379  14.358  19.148  1.00  0.00     0.161 A 
ATOM      3  C   UNL     1      13.086  15.249  19.964  1.00  0.00     0.098 A 
ATOM      4  C   UNL     1      12.992  15.161  21.355  1.00  0.00     0.142 A 
ATOM      5  C   UNL     1      12.178  14.169  21.940  1.00  0.00     0.022 A 
ATOM      6  C   UNL     1      11.467  13.276  21.127  1.00  0.00     0.062 A 
ATOM      7  C   UNL     1      12.104  14.107  23.336  1.00  0.00     0.019 A 
ATOM      8  C   UNL     1      12.829  15.018  24.102  1.00  0.00     0.094 A 
ATOM      9  C   UNL     1      13.616  15.975  23.452  1.00  0.00     0.336 A 
ATOM     10  O   UNL     1      14.279  16.807  24.125  1.00  0.00    -0.246 OA
ATOM     11  O   UNL     1      13.670  16.012  22.123  1.00  0.00    -0.423 OA
ENDROOT
BRANCH   1  12
ATOM     12  O   UNL     1      10.866  12.487  18.876  1.00  0.00    -0.493 OA
ATOM     13  C   UNL     1       9.500  12.635  18.506  1.00  0.00     0.278 C 
ENDBRANCH   1  12
BRANCH   2  14
ATOM     14  O   UNL     1      12.500  14.478  17.764  1.00  0.00    -0.504 OA
ATOM     15  H   UNL     1      13.335  14.847  17.324  1.00  0.00     0.293 HD
ENDBRANCH   2  14
TORSDOF 2
ENDMDL
MODEL 5
REMARK VINA RESULT:    -4.401      2.166      3.112
REMARK INTER + INTRA:          -4.830
REMARK INTER:                  -4.766
REMARK INTRA:                  -0.064
REMARK UNBOUND:                -0.043
REMARK SMILES COc1cc2ccc(=O)oc2cc1O
REMARK SMILES IDX 3 1 13 2 12 3 11 4 5 5 4 6 6 7 7 8 8 9 9 10 10 11 2 12 1 13
REMARK SMILES IDX 14 14
REMARK H PARENT 14 15
REMARK Flexibility Score: inf
ROOT
ATOM      1  C   UNL     1      14.042  15.532  21.495  1.00  0.00     0.161 A 
ATOM      2  C   UNL     1      14.088  15.839  20.121  1.00  0.00     0.161 A 
ATOM      3  C   UNL     1      13.161  15.269  19.241  1.00  0.00     0.098 A 
ATOM      4  C   UNL     1      12.181  14.393  19.714  1.00  0.00     0.142 A 
ATOM      5  C   UNL     1      12.127  14.080  21.088  1.00  0.00     0.022 A 
ATOM      6  C   UNL     1      13.054  14.647  21.973  1.00  0.00     0.062 A 
ATOM      7  C   UNL     1      11.136  13.199  21.532  1.00  0.00     0.019 A 
ATOM      8  C   UNL     1      10.236  12.660  20.613  1.00  0.00     0.094 A 
ATOM      9  C   UNL     1      10.351  13.016  19.264  1.00  0.00     0.336 A 
ATOM     10  O   UNL     1       9.549  12.541  18.418  1.00  0.00    -0.246 OA
ATOM     11  O   UNL     1      11.304  13.857  18.868  1.00  0.00    -0.423 OA
ENDROOT
BRANCH   1  12
ATOM     12  O   UNL     1      14.987  16.120  22.351  1.00  0.00    -0.493 OA
ATOM     13  C   UNL     1      14.707  17.176  23.263  1.00  0.00     0.278 C 
ENDBRANCH   1  12
BRANCH   2  14
ATOM     14  O   UNL     1      15.050  16.709  19.610  1.00  0.00    -0.504 OA
ATOM     15  H   UNL     1      15.084  17.688  19.867  1.00  0.00     0.293 HD
ENDBRANCH   2  14
TORSDOF 2
ENDMDL
MODEL 6
REMARK VINA RESULT:    -3.731      2.182      3.589
REMARK INTER + INTRA:          -4.101
REMARK INTER:                  -4.038
REMARK INTRA:                  -0.063
REMARK UNBOUND:                -0.043
REMARK SMILES COc1cc2ccc(=O)oc2cc1O
REMARK SMILES IDX 3 1 13 2 12 3 11 4 5 5 4 6 6 7 7 8 8 9 9 10 10 11 2 12 1 13
REMARK SMILES IDX 14 14
REMARK H PARENT 14 15
REMARK Flexibility Score: inf
ROOT
ATOM      1  C   UNL     1      13.988  15.322  22.139  1.00  0.00     0.161 A 
ATOM      2  C   UNL     1      13.641  14.196  22.911  1.00  0.00     0.161 A 
ATOM      3  C   UNL     1      12.646  13.318  22.468  1.00  0.00     0.098 A 
ATOM      4  C   UNL     1      11.988  13.546  21.257  1.00  0.00     0.142 A 
ATOM      5  C   UNL     1      12.329  14.671  20.477  1.00  0.00     0.022 A 
ATOM      6  C   UNL     1      13.324  15.554  20.918  1.00  0.00     0.062 A 
ATOM      7  C   UNL     1      11.652  14.874  19.270  1.00  0.00     0.019 A 
ATOM      8  C   UNL     1      10.668  13.967  18.875  1.00  0.00     0.094 A 
ATOM      9  C   UNL     1      10.383  12.874  19.701  1.00  0.00     0.336 A 
ATOM     10  O   UNL     1       9.500  12.044  19.362  1.00  0.00    -0.246 OA
ATOM     11  O   UNL     1      11.043  12.704  20.844  1.00  0.00    -0.423 OA
ENDROOT
BRANCH   1  12
ATOM     12  O   UNL     1      14.991  16.184  22.613  1.00  0.00    -0.493 OA
ATOM     13  C   UNL     1      14.750  17.369  23.364  1.00  0.00     0.278 C 
ENDBRANCH   1  12
BRANCH   2  14
ATOM     14  O   UNL     1      14.276  13.933  24.125  1.00  0.00    -0.504 OA
ATOM     15  H   UNL     1      15.053  13.287  24.199  1.00  0.00     0.293 HD
ENDBRANCH   2  14
TORSDOF 2
ENDMDL
MODEL 7
REMARK VINA RESULT:    -3.669      1.776      2.880
REMARK INTER + INTRA:          -4.034
REMARK INTER:                  -3.983
REMARK INTRA:                  -0.052
REMARK UNBOUND:                -0.043
REMARK SMILES COc1cc2ccc(=O)oc2cc1O
REMARK SMILES IDX 3 1 13 2 12 3 11 4 5 5 4 6 6 7 7 8 8 9 9 10 10 11 2 12 1 13
REMARK SMILES IDX 14 14
REMARK H PARENT 14 15
REMARK Flexibility Score: inf
ROOT
ATOM      1  C   UNL     1      14.004  15.304  21.877  1.00  0.00     0.161 A 
ATOM      2  C   UNL     1      13.737  15.743  23.189  1.00  0.00     0.161 A 
ATOM      3  C   UNL     1      12.628  15.250  23.885  1.00  0.00     0.098 A 
ATOM      4  C   UNL     1      11.775  14.318  23.289  1.00  0.00     0.142 A 
ATOM      5  C   UNL     1      12.034  13.872  21.975  1.00  0.00     0.022 A 
ATOM      6  C   UNL     1      13.143  14.364  21.275  1.00  0.00     0.062 A 
ATOM      7  C   UNL     1      11.162  12.939  21.405  1.00  0.00     0.019 A 
ATOM      8  C   UNL     1      10.071  12.479  22.143  1.00  0.00     0.094 A 
ATOM      9  C   UNL     1       9.877  12.967  23.440  1.00  0.00     0.336 A 
ATOM     10  O   UNL     1       8.899  12.565  24.124  1.00  0.00    -0.246 OA
ATOM     11  O   UNL     1      10.723  13.854  23.960  1.00  0.00    -0.423 OA
ENDROOT
BRANCH   1  12
ATOM     12  O   UNL     1      15.125  15.819  21.206  1.00  0.00    -0.493 OA
ATOM     13  C   UNL     1      15.107  16.340  19.882  1.00  0.00     0.278 C 
ENDBRANCH   1  12
BRANCH   2  14
ATOM     14  O   UNL     1      14.565  16.672  23.819  1.00  0.00    -0.504 OA
ATOM     15  H   UNL     1      14.759  16.636  24.813  1.00  0.00     0.293 HD
ENDBRANCH   2  14
TORSDOF 2
ENDMDL
MODEL 8
REMARK VINA RESULT:    -3.211     14.706     16.405
REMARK INTER + INTRA:          -3.536
REMARK INTER:                  -3.480
REMARK INTRA:                  -0.056
REMARK UNBOUND:                -0.043
REMARK SMILES COc1cc2ccc(=O)oc2cc1O
REMARK SMILES IDX 3 1 13 2 12 3 11 4 5 5 4 6 6 7 7 8 8 9 9 10 10 11 2 12 1 13
REMARK SMILES IDX 14 14
REMARK H PARENT 14 15
REMARK Flexibility Score: inf
ROOT
ATOM      1  C   UNL     1      -3.162  13.301  22.053  1.00  0.00     0.161 A 
ATOM      2  C   UNL     1      -4.416  13.911  21.858  1.00  0.00     0.161 A 
ATOM      3  C   UNL     1      -5.043  13.849  20.609  1.00  0.00     0.098 A 
ATOM      4  C   UNL     1      -4.434  13.182  19.543  1.00  0.00     0.142 A 
ATOM      5  C   UNL     1      -3.178  12.568  19.729  1.00  0.00     0.022 A 
ATOM      6  C   UNL     1      -2.546  12.628  20.978  1.00  0.00     0.062 A 
ATOM      7  C   UNL     1      -2.593  11.908  18.643  1.00  0.00     0.019 A 
ATOM      8  C   UNL     1      -3.261  11.876  17.419  1.00  0.00     0.094 A 
ATOM      9  C   UNL     1      -4.505  12.508  17.310  1.00  0.00     0.336 A 
ATOM     10  O   UNL     1      -5.125  12.491  16.214  1.00  0.00    -0.246 OA
ATOM     11  O   UNL     1      -5.040  13.129  18.359  1.00  0.00    -0.423 OA
ENDROOT
BRANCH   1  12
ATOM     12  O   UNL     1      -2.559  13.382  23.319  1.00  0.00    -0.493 OA
ATOM     13  C   UNL     1      -2.169  12.259  24.103  1.00  0.00     0.278 C 
ENDBRANCH   1  12
BRANCH   2  14
ATOM     14  O   UNL     1      -5.057  14.586  22.897  1.00  0.00    -0.504 OA
ATOM     15  H   UNL     1      -5.367  15.546  22.807  1.00  0.00     0.293 HD
ENDBRANCH   2  14
TORSDOF 2
ENDMDL
