MODEL 1
REMARK VINA RESULT:    -7.542      0.000      0.000
REMARK INTER + INTRA:          -9.286
REMARK INTER:                  -9.085
REMARK INTRA:                  -0.200
REMARK UNBOUND:                -0.200
REMARK SMILES O=c1c(O)c(-c2ccc(O)cc2O)oc2cc(O)cc(O)c12
REMARK SMILES IDX 5 1 3 2 2 3 1 4 22 5 20 6 19 7 17 8 16 9 15 10 14 11 6 12
REMARK SMILES IDX 8 13 7 14 9 15 11 16 12 17 10 18 13 20 4 22 21 24 18 26
REMARK H PARENT 10 19 13 21 4 23 21 25 18 27
REMARK Flexibility Score: inf
ROOT
ATOM      1  C   UNL     1      16.659  30.275  11.447  1.00  0.00     0.184 A 
ATOM      2  C   UNL     1      17.946  29.764  11.667  1.00  0.00     0.208 A 
ATOM      3  C   UNL     1      18.217  28.430  11.326  1.00  0.00     0.238 A 
ATOM      4  O   UNL     1      19.392  28.000  11.457  1.00  0.00    -0.285 OA
ATOM      5  C   UNL     1      17.179  27.609  10.819  1.00  0.00     0.111 A 
ATOM      6  C   UNL     1      17.327  26.230  10.480  1.00  0.00     0.134 A 
ATOM      7  C   UNL     1      16.259  25.546   9.887  1.00  0.00     0.093 A 
ATOM      8  C   UNL     1      15.030  26.170   9.679  1.00  0.00     0.123 A 
ATOM      9  C   UNL     1      14.856  27.502  10.058  1.00  0.00     0.094 A 
ATOM     10  C   UNL     1      15.914  28.223  10.616  1.00  0.00     0.146 A 
ATOM     11  O   UNL     1      15.713  29.494  10.942  1.00  0.00    -0.451 OA
ENDROOT
BRANCH   1  12
ATOM     12  C   UNL     1      16.311  31.673  11.778  1.00  0.00     0.063 A 
ATOM     13  C   UNL     1      16.843  34.040  11.617  1.00  0.00     0.047 A 
ATOM     14  C   UNL     1      17.141  32.708  11.318  1.00  0.00     0.020 A 
ATOM     15  C   UNL     1      15.721  34.353  12.392  1.00  0.00     0.119 A 
ATOM     16  C   UNL     1      14.902  33.327  12.874  1.00  0.00     0.093 A 
ATOM     17  C   UNL     1      15.196  31.987  12.584  1.00  0.00     0.130 A 
BRANCH  15  18
ATOM     18  O   UNL     1      15.414  35.678  12.694  1.00  0.00    -0.508 OA
ATOM     19  H   UNL     1      14.525  35.934  13.109  1.00  0.00     0.293 HD
ENDBRANCH  15  18
BRANCH  17  20
ATOM     20  O   UNL     1      14.399  30.971  13.111  1.00  0.00    -0.507 OA
ATOM     21  H   UNL     1      14.576  29.995  12.902  1.00  0.00     0.293 HD
ENDBRANCH  17  20
ENDBRANCH   1  12
BRANCH   2  22
ATOM     22  O   UNL     1      18.933  30.575  12.237  1.00  0.00    -0.502 OA
ATOM     23  H   UNL     1      19.873  30.243  12.413  1.00  0.00     0.293 HD
ENDBRANCH   2  22
BRANCH   6  24
ATOM     24  O   UNL     1      18.484  25.483  10.723  1.00  0.00    -0.507 OA
ATOM     25  H   UNL     1      19.425  25.805  10.559  1.00  0.00     0.293 HD
ENDBRANCH   6  24
BRANCH   8  26
ATOM     26  O   UNL     1      13.983  25.453   9.104  1.00  0.00    -0.508 OA
ATOM     27  H   UNL     1      14.140  24.806   8.340  1.00  0.00     0.293 HD
ENDBRANCH   8  26
TORSDOF 6
ENDMDL
MODEL 2
REMARK VINA RESULT:    -7.159      4.105      7.361
REMARK INTER + INTRA:          -8.824
REMARK INTER:                  -8.403
REMARK INTRA:                  -0.420
REMARK UNBOUND:                -0.200
REMARK SMILES O=c1c(O)c(-c2ccc(O)cc2O)oc2cc(O)cc(O)c12
REMARK SMILES IDX 5 1 3 2 2 3 1 4 22 5 20 6 19 7 17 8 16 9 15 10 14 11 6 12
REMARK SMILES IDX 8 13 7 14 9 15 11 16 12 17 10 18 13 20 4 22 21 24 18 26
REMARK H PARENT 10 19 13 21 4 23 21 25 18 27
REMARK Flexibility Score: inf
ROOT
ATOM      1  C   UNL     1      14.265  36.311  13.692  1.00  0.00     0.184 A 
ATOM      2  C   UNL     1      13.388  35.332  14.182  1.00  0.00     0.208 A 
ATOM      3  C   UNL     1      13.687  33.979  13.963  1.00  0.00     0.238 A 
ATOM      4  O   UNL     1      12.935  33.105  14.468  1.00  0.00    -0.285 OA
ATOM      5  C   UNL     1      14.833  33.624  13.208  1.00  0.00     0.111 A 
ATOM      6  C   UNL     1      15.210  32.285  12.886  1.00  0.00     0.134 A 
ATOM      7  C   UNL     1      16.422  32.049  12.224  1.00  0.00     0.093 A 
ATOM      8  C   UNL     1      17.237  33.104  11.816  1.00  0.00     0.123 A 
ATOM      9  C   UNL     1      16.851  34.419  12.076  1.00  0.00     0.094 A 
ATOM     10  C   UNL     1      15.668  34.686  12.769  1.00  0.00     0.146 A 
ATOM     11  O   UNL     1      15.348  35.951  13.015  1.00  0.00    -0.451 OA
ENDROOT
BRANCH   1  12
ATOM     12  C   UNL     1      14.013  37.753  13.894  1.00  0.00     0.063 A 
ATOM     13  C   UNL     1      12.886  39.785  13.178  1.00  0.00     0.047 A 
ATOM     14  C   UNL     1      13.142  38.421  13.018  1.00  0.00     0.020 A 
ATOM     15  C   UNL     1      13.508  40.502  14.207  1.00  0.00     0.119 A 
ATOM     16  C   UNL     1      14.394  39.849  15.070  1.00  0.00     0.093 A 
ATOM     17  C   UNL     1      14.661  38.482  14.913  1.00  0.00     0.130 A 
BRANCH  15  18
ATOM     18  O   UNL     1      13.256  41.861  14.378  1.00  0.00    -0.508 OA
ATOM     19  H   UNL     1      12.590  42.354  13.795  1.00  0.00     0.293 HD
ENDBRANCH  15  18
BRANCH  17  20
ATOM     20  O   UNL     1      15.585  37.854  15.750  1.00  0.00    -0.507 OA
ATOM     21  H   UNL     1      16.450  37.468  15.391  1.00  0.00     0.293 HD
ENDBRANCH  17  20
ENDBRANCH   1  12
BRANCH   2  22
ATOM     22  O   UNL     1      12.226  35.711  14.861  1.00  0.00    -0.502 OA
ATOM     23  H   UNL     1      12.148  35.666  15.869  1.00  0.00     0.293 HD
ENDBRANCH   2  22
BRANCH   6  24
ATOM     24  O   UNL     1      14.428  31.161  13.169  1.00  0.00    -0.507 OA
ATOM     25  H   UNL     1      14.357  30.720  14.073  1.00  0.00     0.293 HD
ENDBRANCH   6  24
BRANCH   8  26
ATOM     26  O   UNL     1      18.427  32.833  11.144  1.00  0.00    -0.508 OA
ATOM     27  H   UNL     1      18.551  31.981  10.609  1.00  0.00     0.293 HD
ENDBRANCH   8  26
TORSDOF 6
ENDMDL
MODEL 3
REMARK VINA RESULT:    -6.913      1.662      2.965
REMARK INTER + INTRA:          -8.528
REMARK INTER:                  -8.136
REMARK INTRA:                  -0.392
REMARK UNBOUND:                -0.200
REMARK SMILES O=c1c(O)c(-c2ccc(O)cc2O)oc2cc(O)cc(O)c12
REMARK SMILES IDX 5 1 3 2 2 3 1 4 22 5 20 6 19 7 17 8 16 9 15 10 14 11 6 12
REMARK SMILES IDX 8 13 7 14 9 15 11 16 12 17 10 18 13 20 4 22 21 24 18 26
REMARK H PARENT 10 19 13 21 4 23 21 25 18 27
REMARK Flexibility Score: inf
ROOT
ATOM      1  C   UNL     1      16.307  29.909  10.741  1.00  0.00     0.184 A 
ATOM      2  C   UNL     1      15.216  29.028  10.747  1.00  0.00     0.208 A 
ATOM      3  C   UNL     1      15.388  27.728  10.247  1.00  0.00     0.238 A 
ATOM      4  O   UNL     1      14.427  26.919  10.324  1.00  0.00    -0.285 OA
ATOM      5  C   UNL     1      16.636  27.344   9.696  1.00  0.00     0.111 A 
ATOM      6  C   UNL     1      16.912  26.067   9.121  1.00  0.00     0.134 A 
ATOM      7  C   UNL     1      18.214  25.765   8.703  1.00  0.00     0.093 A 
ATOM      8  C   UNL     1      19.234  26.712   8.780  1.00  0.00     0.123 A 
ATOM      9  C   UNL     1      18.963  27.982   9.290  1.00  0.00     0.094 A 
ATOM     10  C   UNL     1      17.684  28.302   9.750  1.00  0.00     0.146 A 
ATOM     11  O   UNL     1      17.474  29.515  10.248  1.00  0.00    -0.451 OA
ENDROOT
BRANCH   1  12
ATOM     12  C   UNL     1      16.195  31.288  11.259  1.00  0.00     0.063 A 
ATOM     13  C   UNL     1      15.924  33.662  10.807  1.00  0.00     0.047 A 
ATOM     14  C   UNL     1      16.027  32.346  10.350  1.00  0.00     0.020 A 
ATOM     15  C   UNL     1      16.001  33.940  12.176  1.00  0.00     0.119 A 
ATOM     16  C   UNL     1      16.191  32.896  13.086  1.00  0.00     0.093 A 
ATOM     17  C   UNL     1      16.302  31.572  12.637  1.00  0.00     0.130 A 
BRANCH  15  18
ATOM     18  O   UNL     1      15.895  35.248  12.642  1.00  0.00    -0.508 OA
ATOM     19  H   UNL     1      16.637  35.681  13.179  1.00  0.00     0.293 HD
ENDBRANCH  15  18
BRANCH  17  20
ATOM     20  O   UNL     1      16.541  30.546  13.551  1.00  0.00    -0.507 OA
ATOM     21  H   UNL     1      16.008  30.465  14.409  1.00  0.00     0.293 HD
ENDBRANCH  17  20
ENDBRANCH   1  12
BRANCH   2  22
ATOM     22  O   UNL     1      13.975  29.454  11.230  1.00  0.00    -0.502 OA
ATOM     23  H   UNL     1      13.587  30.361  11.003  1.00  0.00     0.293 HD
ENDBRANCH   2  22
BRANCH   6  24
ATOM     24  O   UNL     1      15.948  25.076   8.915  1.00  0.00    -0.507 OA
ATOM     25  H   UNL     1      16.142  24.090   8.833  1.00  0.00     0.293 HD
ENDBRANCH   6  24
BRANCH   8  26
ATOM     26  O   UNL     1      20.514  26.382   8.338  1.00  0.00    -0.508 OA
ATOM     27  H   UNL     1      21.000  26.948   7.653  1.00  0.00     0.293 HD
ENDBRANCH   8  26
TORSDOF 6
ENDMDL
MODEL 4
REMARK VINA RESULT:    -6.866      1.755      7.135
REMARK INTER + INTRA:          -8.471
REMARK INTER:                  -8.131
REMARK INTRA:                  -0.340
REMARK UNBOUND:                -0.200
REMARK SMILES O=c1c(O)c(-c2ccc(O)cc2O)oc2cc(O)cc(O)c12
REMARK SMILES IDX 5 1 3 2 2 3 1 4 22 5 20 6 19 7 17 8 16 9 15 10 14 11 6 12
REMARK SMILES IDX 8 13 7 14 9 15 11 16 12 17 10 18 13 20 4 22 21 24 18 26
REMARK H PARENT 10 19 13 21 4 23 21 25 18 27
REMARK Flexibility Score: inf
ROOT
ATOM      1  C   UNL     1      16.384  31.153  11.436  1.00  0.00     0.184 A 
ATOM      2  C   UNL     1      15.501  31.724  12.364  1.00  0.00     0.208 A 
ATOM      3  C   UNL     1      15.604  33.096  12.646  1.00  0.00     0.238 A 
ATOM      4  O   UNL     1      14.762  33.617  13.423  1.00  0.00    -0.285 OA
ATOM      5  C   UNL     1      16.625  33.866  12.036  1.00  0.00     0.111 A 
ATOM      6  C   UNL     1      16.851  35.254  12.280  1.00  0.00     0.134 A 
ATOM      7  C   UNL     1      17.824  35.936  11.539  1.00  0.00     0.093 A 
ATOM      8  C   UNL     1      18.622  35.270  10.610  1.00  0.00     0.123 A 
ATOM      9  C   UNL     1      18.447  33.901  10.403  1.00  0.00     0.094 A 
ATOM     10  C   UNL     1      17.459  33.200  11.098  1.00  0.00     0.146 A 
ATOM     11  O   UNL     1      17.312  31.903  10.855  1.00  0.00    -0.451 OA
ENDROOT
BRANCH   1  12
ATOM     12  C   UNL     1      16.325  29.718  11.089  1.00  0.00     0.063 A 
ATOM     13  C   UNL     1      15.064  27.853  10.169  1.00  0.00     0.047 A 
ATOM     14  C   UNL     1      15.155  29.207  10.503  1.00  0.00     0.020 A 
ATOM     15  C   UNL     1      16.135  26.991  10.428  1.00  0.00     0.119 A 
ATOM     16  C   UNL     1      17.295  27.487  11.032  1.00  0.00     0.093 A 
ATOM     17  C   UNL     1      17.393  28.842  11.377  1.00  0.00     0.130 A 
BRANCH  15  18
ATOM     18  O   UNL     1      16.056  25.641  10.094  1.00  0.00    -0.508 OA
ATOM     19  H   UNL     1      15.624  25.332   9.231  1.00  0.00     0.293 HD
ENDBRANCH  15  18
BRANCH  17  20
ATOM     20  O   UNL     1      18.536  29.313  12.023  1.00  0.00    -0.507 OA
ATOM     21  H   UNL     1      19.188  29.936  11.561  1.00  0.00     0.293 HD
ENDBRANCH  17  20
ENDBRANCH   1  12
BRANCH   2  22
ATOM     22  O   UNL     1      14.549  30.927  13.006  1.00  0.00    -0.502 OA
ATOM     23  H   UNL     1      14.129  30.120  12.563  1.00  0.00     0.293 HD
ENDBRANCH   2  22
BRANCH   6  24
ATOM     24  O   UNL     1      16.171  36.000  13.248  1.00  0.00    -0.507 OA
ATOM     25  H   UNL     1      16.584  36.725  13.813  1.00  0.00     0.293 HD
ENDBRANCH   6  24
BRANCH   8  26
ATOM     26  O   UNL     1      19.592  35.977   9.904  1.00  0.00    -0.508 OA
ATOM     27  H   UNL     1      20.290  36.538  10.379  1.00  0.00     0.293 HD
ENDBRANCH   8  26
TORSDOF 6
ENDMDL
MODEL 5
REMARK VINA RESULT:    -6.810      8.972     11.428
REMARK INTER + INTRA:          -8.404
REMARK INTER:                  -8.071
REMARK INTRA:                  -0.333
REMARK UNBOUND:                -0.200
REMARK SMILES O=c1c(O)c(-c2ccc(O)cc2O)oc2cc(O)cc(O)c12
REMARK SMILES IDX 5 1 3 2 2 3 1 4 22 5 20 6 19 7 17 8 16 9 15 10 14 11 6 12
REMARK SMILES IDX 8 13 7 14 9 15 11 16 12 17 10 18 13 20 4 22 21 24 18 26
REMARK H PARENT 10 19 13 21 4 23 21 25 18 27
REMARK Flexibility Score: inf
ROOT
ATOM      1  C   UNL     1      11.301  33.092   3.818  1.00  0.00     0.184 A 
ATOM      2  C   UNL     1      12.664  32.762   3.831  1.00  0.00     0.208 A 
ATOM      3  C   UNL     1      13.561  33.599   4.513  1.00  0.00     0.238 A 
ATOM      4  O   UNL     1      14.771  33.258   4.582  1.00  0.00    -0.285 OA
ATOM      5  C   UNL     1      13.089  34.785   5.128  1.00  0.00     0.111 A 
ATOM      6  C   UNL     1      13.913  35.730   5.809  1.00  0.00     0.134 A 
ATOM      7  C   UNL     1      13.321  36.813   6.471  1.00  0.00     0.093 A 
ATOM      8  C   UNL     1      11.944  37.021   6.423  1.00  0.00     0.123 A 
ATOM      9  C   UNL     1      11.133  36.134   5.713  1.00  0.00     0.094 A 
ATOM     10  C   UNL     1      11.689  35.023   5.075  1.00  0.00     0.146 A 
ATOM     11  O   UNL     1      10.880  34.192   4.429  1.00  0.00    -0.451 OA
ENDROOT
BRANCH   1  12
ATOM     12  C   UNL     1      10.304  32.250   3.125  1.00  0.00     0.063 A 
ATOM     13  C   UNL     1       9.205  30.092   2.897  1.00  0.00     0.047 A 
ATOM     14  C   UNL     1      10.135  30.917   3.535  1.00  0.00     0.020 A 
ATOM     15  C   UNL     1       8.443  30.584   1.832  1.00  0.00     0.119 A 
ATOM     16  C   UNL     1       8.622  31.903   1.401  1.00  0.00     0.093 A 
ATOM     17  C   UNL     1       9.557  32.736   2.032  1.00  0.00     0.130 A 
BRANCH  15  18
ATOM     18  O   UNL     1       7.511  29.772   1.191  1.00  0.00    -0.508 OA
ATOM     19  H   UNL     1       6.818  29.247   1.713  1.00  0.00     0.293 HD
ENDBRANCH  15  18
BRANCH  17  20
ATOM     20  O   UNL     1       9.760  34.034   1.561  1.00  0.00    -0.507 OA
ATOM     21  H   UNL     1       9.729  34.250   0.571  1.00  0.00     0.293 HD
ENDBRANCH  17  20
ENDBRANCH   1  12
BRANCH   2  22
ATOM     22  O   UNL     1      13.115  31.624   3.154  1.00  0.00    -0.502 OA
ATOM     23  H   UNL     1      13.182  31.584   2.145  1.00  0.00     0.293 HD
ENDBRANCH   2  22
BRANCH   6  24
ATOM     24  O   UNL     1      15.310  35.668   5.848  1.00  0.00    -0.507 OA
ATOM     25  H   UNL     1      15.848  34.819   5.928  1.00  0.00     0.293 HD
ENDBRANCH   6  24
BRANCH   8  26
ATOM     26  O   UNL     1      11.391  38.120   7.077  1.00  0.00    -0.508 OA
ATOM     27  H   UNL     1      11.829  39.032   7.044  1.00  0.00     0.293 HD
ENDBRANCH   8  26
TORSDOF 6
ENDMDL
MODEL 6
REMARK VINA RESULT:    -6.783      9.667     11.159
REMARK INTER + INTRA:          -8.371
REMARK INTER:                  -7.972
REMARK INTRA:                  -0.400
REMARK UNBOUND:                -0.200
REMARK SMILES O=c1c(O)c(-c2ccc(O)cc2O)oc2cc(O)cc(O)c12
REMARK SMILES IDX 5 1 3 2 2 3 1 4 22 5 20 6 19 7 17 8 16 9 15 10 14 11 6 12
REMARK SMILES IDX 8 13 7 14 9 15 11 16 12 17 10 18 13 20 4 22 21 24 18 26
REMARK H PARENT 10 19 13 21 4 23 21 25 18 27
REMARK Flexibility Score: inf
ROOT
ATOM      1  C   UNL     1      10.035  32.567   3.902  1.00  0.00     0.184 A 
ATOM      2  C   UNL     1       9.314  32.945   2.760  1.00  0.00     0.208 A 
ATOM      3  C   UNL     1       8.083  32.325   2.496  1.00  0.00     0.238 A 
ATOM      4  O   UNL     1       7.407  32.720   1.510  1.00  0.00    -0.285 OA
ATOM      5  C   UNL     1       7.616  31.295   3.349  1.00  0.00     0.111 A 
ATOM      6  C   UNL     1       6.403  30.566   3.155  1.00  0.00     0.134 A 
ATOM      7  C   UNL     1       5.990  29.642   4.122  1.00  0.00     0.093 A 
ATOM      8  C   UNL     1       6.773  29.374   5.244  1.00  0.00     0.123 A 
ATOM      9  C   UNL     1       7.987  30.040   5.417  1.00  0.00     0.094 A 
ATOM     10  C   UNL     1       8.409  30.995   4.489  1.00  0.00     0.146 A 
ATOM     11  O   UNL     1       9.560  31.621   4.703  1.00  0.00    -0.451 OA
ENDROOT
BRANCH   1  12
ATOM     12  C   UNL     1      11.333  33.185   4.242  1.00  0.00     0.063 A 
ATOM     13  C   UNL     1      12.556  35.061   5.192  1.00  0.00     0.047 A 
ATOM     14  C   UNL     1      11.345  34.445   4.863  1.00  0.00     0.020 A 
ATOM     15  C   UNL     1      13.769  34.431   4.892  1.00  0.00     0.119 A 
ATOM     16  C   UNL     1      13.767  33.187   4.253  1.00  0.00     0.093 A 
ATOM     17  C   UNL     1      12.557  32.565   3.913  1.00  0.00     0.130 A 
BRANCH  15  18
ATOM     18  O   UNL     1      14.981  35.034   5.219  1.00  0.00    -0.508 OA
ATOM     19  H   UNL     1      15.315  35.854   4.726  1.00  0.00     0.293 HD
ENDBRANCH  15  18
BRANCH  17  20
ATOM     20  O   UNL     1      12.569  31.347   3.232  1.00  0.00    -0.507 OA
ATOM     21  H   UNL     1      12.098  31.232   2.343  1.00  0.00     0.293 HD
ENDBRANCH  17  20
ENDBRANCH   1  12
BRANCH   2  22
ATOM     22  O   UNL     1       9.832  33.913   1.894  1.00  0.00    -0.502 OA
ATOM     23  H   UNL     1       9.426  34.836   1.807  1.00  0.00     0.293 HD
ENDBRANCH   2  22
BRANCH   6  24
ATOM     24  O   UNL     1       5.587  30.691   2.027  1.00  0.00    -0.507 OA
ATOM     25  H   UNL     1       5.494  31.527   1.471  1.00  0.00     0.293 HD
ENDBRANCH   6  24
BRANCH   8  26
ATOM     26  O   UNL     1       6.339  28.435   6.177  1.00  0.00    -0.508 OA
ATOM     27  H   UNL     1       6.115  27.484   5.908  1.00  0.00     0.293 HD
ENDBRANCH   8  26
TORSDOF 6
ENDMDL
MODEL 7
REMARK VINA RESULT:    -6.676      9.306     10.643
REMARK INTER + INTRA:          -8.242
REMARK INTER:                  -7.808
REMARK INTRA:                  -0.434
REMARK UNBOUND:                -0.200
REMARK SMILES O=c1c(O)c(-c2ccc(O)cc2O)oc2cc(O)cc(O)c12
REMARK SMILES IDX 5 1 3 2 2 3 1 4 22 5 20 6 19 7 17 8 16 9 15 10 14 11 6 12
REMARK SMILES IDX 8 13 7 14 9 15 11 16 12 17 10 18 13 20 4 22 21 24 18 26
REMARK H PARENT 10 19 13 21 4 23 21 25 18 27
REMARK Flexibility Score: inf
ROOT
ATOM      1  C   UNL     1      10.633  32.753   4.376  1.00  0.00     0.184 A 
ATOM      2  C   UNL     1       9.864  32.210   5.416  1.00  0.00     0.208 A 
ATOM      3  C   UNL     1       8.762  31.401   5.097  1.00  0.00     0.238 A 
ATOM      4  O   UNL     1       8.121  30.858   6.033  1.00  0.00    -0.285 OA
ATOM      5  C   UNL     1       8.412  31.191   3.740  1.00  0.00     0.111 A 
ATOM      6  C   UNL     1       7.290  30.426   3.299  1.00  0.00     0.134 A 
ATOM      7  C   UNL     1       7.105  30.198   1.930  1.00  0.00     0.093 A 
ATOM      8  C   UNL     1       7.960  30.760   0.983  1.00  0.00     0.123 A 
ATOM      9  C   UNL     1       9.028  31.555   1.399  1.00  0.00     0.094 A 
ATOM     10  C   UNL     1       9.263  31.769   2.759  1.00  0.00     0.146 A 
ATOM     11  O   UNL     1      10.303  32.515   3.114  1.00  0.00    -0.451 OA
ENDROOT
BRANCH   1  12
ATOM     12  C   UNL     1      11.809  33.606   4.644  1.00  0.00     0.063 A 
ATOM     13  C   UNL     1      12.698  35.774   5.298  1.00  0.00     0.047 A 
ATOM     14  C   UNL     1      11.608  34.938   5.043  1.00  0.00     0.020 A 
ATOM     15  C   UNL     1      14.003  35.293   5.145  1.00  0.00     0.119 A 
ATOM     16  C   UNL     1      14.213  33.975   4.727  1.00  0.00     0.093 A 
ATOM     17  C   UNL     1      13.125  33.132   4.462  1.00  0.00     0.130 A 
BRANCH  15  18
ATOM     18  O   UNL     1      15.097  36.117   5.401  1.00  0.00    -0.508 OA
ATOM     19  H   UNL     1      16.000  35.734   5.658  1.00  0.00     0.293 HD
ENDBRANCH  15  18
BRANCH  17  20
ATOM     20  O   UNL     1      13.348  31.835   3.997  1.00  0.00    -0.507 OA
ATOM     21  H   UNL     1      12.686  31.088   4.169  1.00  0.00     0.293 HD
ENDBRANCH  17  20
ENDBRANCH   1  12
BRANCH   2  22
ATOM     22  O   UNL     1      10.187  32.492   6.747  1.00  0.00    -0.502 OA
ATOM     23  H   UNL     1      11.096  32.844   7.022  1.00  0.00     0.293 HD
ENDBRANCH   2  22
BRANCH   6  24
ATOM     24  O   UNL     1       6.323  29.890   4.154  1.00  0.00    -0.507 OA
ATOM     25  H   UNL     1       6.287  28.929   4.456  1.00  0.00     0.293 HD
ENDBRANCH   6  24
BRANCH   8  26
ATOM     26  O   UNL     1       7.734  30.527  -0.372  1.00  0.00    -0.508 OA
ATOM     27  H   UNL     1       8.332  29.913  -0.912  1.00  0.00     0.293 HD
ENDBRANCH   8  26
TORSDOF 6
ENDMDL
MODEL 8
REMARK VINA RESULT:    -6.624      4.897      7.550
REMARK INTER + INTRA:          -8.180
REMARK INTER:                  -7.763
REMARK INTRA:                  -0.417
REMARK UNBOUND:                -0.200
REMARK SMILES O=c1c(O)c(-c2ccc(O)cc2O)oc2cc(O)cc(O)c12
REMARK SMILES IDX 5 1 3 2 2 3 1 4 22 5 20 6 19 7 17 8 16 9 15 10 14 11 6 12
REMARK SMILES IDX 8 13 7 14 9 15 11 16 12 17 10 18 13 20 4 22 21 24 18 26
REMARK H PARENT 10 19 13 21 4 23 21 25 18 27
REMARK Flexibility Score: inf
ROOT
ATOM      1  C   UNL     1      15.375  36.396  13.480  1.00  0.00     0.184 A 
ATOM      2  C   UNL     1      15.157  35.045  13.787  1.00  0.00     0.208 A 
ATOM      3  C   UNL     1      15.960  34.069  13.174  1.00  0.00     0.238 A 
ATOM      4  O   UNL     1      15.808  32.866  13.509  1.00  0.00    -0.285 OA
ATOM      5  C   UNL     1      16.934  34.456  12.221  1.00  0.00     0.111 A 
ATOM      6  C   UNL     1      17.774  33.551  11.505  1.00  0.00     0.134 A 
ATOM      7  C   UNL     1      18.775  34.055  10.665  1.00  0.00     0.093 A 
ATOM      8  C   UNL     1      18.925  35.426  10.465  1.00  0.00     0.123 A 
ATOM      9  C   UNL     1      18.074  36.319  11.117  1.00  0.00     0.094 A 
ATOM     10  C   UNL     1      17.091  35.849  11.991  1.00  0.00     0.146 A 
ATOM     11  O   UNL     1      16.316  36.734  12.608  1.00  0.00    -0.451 OA
ENDROOT
BRANCH   1  12
ATOM     12  C   UNL     1      14.571  37.472  14.095  1.00  0.00     0.063 A 
ATOM     13  C   UNL     1      12.674  38.987  13.954  1.00  0.00     0.047 A 
ATOM     14  C   UNL     1      13.453  37.966  13.404  1.00  0.00     0.020 A 
ATOM     15  C   UNL     1      13.011  39.536  15.197  1.00  0.00     0.119 A 
ATOM     16  C   UNL     1      14.135  39.066  15.882  1.00  0.00     0.093 A 
ATOM     17  C   UNL     1      14.926  38.046  15.334  1.00  0.00     0.130 A 
BRANCH  15  18
ATOM     18  O   UNL     1      12.239  40.552  15.756  1.00  0.00    -0.508 OA
ATOM     19  H   UNL     1      12.561  41.082  16.558  1.00  0.00     0.293 HD
ENDBRANCH  15  18
BRANCH  17  20
ATOM     20  O   UNL     1      16.073  37.620  16.005  1.00  0.00    -0.507 OA
ATOM     21  H   UNL     1      16.823  37.140  15.521  1.00  0.00     0.293 HD
ENDBRANCH  17  20
ENDBRANCH   1  12
BRANCH   2  22
ATOM     22  O   UNL     1      14.140  34.684  14.676  1.00  0.00    -0.502 OA
ATOM     23  H   UNL     1      13.494  35.360  15.065  1.00  0.00     0.293 HD
ENDBRANCH   2  22
BRANCH   6  24
ATOM     24  O   UNL     1      17.655  32.159  11.563  1.00  0.00    -0.507 OA
ATOM     25  H   UNL     1      18.089  31.570  12.256  1.00  0.00     0.293 HD
ENDBRANCH   6  24
BRANCH   8  26
ATOM     26  O   UNL     1      19.920  35.891   9.608  1.00  0.00    -0.508 OA
ATOM     27  H   UNL     1      20.828  35.445   9.558  1.00  0.00     0.293 HD
ENDBRANCH   8  26
TORSDOF 6
ENDMDL
MODEL 9
REMARK VINA RESULT:    -6.392      7.776      9.189
REMARK INTER + INTRA:          -7.899
REMARK INTER:                  -7.485
REMARK INTRA:                  -0.414
REMARK UNBOUND:                -0.200
REMARK SMILES O=c1c(O)c(-c2ccc(O)cc2O)oc2cc(O)cc(O)c12
REMARK SMILES IDX 5 1 3 2 2 3 1 4 22 5 20 6 19 7 17 8 16 9 15 10 14 11 6 12
REMARK SMILES IDX 8 13 7 14 9 15 11 16 12 17 10 18 13 20 4 22 21 24 18 26
REMARK H PARENT 10 19 13 21 4 23 21 25 18 27
REMARK Flexibility Score: inf
ROOT
ATOM      1  C   UNL     1      12.657  34.342   5.634  1.00  0.00     0.184 A 
ATOM      2  C   UNL     1      11.733  34.358   6.689  1.00  0.00     0.208 A 
ATOM      3  C   UNL     1      10.570  33.580   6.588  1.00  0.00     0.238 A 
ATOM      4  O   UNL     1       9.782  33.541   7.568  1.00  0.00    -0.285 OA
ATOM      5  C   UNL     1      10.320  32.837   5.407  1.00  0.00     0.111 A 
ATOM      6  C   UNL     1       9.154  32.047   5.175  1.00  0.00     0.134 A 
ATOM      7  C   UNL     1       9.065  31.271   4.013  1.00  0.00     0.093 A 
ATOM      8  C   UNL     1      10.067  31.305   3.045  1.00  0.00     0.123 A 
ATOM      9  C   UNL     1      11.187  32.116   3.235  1.00  0.00     0.094 A 
ATOM     10  C   UNL     1      11.323  32.872   4.401  1.00  0.00     0.146 A 
ATOM     11  O   UNL     1      12.415  33.614   4.552  1.00  0.00    -0.451 OA
ENDROOT
BRANCH   1  12
ATOM     12  C   UNL     1      13.904  35.133   5.681  1.00  0.00     0.063 A 
ATOM     13  C   UNL     1      15.034  37.255   5.311  1.00  0.00     0.047 A 
ATOM     14  C   UNL     1      13.871  36.480   5.284  1.00  0.00     0.020 A 
ATOM     15  C   UNL     1      16.246  36.690   5.722  1.00  0.00     0.119 A 
ATOM     16  C   UNL     1      16.293  35.343   6.097  1.00  0.00     0.093 A 
ATOM     17  C   UNL     1      15.132  34.557   6.066  1.00  0.00     0.130 A 
BRANCH  15  18
ATOM     18  O   UNL     1      17.410  37.454   5.756  1.00  0.00    -0.508 OA
ATOM     19  H   UNL     1      17.409  38.433   5.494  1.00  0.00     0.293 HD
ENDBRANCH  15  18
BRANCH  17  20
ATOM     20  O   UNL     1      15.202  33.203   6.396  1.00  0.00    -0.507 OA
ATOM     21  H   UNL     1      15.990  32.820   6.906  1.00  0.00     0.293 HD
ENDBRANCH  17  20
ENDBRANCH   1  12
BRANCH   2  22
ATOM     22  O   UNL     1      11.968  35.156   7.813  1.00  0.00    -0.502 OA
ATOM     23  H   UNL     1      11.241  35.381   8.481  1.00  0.00     0.293 HD
ENDBRANCH   2  22
BRANCH   6  24
ATOM     24  O   UNL     1       8.052  32.007   6.035  1.00  0.00    -0.507 OA
ATOM     25  H   UNL     1       7.230  32.585   5.948  1.00  0.00     0.293 HD
ENDBRANCH   6  24
BRANCH   8  26
ATOM     26  O   UNL     1       9.937  30.534   1.892  1.00  0.00    -0.508 OA
ATOM     27  H   UNL     1      10.746  30.224   1.367  1.00  0.00     0.293 HD
ENDBRANCH   8  26
TORSDOF 6
ENDMDL
