MODEL 1
REMARK VINA RESULT:    -3.997      0.000      0.000
REMARK INTER + INTRA:         -10.485
REMARK INTER:                  -7.502
REMARK INTRA:                  -2.983
REMARK UNBOUND:                -2.983
REMARK SMILES CCCCCCCCC=CCCCCCCCC(=O)[O-]
REMARK SMILES IDX 10 1 9 2 11 3 12 4 13 5 14 6 15 7 16 8 17 9 18 10 19 11
REMARK SMILES IDX 20 12 8 13 7 14 6 15 5 16 4 17 3 18 2 19 1 20
REMARK H PARENT
REMARK Flexibility Score: inf
ROOT
ATOM      1  C   UNL     1     124.501 123.279 122.989  1.00  0.00    -0.031 C 
ATOM      2  C   UNL     1     124.810 124.516 122.573  1.00  0.00    -0.031 C 
ENDROOT
BRANCH   1   3
ATOM      3  C   UNL     1     123.907 123.058 124.353  1.00  0.00     0.027 C 
BRANCH   3   4
ATOM      4  C   UNL     1     123.772 124.381 125.120  1.00  0.00     0.004 C 
BRANCH   4   5
ATOM      5  C   UNL     1     122.369 124.999 124.999  1.00  0.00     0.000 C 
BRANCH   5   6
ATOM      6  C   UNL     1     122.410 126.513 124.731  1.00  0.00     0.000 C 
BRANCH   6   7
ATOM      7  C   UNL     1     121.274 126.979 123.805  1.00  0.00     0.000 C 
BRANCH   7   8
ATOM      8  C   UNL     1     119.920 126.340 124.164  1.00  0.00     0.006 C 
BRANCH   8   9
ATOM      9  C   UNL     1     118.951 126.330 122.973  1.00  0.00     0.053 C 
BRANCH   9  10
ATOM     10  C   UNL     1     117.794 125.406 123.204  1.00  0.00     0.041 C 
ATOM     11  O   UNL     1     117.974 124.160 123.233  1.00  0.00    -0.550 OA
ATOM     12  O   UNL     1     116.513 125.921 123.361  1.00  0.00    -0.550 OA
ENDBRANCH   9  10
ENDBRANCH   8   9
ENDBRANCH   7   8
ENDBRANCH   6   7
ENDBRANCH   5   6
ENDBRANCH   4   5
ENDBRANCH   3   4
ENDBRANCH   1   3
BRANCH   2  13
ATOM     13  C   UNL     1     125.407 124.769 121.215  1.00  0.00     0.027 C 
BRANCH  13  14
ATOM     14  C   UNL     1     125.099 126.178 120.677  1.00  0.00     0.004 C 
BRANCH  14  15
ATOM     15  C   UNL     1     123.719 126.721 121.095  1.00  0.00     0.000 C 
BRANCH  15  16
ATOM     16  C   UNL     1     122.711 126.765 119.933  1.00  0.00     0.000 C 
BRANCH  16  17
ATOM     17  C   UNL     1     121.454 125.926 120.217  1.00  0.00    -0.000 C 
BRANCH  17  18
ATOM     18  C   UNL     1     121.769 124.427 120.360  1.00  0.00    -0.000 C 
BRANCH  18  19
ATOM     19  C   UNL     1     121.190 123.824 121.649  1.00  0.00    -0.003 C 
ATOM     20  C   UNL     1     121.189 122.296 121.643  1.00  0.00     0.004 C 
ENDBRANCH  18  19
ENDBRANCH  17  18
ENDBRANCH  16  17
ENDBRANCH  15  16
ENDBRANCH  14  15
ENDBRANCH  13  14
ENDBRANCH   2  13
TORSDOF 15
ENDMDL
MODEL 2
REMARK VINA RESULT:    -3.912      1.570      4.252
REMARK INTER + INTRA:         -10.325
REMARK INTER:                  -7.567
REMARK INTRA:                  -2.758
REMARK UNBOUND:                -2.983
REMARK SMILES CCCCCCCCC=CCCCCCCCC(=O)[O-]
REMARK SMILES IDX 10 1 9 2 11 3 12 4 13 5 14 6 15 7 16 8 17 9 18 10 19 11
REMARK SMILES IDX 20 12 8 13 7 14 6 15 5 16 4 17 3 18 2 19 1 20
REMARK H PARENT
REMARK Flexibility Score: inf
ROOT
ATOM      1  C   UNL     1     124.892 124.801 122.278  1.00  0.00    -0.031 C 
ATOM      2  C   UNL     1     124.309 123.611 122.076  1.00  0.00    -0.031 C 
ENDROOT
BRANCH   1   3
ATOM      3  C   UNL     1     125.243 125.689 121.116  1.00  0.00     0.027 C 
BRANCH   3   4
ATOM      4  C   UNL     1     124.279 126.880 121.019  1.00  0.00     0.004 C 
BRANCH   4   5
ATOM      5  C   UNL     1     123.548 126.946 119.668  1.00  0.00     0.000 C 
BRANCH   5   6
ATOM      6  C   UNL     1     122.109 126.409 119.746  1.00  0.00     0.000 C 
BRANCH   6   7
ATOM      7  C   UNL     1     122.022 124.907 119.428  1.00  0.00     0.000 C 
BRANCH   7   8
ATOM      8  C   UNL     1     120.753 124.254 120.006  1.00  0.00     0.006 C 
BRANCH   8   9
ATOM      9  C   UNL     1     119.472 124.820 119.379  1.00  0.00     0.053 C 
BRANCH   9  10
ATOM     10  C   UNL     1     118.241 124.217 119.984  1.00  0.00     0.041 C 
ATOM     11  O   UNL     1     117.212 124.038 119.280  1.00  0.00    -0.550 OA
ATOM     12  O   UNL     1     118.222 123.877 121.331  1.00  0.00    -0.550 OA
ENDBRANCH   9  10
ENDBRANCH   8   9
ENDBRANCH   7   8
ENDBRANCH   6   7
ENDBRANCH   5   6
ENDBRANCH   4   5
ENDBRANCH   3   4
ENDBRANCH   1   3
BRANCH   2  13
ATOM     13  C   UNL     1     123.949 122.700 123.218  1.00  0.00     0.027 C 
BRANCH  13  14
ATOM     14  C   UNL     1     124.016 123.399 124.588  1.00  0.00     0.004 C 
BRANCH  14  15
ATOM     15  C   UNL     1     122.738 124.172 124.961  1.00  0.00     0.000 C 
BRANCH  15  16
ATOM     16  C   UNL     1     123.013 125.632 125.363  1.00  0.00     0.000 C 
BRANCH  16  17
ATOM     17  C   UNL     1     122.254 126.636 124.480  1.00  0.00    -0.000 C 
BRANCH  17  18
ATOM     18  C   UNL     1     121.498 125.950 123.328  1.00  0.00    -0.000 C 
BRANCH  18  19
ATOM     19  C   UNL     1     119.987 126.227 123.369  1.00  0.00    -0.003 C 
ATOM     20  C   UNL     1     119.515 127.116 122.219  1.00  0.00     0.004 C 
ENDBRANCH  18  19
ENDBRANCH  17  18
ENDBRANCH  16  17
ENDBRANCH  15  16
ENDBRANCH  14  15
ENDBRANCH  13  14
ENDBRANCH   2  13
TORSDOF 15
ENDMDL
MODEL 3
REMARK VINA RESULT:    -3.885      1.352      4.217
REMARK INTER + INTRA:         -10.275
REMARK INTER:                  -7.249
REMARK INTRA:                  -3.027
REMARK UNBOUND:                -2.983
REMARK SMILES CCCCCCCCC=CCCCCCCCC(=O)[O-]
REMARK SMILES IDX 10 1 9 2 11 3 12 4 13 5 14 6 15 7 16 8 17 9 18 10 19 11
REMARK SMILES IDX 20 12 8 13 7 14 6 15 5 16 4 17 3 18 2 19 1 20
REMARK H PARENT
REMARK Flexibility Score: inf
ROOT
ATOM      1  C   UNL     1     123.053 126.757 121.821  1.00  0.00    -0.031 C 
ATOM      2  C   UNL     1     121.785 126.577 122.219  1.00  0.00    -0.031 C 
ENDROOT
BRANCH   1   3
ATOM      3  C   UNL     1     123.407 126.740 120.360  1.00  0.00     0.027 C 
BRANCH   3   4
ATOM      4  C   UNL     1     122.232 126.231 119.512  1.00  0.00     0.004 C 
BRANCH   4   5
ATOM      5  C   UNL     1     122.374 124.748 119.129  1.00  0.00     0.000 C 
BRANCH   5   6
ATOM      6  C   UNL     1     121.042 123.982 119.223  1.00  0.00     0.000 C 
BRANCH   6   7
ATOM      7  C   UNL     1     119.836 124.918 119.404  1.00  0.00     0.000 C 
BRANCH   7   8
ATOM      8  C   UNL     1     118.733 124.297 120.282  1.00  0.00     0.006 C 
BRANCH   8   9
ATOM      9  C   UNL     1     118.638 124.973 121.657  1.00  0.00     0.053 C 
BRANCH   9  10
ATOM     10  C   UNL     1     117.596 124.332 122.522  1.00  0.00     0.041 C 
ATOM     11  O   UNL     1     117.852 123.261 123.134  1.00  0.00    -0.550 OA
ATOM     12  O   UNL     1     116.334 124.902 122.630  1.00  0.00    -0.550 OA
ENDBRANCH   9  10
ENDBRANCH   8   9
ENDBRANCH   7   8
ENDBRANCH   6   7
ENDBRANCH   5   6
ENDBRANCH   4   5
ENDBRANCH   3   4
ENDBRANCH   1   3
BRANCH   2  13
ATOM     13  C   UNL     1     121.401 126.586 123.673  1.00  0.00     0.027 C 
BRANCH  13  14
ATOM     14  C   UNL     1     122.618 126.566 124.616  1.00  0.00     0.004 C 
BRANCH  14  15
ATOM     15  C   UNL     1     122.959 125.170 125.171  1.00  0.00     0.000 C 
BRANCH  15  16
ATOM     16  C   UNL     1     124.108 124.484 124.412  1.00  0.00     0.000 C 
BRANCH  16  17
ATOM     17  C   UNL     1     123.732 123.072 123.932  1.00  0.00    -0.000 C 
BRANCH  17  18
ATOM     18  C   UNL     1     122.954 123.091 122.604  1.00  0.00    -0.000 C 
BRANCH  18  19
ATOM     19  C   UNL     1     121.450 122.849 122.800  1.00  0.00    -0.003 C 
ATOM     20  C   UNL     1     120.939 121.632 122.030  1.00  0.00     0.004 C 
ENDBRANCH  18  19
ENDBRANCH  17  18
ENDBRANCH  16  17
ENDBRANCH  15  16
ENDBRANCH  14  15
ENDBRANCH  13  14
ENDBRANCH   2  13
TORSDOF 15
ENDMDL
MODEL 4
REMARK VINA RESULT:    -3.852      1.212      1.567
REMARK INTER + INTRA:         -10.214
REMARK INTER:                  -7.425
REMARK INTRA:                  -2.789
REMARK UNBOUND:                -2.983
REMARK SMILES CCCCCCCCC=CCCCCCCCC(=O)[O-]
REMARK SMILES IDX 10 1 9 2 11 3 12 4 13 5 14 6 15 7 16 8 17 9 18 10 19 11
REMARK SMILES IDX 20 12 8 13 7 14 6 15 5 16 4 17 3 18 2 19 1 20
REMARK H PARENT
REMARK Flexibility Score: inf
ROOT
ATOM      1  C   UNL     1     124.182 124.004 122.403  1.00  0.00    -0.031 C 
ATOM      2  C   UNL     1     124.936 125.102 122.251  1.00  0.00    -0.031 C 
ENDROOT
BRANCH   1   3
ATOM      3  C   UNL     1     123.979 123.397 123.764  1.00  0.00     0.027 C 
BRANCH   3   4
ATOM      4  C   UNL     1     123.940 124.480 124.852  1.00  0.00     0.004 C 
BRANCH   4   5
ATOM      5  C   UNL     1     122.531 125.054 125.070  1.00  0.00     0.000 C 
BRANCH   5   6
ATOM      6  C   UNL     1     122.432 126.543 124.692  1.00  0.00     0.000 C 
BRANCH   6   7
ATOM      7  C   UNL     1     121.198 126.851 123.829  1.00  0.00     0.000 C 
BRANCH   7   8
ATOM      8  C   UNL     1     120.673 125.609 123.085  1.00  0.00     0.006 C 
BRANCH   8   9
ATOM      9  C   UNL     1     119.378 125.901 122.313  1.00  0.00     0.053 C 
BRANCH   9  10
ATOM     10  C   UNL     1     118.192 125.236 122.943  1.00  0.00     0.041 C 
ATOM     11  O   UNL     1     117.236 125.929 123.383  1.00  0.00    -0.550 OA
ATOM     12  O   UNL     1     118.155 123.853 123.069  1.00  0.00    -0.550 OA
ENDBRANCH   9  10
ENDBRANCH   8   9
ENDBRANCH   7   8
ENDBRANCH   6   7
ENDBRANCH   5   6
ENDBRANCH   4   5
ENDBRANCH   3   4
ENDBRANCH   1   3
BRANCH   2  13
ATOM     13  C   UNL     1     125.159 125.730 120.902  1.00  0.00     0.027 C 
BRANCH  13  14
ATOM     14  C   UNL     1     124.485 127.107 120.762  1.00  0.00     0.004 C 
BRANCH  14  15
ATOM     15  C   UNL     1     122.961 127.041 120.546  1.00  0.00     0.000 C 
BRANCH  15  16
ATOM     16  C   UNL     1     122.565 126.240 119.292  1.00  0.00     0.000 C 
BRANCH  16  17
ATOM     17  C   UNL     1     121.810 124.946 119.638  1.00  0.00    -0.000 C 
BRANCH  17  18
ATOM     18  C   UNL     1     122.065 123.827 118.613  1.00  0.00    -0.000 C 
BRANCH  18  19
ATOM     19  C   UNL     1     123.468 123.216 118.745  1.00  0.00    -0.003 C 
ATOM     20  C   UNL     1     123.467 121.878 119.483  1.00  0.00     0.004 C 
ENDBRANCH  18  19
ENDBRANCH  17  18
ENDBRANCH  16  17
ENDBRANCH  15  16
ENDBRANCH  14  15
ENDBRANCH  13  14
ENDBRANCH   2  13
TORSDOF 15
ENDMDL
MODEL 5
REMARK VINA RESULT:    -3.831      2.193      4.080
REMARK INTER + INTRA:         -10.174
REMARK INTER:                  -7.246
REMARK INTRA:                  -2.928
REMARK UNBOUND:                -2.983
REMARK SMILES CCCCCCCCC=CCCCCCCCC(=O)[O-]
REMARK SMILES IDX 10 1 9 2 11 3 12 4 13 5 14 6 15 7 16 8 17 9 18 10 19 11
REMARK SMILES IDX 20 12 8 13 7 14 6 15 5 16 4 17 3 18 2 19 1 20
REMARK H PARENT
REMARK Flexibility Score: inf
ROOT
ATOM      1  C   UNL     1     124.088 124.319 122.153  1.00  0.00    -0.031 C 
ATOM      2  C   UNL     1     124.401 124.907 123.317  1.00  0.00    -0.031 C 
ENDROOT
BRANCH   1   3
ATOM      3  C   UNL     1     124.418 124.985 120.846  1.00  0.00     0.027 C 
BRANCH   3   4
ATOM      4  C   UNL     1     124.177 126.500 120.920  1.00  0.00     0.004 C 
BRANCH   4   5
ATOM      5  C   UNL     1     122.843 126.922 120.283  1.00  0.00     0.000 C 
BRANCH   5   6
ATOM      6  C   UNL     1     122.160 125.772 119.522  1.00  0.00     0.000 C 
BRANCH   6   7
ATOM      7  C   UNL     1     120.630 125.795 119.668  1.00  0.00     0.000 C 
BRANCH   7   8
ATOM      8  C   UNL     1     119.990 124.421 119.399  1.00  0.00     0.006 C 
BRANCH   8   9
ATOM      9  C   UNL     1     118.554 124.336 119.937  1.00  0.00     0.053 C 
BRANCH   9  10
ATOM     10  C   UNL     1     117.746 123.305 119.208  1.00  0.00     0.041 C 
ATOM     11  O   UNL     1     118.310 122.298 118.704  1.00  0.00    -0.550 OA
ATOM     12  O   UNL     1     116.375 123.472 119.062  1.00  0.00    -0.550 OA
ENDBRANCH   9  10
ENDBRANCH   8   9
ENDBRANCH   7   8
ENDBRANCH   6   7
ENDBRANCH   5   6
ENDBRANCH   4   5
ENDBRANCH   3   4
ENDBRANCH   1   3
BRANCH   2  13
ATOM     13  C   UNL     1     124.082 124.267 124.640  1.00  0.00     0.027 C 
BRANCH  13  14
ATOM     14  C   UNL     1     123.058 125.069 125.464  1.00  0.00     0.004 C 
BRANCH  14  15
ATOM     15  C   UNL     1     122.692 126.434 124.852  1.00  0.00     0.000 C 
BRANCH  15  16
ATOM     16  C   UNL     1     121.187 126.581 124.565  1.00  0.00     0.000 C 
BRANCH  16  17
ATOM     17  C   UNL     1     120.791 125.994 123.201  1.00  0.00    -0.000 C 
BRANCH  17  18
ATOM     18  C   UNL     1     119.960 124.705 123.335  1.00  0.00    -0.000 C 
BRANCH  18  19
ATOM     19  C   UNL     1     120.725 123.461 122.858  1.00  0.00    -0.003 C 
ATOM     20  C   UNL     1     120.922 122.425 123.964  1.00  0.00     0.004 C 
ENDBRANCH  18  19
ENDBRANCH  17  18
ENDBRANCH  16  17
ENDBRANCH  15  16
ENDBRANCH  14  15
ENDBRANCH  13  14
ENDBRANCH   2  13
TORSDOF 15
ENDMDL
MODEL 6
REMARK VINA RESULT:    -3.831      1.662      4.320
REMARK INTER + INTRA:         -10.174
REMARK INTER:                  -7.026
REMARK INTRA:                  -3.148
REMARK UNBOUND:                -2.983
REMARK SMILES CCCCCCCCC=CCCCCCCCC(=O)[O-]
REMARK SMILES IDX 10 1 9 2 11 3 12 4 13 5 14 6 15 7 16 8 17 9 18 10 19 11
REMARK SMILES IDX 20 12 8 13 7 14 6 15 5 16 4 17 3 18 2 19 1 20
REMARK H PARENT
REMARK Flexibility Score: inf
ROOT
ATOM      1  C   UNL     1     122.685 122.204 122.379  1.00  0.00    -0.031 C 
ATOM      2  C   UNL     1     121.799 122.133 123.383  1.00  0.00    -0.031 C 
ENDROOT
BRANCH   1   3
ATOM      3  C   UNL     1     122.286 121.830 120.978  1.00  0.00     0.027 C 
BRANCH   3   4
ATOM      4  C   UNL     1     123.303 122.354 119.954  1.00  0.00     0.004 C 
BRANCH   4   5
ATOM      5  C   UNL     1     122.789 123.577 119.176  1.00  0.00     0.000 C 
BRANCH   5   6
ATOM      6  C   UNL     1     121.253 123.639 119.120  1.00  0.00     0.000 C 
BRANCH   6   7
ATOM      7  C   UNL     1     120.701 124.994 119.591  1.00  0.00     0.000 C 
BRANCH   7   8
ATOM      8  C   UNL     1     119.328 124.866 120.277  1.00  0.00     0.006 C 
BRANCH   8   9
ATOM      9  C   UNL     1     119.452 124.738 121.802  1.00  0.00     0.053 C 
BRANCH   9  10
ATOM     10  C   UNL     1     118.913 125.944 122.509  1.00  0.00     0.041 C 
ATOM     11  O   UNL     1     119.622 126.978 122.628  1.00  0.00    -0.550 OA
ATOM     12  O   UNL     1     117.637 125.916 123.059  1.00  0.00    -0.550 OA
ENDBRANCH   9  10
ENDBRANCH   8   9
ENDBRANCH   7   8
ENDBRANCH   6   7
ENDBRANCH   5   6
ENDBRANCH   4   5
ENDBRANCH   3   4
ENDBRANCH   1   3
BRANCH   2  13
ATOM     13  C   UNL     1     122.169 122.499 124.794  1.00  0.00     0.027 C 
BRANCH  13  14
ATOM     14  C   UNL     1     123.616 123.008 124.923  1.00  0.00     0.004 C 
BRANCH  14  15
ATOM     15  C   UNL     1     123.730 124.442 125.474  1.00  0.00     0.000 C 
BRANCH  15  16
ATOM     16  C   UNL     1     122.595 125.363 124.994  1.00  0.00     0.000 C 
BRANCH  16  17
ATOM     17  C   UNL     1     123.060 126.352 123.912  1.00  0.00    -0.000 C 
BRANCH  17  18
ATOM     18  C   UNL     1     122.919 125.777 122.492  1.00  0.00    -0.000 C 
BRANCH  18  19
ATOM     19  C   UNL     1     124.220 125.886 121.681  1.00  0.00    -0.003 C 
ATOM     20  C   UNL     1     125.238 124.805 122.045  1.00  0.00     0.004 C 
ENDBRANCH  18  19
ENDBRANCH  17  18
ENDBRANCH  16  17
ENDBRANCH  15  16
ENDBRANCH  14  15
ENDBRANCH  13  14
ENDBRANCH   2  13
TORSDOF 15
ENDMDL
MODEL 7
REMARK VINA RESULT:    -3.763      2.920      4.412
REMARK INTER + INTRA:         -10.046
REMARK INTER:                  -7.275
REMARK INTRA:                  -2.770
REMARK UNBOUND:                -2.983
REMARK SMILES CCCCCCCCC=CCCCCCCCC(=O)[O-]
REMARK SMILES IDX 10 1 9 2 11 3 12 4 13 5 14 6 15 7 16 8 17 9 18 10 19 11
REMARK SMILES IDX 20 12 8 13 7 14 6 15 5 16 4 17 3 18 2 19 1 20
REMARK H PARENT
REMARK Flexibility Score: inf
ROOT
ATOM      1  C   UNL     1     123.820 124.461 125.038  1.00  0.00    -0.031 C 
ATOM      2  C   UNL     1     122.835 125.371 125.059  1.00  0.00    -0.031 C 
ENDROOT
BRANCH   1   3
ATOM      3  C   UNL     1     123.930 123.428 126.125  1.00  0.00     0.027 C 
BRANCH   3   4
ATOM      4  C   UNL     1     124.097 122.020 125.535  1.00  0.00     0.004 C 
BRANCH   4   5
ATOM      5  C   UNL     1     122.859 121.134 125.748  1.00  0.00     0.000 C 
BRANCH   5   6
ATOM      6  C   UNL     1     121.594 121.716 125.093  1.00  0.00     0.000 C 
BRANCH   6   7
ATOM      7  C   UNL     1     121.500 121.385 123.595  1.00  0.00     0.000 C 
BRANCH   7   8
ATOM      8  C   UNL     1     121.932 122.563 122.702  1.00  0.00     0.006 C 
BRANCH   8   9
ATOM      9  C   UNL     1     122.627 122.091 121.416  1.00  0.00     0.053 C 
BRANCH   9  10
ATOM     10  C   UNL     1     123.991 122.693 121.266  1.00  0.00     0.041 C 
ATOM     11  O   UNL     1     124.842 122.570 122.187  1.00  0.00    -0.550 OA
ATOM     12  O   UNL     1     124.312 123.412 120.122  1.00  0.00    -0.550 OA
ENDBRANCH   9  10
ENDBRANCH   8   9
ENDBRANCH   7   8
ENDBRANCH   6   7
ENDBRANCH   5   6
ENDBRANCH   4   5
ENDBRANCH   3   4
ENDBRANCH   1   3
BRANCH   2  13
ATOM     13  C   UNL     1     122.701 126.418 123.988  1.00  0.00     0.027 C 
BRANCH  13  14
ATOM     14  C   UNL     1     123.388 126.020 122.669  1.00  0.00     0.004 C 
BRANCH  14  15
ATOM     15  C   UNL     1     122.852 126.766 121.432  1.00  0.00     0.000 C 
BRANCH  15  16
ATOM     16  C   UNL     1     121.752 125.988 120.689  1.00  0.00     0.000 C 
BRANCH  16  17
ATOM     17  C   UNL     1     120.377 126.132 121.360  1.00  0.00    -0.000 C 
BRANCH  17  18
ATOM     18  C   UNL     1     119.487 124.894 121.148  1.00  0.00    -0.000 C 
BRANCH  18  19
ATOM     19  C   UNL     1     118.758 124.467 122.431  1.00  0.00    -0.003 C 
ATOM     20  C   UNL     1     119.180 125.283 123.653  1.00  0.00     0.004 C 
ENDBRANCH  18  19
ENDBRANCH  17  18
ENDBRANCH  16  17
ENDBRANCH  15  16
ENDBRANCH  14  15
ENDBRANCH  13  14
ENDBRANCH   2  13
TORSDOF 15
ENDMDL
MODEL 8
REMARK VINA RESULT:    -3.722      1.816      3.849
REMARK INTER + INTRA:          -9.969
REMARK INTER:                  -7.035
REMARK INTRA:                  -2.934
REMARK UNBOUND:                -2.983
REMARK SMILES CCCCCCCCC=CCCCCCCCC(=O)[O-]
REMARK SMILES IDX 10 1 9 2 11 3 12 4 13 5 14 6 15 7 16 8 17 9 18 10 19 11
REMARK SMILES IDX 20 12 8 13 7 14 6 15 5 16 4 17 3 18 2 19 1 20
REMARK H PARENT
REMARK Flexibility Score: inf
ROOT
ATOM      1  C   UNL     1     123.853 124.724 124.183  1.00  0.00    -0.031 C 
ATOM      2  C   UNL     1     122.856 125.255 124.906  1.00  0.00    -0.031 C 
ENDROOT
BRANCH   1   3
ATOM      3  C   UNL     1     124.069 123.235 124.155  1.00  0.00     0.027 C 
BRANCH   3   4
ATOM      4  C   UNL     1     124.128 122.658 125.576  1.00  0.00     0.004 C 
BRANCH   4   5
ATOM      5  C   UNL     1     123.276 121.388 125.738  1.00  0.00     0.000 C 
BRANCH   5   6
ATOM      6  C   UNL     1     121.768 121.687 125.782  1.00  0.00     0.000 C 
BRANCH   6   7
ATOM      7  C   UNL     1     121.029 121.175 124.535  1.00  0.00     0.000 C 
BRANCH   7   8
ATOM      8  C   UNL     1     120.559 122.316 123.615  1.00  0.00     0.006 C 
BRANCH   8   9
ATOM      9  C   UNL     1     119.029 122.436 123.574  1.00  0.00     0.053 C 
BRANCH   9  10
ATOM     10  C   UNL     1     118.520 122.598 122.175  1.00  0.00     0.041 C 
ATOM     11  O   UNL     1     119.190 122.163 121.202  1.00  0.00    -0.550 OA
ATOM     12  O   UNL     1     117.317 123.255 121.944  1.00  0.00    -0.550 OA
ENDBRANCH   9  10
ENDBRANCH   8   9
ENDBRANCH   7   8
ENDBRANCH   6   7
ENDBRANCH   5   6
ENDBRANCH   4   5
ENDBRANCH   3   4
ENDBRANCH   1   3
BRANCH   2  13
ATOM     13  C   UNL     1     122.617 126.739 124.955  1.00  0.00     0.027 C 
BRANCH  13  14
ATOM     14  C   UNL     1     121.165 127.125 124.619  1.00  0.00     0.004 C 
BRANCH  14  15
ATOM     15  C   UNL     1     120.223 125.920 124.430  1.00  0.00     0.000 C 
BRANCH  15  16
ATOM     16  C   UNL     1     119.254 126.093 123.247  1.00  0.00     0.000 C 
BRANCH  16  17
ATOM     17  C   UNL     1     119.981 126.450 121.941  1.00  0.00    -0.000 C 
BRANCH  17  18
ATOM     18  C   UNL     1     120.996 125.371 121.521  1.00  0.00    -0.000 C 
BRANCH  18  19
ATOM     19  C   UNL     1     122.074 125.916 120.572  1.00  0.00    -0.003 C 
ATOM     20  C   UNL     1     122.995 126.935 121.242  1.00  0.00     0.004 C 
ENDBRANCH  18  19
ENDBRANCH  17  18
ENDBRANCH  16  17
ENDBRANCH  15  16
ENDBRANCH  14  15
ENDBRANCH  13  14
ENDBRANCH   2  13
TORSDOF 15
ENDMDL
