MODEL 1
REMARK VINA RESULT:    -7.284      0.000      0.000
REMARK INTER + INTRA:          -8.859
REMARK INTER:                  -8.561
REMARK INTRA:                  -0.298
REMARK UNBOUND:                -0.298
REMARK SMILES O=c1c(O)c(-c2ccc(O)cc2)oc2cc(O)cc(O)c12
REMARK SMILES IDX 5 1 3 2 2 3 1 4 21 5 19 6 18 7 16 8 15 9 14 10 13 11 6 12
REMARK SMILES IDX 7 13 8 14 9 15 12 16 11 17 10 18 4 20 20 22 17 24
REMARK H PARENT 10 19 4 21 20 23 17 25
REMARK Flexibility Score: inf
ROOT
ATOM      1  C   UNL     1       2.741  -5.880  24.929  1.00  0.00     0.180 A 
ATOM      2  C   UNL     1       1.496  -5.234  25.045  1.00  0.00     0.208 A 
ATOM      3  C   UNL     1       0.995  -4.523  23.943  1.00  0.00     0.238 A 
ATOM      4  O   UNL     1      -0.125  -3.950  24.030  1.00  0.00    -0.285 OA
ATOM      5  C   UNL     1       1.753  -4.453  22.756  1.00  0.00     0.111 A 
ATOM      6  C   UNL     1       1.323  -3.754  21.602  1.00  0.00     0.134 A 
ATOM      7  C   UNL     1       2.140  -3.723  20.462  1.00  0.00     0.093 A 
ATOM      8  C   UNL     1       3.376  -4.374  20.453  1.00  0.00     0.123 A 
ATOM      9  C   UNL     1       3.806  -5.066  21.590  1.00  0.00     0.094 A 
ATOM     10  C   UNL     1       3.006  -5.111  22.735  1.00  0.00     0.146 A 
ATOM     11  O   UNL     1       3.436  -5.779  23.799  1.00  0.00    -0.452 OA
ENDROOT
BRANCH   1  12
ATOM     12  C   UNL     1       3.327  -6.665  26.040  1.00  0.00     0.021 A 
ATOM     13  C   UNL     1       4.214  -6.044  26.933  1.00  0.00     0.016 A 
ATOM     14  C   UNL     1       4.797  -6.771  27.975  1.00  0.00     0.047 A 
ATOM     15  C   UNL     1       4.510  -8.133  28.128  1.00  0.00     0.115 A 
ATOM     16  C   UNL     1       3.060  -8.039  26.187  1.00  0.00     0.016 A 
ATOM     17  C   UNL     1       3.643  -8.764  27.230  1.00  0.00     0.047 A 
BRANCH  15  18
ATOM     18  O   UNL     1       5.083  -8.869  29.163  1.00  0.00    -0.508 OA
ATOM     19  H   UNL     1       4.941  -8.617  30.134  1.00  0.00     0.293 HD
ENDBRANCH  15  18
ENDBRANCH   1  12
BRANCH   2  20
ATOM     20  O   UNL     1       0.786  -5.278  26.248  1.00  0.00    -0.502 OA
ATOM     21  H   UNL     1       0.158  -6.039  26.479  1.00  0.00     0.293 HD
ENDBRANCH   2  20
BRANCH   6  22
ATOM     22  O   UNL     1       0.094  -3.092  21.579  1.00  0.00    -0.507 OA
ATOM     23  H   UNL     1      -0.765  -3.555  21.852  1.00  0.00     0.293 HD
ENDBRANCH   6  22
BRANCH   8  24
ATOM     24  O   UNL     1       4.169  -4.327  19.309  1.00  0.00    -0.508 OA
ATOM     25  H   UNL     1       4.061  -3.593  18.619  1.00  0.00     0.293 HD
ENDBRANCH   8  24
TORSDOF 5
ENDMDL
MODEL 2
REMARK VINA RESULT:    -7.258      2.012      2.257
REMARK INTER + INTRA:          -8.829
REMARK INTER:                  -8.542
REMARK INTRA:                  -0.286
REMARK UNBOUND:                -0.298
REMARK SMILES O=c1c(O)c(-c2ccc(O)cc2)oc2cc(O)cc(O)c12
REMARK SMILES IDX 5 1 3 2 2 3 1 4 21 5 19 6 18 7 16 8 15 9 14 10 13 11 6 12
REMARK SMILES IDX 7 13 8 14 9 15 12 16 11 17 10 18 4 20 20 22 17 24
REMARK H PARENT 10 19 4 21 20 23 17 25
REMARK Flexibility Score: inf
ROOT
ATOM      1  C   UNL     1       2.803  -4.539  24.198  1.00  0.00     0.180 A 
ATOM      2  C   UNL     1       2.561  -3.281  24.782  1.00  0.00     0.208 A 
ATOM      3  C   UNL     1       2.091  -2.236  23.972  1.00  0.00     0.238 A 
ATOM      4  O   UNL     1       1.860  -1.108  24.487  1.00  0.00    -0.285 OA
ATOM      5  C   UNL     1       1.892  -2.458  22.594  1.00  0.00     0.111 A 
ATOM      6  C   UNL     1       1.424  -1.456  21.708  1.00  0.00     0.134 A 
ATOM      7  C   UNL     1       1.261  -1.753  20.347  1.00  0.00     0.093 A 
ATOM      8  C   UNL     1       1.554  -3.027  19.855  1.00  0.00     0.123 A 
ATOM      9  C   UNL     1       2.014  -4.021  20.726  1.00  0.00     0.094 A 
ATOM     10  C   UNL     1       2.183  -3.745  22.086  1.00  0.00     0.146 A 
ATOM     11  O   UNL     1       2.618  -4.708  22.891  1.00  0.00    -0.452 OA
ENDROOT
BRANCH   1  12
ATOM     12  C   UNL     1       3.280  -5.697  24.989  1.00  0.00     0.021 A 
ATOM     13  C   UNL     1       4.658  -5.878  25.186  1.00  0.00     0.016 A 
ATOM     14  C   UNL     1       5.133  -6.976  25.911  1.00  0.00     0.047 A 
ATOM     15  C   UNL     1       4.234  -7.914  26.435  1.00  0.00     0.115 A 
ATOM     16  C   UNL     1       2.385  -6.654  25.501  1.00  0.00     0.016 A 
ATOM     17  C   UNL     1       2.861  -7.750  26.225  1.00  0.00     0.047 A 
BRANCH  15  18
ATOM     18  O   UNL     1       4.694  -9.011  27.159  1.00  0.00    -0.508 OA
ATOM     19  H   UNL     1       4.079  -9.540  27.767  1.00  0.00     0.293 HD
ENDBRANCH  15  18
ENDBRANCH   1  12
BRANCH   2  20
ATOM     20  O   UNL     1       2.813  -3.074  26.141  1.00  0.00    -0.502 OA
ATOM     21  H   UNL     1       2.188  -2.541  26.733  1.00  0.00     0.293 HD
ENDBRANCH   2  20
BRANCH   6  22
ATOM     22  O   UNL     1       1.124  -0.174  22.168  1.00  0.00    -0.507 OA
ATOM     23  H   UNL     1       1.111   0.626  21.545  1.00  0.00     0.293 HD
ENDBRANCH   6  22
BRANCH   8  24
ATOM     24  O   UNL     1       1.383  -3.297  18.499  1.00  0.00    -0.508 OA
ATOM     25  H   UNL     1       1.663  -4.183  18.096  1.00  0.00     0.293 HD
ENDBRANCH   8  24
TORSDOF 5
ENDMDL
MODEL 3
REMARK VINA RESULT:    -7.173      3.814      8.543
REMARK INTER + INTRA:          -8.729
REMARK INTER:                  -8.562
REMARK INTRA:                  -0.167
REMARK UNBOUND:                -0.298
REMARK SMILES O=c1c(O)c(-c2ccc(O)cc2)oc2cc(O)cc(O)c12
REMARK SMILES IDX 5 1 3 2 2 3 1 4 21 5 19 6 18 7 16 8 15 9 14 10 13 11 6 12
REMARK SMILES IDX 7 13 8 14 9 15 12 16 11 17 10 18 4 20 20 22 17 24
REMARK H PARENT 10 19 4 21 20 23 17 25
REMARK Flexibility Score: inf
ROOT
ATOM      1  C   UNL     1       2.636  -0.988  20.684  1.00  0.00     0.180 A 
ATOM      2  C   UNL     1       3.369  -2.096  20.218  1.00  0.00     0.208 A 
ATOM      3  C   UNL     1       3.240  -3.324  20.886  1.00  0.00     0.238 A 
ATOM      4  O   UNL     1       3.882  -4.326  20.470  1.00  0.00    -0.285 OA
ATOM      5  C   UNL     1       2.401  -3.419  22.015  1.00  0.00     0.111 A 
ATOM      6  C   UNL     1       2.219  -4.618  22.746  1.00  0.00     0.134 A 
ATOM      7  C   UNL     1       1.373  -4.629  23.865  1.00  0.00     0.093 A 
ATOM      8  C   UNL     1       0.708  -3.468  24.267  1.00  0.00     0.123 A 
ATOM      9  C   UNL     1       0.883  -2.281  23.549  1.00  0.00     0.094 A 
ATOM     10  C   UNL     1       1.720  -2.250  22.429  1.00  0.00     0.146 A 
ATOM     11  O   UNL     1       1.866  -1.110  21.762  1.00  0.00    -0.452 OA
ENDROOT
BRANCH   1  12
ATOM     12  C   UNL     1       2.703   0.336  20.023  1.00  0.00     0.021 A 
ATOM     13  C   UNL     1       3.201   1.439  20.734  1.00  0.00     0.016 A 
ATOM     14  C   UNL     1       3.253   2.702  20.137  1.00  0.00     0.047 A 
ATOM     15  C   UNL     1       2.793   2.880  18.826  1.00  0.00     0.115 A 
ATOM     16  C   UNL     1       2.224   0.526  18.713  1.00  0.00     0.016 A 
ATOM     17  C   UNL     1       2.277   1.789  18.119  1.00  0.00     0.047 A 
BRANCH  15  18
ATOM     18  O   UNL     1       2.840   4.133  18.220  1.00  0.00    -0.508 OA
ATOM     19  H   UNL     1       3.673   4.461  17.745  1.00  0.00     0.293 HD
ENDBRANCH  15  18
ENDBRANCH   1  12
BRANCH   2  20
ATOM     20  O   UNL     1       4.231  -1.964  19.126  1.00  0.00    -0.502 OA
ATOM     21  H   UNL     1       4.143  -1.211  18.455  1.00  0.00     0.293 HD
ENDBRANCH   2  20
BRANCH   6  22
ATOM     22  O   UNL     1       2.870  -5.794  22.371  1.00  0.00    -0.507 OA
ATOM     23  H   UNL     1       3.698  -5.782  21.788  1.00  0.00     0.293 HD
ENDBRANCH   6  22
BRANCH   8  24
ATOM     24  O   UNL     1      -0.125  -3.505  25.383  1.00  0.00    -0.508 OA
ATOM     25  H   UNL     1      -0.228  -4.345  25.940  1.00  0.00     0.293 HD
ENDBRANCH   8  24
TORSDOF 5
ENDMDL
MODEL 4
REMARK VINA RESULT:    -7.066      1.742      6.643
REMARK INTER + INTRA:          -8.603
REMARK INTER:                  -8.379
REMARK INTRA:                  -0.224
REMARK UNBOUND:                -0.298
REMARK SMILES O=c1c(O)c(-c2ccc(O)cc2)oc2cc(O)cc(O)c12
REMARK SMILES IDX 5 1 3 2 2 3 1 4 21 5 19 6 18 7 16 8 15 9 14 10 13 11 6 12
REMARK SMILES IDX 7 13 8 14 9 15 12 16 11 17 10 18 4 20 20 22 17 24
REMARK H PARENT 10 19 4 21 20 23 17 25
REMARK Flexibility Score: inf
ROOT
ATOM      1  C   UNL     1       1.684  -4.626  24.495  1.00  0.00     0.180 A 
ATOM      2  C   UNL     1       1.339  -3.835  25.607  1.00  0.00     0.208 A 
ATOM      3  C   UNL     1       1.642  -4.304  26.895  1.00  0.00     0.238 A 
ATOM      4  O   UNL     1       1.349  -3.598  27.898  1.00  0.00    -0.285 OA
ATOM      5  C   UNL     1       2.262  -5.561  27.050  1.00  0.00     0.111 A 
ATOM      6  C   UNL     1       2.597  -6.108  28.313  1.00  0.00     0.134 A 
ATOM      7  C   UNL     1       3.204  -7.371  28.384  1.00  0.00     0.093 A 
ATOM      8  C   UNL     1       3.483  -8.095  27.223  1.00  0.00     0.123 A 
ATOM      9  C   UNL     1       3.155  -7.559  25.973  1.00  0.00     0.094 A 
ATOM     10  C   UNL     1       2.551  -6.302  25.880  1.00  0.00     0.146 A 
ATOM     11  O   UNL     1       2.254  -5.814  24.681  1.00  0.00    -0.452 OA
ENDROOT
BRANCH   1  12
ATOM     12  C   UNL     1       1.415  -4.192  23.105  1.00  0.00     0.021 A 
ATOM     13  C   UNL     1       2.470  -3.700  22.319  1.00  0.00     0.016 A 
ATOM     14  C   UNL     1       2.235  -3.264  21.011  1.00  0.00     0.047 A 
ATOM     15  C   UNL     1       0.940  -3.301  20.479  1.00  0.00     0.115 A 
ATOM     16  C   UNL     1       0.114  -4.207  22.571  1.00  0.00     0.016 A 
ATOM     17  C   UNL     1      -0.118  -3.771  21.263  1.00  0.00     0.047 A 
BRANCH  15  18
ATOM     18  O   UNL     1       0.694  -2.870  19.178  1.00  0.00    -0.508 OA
ATOM     19  H   UNL     1       0.780  -1.894  18.918  1.00  0.00     0.293 HD
ENDBRANCH  15  18
ENDBRANCH   1  12
BRANCH   2  20
ATOM     20  O   UNL     1       0.682  -2.615  25.428  1.00  0.00    -0.502 OA
ATOM     21  H   UNL     1       0.666  -2.133  24.537  1.00  0.00     0.293 HD
ENDBRANCH   2  20
BRANCH   6  22
ATOM     22  O   UNL     1       2.331  -5.411  29.492  1.00  0.00    -0.507 OA
ATOM     23  H   UNL     1       2.908  -5.521  30.317  1.00  0.00     0.293 HD
ENDBRANCH   6  22
BRANCH   8  24
ATOM     24  O   UNL     1       4.086  -9.347  27.321  1.00  0.00    -0.508 OA
ATOM     25  H   UNL     1       4.373  -9.862  26.498  1.00  0.00     0.293 HD
ENDBRANCH   8  24
TORSDOF 5
ENDMDL
MODEL 5
REMARK VINA RESULT:    -7.022      2.047      3.441
REMARK INTER + INTRA:          -8.552
REMARK INTER:                  -8.338
REMARK INTRA:                  -0.214
REMARK UNBOUND:                -0.298
REMARK SMILES O=c1c(O)c(-c2ccc(O)cc2)oc2cc(O)cc(O)c12
REMARK SMILES IDX 5 1 3 2 2 3 1 4 21 5 19 6 18 7 16 8 15 9 14 10 13 11 6 12
REMARK SMILES IDX 7 13 8 14 9 15 12 16 11 17 10 18 4 20 20 22 17 24
REMARK H PARENT 10 19 4 21 20 23 17 25
REMARK Flexibility Score: inf
ROOT
ATOM      1  C   UNL     1       2.982  -5.108  23.811  1.00  0.00     0.180 A 
ATOM      2  C   UNL     1       3.231  -5.249  22.433  1.00  0.00     0.208 A 
ATOM      3  C   UNL     1       2.905  -4.190  21.572  1.00  0.00     0.238 A 
ATOM      4  O   UNL     1       3.134  -4.300  20.337  1.00  0.00    -0.285 OA
ATOM      5  C   UNL     1       2.318  -3.020  22.098  1.00  0.00     0.111 A 
ATOM      6  C   UNL     1       1.955  -1.909  21.298  1.00  0.00     0.134 A 
ATOM      7  C   UNL     1       1.367  -0.785  21.896  1.00  0.00     0.093 A 
ATOM      8  C   UNL     1       1.134  -0.749  23.272  1.00  0.00     0.123 A 
ATOM      9  C   UNL     1       1.490  -1.844  24.068  1.00  0.00     0.094 A 
ATOM     10  C   UNL     1       2.080  -2.973  23.491  1.00  0.00     0.146 A 
ATOM     11  O   UNL     1       2.412  -3.996  24.269  1.00  0.00    -0.452 OA
ENDROOT
BRANCH   1  12
ATOM     12  C   UNL     1       3.316  -6.173  24.785  1.00  0.00     0.021 A 
ATOM     13  C   UNL     1       2.281  -6.855  25.445  1.00  0.00     0.016 A 
ATOM     14  C   UNL     1       2.574  -7.848  26.385  1.00  0.00     0.047 A 
ATOM     15  C   UNL     1       3.905  -8.161  26.687  1.00  0.00     0.115 A 
ATOM     16  C   UNL     1       4.651  -6.477  25.109  1.00  0.00     0.016 A 
ATOM     17  C   UNL     1       4.941  -7.470  26.048  1.00  0.00     0.047 A 
BRANCH  15  18
ATOM     18  O   UNL     1       4.210  -9.148  27.621  1.00  0.00    -0.508 OA
ATOM     19  H   UNL     1       4.650  -8.922  28.506  1.00  0.00     0.293 HD
ENDBRANCH  15  18
ENDBRANCH   1  12
BRANCH   2  20
ATOM     20  O   UNL     1       3.769  -6.437  21.931  1.00  0.00    -0.502 OA
ATOM     21  H   UNL     1       4.347  -7.050  22.492  1.00  0.00     0.293 HD
ENDBRANCH   2  20
BRANCH   6  22
ATOM     22  O   UNL     1       2.174  -1.913  19.920  1.00  0.00    -0.507 OA
ATOM     23  H   UNL     1       2.103  -1.068  19.366  1.00  0.00     0.293 HD
ENDBRANCH   6  22
BRANCH   8  24
ATOM     24  O   UNL     1       0.547   0.379  23.841  1.00  0.00    -0.508 OA
ATOM     25  H   UNL     1       0.485   1.255  23.337  1.00  0.00     0.293 HD
ENDBRANCH   8  24
TORSDOF 5
ENDMDL
MODEL 6
REMARK VINA RESULT:    -6.926     12.226     13.905
REMARK INTER + INTRA:          -8.439
REMARK INTER:                  -8.166
REMARK INTRA:                  -0.273
REMARK UNBOUND:                -0.298
REMARK SMILES O=c1c(O)c(-c2ccc(O)cc2)oc2cc(O)cc(O)c12
REMARK SMILES IDX 5 1 3 2 2 3 1 4 21 5 19 6 18 7 16 8 15 9 14 10 13 11 6 12
REMARK SMILES IDX 7 13 8 14 9 15 12 16 11 17 10 18 4 20 20 22 17 24
REMARK H PARENT 10 19 4 21 20 23 17 25
REMARK Flexibility Score: inf
ROOT
ATOM      1  C   UNL     1      16.468  -6.384  23.197  1.00  0.00     0.180 A 
ATOM      2  C   UNL     1      17.391  -5.851  22.277  1.00  0.00     0.208 A 
ATOM      3  C   UNL     1      17.084  -5.890  20.908  1.00  0.00     0.238 A 
ATOM      4  O   UNL     1      17.897  -5.405  20.075  1.00  0.00    -0.285 OA
ATOM      5  C   UNL     1      15.875  -6.477  20.481  1.00  0.00     0.111 A 
ATOM      6  C   UNL     1      15.492  -6.560  19.120  1.00  0.00     0.134 A 
ATOM      7  C   UNL     1      14.276  -7.169  18.775  1.00  0.00     0.093 A 
ATOM      8  C   UNL     1      13.438  -7.695  19.761  1.00  0.00     0.123 A 
ATOM      9  C   UNL     1      13.810  -7.615  21.107  1.00  0.00     0.094 A 
ATOM     10  C   UNL     1      15.016  -7.010  21.471  1.00  0.00     0.146 A 
ATOM     11  O   UNL     1      15.344  -6.944  22.757  1.00  0.00    -0.452 OA
ENDROOT
BRANCH   1  12
ATOM     12  C   UNL     1      16.710  -6.362  24.658  1.00  0.00     0.021 A 
ATOM     13  C   UNL     1      17.491  -7.372  25.244  1.00  0.00     0.016 A 
ATOM     14  C   UNL     1      17.715  -7.384  26.624  1.00  0.00     0.047 A 
ATOM     15  C   UNL     1      17.147  -6.395  27.437  1.00  0.00     0.115 A 
ATOM     16  C   UNL     1      16.127  -5.384  25.483  1.00  0.00     0.016 A 
ATOM     17  C   UNL     1      16.351  -5.398  26.863  1.00  0.00     0.047 A 
BRANCH  15  18
ATOM     18  O   UNL     1      17.362  -6.395  28.813  1.00  0.00    -0.508 OA
ATOM     19  H   UNL     1      17.288  -7.245  29.360  1.00  0.00     0.293 HD
ENDBRANCH  15  18
ENDBRANCH   1  12
BRANCH   2  20
ATOM     20  O   UNL     1      18.603  -5.318  22.722  1.00  0.00    -0.502 OA
ATOM     21  H   UNL     1      19.498  -5.655  22.388  1.00  0.00     0.293 HD
ENDBRANCH   2  20
BRANCH   6  22
ATOM     22  O   UNL     1      16.308  -6.046  18.112  1.00  0.00    -0.507 OA
ATOM     23  H   UNL     1      16.601  -5.076  18.106  1.00  0.00     0.293 HD
ENDBRANCH   6  22
BRANCH   8  24
ATOM     24  O   UNL     1      12.236  -8.295  19.392  1.00  0.00    -0.508 OA
ATOM     25  H   UNL     1      12.044  -8.549  18.430  1.00  0.00     0.293 HD
ENDBRANCH   8  24
TORSDOF 5
ENDMDL
MODEL 7
REMARK VINA RESULT:    -6.856     12.418     14.649
REMARK INTER + INTRA:          -8.357
REMARK INTER:                  -8.416
REMARK INTRA:                   0.059
REMARK UNBOUND:                -0.298
REMARK SMILES O=c1c(O)c(-c2ccc(O)cc2)oc2cc(O)cc(O)c12
REMARK SMILES IDX 5 1 3 2 2 3 1 4 21 5 19 6 18 7 16 8 15 9 14 10 13 11 6 12
REMARK SMILES IDX 7 13 8 14 9 15 12 16 11 17 10 18 4 20 20 22 17 24
REMARK H PARENT 10 19 4 21 20 23 17 25
REMARK Flexibility Score: inf
ROOT
ATOM      1  C   UNL     1      16.311  -4.333  28.663  1.00  0.00     0.180 A 
ATOM      2  C   UNL     1      17.064  -4.008  27.518  1.00  0.00     0.208 A 
ATOM      3  C   UNL     1      16.925  -4.800  26.367  1.00  0.00     0.238 A 
ATOM      4  O   UNL     1      17.585  -4.512  25.332  1.00  0.00    -0.285 OA
ATOM      5  C   UNL     1      16.056  -5.910  26.386  1.00  0.00     0.111 A 
ATOM      6  C   UNL     1      15.863  -6.761  25.270  1.00  0.00     0.134 A 
ATOM      7  C   UNL     1      14.988  -7.852  25.371  1.00  0.00     0.093 A 
ATOM      8  C   UNL     1      14.304  -8.110  26.561  1.00  0.00     0.123 A 
ATOM      9  C   UNL     1      14.490  -7.273  27.667  1.00  0.00     0.094 A 
ATOM     10  C   UNL     1      15.357  -6.179  27.586  1.00  0.00     0.146 A 
ATOM     11  O   UNL     1      15.513  -5.398  28.648  1.00  0.00    -0.452 OA
ENDROOT
BRANCH   1  12
ATOM     12  C   UNL     1      16.387  -3.536  29.908  1.00  0.00     0.021 A 
ATOM     13  C   UNL     1      16.458  -4.194  31.147  1.00  0.00     0.016 A 
ATOM     14  C   UNL     1      16.508  -3.461  32.337  1.00  0.00     0.047 A 
ATOM     15  C   UNL     1      16.473  -2.061  32.303  1.00  0.00     0.115 A 
ATOM     16  C   UNL     1      16.331  -2.130  29.883  1.00  0.00     0.016 A 
ATOM     17  C   UNL     1      16.381  -1.400  31.074  1.00  0.00     0.047 A 
BRANCH  15  18
ATOM     18  O   UNL     1      16.523  -1.320  33.481  1.00  0.00    -0.508 OA
ATOM     19  H   UNL     1      15.722  -0.791  33.808  1.00  0.00     0.293 HD
ENDBRANCH  15  18
ENDBRANCH   1  12
BRANCH   2  20
ATOM     20  O   UNL     1      17.954  -2.932  27.541  1.00  0.00    -0.502 OA
ATOM     21  H   UNL     1      18.840  -2.950  27.051  1.00  0.00     0.293 HD
ENDBRANCH   2  20
BRANCH   6  22
ATOM     22  O   UNL     1      16.532  -6.531  24.067  1.00  0.00    -0.507 OA
ATOM     23  H   UNL     1      17.543  -6.501  24.017  1.00  0.00     0.293 HD
ENDBRANCH   6  22
BRANCH   8  24
ATOM     24  O   UNL     1      13.441  -9.201  26.636  1.00  0.00    -0.508 OA
ATOM     25  H   UNL     1      12.435  -9.081  26.643  1.00  0.00     0.293 HD
ENDBRANCH   8  24
TORSDOF 5
ENDMDL
MODEL 8
REMARK VINA RESULT:    -6.776     12.707     14.372
REMARK INTER + INTRA:          -8.263
REMARK INTER:                  -8.153
REMARK INTRA:                  -0.110
REMARK UNBOUND:                -0.298
REMARK SMILES O=c1c(O)c(-c2ccc(O)cc2)oc2cc(O)cc(O)c12
REMARK SMILES IDX 5 1 3 2 2 3 1 4 21 5 19 6 18 7 16 8 15 9 14 10 13 11 6 12
REMARK SMILES IDX 7 13 8 14 9 15 12 16 11 17 10 18 4 20 20 22 17 24
REMARK H PARENT 10 19 4 21 20 23 17 25
REMARK Flexibility Score: inf
ROOT
ATOM      1  C   UNL     1      15.886  -4.660  28.941  1.00  0.00     0.180 A 
ATOM      2  C   UNL     1      14.823  -5.583  28.924  1.00  0.00     0.208 A 
ATOM      3  C   UNL     1      14.679  -6.432  27.815  1.00  0.00     0.238 A 
ATOM      4  O   UNL     1      13.738  -7.271  27.794  1.00  0.00    -0.285 OA
ATOM      5  C   UNL     1      15.584  -6.332  26.739  1.00  0.00     0.111 A 
ATOM      6  C   UNL     1      15.507  -7.148  25.583  1.00  0.00     0.134 A 
ATOM      7  C   UNL     1      16.440  -6.980  24.550  1.00  0.00     0.093 A 
ATOM      8  C   UNL     1      17.446  -6.016  24.647  1.00  0.00     0.123 A 
ATOM      9  C   UNL     1      17.528  -5.207  25.786  1.00  0.00     0.094 A 
ATOM     10  C   UNL     1      16.609  -5.360  26.828  1.00  0.00     0.146 A 
ATOM     11  O   UNL     1      16.712  -4.583  27.900  1.00  0.00    -0.452 OA
ENDROOT
BRANCH   1  12
ATOM     12  C   UNL     1      16.116  -3.744  30.082  1.00  0.00     0.021 A 
ATOM     13  C   UNL     1      16.152  -2.358  29.859  1.00  0.00     0.016 A 
ATOM     14  C   UNL     1      16.389  -1.476  30.918  1.00  0.00     0.047 A 
ATOM     15  C   UNL     1      16.608  -1.971  32.210  1.00  0.00     0.115 A 
ATOM     16  C   UNL     1      16.357  -4.235  31.379  1.00  0.00     0.016 A 
ATOM     17  C   UNL     1      16.594  -3.351  32.435  1.00  0.00     0.047 A 
BRANCH  15  18
ATOM     18  O   UNL     1      16.845  -1.102  33.273  1.00  0.00    -0.508 OA
ATOM     19  H   UNL     1      17.237  -0.179  33.125  1.00  0.00     0.293 HD
ENDBRANCH  15  18
ENDBRANCH   1  12
BRANCH   2  20
ATOM     20  O   UNL     1      13.911  -5.629  29.981  1.00  0.00    -0.502 OA
ATOM     21  H   UNL     1      12.929  -5.834  29.842  1.00  0.00     0.293 HD
ENDBRANCH   2  20
BRANCH   6  22
ATOM     22  O   UNL     1      14.514  -8.119  25.455  1.00  0.00    -0.507 OA
ATOM     23  H   UNL     1      13.532  -7.873  25.403  1.00  0.00     0.293 HD
ENDBRANCH   6  22
BRANCH   8  24
ATOM     24  O   UNL     1      18.360  -5.868  23.607  1.00  0.00    -0.508 OA
ATOM     25  H   UNL     1      18.780  -6.671  23.153  1.00  0.00     0.293 HD
ENDBRANCH   8  24
TORSDOF 5
ENDMDL
MODEL 9
REMARK VINA RESULT:    -6.707     11.685     13.997
REMARK INTER + INTRA:          -8.181
REMARK INTER:                  -8.193
REMARK INTRA:                   0.012
REMARK UNBOUND:                -0.298
REMARK SMILES O=c1c(O)c(-c2ccc(O)cc2)oc2cc(O)cc(O)c12
REMARK SMILES IDX 5 1 3 2 2 3 1 4 21 5 19 6 18 7 16 8 15 9 14 10 13 11 6 12
REMARK SMILES IDX 7 13 8 14 9 15 12 16 11 17 10 18 4 20 20 22 17 24
REMARK H PARENT 10 19 4 21 20 23 17 25
REMARK Flexibility Score: inf
ROOT
ATOM      1  C   UNL     1      15.013  -6.912  23.839  1.00  0.00     0.180 A 
ATOM      2  C   UNL     1      14.508  -7.780  24.826  1.00  0.00     0.208 A 
ATOM      3  C   UNL     1      14.763  -7.493  26.177  1.00  0.00     0.238 A 
ATOM      4  O   UNL     1      14.306  -8.256  27.070  1.00  0.00    -0.285 OA
ATOM      5  C   UNL     1      15.532  -6.361  26.515  1.00  0.00     0.111 A 
ATOM      6  C   UNL     1      15.838  -6.003  27.852  1.00  0.00     0.134 A 
ATOM      7  C   UNL     1      16.617  -4.866  28.106  1.00  0.00     0.093 A 
ATOM      8  C   UNL     1      17.097  -4.080  27.056  1.00  0.00     0.123 A 
ATOM      9  C   UNL     1      16.798  -4.428  25.734  1.00  0.00     0.094 A 
ATOM     10  C   UNL     1      16.021  -5.556  25.459  1.00  0.00     0.146 A 
ATOM     11  O   UNL     1      15.748  -5.861  24.196  1.00  0.00    -0.452 OA
ENDROOT
BRANCH   1  12
ATOM     12  C   UNL     1      14.771  -7.135  22.395  1.00  0.00     0.021 A 
ATOM     13  C   UNL     1      15.842  -7.045  21.493  1.00  0.00     0.016 A 
ATOM     14  C   UNL     1      15.633  -7.231  20.123  1.00  0.00     0.047 A 
ATOM     15  C   UNL     1      14.346  -7.494  19.637  1.00  0.00     0.115 A 
ATOM     16  C   UNL     1      13.477  -7.380  21.898  1.00  0.00     0.016 A 
ATOM     17  C   UNL     1      13.270  -7.565  20.529  1.00  0.00     0.047 A 
BRANCH  15  18
ATOM     18  O   UNL     1      14.124  -7.681  18.275  1.00  0.00    -0.508 OA
ATOM     19  H   UNL     1      13.500  -8.403  17.934  1.00  0.00     0.293 HD
ENDBRANCH  15  18
ENDBRANCH   1  12
BRANCH   2  20
ATOM     20  O   UNL     1      13.790  -8.922  24.462  1.00  0.00    -0.502 OA
ATOM     21  H   UNL     1      14.179  -9.854  24.539  1.00  0.00     0.293 HD
ENDBRANCH   2  20
BRANCH   6  22
ATOM     22  O   UNL     1      15.375  -6.768  28.923  1.00  0.00    -0.507 OA
ATOM     23  H   UNL     1      15.925  -6.894  29.765  1.00  0.00     0.293 HD
ENDBRANCH   6  22
BRANCH   8  24
ATOM     24  O   UNL     1      17.870  -2.956  27.335  1.00  0.00    -0.508 OA
ATOM     25  H   UNL     1      18.024  -2.233  26.642  1.00  0.00     0.293 HD
ENDBRANCH   8  24
TORSDOF 5
ENDMDL
