MODEL 1
REMARK VINA RESULT:    -6.997      0.000      0.000
REMARK INTER + INTRA:          -8.943
REMARK INTER:                  -8.633
REMARK INTRA:                  -0.310
REMARK UNBOUND:                -0.310
REMARK SMILES Oc1cc(O)c2cc(O)c(-c3cc(O)c(O)c(O)c3)[o+]c2c1
REMARK SMILES IDX 10 1 20 2 21 3 22 4 2 5 3 6 4 7 6 8 7 9 8 10 11 11 12 12
REMARK SMILES IDX 13 13 19 14 15 15 17 16 14 17 16 19 18 21 9 23 1 25 5 27
REMARK H PARENT 14 18 16 20 18 22 9 24 1 26 5 28
REMARK Flexibility Score: inf
ROOT
ATOM      1  C   UNL     1       3.799  36.311  27.894  1.00  0.00     0.402 A 
ATOM      2  O   UNL     1       4.619  36.115  26.865  1.00  0.00    -0.202 OA
ATOM      3  C   UNL     1       5.089  37.100  26.108  1.00  0.00     0.368 A 
ATOM      4  C   UNL     1       5.948  36.796  25.049  1.00  0.00     0.162 A 
ATOM      5  C   UNL     1       6.460  37.810  24.240  1.00  0.00     0.128 A 
ATOM      6  C   UNL     1       6.112  39.143  24.490  1.00  0.00     0.093 A 
ATOM      7  C   UNL     1       5.252  39.475  25.545  1.00  0.00     0.136 A 
ATOM      8  C   UNL     1       4.729  38.444  26.369  1.00  0.00     0.125 A 
ATOM      9  C   UNL     1       3.851  38.683  27.439  1.00  0.00     0.078 A 
ATOM     10  C   UNL     1       3.372  37.615  28.204  1.00  0.00     0.223 A 
ENDROOT
BRANCH   1  11
ATOM     11  C   UNL     1       3.351  35.130  28.667  1.00  0.00     0.091 A 
ATOM     12  C   UNL     1       3.853  34.920  29.961  1.00  0.00     0.068 A 
ATOM     13  C   UNL     1       3.429  33.821  30.719  1.00  0.00     0.162 A 
ATOM     14  C   UNL     1       2.388  34.244  28.155  1.00  0.00     0.068 A 
ATOM     15  C   UNL     1       2.484  32.929  30.197  1.00  0.00     0.200 A 
ATOM     16  C   UNL     1       1.958  33.145  28.912  1.00  0.00     0.162 A 
BRANCH  13  17
ATOM     17  O   UNL     1       3.942  33.609  31.999  1.00  0.00    -0.504 OA
ATOM     18  H   UNL     1       3.730  32.768  32.522  1.00  0.00     0.293 HD
ENDBRANCH  13  17
BRANCH  15  19
ATOM     19  O   UNL     1       2.075  31.840  30.966  1.00  0.00    -0.502 OA
ATOM     20  H   UNL     1       1.121  31.501  30.956  1.00  0.00     0.293 HD
ENDBRANCH  15  19
BRANCH  16  21
ATOM     21  O   UNL     1       1.006  32.268  28.392  1.00  0.00    -0.504 OA
ATOM     22  H   UNL     1       0.961  32.057  27.402  1.00  0.00     0.293 HD
ENDBRANCH  16  21
ENDBRANCH   1  11
BRANCH  10  23
ATOM     23  O   UNL     1       2.461  37.846  29.235  1.00  0.00    -0.500 OA
ATOM     24  H   UNL     1       2.569  37.415  30.146  1.00  0.00     0.294 HD
ENDBRANCH  10  23
BRANCH   5  25
ATOM     25  O   UNL     1       7.314  37.485  23.188  1.00  0.00    -0.507 OA
ATOM     26  H   UNL     1       8.256  37.853  23.138  1.00  0.00     0.293 HD
ENDBRANCH   5  25
BRANCH   7  27
ATOM     27  O   UNL     1       4.956  40.829  25.732  1.00  0.00    -0.507 OA
ATOM     28  H   UNL     1       4.896  41.280  26.632  1.00  0.00     0.293 HD
ENDBRANCH   7  27
TORSDOF 7
ENDMDL
MODEL 2
REMARK VINA RESULT:    -6.724      2.190      2.805
REMARK INTER + INTRA:          -8.606
REMARK INTER:                  -8.269
REMARK INTRA:                  -0.337
REMARK UNBOUND:                -0.310
REMARK SMILES Oc1cc(O)c2cc(O)c(-c3cc(O)c(O)c(O)c3)[o+]c2c1
REMARK SMILES IDX 10 1 20 2 21 3 22 4 2 5 3 6 4 7 6 8 7 9 8 10 11 11 12 12
REMARK SMILES IDX 13 13 19 14 15 15 17 16 14 17 16 19 18 21 9 23 1 25 5 27
REMARK H PARENT 14 18 16 20 18 22 9 24 1 26 5 28
REMARK Flexibility Score: inf
ROOT
ATOM      1  C   UNL     1       4.093  35.471  28.863  1.00  0.00     0.402 A 
ATOM      2  O   UNL     1       5.194  36.107  29.257  1.00  0.00    -0.202 OA
ATOM      3  C   UNL     1       5.746  37.103  28.573  1.00  0.00     0.368 A 
ATOM      4  C   UNL     1       6.902  37.711  29.070  1.00  0.00     0.162 A 
ATOM      5  C   UNL     1       7.502  38.761  28.374  1.00  0.00     0.128 A 
ATOM      6  C   UNL     1       6.943  39.210  27.171  1.00  0.00     0.093 A 
ATOM      7  C   UNL     1       5.786  38.617  26.652  1.00  0.00     0.136 A 
ATOM      8  C   UNL     1       5.174  37.547  27.356  1.00  0.00     0.125 A 
ATOM      9  C   UNL     1       4.021  36.885  26.904  1.00  0.00     0.078 A 
ATOM     10  C   UNL     1       3.478  35.835  27.650  1.00  0.00     0.223 A 
ENDROOT
BRANCH   1  11
ATOM     11  C   UNL     1       3.569  34.382  29.718  1.00  0.00     0.091 A 
ATOM     12  C   UNL     1       2.434  34.612  30.510  1.00  0.00     0.068 A 
ATOM     13  C   UNL     1       1.907  33.591  31.312  1.00  0.00     0.162 A 
ATOM     14  C   UNL     1       4.150  33.103  29.710  1.00  0.00     0.068 A 
ATOM     15  C   UNL     1       2.502  32.324  31.317  1.00  0.00     0.200 A 
ATOM     16  C   UNL     1       3.625  32.077  30.508  1.00  0.00     0.162 A 
BRANCH  13  17
ATOM     17  O   UNL     1       0.788  33.829  32.109  1.00  0.00    -0.504 OA
ATOM     18  H   UNL     1      -0.026  34.315  31.750  1.00  0.00     0.293 HD
ENDBRANCH  13  17
BRANCH  15  19
ATOM     19  O   UNL     1       1.965  31.320  32.123  1.00  0.00    -0.502 OA
ATOM     20  H   UNL     1       2.232  31.207  33.093  1.00  0.00     0.293 HD
ENDBRANCH  15  19
BRANCH  16  21
ATOM     21  O   UNL     1       4.213  30.812  30.498  1.00  0.00    -0.504 OA
ATOM     22  H   UNL     1       4.276  30.248  31.337  1.00  0.00     0.293 HD
ENDBRANCH  16  21
ENDBRANCH   1  11
BRANCH  10  23
ATOM     23  O   UNL     1       2.362  35.144  27.177  1.00  0.00    -0.500 OA
ATOM     24  H   UNL     1       2.029  35.258  26.227  1.00  0.00     0.294 HD
ENDBRANCH  10  23
BRANCH   5  25
ATOM     25  O   UNL     1       8.654  39.354  28.886  1.00  0.00    -0.507 OA
ATOM     26  H   UNL     1       8.698  39.692  29.840  1.00  0.00     0.293 HD
ENDBRANCH   5  25
BRANCH   7  27
ATOM     27  O   UNL     1       5.288  39.124  25.448  1.00  0.00    -0.507 OA
ATOM     28  H   UNL     1       5.215  40.107  25.231  1.00  0.00     0.293 HD
ENDBRANCH   7  27
TORSDOF 7
ENDMDL
MODEL 3
REMARK VINA RESULT:    -6.574      2.903      4.848
REMARK INTER + INTRA:          -8.421
REMARK INTER:                  -8.040
REMARK INTRA:                  -0.381
REMARK UNBOUND:                -0.310
REMARK SMILES Oc1cc(O)c2cc(O)c(-c3cc(O)c(O)c(O)c3)[o+]c2c1
REMARK SMILES IDX 10 1 20 2 21 3 22 4 2 5 3 6 4 7 6 8 7 9 8 10 11 11 12 12
REMARK SMILES IDX 13 13 19 14 15 15 17 16 14 17 16 19 18 21 9 23 1 25 5 27
REMARK H PARENT 14 18 16 20 18 22 9 24 1 26 5 28
REMARK Flexibility Score: inf
ROOT
ATOM      1  C   UNL     1       6.658  38.209  25.919  1.00  0.00     0.402 A 
ATOM      2  O   UNL     1       6.434  39.184  25.042  1.00  0.00    -0.202 OA
ATOM      3  C   UNL     1       7.251  39.458  24.030  1.00  0.00     0.368 A 
ATOM      4  C   UNL     1       6.928  40.500  23.157  1.00  0.00     0.162 A 
ATOM      5  C   UNL     1       7.765  40.808  22.085  1.00  0.00     0.128 A 
ATOM      6  C   UNL     1       8.936  40.068  21.880  1.00  0.00     0.093 A 
ATOM      7  C   UNL     1       9.281  39.018  22.740  1.00  0.00     0.136 A 
ATOM      8  C   UNL     1       8.433  38.704  23.833  1.00  0.00     0.125 A 
ATOM      9  C   UNL     1       8.707  37.678  24.754  1.00  0.00     0.078 A 
ATOM     10  C   UNL     1       7.825  37.430  25.810  1.00  0.00     0.223 A 
ENDROOT
BRANCH   1  11
ATOM     11  C   UNL     1       5.667  37.997  26.999  1.00  0.00     0.091 A 
ATOM     12  C   UNL     1       5.806  38.693  28.210  1.00  0.00     0.068 A 
ATOM     13  C   UNL     1       4.870  38.525  29.239  1.00  0.00     0.162 A 
ATOM     14  C   UNL     1       4.557  37.156  26.817  1.00  0.00     0.068 A 
ATOM     15  C   UNL     1       3.777  37.669  29.060  1.00  0.00     0.200 A 
ATOM     16  C   UNL     1       3.617  36.986  27.843  1.00  0.00     0.162 A 
BRANCH  13  17
ATOM     17  O   UNL     1       5.021  39.207  30.446  1.00  0.00    -0.504 OA
ATOM     18  H   UNL     1       4.297  39.198  31.154  1.00  0.00     0.293 HD
ENDBRANCH  13  17
BRANCH  15  19
ATOM     19  O   UNL     1       2.856  37.512  30.097  1.00  0.00    -0.502 OA
ATOM     20  H   UNL     1       1.879  37.308  29.924  1.00  0.00     0.293 HD
ENDBRANCH  15  19
BRANCH  16  21
ATOM     21  O   UNL     1       2.521  36.144  27.654  1.00  0.00    -0.504 OA
ATOM     22  H   UNL     1       2.110  36.003  26.739  1.00  0.00     0.293 HD
ENDBRANCH  16  21
ENDBRANCH   1  11
BRANCH  10  23
ATOM     23  O   UNL     1       8.122  36.446  26.752  1.00  0.00    -0.500 OA
ATOM     24  H   UNL     1       7.983  36.600  27.745  1.00  0.00     0.294 HD
ENDBRANCH  10  23
BRANCH   5  25
ATOM     25  O   UNL     1       7.426  41.852  21.226  1.00  0.00    -0.507 OA
ATOM     26  H   UNL     1       7.751  41.876  20.268  1.00  0.00     0.293 HD
ENDBRANCH   5  25
BRANCH   7  27
ATOM     27  O   UNL     1      10.465  38.325  22.466  1.00  0.00    -0.507 OA
ATOM     28  H   UNL     1      11.048  38.491  21.659  1.00  0.00     0.293 HD
ENDBRANCH   7  27
TORSDOF 7
ENDMDL
MODEL 4
REMARK VINA RESULT:    -6.460      2.573      7.694
REMARK INTER + INTRA:          -8.281
REMARK INTER:                  -7.904
REMARK INTRA:                  -0.377
REMARK UNBOUND:                -0.310
REMARK SMILES Oc1cc(O)c2cc(O)c(-c3cc(O)c(O)c(O)c3)[o+]c2c1
REMARK SMILES IDX 10 1 20 2 21 3 22 4 2 5 3 6 4 7 6 8 7 9 8 10 11 11 12 12
REMARK SMILES IDX 13 13 19 14 15 15 17 16 14 17 16 19 18 21 9 23 1 25 5 27
REMARK H PARENT 14 18 16 20 18 22 9 24 1 26 5 28
REMARK Flexibility Score: inf
ROOT
ATOM      1  C   UNL     1       6.694  38.317  25.917  1.00  0.00     0.402 A 
ATOM      2  O   UNL     1       5.700  37.437  25.841  1.00  0.00    -0.202 OA
ATOM      3  C   UNL     1       4.900  37.149  26.863  1.00  0.00     0.368 A 
ATOM      4  C   UNL     1       3.879  36.212  26.686  1.00  0.00     0.162 A 
ATOM      5  C   UNL     1       3.023  35.893  27.740  1.00  0.00     0.128 A 
ATOM      6  C   UNL     1       3.186  36.515  28.983  1.00  0.00     0.093 A 
ATOM      7  C   UNL     1       4.202  37.458  29.186  1.00  0.00     0.136 A 
ATOM      8  C   UNL     1       5.076  37.784  28.117  1.00  0.00     0.125 A 
ATOM      9  C   UNL     1       6.129  38.706  28.233  1.00  0.00     0.078 A 
ATOM     10  C   UNL     1       6.952  38.972  27.135  1.00  0.00     0.223 A 
ENDROOT
BRANCH   1  11
ATOM     11  C   UNL     1       7.510  38.558  24.704  1.00  0.00     0.091 A 
ATOM     12  C   UNL     1       8.669  37.796  24.490  1.00  0.00     0.068 A 
ATOM     13  C   UNL     1       9.446  37.990  23.341  1.00  0.00     0.162 A 
ATOM     14  C   UNL     1       7.118  39.495  23.733  1.00  0.00     0.068 A 
ATOM     15  C   UNL     1       9.063  38.940  22.386  1.00  0.00     0.200 A 
ATOM     16  C   UNL     1       7.891  39.692  22.581  1.00  0.00     0.162 A 
BRANCH  13  17
ATOM     17  O   UNL     1      10.605  37.240  23.139  1.00  0.00    -0.504 OA
ATOM     18  H   UNL     1      10.565  36.276  22.832  1.00  0.00     0.293 HD
ENDBRANCH  13  17
BRANCH  15  19
ATOM     19  O   UNL     1       9.850  39.122  21.249  1.00  0.00    -0.502 OA
ATOM     20  H   UNL     1       9.466  39.461  20.375  1.00  0.00     0.293 HD
ENDBRANCH  15  19
BRANCH  16  21
ATOM     21  O   UNL     1       7.497  40.629  21.626  1.00  0.00    -0.504 OA
ATOM     22  H   UNL     1       7.768  40.544  20.654  1.00  0.00     0.293 HD
ENDBRANCH  16  21
ENDBRANCH   1  11
BRANCH  10  23
ATOM     23  O   UNL     1       8.029  39.850  27.264  1.00  0.00    -0.500 OA
ATOM     24  H   UNL     1       8.343  40.424  26.490  1.00  0.00     0.294 HD
ENDBRANCH  10  23
BRANCH   5  25
ATOM     25  O   UNL     1       2.012  34.955  27.544  1.00  0.00    -0.507 OA
ATOM     26  H   UNL     1       1.506  34.550  28.322  1.00  0.00     0.293 HD
ENDBRANCH   5  25
BRANCH   7  27
ATOM     27  O   UNL     1       4.297  38.038  30.456  1.00  0.00    -0.507 OA
ATOM     28  H   UNL     1       3.524  38.131  31.098  1.00  0.00     0.293 HD
ENDBRANCH   7  27
TORSDOF 7
ENDMDL
MODEL 5
REMARK VINA RESULT:    -6.437      2.658      7.764
REMARK INTER + INTRA:          -8.252
REMARK INTER:                  -7.878
REMARK INTRA:                  -0.374
REMARK UNBOUND:                -0.310
REMARK SMILES Oc1cc(O)c2cc(O)c(-c3cc(O)c(O)c(O)c3)[o+]c2c1
REMARK SMILES IDX 10 1 20 2 21 3 22 4 2 5 3 6 4 7 6 8 7 9 8 10 11 11 12 12
REMARK SMILES IDX 13 13 19 14 15 15 17 16 14 17 16 19 18 21 9 23 1 25 5 27
REMARK H PARENT 14 18 16 20 18 22 9 24 1 26 5 28
REMARK Flexibility Score: inf
ROOT
ATOM      1  C   UNL     1       6.063  38.106  26.078  1.00  0.00     0.402 A 
ATOM      2  O   UNL     1       6.296  38.580  27.299  1.00  0.00    -0.202 OA
ATOM      3  C   UNL     1       5.614  38.198  28.373  1.00  0.00     0.368 A 
ATOM      4  C   UNL     1       5.934  38.751  29.616  1.00  0.00     0.162 A 
ATOM      5  C   UNL     1       5.237  38.366  30.761  1.00  0.00     0.128 A 
ATOM      6  C   UNL     1       4.211  37.419  30.667  1.00  0.00     0.093 A 
ATOM      7  C   UNL     1       3.870  36.850  29.433  1.00  0.00     0.136 A 
ATOM      8  C   UNL     1       4.576  37.241  28.266  1.00  0.00     0.125 A 
ATOM      9  C   UNL     1       4.294  36.733  26.987  1.00  0.00     0.078 A 
ATOM     10  C   UNL     1       5.030  37.170  25.882  1.00  0.00     0.223 A 
ENDROOT
BRANCH   1  11
ATOM     11  C   UNL     1       6.898  38.604  24.961  1.00  0.00     0.091 A 
ATOM     12  C   UNL     1       8.012  37.859  24.546  1.00  0.00     0.068 A 
ATOM     13  C   UNL     1       8.805  38.299  23.479  1.00  0.00     0.162 A 
ATOM     14  C   UNL     1       6.565  39.781  24.269  1.00  0.00     0.068 A 
ATOM     15  C   UNL     1       8.482  39.484  22.805  1.00  0.00     0.200 A 
ATOM     16  C   UNL     1       7.355  40.225  23.199  1.00  0.00     0.162 A 
BRANCH  13  17
ATOM     17  O   UNL     1       9.920  37.562  23.079  1.00  0.00    -0.504 OA
ATOM     18  H   UNL     1      10.509  37.865  22.313  1.00  0.00     0.293 HD
ENDBRANCH  13  17
BRANCH  15  19
ATOM     19  O   UNL     1       9.285  39.908  21.747  1.00  0.00    -0.502 OA
ATOM     20  H   UNL     1       9.722  40.821  21.733  1.00  0.00     0.293 HD
ENDBRANCH  15  19
BRANCH  16  21
ATOM     21  O   UNL     1       7.020  41.397  22.522  1.00  0.00    -0.504 OA
ATOM     22  H   UNL     1       6.319  41.408  21.791  1.00  0.00     0.293 HD
ENDBRANCH  16  21
ENDBRANCH   1  11
BRANCH  10  23
ATOM     23  O   UNL     1       4.717  36.705  24.604  1.00  0.00    -0.500 OA
ATOM     24  H   UNL     1       4.622  37.335  23.816  1.00  0.00     0.294 HD
ENDBRANCH  10  23
BRANCH   5  25
ATOM     25  O   UNL     1       5.572  38.930  31.990  1.00  0.00    -0.507 OA
ATOM     26  H   UNL     1       5.554  39.932  32.136  1.00  0.00     0.293 HD
ENDBRANCH   5  25
BRANCH   7  27
ATOM     27  O   UNL     1       2.836  35.909  29.423  1.00  0.00    -0.507 OA
ATOM     28  H   UNL     1       1.944  36.038  29.878  1.00  0.00     0.293 HD
ENDBRANCH   7  27
TORSDOF 7
ENDMDL
MODEL 6
REMARK VINA RESULT:    -6.427      2.584      7.810
REMARK INTER + INTRA:          -8.240
REMARK INTER:                  -7.876
REMARK INTRA:                  -0.364
REMARK UNBOUND:                -0.310
REMARK SMILES Oc1cc(O)c2cc(O)c(-c3cc(O)c(O)c(O)c3)[o+]c2c1
REMARK SMILES IDX 10 1 20 2 21 3 22 4 2 5 3 6 4 7 6 8 7 9 8 10 11 11 12 12
REMARK SMILES IDX 13 13 19 14 15 15 17 16 14 17 16 19 18 21 9 23 1 25 5 27
REMARK H PARENT 14 18 16 20 18 22 9 24 1 26 5 28
REMARK Flexibility Score: inf
ROOT
ATOM      1  C   UNL     1       6.738  38.278  25.903  1.00  0.00     0.402 A 
ATOM      2  O   UNL     1       5.736  37.405  25.852  1.00  0.00    -0.202 OA
ATOM      3  C   UNL     1       4.945  37.141  26.887  1.00  0.00     0.368 A 
ATOM      4  C   UNL     1       3.914  36.209  26.736  1.00  0.00     0.162 A 
ATOM      5  C   UNL     1       3.067  35.914  27.804  1.00  0.00     0.128 A 
ATOM      6  C   UNL     1       3.248  36.556  29.035  1.00  0.00     0.093 A 
ATOM      7  C   UNL     1       4.273  37.493  29.212  1.00  0.00     0.136 A 
ATOM      8  C   UNL     1       5.138  37.794  28.128  1.00  0.00     0.125 A 
ATOM      9  C   UNL     1       6.200  38.709  28.219  1.00  0.00     0.078 A 
ATOM     10  C   UNL     1       7.014  38.950  27.108  1.00  0.00     0.223 A 
ENDROOT
BRANCH   1  11
ATOM     11  C   UNL     1       7.543  38.492  24.678  1.00  0.00     0.091 A 
ATOM     12  C   UNL     1       7.113  39.426  23.724  1.00  0.00     0.068 A 
ATOM     13  C   UNL     1       7.868  39.661  22.568  1.00  0.00     0.162 A 
ATOM     14  C   UNL     1       8.761  37.819  24.478  1.00  0.00     0.068 A 
ATOM     15  C   UNL     1       9.070  38.973  22.361  1.00  0.00     0.200 A 
ATOM     16  C   UNL     1       9.521  38.052  23.323  1.00  0.00     0.162 A 
BRANCH  13  17
ATOM     17  O   UNL     1       7.429  40.581  21.615  1.00  0.00    -0.504 OA
ATOM     18  H   UNL     1       7.351  40.333  20.636  1.00  0.00     0.293 HD
ENDBRANCH  13  17
BRANCH  15  19
ATOM     19  O   UNL     1       9.807  39.218  21.203  1.00  0.00    -0.502 OA
ATOM     20  H   UNL     1       9.627  38.729  20.335  1.00  0.00     0.293 HD
ENDBRANCH  15  19
BRANCH  16  21
ATOM     21  O   UNL     1      10.725  37.375  23.130  1.00  0.00    -0.504 OA
ATOM     22  H   UNL     1      11.279  37.504  22.291  1.00  0.00     0.293 HD
ENDBRANCH  16  21
ENDBRANCH   1  11
BRANCH  10  23
ATOM     23  O   UNL     1       8.099  39.821  27.211  1.00  0.00    -0.500 OA
ATOM     24  H   UNL     1       8.063  40.763  26.839  1.00  0.00     0.294 HD
ENDBRANCH  10  23
BRANCH   5  25
ATOM     25  O   UNL     1       2.046  34.982  27.633  1.00  0.00    -0.507 OA
ATOM     26  H   UNL     1       2.236  34.041  27.311  1.00  0.00     0.293 HD
ENDBRANCH   5  25
BRANCH   7  27
ATOM     27  O   UNL     1       4.386  38.093  30.470  1.00  0.00    -0.507 OA
ATOM     28  H   UNL     1       3.928  37.756  31.304  1.00  0.00     0.293 HD
ENDBRANCH   7  27
TORSDOF 7
ENDMDL
MODEL 7
REMARK VINA RESULT:    -6.406      2.181      2.782
REMARK INTER + INTRA:          -8.215
REMARK INTER:                  -7.838
REMARK INTRA:                  -0.377
REMARK UNBOUND:                -0.310
REMARK SMILES Oc1cc(O)c2cc(O)c(-c3cc(O)c(O)c(O)c3)[o+]c2c1
REMARK SMILES IDX 10 1 20 2 21 3 22 4 2 5 3 6 4 7 6 8 7 9 8 10 11 11 12 12
REMARK SMILES IDX 13 13 19 14 15 15 17 16 14 17 16 19 18 21 9 23 1 25 5 27
REMARK H PARENT 14 18 16 20 18 22 9 24 1 26 5 28
REMARK Flexibility Score: inf
ROOT
ATOM      1  C   UNL     1       4.895  35.761  29.745  1.00  0.00     0.402 A 
ATOM      2  O   UNL     1       4.618  36.151  28.503  1.00  0.00    -0.202 OA
ATOM      3  C   UNL     1       5.236  37.160  27.900  1.00  0.00     0.368 A 
ATOM      4  C   UNL     1       4.878  37.493  26.590  1.00  0.00     0.162 A 
ATOM      5  C   UNL     1       5.512  38.546  25.931  1.00  0.00     0.128 A 
ATOM      6  C   UNL     1       6.514  39.274  26.583  1.00  0.00     0.093 A 
ATOM      7  C   UNL     1       6.891  38.960  27.895  1.00  0.00     0.136 A 
ATOM      8  C   UNL     1       6.247  37.891  28.569  1.00  0.00     0.125 A 
ATOM      9  C   UNL     1       6.551  37.516  29.888  1.00  0.00     0.078 A 
ATOM     10  C   UNL     1       5.869  36.453  30.489  1.00  0.00     0.223 A 
ENDROOT
BRANCH   1  11
ATOM     11  C   UNL     1       4.142  34.615  30.304  1.00  0.00     0.091 A 
ATOM     12  C   UNL     1       4.698  33.328  30.242  1.00  0.00     0.068 A 
ATOM     13  C   UNL     1       4.014  32.231  30.782  1.00  0.00     0.162 A 
ATOM     14  C   UNL     1       2.907  34.797  30.949  1.00  0.00     0.068 A 
ATOM     15  C   UNL     1       2.773  32.414  31.405  1.00  0.00     0.200 A 
ATOM     16  C   UNL     1       2.220  33.703  31.493  1.00  0.00     0.162 A 
BRANCH  13  17
ATOM     17  O   UNL     1       4.564  30.952  30.705  1.00  0.00    -0.504 OA
ATOM     18  H   UNL     1       5.269  30.718  30.016  1.00  0.00     0.293 HD
ENDBRANCH  13  17
BRANCH  15  19
ATOM     19  O   UNL     1       2.107  31.310  31.935  1.00  0.00    -0.502 OA
ATOM     20  H   UNL     1       1.189  31.385  32.356  1.00  0.00     0.293 HD
ENDBRANCH  15  19
BRANCH  16  21
ATOM     21  O   UNL     1       0.992  33.893  32.125  1.00  0.00    -0.504 OA
ATOM     22  H   UNL     1       0.127  33.552  31.721  1.00  0.00     0.293 HD
ENDBRANCH  16  21
ENDBRANCH   1  11
BRANCH  10  23
ATOM     23  O   UNL     1       6.135  36.111  31.815  1.00  0.00    -0.500 OA
ATOM     24  H   UNL     1       6.367  36.813  32.509  1.00  0.00     0.294 HD
ENDBRANCH  10  23
BRANCH   5  25
ATOM     25  O   UNL     1       5.139  38.863  24.626  1.00  0.00    -0.507 OA
ATOM     26  H   UNL     1       5.757  38.691  23.842  1.00  0.00     0.293 HD
ENDBRANCH   5  25
BRANCH   7  27
ATOM     27  O   UNL     1       7.903  39.733  28.475  1.00  0.00    -0.507 OA
ATOM     28  H   UNL     1       8.620  39.367  29.084  1.00  0.00     0.293 HD
ENDBRANCH   7  27
TORSDOF 7
ENDMDL
MODEL 8
REMARK VINA RESULT:    -6.326      2.208      7.060
REMARK INTER + INTRA:          -8.115
REMARK INTER:                  -7.752
REMARK INTRA:                  -0.363
REMARK UNBOUND:                -0.310
REMARK SMILES Oc1cc(O)c2cc(O)c(-c3cc(O)c(O)c(O)c3)[o+]c2c1
REMARK SMILES IDX 10 1 20 2 21 3 22 4 2 5 3 6 4 7 6 8 7 9 8 10 11 11 12 12
REMARK SMILES IDX 13 13 19 14 15 15 17 16 14 17 16 19 18 21 9 23 1 25 5 27
REMARK H PARENT 14 18 16 20 18 22 9 24 1 26 5 28
REMARK Flexibility Score: inf
ROOT
ATOM      1  C   UNL     1       4.133  35.972  29.353  1.00  0.00     0.402 A 
ATOM      2  O   UNL     1       4.561  34.721  29.500  1.00  0.00    -0.202 OA
ATOM      3  C   UNL     1       3.887  33.793  30.171  1.00  0.00     0.368 A 
ATOM      4  C   UNL     1       4.417  32.503  30.268  1.00  0.00     0.162 A 
ATOM      5  C   UNL     1       3.730  31.508  30.963  1.00  0.00     0.128 A 
ATOM      6  C   UNL     1       2.501  31.801  31.566  1.00  0.00     0.093 A 
ATOM      7  C   UNL     1       1.949  33.085  31.483  1.00  0.00     0.136 A 
ATOM      8  C   UNL     1       2.646  34.100  30.779  1.00  0.00     0.125 A 
ATOM      9  C   UNL     1       2.175  35.418  30.656  1.00  0.00     0.078 A 
ATOM     10  C   UNL     1       2.920  36.366  29.950  1.00  0.00     0.223 A 
ENDROOT
BRANCH   1  11
ATOM     11  C   UNL     1       4.971  36.913  28.575  1.00  0.00     0.091 A 
ATOM     12  C   UNL     1       6.134  37.442  29.154  1.00  0.00     0.068 A 
ATOM     13  C   UNL     1       6.954  38.318  28.431  1.00  0.00     0.162 A 
ATOM     14  C   UNL     1       4.657  37.243  27.246  1.00  0.00     0.068 A 
ATOM     15  C   UNL     1       6.627  38.661  27.114  1.00  0.00     0.200 A 
ATOM     16  C   UNL     1       5.476  38.117  26.517  1.00  0.00     0.162 A 
BRANCH  13  17
ATOM     17  O   UNL     1       8.102  38.852  29.017  1.00  0.00    -0.504 OA
ATOM     18  H   UNL     1       8.882  39.175  28.457  1.00  0.00     0.293 HD
ENDBRANCH  13  17
BRANCH  15  19
ATOM     19  O   UNL     1       7.454  39.536  26.410  1.00  0.00    -0.502 OA
ATOM     20  H   UNL     1       7.430  39.606  25.400  1.00  0.00     0.293 HD
ENDBRANCH  15  19
BRANCH  16  21
ATOM     21  O   UNL     1       5.153  38.444  25.200  1.00  0.00    -0.504 OA
ATOM     22  H   UNL     1       4.973  37.730  24.504  1.00  0.00     0.293 HD
ENDBRANCH  16  21
ENDBRANCH   1  11
BRANCH  10  23
ATOM     23  O   UNL     1       2.478  37.687  29.870  1.00  0.00    -0.500 OA
ATOM     24  H   UNL     1       1.785  37.976  29.188  1.00  0.00     0.294 HD
ENDBRANCH  10  23
BRANCH   5  25
ATOM     25  O   UNL     1       4.276  30.229  31.049  1.00  0.00    -0.507 OA
ATOM     26  H   UNL     1       3.772  29.466  31.484  1.00  0.00     0.293 HD
ENDBRANCH   5  25
BRANCH   7  27
ATOM     27  O   UNL     1       0.716  33.296  32.109  1.00  0.00    -0.507 OA
ATOM     28  H   UNL     1       0.601  33.469  33.097  1.00  0.00     0.293 HD
ENDBRANCH   7  27
TORSDOF 7
ENDMDL
MODEL 9
REMARK VINA RESULT:    -6.130      2.505      4.083
REMARK INTER + INTRA:          -7.873
REMARK INTER:                  -7.511
REMARK INTRA:                  -0.362
REMARK UNBOUND:                -0.310
REMARK SMILES Oc1cc(O)c2cc(O)c(-c3cc(O)c(O)c(O)c3)[o+]c2c1
REMARK SMILES IDX 10 1 20 2 21 3 22 4 2 5 3 6 4 7 6 8 7 9 8 10 11 11 12 12
REMARK SMILES IDX 13 13 19 14 15 15 17 16 14 17 16 19 18 21 9 23 1 25 5 27
REMARK H PARENT 14 18 16 20 18 22 9 24 1 26 5 28
REMARK Flexibility Score: inf
ROOT
ATOM      1  C   UNL     1       5.906  38.697  25.971  1.00  0.00     0.402 A 
ATOM      2  O   UNL     1       7.019  38.091  25.567  1.00  0.00    -0.202 OA
ATOM      3  C   UNL     1       7.773  38.539  24.569  1.00  0.00     0.368 A 
ATOM      4  C   UNL     1       8.928  37.834  24.218  1.00  0.00     0.162 A 
ATOM      5  C   UNL     1       9.741  38.284  23.176  1.00  0.00     0.128 A 
ATOM      6  C   UNL     1       9.398  39.447  22.478  1.00  0.00     0.093 A 
ATOM      7  C   UNL     1       8.246  40.172  22.810  1.00  0.00     0.136 A 
ATOM      8  C   UNL     1       7.417  39.716  23.868  1.00  0.00     0.125 A 
ATOM      9  C   UNL     1       6.237  40.370  24.260  1.00  0.00     0.078 A 
ATOM     10  C   UNL     1       5.468  39.859  25.309  1.00  0.00     0.223 A 
ENDROOT
BRANCH   1  11
ATOM     11  C   UNL     1       5.157  38.103  27.102  1.00  0.00     0.091 A 
ATOM     12  C   UNL     1       5.307  38.642  28.389  1.00  0.00     0.068 A 
ATOM     13  C   UNL     1       4.593  38.112  29.471  1.00  0.00     0.162 A 
ATOM     14  C   UNL     1       4.252  37.046  26.904  1.00  0.00     0.068 A 
ATOM     15  C   UNL     1       3.709  37.044  29.273  1.00  0.00     0.200 A 
ATOM     16  C   UNL     1       3.534  36.513  27.984  1.00  0.00     0.162 A 
BRANCH  13  17
ATOM     17  O   UNL     1       4.757  38.642  30.750  1.00  0.00    -0.504 OA
ATOM     18  H   UNL     1       5.669  38.912  31.099  1.00  0.00     0.293 HD
ENDBRANCH  13  17
BRANCH  15  19
ATOM     19  O   UNL     1       3.008  36.527  30.362  1.00  0.00    -0.502 OA
ATOM     20  H   UNL     1       2.757  35.548  30.427  1.00  0.00     0.293 HD
ENDBRANCH  15  19
BRANCH  16  21
ATOM     21  O   UNL     1       2.644  35.459  27.778  1.00  0.00    -0.504 OA
ATOM     22  H   UNL     1       1.895  35.260  28.431  1.00  0.00     0.293 HD
ENDBRANCH  16  21
ENDBRANCH   1  11
BRANCH  10  23
ATOM     23  O   UNL     1       4.270  40.479  25.666  1.00  0.00    -0.500 OA
ATOM     24  H   UNL     1       4.174  40.990  26.536  1.00  0.00     0.294 HD
ENDBRANCH  10  23
BRANCH   5  25
ATOM     25  O   UNL     1      10.887  37.566  22.842  1.00  0.00    -0.507 OA
ATOM     26  H   UNL     1      10.979  37.100  21.947  1.00  0.00     0.293 HD
ENDBRANCH   5  25
BRANCH   7  27
ATOM     27  O   UNL     1       7.976  41.325  22.067  1.00  0.00    -0.507 OA
ATOM     28  H   UNL     1       8.344  41.509  21.146  1.00  0.00     0.293 HD
ENDBRANCH   7  27
TORSDOF 7
ENDMDL
