MODEL 1
REMARK VINA RESULT:    -5.397      0.000      0.000
REMARK INTER + INTRA:         -10.506
REMARK INTER:                  -9.184
REMARK INTRA:                  -1.322
REMARK UNBOUND:                -1.322
REMARK SMILES CCCCCCCCCCCCCC(=O)[O-]
REMARK SMILES IDX 8 1 9 2 10 3 11 4 12 5 13 6 14 7 15 8 16 9 7 10 6 11 5 12
REMARK SMILES IDX 4 13 3 14 2 15 1 16
REMARK H PARENT
REMARK Flexibility Score: inf
ROOT
ATOM      1  C   UNL     1      88.140 325.695 192.942  1.00  0.00     0.000 C 
ENDROOT
BRANCH   1   2
ATOM      2  C   UNL     1      86.957 324.732 192.766  1.00  0.00     0.000 C 
BRANCH   2   3
ATOM      3  C   UNL     1      87.138 323.861 191.517  1.00  0.00     0.000 C 
BRANCH   3   4
ATOM      4  C   UNL     1      88.484 324.144 190.839  1.00  0.00     0.000 C 
BRANCH   4   5
ATOM      5  C   UNL     1      88.553 323.488 189.455  1.00  0.00     0.006 C 
BRANCH   5   6
ATOM      6  C   UNL     1      89.868 323.829 188.749  1.00  0.00     0.053 C 
BRANCH   6   7
ATOM      7  C   UNL     1      90.716 322.606 188.602  1.00  0.00     0.041 C 
ATOM      8  O   UNL     1      91.280 322.353 187.505  1.00  0.00    -0.550 OA
ATOM      9  O   UNL     1      90.925 321.770 189.692  1.00  0.00    -0.550 OA
ENDBRANCH   6   7
ENDBRANCH   5   6
ENDBRANCH   4   5
ENDBRANCH   3   4
ENDBRANCH   2   3
ENDBRANCH   1   2
BRANCH   1  10
ATOM     10  C   UNL     1      87.813 326.868 193.880  1.00  0.00     0.000 C 
BRANCH  10  11
ATOM     11  C   UNL     1      86.567 326.606 194.743  1.00  0.00    -0.000 C 
BRANCH  11  12
ATOM     12  C   UNL     1      86.889 326.565 196.246  1.00  0.00    -0.000 C 
BRANCH  12  13
ATOM     13  C   UNL     1      88.399 326.477 196.525  1.00  0.00    -0.000 C 
BRANCH  13  14
ATOM     14  C   UNL     1      88.795 325.128 197.162  1.00  0.00    -0.000 C 
BRANCH  14  15
ATOM     15  C   UNL     1      89.149 324.042 196.132  1.00  0.00    -0.003 C 
ATOM     16  C   UNL     1      88.013 323.050 195.894  1.00  0.00     0.004 C 
ENDBRANCH  14  15
ENDBRANCH  13  14
ENDBRANCH  12  13
ENDBRANCH  11  12
ENDBRANCH  10  11
ENDBRANCH   1  10
TORSDOF 12
ENDMDL
MODEL 2
REMARK VINA RESULT:    -5.280     16.432     18.989
REMARK INTER + INTRA:         -10.305
REMARK INTER:                  -9.225
REMARK INTRA:                  -1.080
REMARK UNBOUND:                -1.322
REMARK SMILES CCCCCCCCCCCCCC(=O)[O-]
REMARK SMILES IDX 8 1 9 2 10 3 11 4 12 5 13 6 14 7 15 8 16 9 7 10 6 11 5 12
REMARK SMILES IDX 4 13 3 14 2 15 1 16
REMARK H PARENT
REMARK Flexibility Score: inf
ROOT
ATOM      1  C   UNL     1     104.183 312.845 192.213  1.00  0.00     0.000 C 
ENDROOT
BRANCH   1   2
ATOM      2  C   UNL     1     105.405 313.640 191.732  1.00  0.00     0.000 C 
BRANCH   2   3
ATOM      3  C   UNL     1     105.070 314.457 190.478  1.00  0.00     0.000 C 
BRANCH   3   4
ATOM      4  C   UNL     1     103.705 314.053 189.906  1.00  0.00     0.000 C 
BRANCH   4   5
ATOM      5  C   UNL     1     103.433 314.766 188.576  1.00  0.00     0.006 C 
BRANCH   5   6
ATOM      6  C   UNL     1     102.063 314.377 188.014  1.00  0.00     0.053 C 
BRANCH   6   7
ATOM      7  C   UNL     1     101.130 315.546 188.048  1.00  0.00     0.041 C 
ATOM      8  O   UNL     1     100.181 315.623 187.225  1.00  0.00    -0.550 OA
ATOM      9  O   UNL     1     101.281 316.527 189.020  1.00  0.00    -0.550 OA
ENDBRANCH   6   7
ENDBRANCH   5   6
ENDBRANCH   4   5
ENDBRANCH   3   4
ENDBRANCH   2   3
ENDBRANCH   1   2
BRANCH   1  10
ATOM     10  C   UNL     1     104.571 311.552 192.948  1.00  0.00     0.000 C 
BRANCH  10  11
ATOM     11  C   UNL     1     105.951 311.646 193.621  1.00  0.00    -0.000 C 
BRANCH  11  12
ATOM     12  C   UNL     1     105.854 311.777 195.150  1.00  0.00    -0.000 C 
BRANCH  12  13
ATOM     13  C   UNL     1     104.399 311.802 195.650  1.00  0.00    -0.000 C 
BRANCH  13  14
ATOM     14  C   UNL     1     104.173 312.882 196.729  1.00  0.00    -0.000 C 
BRANCH  14  15
ATOM     15  C   UNL     1     103.349 314.083 196.233  1.00  0.00    -0.003 C 
ATOM     16  C   UNL     1     104.097 314.944 195.218  1.00  0.00     0.004 C 
ENDBRANCH  14  15
ENDBRANCH  13  14
ENDBRANCH  12  13
ENDBRANCH  11  12
ENDBRANCH  10  11
ENDBRANCH   1  10
TORSDOF 12
ENDMDL
MODEL 3
REMARK VINA RESULT:    -5.264      1.474      2.019
REMARK INTER + INTRA:         -10.279
REMARK INTER:                  -8.702
REMARK INTRA:                  -1.577
REMARK UNBOUND:                -1.322
REMARK SMILES CCCCCCCCCCCCCC(=O)[O-]
REMARK SMILES IDX 8 1 9 2 10 3 11 4 12 5 13 6 14 7 15 8 16 9 7 10 6 11 5 12
REMARK SMILES IDX 4 13 3 14 2 15 1 16
REMARK H PARENT
REMARK Flexibility Score: inf
ROOT
ATOM      1  C   UNL     1      86.922 326.204 194.005  1.00  0.00     0.000 C 
ENDROOT
BRANCH   1   2
ATOM      2  C   UNL     1      85.876 325.377 193.245  1.00  0.00     0.000 C 
BRANCH   2   3
ATOM      3  C   UNL     1      86.547 324.296 192.388  1.00  0.00     0.000 C 
BRANCH   3   4
ATOM      4  C   UNL     1      87.944 324.740 191.936  1.00  0.00     0.000 C 
BRANCH   4   5
ATOM      5  C   UNL     1      88.725 323.569 191.329  1.00  0.00     0.006 C 
BRANCH   5   6
ATOM      6  C   UNL     1      88.981 323.792 189.837  1.00  0.00     0.053 C 
BRANCH   6   7
ATOM      7  C   UNL     1      88.225 322.793 189.019  1.00  0.00     0.041 C 
ATOM      8  O   UNL     1      88.793 322.189 188.072  1.00  0.00    -0.550 OA
ATOM      9  O   UNL     1      86.906 322.493 189.334  1.00  0.00    -0.550 OA
ENDBRANCH   6   7
ENDBRANCH   5   6
ENDBRANCH   4   5
ENDBRANCH   3   4
ENDBRANCH   2   3
ENDBRANCH   1   2
BRANCH   1  10
ATOM     10  C   UNL     1      86.400 326.721 195.355  1.00  0.00     0.000 C 
BRANCH  10  11
ATOM     11  C   UNL     1      87.416 326.530 196.494  1.00  0.00    -0.000 C 
BRANCH  11  12
ATOM     12  C   UNL     1      88.693 325.809 196.032  1.00  0.00    -0.000 C 
BRANCH  12  13
ATOM     13  C   UNL     1      89.263 324.868 197.107  1.00  0.00    -0.000 C 
BRANCH  13  14
ATOM     14  C   UNL     1      89.437 323.426 196.585  1.00  0.00    -0.000 C 
BRANCH  14  15
ATOM     15  C   UNL     1      88.815 323.195 195.197  1.00  0.00    -0.003 C 
ATOM     16  C   UNL     1      87.594 322.279 195.234  1.00  0.00     0.004 C 
ENDBRANCH  14  15
ENDBRANCH  13  14
ENDBRANCH  12  13
ENDBRANCH  11  12
ENDBRANCH  10  11
ENDBRANCH   1  10
TORSDOF 12
ENDMDL
MODEL 4
REMARK VINA RESULT:    -5.254      6.996     10.412
REMARK INTER + INTRA:         -10.262
REMARK INTER:                  -9.584
REMARK INTRA:                  -0.678
REMARK UNBOUND:                -1.322
REMARK SMILES CCCCCCCCCCCCCC(=O)[O-]
REMARK SMILES IDX 8 1 9 2 10 3 11 4 12 5 13 6 14 7 15 8 16 9 7 10 6 11 5 12
REMARK SMILES IDX 4 13 3 14 2 15 1 16
REMARK H PARENT
REMARK Flexibility Score: inf
ROOT
ATOM      1  C   UNL     1      89.212 325.059 198.418  1.00  0.00     0.000 C 
ENDROOT
BRANCH   1   2
ATOM      2  C   UNL     1      89.116 326.476 199.003  1.00  0.00     0.000 C 
BRANCH   2   3
ATOM      3  C   UNL     1      90.013 326.621 200.239  1.00  0.00     0.000 C 
BRANCH   3   4
ATOM      4  C   UNL     1      89.182 326.606 201.527  1.00  0.00     0.000 C 
BRANCH   4   5
ATOM      5  C   UNL     1      90.046 326.955 202.744  1.00  0.00     0.006 C 
BRANCH   5   6
ATOM      6  C   UNL     1      89.215 327.646 203.829  1.00  0.00     0.053 C 
BRANCH   6   7
ATOM      7  C   UNL     1      89.690 327.243 205.190  1.00  0.00     0.041 C 
ATOM      8  O   UNL     1      90.714 327.780 205.688  1.00  0.00    -0.550 OA
ATOM      9  O   UNL     1      88.973 326.310 205.927  1.00  0.00    -0.550 OA
ENDBRANCH   6   7
ENDBRANCH   5   6
ENDBRANCH   4   5
ENDBRANCH   3   4
ENDBRANCH   2   3
ENDBRANCH   1   2
BRANCH   1  10
ATOM     10  C   UNL     1      88.680 324.978 196.977  1.00  0.00     0.000 C 
BRANCH  10  11
ATOM     11  C   UNL     1      88.357 326.361 196.387  1.00  0.00    -0.000 C 
BRANCH  11  12
ATOM     12  C   UNL     1      86.888 326.487 195.952  1.00  0.00    -0.000 C 
BRANCH  12  13
ATOM     13  C   UNL     1      86.723 326.498 194.422  1.00  0.00    -0.000 C 
BRANCH  13  14
ATOM     14  C   UNL     1      88.071 326.322 193.691  1.00  0.00    -0.000 C 
BRANCH  14  15
ATOM     15  C   UNL     1      88.062 325.189 192.651  1.00  0.00    -0.003 C 
ATOM     16  C   UNL     1      88.638 323.880 193.187  1.00  0.00     0.004 C 
ENDBRANCH  14  15
ENDBRANCH  13  14
ENDBRANCH  12  13
ENDBRANCH  11  12
ENDBRANCH  10  11
ENDBRANCH   1  10
TORSDOF 12
ENDMDL
MODEL 5
REMARK VINA RESULT:    -5.240     19.669     22.149
REMARK INTER + INTRA:         -10.237
REMARK INTER:                  -9.437
REMARK INTRA:                  -0.801
REMARK UNBOUND:                -1.322
REMARK SMILES CCCCCCCCCCCCCC(=O)[O-]
REMARK SMILES IDX 8 1 9 2 10 3 11 4 12 5 13 6 14 7 15 8 16 9 7 10 6 11 5 12
REMARK SMILES IDX 4 13 3 14 2 15 1 16
REMARK H PARENT
REMARK Flexibility Score: inf
ROOT
ATOM      1  C   UNL     1     103.886 313.229 197.550  1.00  0.00     0.000 C 
ENDROOT
BRANCH   1   2
ATOM      2  C   UNL     1     103.893 311.776 198.046  1.00  0.00     0.000 C 
BRANCH   2   3
ATOM      3  C   UNL     1     103.556 311.705 199.541  1.00  0.00     0.000 C 
BRANCH   3   4
ATOM      4  C   UNL     1     104.668 312.335 200.387  1.00  0.00     0.000 C 
BRANCH   4   5
ATOM      5  C   UNL     1     104.230 312.488 201.848  1.00  0.00     0.006 C 
BRANCH   5   6
ATOM      6  C   UNL     1     104.036 311.121 202.511  1.00  0.00     0.053 C 
BRANCH   6   7
ATOM      7  C   UNL     1     104.374 311.191 203.966  1.00  0.00     0.041 C 
ATOM      8  O   UNL     1     105.362 311.867 204.356  1.00  0.00    -0.550 OA
ATOM      9  O   UNL     1     103.569 310.549 204.898  1.00  0.00    -0.550 OA
ENDBRANCH   6   7
ENDBRANCH   5   6
ENDBRANCH   4   5
ENDBRANCH   3   4
ENDBRANCH   2   3
ENDBRANCH   1   2
BRANCH   1  10
ATOM     10  C   UNL     1     104.134 313.338 196.036  1.00  0.00     0.000 C 
BRANCH  10  11
ATOM     11  C   UNL     1     104.406 311.973 195.382  1.00  0.00    -0.000 C 
BRANCH  11  12
ATOM     12  C   UNL     1     105.848 311.842 194.867  1.00  0.00    -0.000 C 
BRANCH  12  13
ATOM     13  C   UNL     1     105.973 312.166 193.369  1.00  0.00    -0.000 C 
BRANCH  13  14
ATOM     14  C   UNL     1     104.621 312.048 192.634  1.00  0.00    -0.000 C 
BRANCH  14  15
ATOM     15  C   UNL     1     104.315 313.243 191.715  1.00  0.00    -0.003 C 
ATOM     16  C   UNL     1     103.890 314.494 192.482  1.00  0.00     0.004 C 
ENDBRANCH  14  15
ENDBRANCH  13  14
ENDBRANCH  12  13
ENDBRANCH  11  12
ENDBRANCH  10  11
ENDBRANCH   1  10
TORSDOF 12
ENDMDL
MODEL 6
REMARK VINA RESULT:    -5.223      6.046      9.392
REMARK INTER + INTRA:         -10.210
REMARK INTER:                  -9.659
REMARK INTRA:                  -0.550
REMARK UNBOUND:                -1.322
REMARK SMILES CCCCCCCCCCCCCC(=O)[O-]
REMARK SMILES IDX 8 1 9 2 10 3 11 4 12 5 13 6 14 7 15 8 16 9 7 10 6 11 5 12
REMARK SMILES IDX 4 13 3 14 2 15 1 16
REMARK H PARENT
REMARK Flexibility Score: inf
ROOT
ATOM      1  C   UNL     1      88.286 326.017 196.436  1.00  0.00     0.000 C 
ENDROOT
BRANCH   1   2
ATOM      2  C   UNL     1      88.877 326.887 197.555  1.00  0.00     0.000 C 
BRANCH   2   3
ATOM      3  C   UNL     1      89.120 326.059 198.823  1.00  0.00     0.000 C 
BRANCH   3   4
ATOM      4  C   UNL     1      89.766 326.911 199.922  1.00  0.00     0.000 C 
BRANCH   4   5
ATOM      5  C   UNL     1      89.952 326.101 201.210  1.00  0.00     0.006 C 
BRANCH   5   6
ATOM      6  C   UNL     1      89.082 326.657 202.340  1.00  0.00     0.053 C 
BRANCH   6   7
ATOM      7  C   UNL     1      89.923 327.389 203.338  1.00  0.00     0.041 C 
ATOM      8  O   UNL     1      89.454 327.682 204.469  1.00  0.00    -0.550 OA
ATOM      9  O   UNL     1      91.242 327.705 203.037  1.00  0.00    -0.550 OA
ENDBRANCH   6   7
ENDBRANCH   5   6
ENDBRANCH   4   5
ENDBRANCH   3   4
ENDBRANCH   2   3
ENDBRANCH   1   2
BRANCH   1  10
ATOM     10  C   UNL     1      86.898 326.498 195.984  1.00  0.00     0.000 C 
BRANCH  10  11
ATOM     11  C   UNL     1      86.672 326.316 194.473  1.00  0.00    -0.000 C 
BRANCH  11  12
ATOM     12  C   UNL     1      87.975 326.422 193.665  1.00  0.00    -0.000 C 
BRANCH  12  13
ATOM     13  C   UNL     1      88.033 325.415 192.503  1.00  0.00    -0.000 C 
BRANCH  13  14
ATOM     14  C   UNL     1      88.486 324.015 192.969  1.00  0.00    -0.000 C 
BRANCH  14  15
ATOM     15  C   UNL     1      88.861 323.073 191.812  1.00  0.00    -0.003 C 
ATOM     16  C   UNL     1      88.594 323.680 190.436  1.00  0.00     0.004 C 
ENDBRANCH  14  15
ENDBRANCH  13  14
ENDBRANCH  12  13
ENDBRANCH  11  12
ENDBRANCH  10  11
ENDBRANCH   1  10
TORSDOF 12
ENDMDL
MODEL 7
REMARK VINA RESULT:    -5.218      4.829      8.013
REMARK INTER + INTRA:         -10.200
REMARK INTER:                  -9.351
REMARK INTRA:                  -0.849
REMARK UNBOUND:                -1.322
REMARK SMILES CCCCCCCCCCCCCC(=O)[O-]
REMARK SMILES IDX 8 1 9 2 10 3 11 4 12 5 13 6 14 7 15 8 16 9 7 10 6 11 5 12
REMARK SMILES IDX 4 13 3 14 2 15 1 16
REMARK H PARENT
REMARK Flexibility Score: inf
ROOT
ATOM      1  C   UNL     1      88.287 326.467 195.116  1.00  0.00     0.000 C 
ENDROOT
BRANCH   1   2
ATOM      2  C   UNL     1      87.691 326.493 196.530  1.00  0.00     0.000 C 
BRANCH   2   3
ATOM      3  C   UNL     1      88.798 326.546 197.591  1.00  0.00     0.000 C 
BRANCH   3   4
ATOM      4  C   UNL     1      89.041 325.162 198.204  1.00  0.00     0.000 C 
BRANCH   4   5
ATOM      5  C   UNL     1      89.231 325.256 199.722  1.00  0.00     0.006 C 
BRANCH   5   6
ATOM      6  C   UNL     1      89.710 326.651 200.131  1.00  0.00     0.053 C 
BRANCH   6   7
ATOM      7  C   UNL     1      90.958 326.559 200.951  1.00  0.00     0.041 C 
ATOM      8  O   UNL     1      91.900 325.806 200.588  1.00  0.00    -0.550 OA
ATOM      9  O   UNL     1      91.100 327.340 202.090  1.00  0.00    -0.550 OA
ENDBRANCH   6   7
ENDBRANCH   5   6
ENDBRANCH   4   5
ENDBRANCH   3   4
ENDBRANCH   2   3
ENDBRANCH   1   2
BRANCH   1  10
ATOM     10  C   UNL     1      87.260 326.847 194.036  1.00  0.00     0.000 C 
BRANCH  10  11
ATOM     11  C   UNL     1      86.068 325.877 193.986  1.00  0.00    -0.000 C 
BRANCH  11  12
ATOM     12  C   UNL     1      86.233 324.794 192.907  1.00  0.00    -0.000 C 
BRANCH  12  13
ATOM     13  C   UNL     1      87.141 323.639 193.362  1.00  0.00    -0.000 C 
BRANCH  13  14
ATOM     14  C   UNL     1      88.460 323.586 192.562  1.00  0.00    -0.000 C 
BRANCH  14  15
ATOM     15  C   UNL     1      88.482 324.532 191.350  1.00  0.00    -0.003 C 
ATOM     16  C   UNL     1      88.766 323.813 190.033  1.00  0.00     0.004 C 
ENDBRANCH  14  15
ENDBRANCH  13  14
ENDBRANCH  12  13
ENDBRANCH  11  12
ENDBRANCH  10  11
ENDBRANCH   1  10
TORSDOF 12
ENDMDL
MODEL 8
REMARK VINA RESULT:    -5.171     19.043     21.184
REMARK INTER + INTRA:         -10.120
REMARK INTER:                  -9.316
REMARK INTRA:                  -0.804
REMARK UNBOUND:                -1.322
REMARK SMILES CCCCCCCCCCCCCC(=O)[O-]
REMARK SMILES IDX 8 1 9 2 10 3 11 4 12 5 13 6 14 7 15 8 16 9 7 10 6 11 5 12
REMARK SMILES IDX 4 13 3 14 2 15 1 16
REMARK H PARENT
REMARK Flexibility Score: inf
ROOT
ATOM      1  C   UNL     1     104.028 311.864 194.522  1.00  0.00     0.000 C 
ENDROOT
BRANCH   1   2
ATOM      2  C   UNL     1     105.011 311.830 195.701  1.00  0.00     0.000 C 
BRANCH   2   3
ATOM      3  C   UNL     1     104.265 311.697 197.034  1.00  0.00     0.000 C 
BRANCH   3   4
ATOM      4  C   UNL     1     103.894 313.074 197.598  1.00  0.00     0.000 C 
BRANCH   4   5
ATOM      5  C   UNL     1     103.583 312.991 199.096  1.00  0.00     0.006 C 
BRANCH   5   6
ATOM      6  C   UNL     1     103.248 311.555 199.510  1.00  0.00     0.053 C 
BRANCH   6   7
ATOM      7  C   UNL     1     103.155 311.447 200.999  1.00  0.00     0.041 C 
ATOM      8  O   UNL     1     102.083 311.068 201.541  1.00  0.00    -0.550 OA
ATOM      9  O   UNL     1     104.267 311.718 201.787  1.00  0.00    -0.550 OA
ENDBRANCH   6   7
ENDBRANCH   5   6
ENDBRANCH   4   5
ENDBRANCH   3   4
ENDBRANCH   2   3
ENDBRANCH   1   2
BRANCH   1  10
ATOM     10  C   UNL     1     104.701 311.528 193.181  1.00  0.00     0.000 C 
BRANCH  10  11
ATOM     11  C   UNL     1     106.046 312.251 192.997  1.00  0.00    -0.000 C 
BRANCH  11  12
ATOM     12  C   UNL     1     105.963 313.399 191.977  1.00  0.00    -0.000 C 
BRANCH  12  13
ATOM     13  C   UNL     1     105.089 314.565 192.470  1.00  0.00    -0.000 C 
BRANCH  13  14
ATOM     14  C   UNL     1     103.813 314.736 191.617  1.00  0.00    -0.000 C 
BRANCH  14  15
ATOM     15  C   UNL     1     103.825 313.909 190.321  1.00  0.00    -0.003 C 
ATOM     16  C   UNL     1     103.779 314.770 189.060  1.00  0.00     0.004 C 
ENDBRANCH  14  15
ENDBRANCH  13  14
ENDBRANCH  12  13
ENDBRANCH  11  12
ENDBRANCH  10  11
ENDBRANCH   1  10
TORSDOF 12
ENDMDL
MODEL 9
REMARK VINA RESULT:    -5.091      2.884      6.739
REMARK INTER + INTRA:          -9.984
REMARK INTER:                  -9.029
REMARK INTRA:                  -0.955
REMARK UNBOUND:                -1.322
REMARK SMILES CCCCCCCCCCCCCC(=O)[O-]
REMARK SMILES IDX 8 1 9 2 10 3 11 4 12 5 13 6 14 7 15 8 16 9 7 10 6 11 5 12
REMARK SMILES IDX 4 13 3 14 2 15 1 16
REMARK H PARENT
REMARK Flexibility Score: inf
ROOT
ATOM      1  C   UNL     1      87.922 325.376 192.865  1.00  0.00     0.000 C 
ENDROOT
BRANCH   1   2
ATOM      2  C   UNL     1      88.122 326.542 193.844  1.00  0.00     0.000 C 
BRANCH   2   3
ATOM      3  C   UNL     1      86.836 326.825 194.630  1.00  0.00     0.000 C 
BRANCH   3   4
ATOM      4  C   UNL     1      87.039 326.576 196.129  1.00  0.00     0.000 C 
BRANCH   4   5
ATOM      5  C   UNL     1      88.529 326.459 196.471  1.00  0.00     0.006 C 
BRANCH   5   6
ATOM      6  C   UNL     1      88.778 325.323 197.467  1.00  0.00     0.053 C 
BRANCH   6   7
ATOM      7  C   UNL     1      89.227 324.088 196.753  1.00  0.00     0.041 C 
ATOM      8  O   UNL     1      90.321 323.543 197.056  1.00  0.00    -0.550 OA
ATOM      9  O   UNL     1      88.415 323.510 195.786  1.00  0.00    -0.550 OA
ENDBRANCH   6   7
ENDBRANCH   5   6
ENDBRANCH   4   5
ENDBRANCH   3   4
ENDBRANCH   2   3
ENDBRANCH   1   2
BRANCH   1  10
ATOM     10  C   UNL     1      86.487 324.825 192.888  1.00  0.00     0.000 C 
BRANCH  10  11
ATOM     11  C   UNL     1      86.227 323.806 191.766  1.00  0.00    -0.000 C 
BRANCH  11  12
ATOM     12  C   UNL     1      87.485 323.513 190.932  1.00  0.00    -0.000 C 
BRANCH  12  13
ATOM     13  C   UNL     1      87.166 322.774 189.621  1.00  0.00    -0.000 C 
BRANCH  13  14
ATOM     14  C   UNL     1      88.409 322.628 188.718  1.00  0.00    -0.000 C 
BRANCH  14  15
ATOM     15  C   UNL     1      89.469 323.718 188.950  1.00  0.00    -0.003 C 
ATOM     16  C   UNL     1      90.853 323.327 188.439  1.00  0.00     0.004 C 
ENDBRANCH  14  15
ENDBRANCH  13  14
ENDBRANCH  12  13
ENDBRANCH  11  12
ENDBRANCH  10  11
ENDBRANCH   1  10
TORSDOF 12
ENDMDL
