MODEL 1
REMARK VINA RESULT:    -4.513      0.000      0.000
REMARK INTER + INTRA:         -15.030
REMARK INTER:                 -10.318
REMARK INTRA:                  -4.712
REMARK UNBOUND:                -4.712
REMARK SMILES CCCCCCCCCCCCCCCCCCCCCCCC(=O)[O-]
REMARK SMILES IDX 13 1 14 2 15 3 16 4 17 5 18 6 19 7 20 8 21 9 22 10 23 11
REMARK SMILES IDX 24 12 25 13 26 14 12 15 11 16 10 17 9 18 8 19 7 20 6 21 5 22
REMARK SMILES IDX 4 23 3 24 2 25 1 26
REMARK H PARENT
REMARK Flexibility Score: inf
ROOT
ATOM      1  C   UNL     1      -3.773   3.957  21.057  1.00  0.00     0.000 C 
ENDROOT
BRANCH   1   2
ATOM      2  C   UNL     1      -4.566   4.193  19.762  1.00  0.00     0.000 C 
BRANCH   2   3
ATOM      3  C   UNL     1      -3.982   5.327  18.906  1.00  0.00     0.000 C 
BRANCH   3   4
ATOM      4  C   UNL     1      -4.677   6.661  19.213  1.00  0.00     0.000 C 
BRANCH   4   5
ATOM      5  C   UNL     1      -3.706   7.746  19.713  1.00  0.00     0.000 C 
BRANCH   5   6
ATOM      6  C   UNL     1      -2.375   7.219  20.279  1.00  0.00     0.000 C 
BRANCH   6   7
ATOM      7  C   UNL     1      -1.954   7.922  21.578  1.00  0.00     0.000 C 
BRANCH   7   8
ATOM      8  C   UNL     1      -1.182   6.962  22.494  1.00  0.00     0.000 C 
BRANCH   8   9
ATOM      9  C   UNL     1      -0.906   5.597  21.840  1.00  0.00     0.000 C 
BRANCH   9  10
ATOM     10  C   UNL     1      -0.484   4.479  22.817  1.00  0.00     0.006 C 
BRANCH  10  11
ATOM     11  C   UNL     1      -0.573   4.864  24.302  1.00  0.00     0.053 C 
BRANCH  11  12
ATOM     12  C   UNL     1       0.659   4.472  25.058  1.00  0.00     0.041 C 
ATOM     13  O   UNL     1       0.571   3.727  26.070  1.00  0.00    -0.550 OA
ATOM     14  O   UNL     1       1.907   4.905  24.628  1.00  0.00    -0.550 OA
ENDBRANCH  11  12
ENDBRANCH  10  11
ENDBRANCH   9  10
ENDBRANCH   8   9
ENDBRANCH   7   8
ENDBRANCH   6   7
ENDBRANCH   5   6
ENDBRANCH   4   5
ENDBRANCH   3   4
ENDBRANCH   2   3
ENDBRANCH   1   2
BRANCH   1  15
ATOM     15  C   UNL     1      -4.637   3.358  22.180  1.00  0.00     0.000 C 
BRANCH  15  16
ATOM     16  C   UNL     1      -3.809   2.972  23.416  1.00  0.00     0.000 C 
BRANCH  16  17
ATOM     17  C   UNL     1      -4.681   2.718  24.659  1.00  0.00     0.000 C 
BRANCH  17  18
ATOM     18  C   UNL     1      -5.990   3.523  24.631  1.00  0.00    -0.000 C 
BRANCH  18  19
ATOM     19  C   UNL     1      -6.004   4.657  25.670  1.00  0.00    -0.000 C 
BRANCH  19  20
ATOM     20  C   UNL     1      -4.633   5.340  25.829  1.00  0.00    -0.000 C 
BRANCH  20  21
ATOM     21  C   UNL     1      -4.507   6.712  25.144  1.00  0.00    -0.000 C 
BRANCH  21  22
ATOM     22  C   UNL     1      -4.674   6.641  23.618  1.00  0.00    -0.000 C 
BRANCH  22  23
ATOM     23  C   UNL     1      -5.375   7.899  23.083  1.00  0.00    -0.000 C 
BRANCH  23  24
ATOM     24  C   UNL     1      -6.584   7.568  22.192  1.00  0.00    -0.000 C 
BRANCH  24  25
ATOM     25  C   UNL     1      -7.054   6.115  22.350  1.00  0.00    -0.003 C 
ATOM     26  C   UNL     1      -7.730   5.615  21.075  1.00  0.00     0.004 C 
ENDBRANCH  24  25
ENDBRANCH  23  24
ENDBRANCH  22  23
ENDBRANCH  21  22
ENDBRANCH  20  21
ENDBRANCH  19  20
ENDBRANCH  18  19
ENDBRANCH  17  18
ENDBRANCH  16  17
ENDBRANCH  15  16
ENDBRANCH   1  15
TORSDOF 22
ENDMDL
MODEL 2
REMARK VINA RESULT:    -4.490      5.908      9.103
REMARK INTER + INTRA:         -14.975
REMARK INTER:                 -10.873
REMARK INTRA:                  -4.102
REMARK UNBOUND:                -4.712
REMARK SMILES CCCCCCCCCCCCCCCCCCCCCCCC(=O)[O-]
REMARK SMILES IDX 13 1 14 2 15 3 16 4 17 5 18 6 19 7 20 8 21 9 22 10 23 11
REMARK SMILES IDX 24 12 25 13 26 14 12 15 11 16 10 17 9 18 8 19 7 20 6 21 5 22
REMARK SMILES IDX 4 23 3 24 2 25 1 26
REMARK H PARENT
REMARK Flexibility Score: inf
ROOT
ATOM      1  C   UNL     1       2.888   4.641  29.469  1.00  0.00     0.000 C 
ENDROOT
BRANCH   1   2
ATOM      2  C   UNL     1       3.141   3.660  28.313  1.00  0.00     0.000 C 
BRANCH   2   3
ATOM      3  C   UNL     1       2.539   4.140  26.984  1.00  0.00     0.000 C 
BRANCH   3   4
ATOM      4  C   UNL     1       3.633   4.676  26.047  1.00  0.00     0.000 C 
BRANCH   4   5
ATOM      5  C   UNL     1       3.986   6.150  26.314  1.00  0.00     0.000 C 
BRANCH   5   6
ATOM      6  C   UNL     1       2.807   7.031  26.767  1.00  0.00     0.000 C 
BRANCH   6   7
ATOM      7  C   UNL     1       3.176   7.982  27.915  1.00  0.00     0.000 C 
BRANCH   7   8
ATOM      8  C   UNL     1       4.588   7.687  28.440  1.00  0.00     0.000 C 
BRANCH   8   9
ATOM      9  C   UNL     1       4.997   8.597  29.612  1.00  0.00     0.000 C 
BRANCH   9  10
ATOM     10  C   UNL     1       5.837   7.909  30.709  1.00  0.00     0.006 C 
BRANCH  10  11
ATOM     11  C   UNL     1       5.899   6.378  30.597  1.00  0.00     0.053 C 
BRANCH  11  12
ATOM     12  C   UNL     1       7.205   5.832  31.088  1.00  0.00     0.041 C 
ATOM     13  O   UNL     1       7.665   4.763  30.608  1.00  0.00    -0.550 OA
ATOM     14  O   UNL     1       7.927   6.520  32.056  1.00  0.00    -0.550 OA
ENDBRANCH  11  12
ENDBRANCH  10  11
ENDBRANCH   9  10
ENDBRANCH   8   9
ENDBRANCH   7   8
ENDBRANCH   6   7
ENDBRANCH   5   6
ENDBRANCH   4   5
ENDBRANCH   3   4
ENDBRANCH   2   3
ENDBRANCH   1   2
BRANCH   1  15
ATOM     15  C   UNL     1       1.973   4.051  30.557  1.00  0.00     0.000 C 
BRANCH  15  16
ATOM     16  C   UNL     1       1.536   5.102  31.590  1.00  0.00     0.000 C 
BRANCH  16  17
ATOM     17  C   UNL     1       2.350   6.405  31.492  1.00  0.00     0.000 C 
BRANCH  17  18
ATOM     18  C   UNL     1       1.460   7.657  31.541  1.00  0.00    -0.000 C 
BRANCH  18  19
ATOM     19  C   UNL     1       0.044   7.392  31.003  1.00  0.00    -0.000 C 
BRANCH  19  20
ATOM     20  C   UNL     1      -0.205   8.039  29.627  1.00  0.00    -0.000 C 
BRANCH  20  21
ATOM     21  C   UNL     1      -1.114   7.231  28.684  1.00  0.00    -0.000 C 
BRANCH  21  22
ATOM     22  C   UNL     1      -0.401   6.029  28.044  1.00  0.00    -0.000 C 
BRANCH  22  23
ATOM     23  C   UNL     1      -1.052   4.709  28.482  1.00  0.00    -0.000 C 
BRANCH  23  24
ATOM     24  C   UNL     1      -2.558   4.662  28.178  1.00  0.00    -0.000 C 
BRANCH  24  25
ATOM     25  C   UNL     1      -2.855   4.611  26.672  1.00  0.00    -0.003 C 
ATOM     26  C   UNL     1      -4.343   4.816  26.398  1.00  0.00     0.004 C 
ENDBRANCH  24  25
ENDBRANCH  23  24
ENDBRANCH  22  23
ENDBRANCH  21  22
ENDBRANCH  20  21
ENDBRANCH  19  20
ENDBRANCH  18  19
ENDBRANCH  17  18
ENDBRANCH  16  17
ENDBRANCH  15  16
ENDBRANCH   1  15
TORSDOF 22
ENDMDL
MODEL 3
REMARK VINA RESULT:    -4.463      4.189      8.323
REMARK INTER + INTRA:         -14.914
REMARK INTER:                 -11.118
REMARK INTRA:                  -3.796
REMARK UNBOUND:                -4.712
REMARK SMILES CCCCCCCCCCCCCCCCCCCCCCCC(=O)[O-]
REMARK SMILES IDX 13 1 14 2 15 3 16 4 17 5 18 6 19 7 20 8 21 9 22 10 23 11
REMARK SMILES IDX 24 12 25 13 26 14 12 15 11 16 10 17 9 18 8 19 7 20 6 21 5 22
REMARK SMILES IDX 4 23 3 24 2 25 1 26
REMARK H PARENT
REMARK Flexibility Score: inf
ROOT
ATOM      1  C   UNL     1      -1.090   5.966  29.313  1.00  0.00     0.000 C 
ENDROOT
BRANCH   1   2
ATOM      2  C   UNL     1      -1.269   7.010  28.199  1.00  0.00     0.000 C 
BRANCH   2   3
ATOM      3  C   UNL     1      -1.906   6.422  26.930  1.00  0.00     0.000 C 
BRANCH   3   4
ATOM      4  C   UNL     1      -2.045   4.896  27.043  1.00  0.00     0.000 C 
BRANCH   4   5
ATOM      5  C   UNL     1      -1.719   4.163  25.729  1.00  0.00     0.000 C 
BRANCH   5   6
ATOM      6  C   UNL     1      -0.218   4.019  25.418  1.00  0.00     0.000 C 
BRANCH   6   7
ATOM      7  C   UNL     1       0.251   4.939  24.282  1.00  0.00     0.000 C 
BRANCH   7   8
ATOM      8  C   UNL     1      -0.300   4.464  22.930  1.00  0.00     0.000 C 
BRANCH   8   9
ATOM      9  C   UNL     1      -0.897   5.606  22.089  1.00  0.00     0.000 C 
BRANCH   9  10
ATOM     10  C   UNL     1      -2.285   5.311  21.482  1.00  0.00     0.006 C 
BRANCH  10  11
ATOM     11  C   UNL     1      -3.348   4.875  22.503  1.00  0.00     0.053 C 
BRANCH  11  12
ATOM     12  C   UNL     1      -4.016   3.595  22.104  1.00  0.00     0.041 C 
ATOM     13  O   UNL     1      -4.486   2.826  22.984  1.00  0.00    -0.550 OA
ATOM     14  O   UNL     1      -4.144   3.265  20.761  1.00  0.00    -0.550 OA
ENDBRANCH  11  12
ENDBRANCH  10  11
ENDBRANCH   9  10
ENDBRANCH   8   9
ENDBRANCH   7   8
ENDBRANCH   6   7
ENDBRANCH   5   6
ENDBRANCH   4   5
ENDBRANCH   3   4
ENDBRANCH   2   3
ENDBRANCH   1   2
BRANCH   1  15
ATOM     15  C   UNL     1       0.369   5.847  29.786  1.00  0.00     0.000 C 
BRANCH  15  16
ATOM     16  C   UNL     1       0.984   4.479  29.454  1.00  0.00     0.000 C 
BRANCH  16  17
ATOM     17  C   UNL     1       2.089   4.069  30.444  1.00  0.00     0.000 C 
BRANCH  17  18
ATOM     18  C   UNL     1       2.886   5.276  30.965  1.00  0.00    -0.000 C 
BRANCH  18  19
ATOM     19  C   UNL     1       4.126   5.577  30.105  1.00  0.00    -0.000 C 
BRANCH  19  20
ATOM     20  C   UNL     1       4.301   7.078  29.812  1.00  0.00    -0.000 C 
BRANCH  20  21
ATOM     21  C   UNL     1       4.322   7.451  28.319  1.00  0.00    -0.000 C 
BRANCH  21  22
ATOM     22  C   UNL     1       2.917   7.643  27.726  1.00  0.00    -0.000 C 
BRANCH  22  23
ATOM     23  C   UNL     1       2.549   6.477  26.797  1.00  0.00    -0.000 C 
BRANCH  23  24
ATOM     24  C   UNL     1       3.604   6.236  25.705  1.00  0.00    -0.000 C 
BRANCH  24  25
ATOM     25  C   UNL     1       3.952   4.749  25.539  1.00  0.00    -0.003 C 
ATOM     26  C   UNL     1       3.469   3.935  26.738  1.00  0.00     0.004 C 
ENDBRANCH  24  25
ENDBRANCH  23  24
ENDBRANCH  22  23
ENDBRANCH  21  22
ENDBRANCH  20  21
ENDBRANCH  19  20
ENDBRANCH  18  19
ENDBRANCH  17  18
ENDBRANCH  16  17
ENDBRANCH  15  16
ENDBRANCH   1  15
TORSDOF 22
ENDMDL
MODEL 4
REMARK VINA RESULT:    -4.428      5.346     10.274
REMARK INTER + INTRA:         -14.834
REMARK INTER:                 -10.342
REMARK INTRA:                  -4.492
REMARK UNBOUND:                -4.712
REMARK SMILES CCCCCCCCCCCCCCCCCCCCCCCC(=O)[O-]
REMARK SMILES IDX 13 1 14 2 15 3 16 4 17 5 18 6 19 7 20 8 21 9 22 10 23 11
REMARK SMILES IDX 24 12 25 13 26 14 12 15 11 16 10 17 9 18 8 19 7 20 6 21 5 22
REMARK SMILES IDX 4 23 3 24 2 25 1 26
REMARK H PARENT
REMARK Flexibility Score: inf
ROOT
ATOM      1  C   UNL     1       4.453   8.409  30.704  1.00  0.00     0.000 C 
ENDROOT
BRANCH   1   2
ATOM      2  C   UNL     1       3.183   9.129  31.184  1.00  0.00     0.000 C 
BRANCH   2   3
ATOM      3  C   UNL     1       2.202   8.189  31.901  1.00  0.00     0.000 C 
BRANCH   3   4
ATOM      4  C   UNL     1       0.754   8.481  31.481  1.00  0.00     0.000 C 
BRANCH   4   5
ATOM      5  C   UNL     1       0.168   7.405  30.550  1.00  0.00     0.000 C 
BRANCH   5   6
ATOM      6  C   UNL     1      -0.391   7.933  29.215  1.00  0.00     0.000 C 
BRANCH   6   7
ATOM      7  C   UNL     1      -0.899   6.815  28.293  1.00  0.00     0.000 C 
BRANCH   7   8
ATOM      8  C   UNL     1      -1.491   5.658  29.110  1.00  0.00     0.000 C 
BRANCH   8   9
ATOM      9  C   UNL     1      -1.983   4.492  28.233  1.00  0.00     0.000 C 
BRANCH   9  10
ATOM     10  C   UNL     1      -2.875   4.904  27.043  1.00  0.00     0.006 C 
BRANCH  10  11
ATOM     11  C   UNL     1      -2.592   4.139  25.741  1.00  0.00     0.053 C 
BRANCH  11  12
ATOM     12  C   UNL     1      -3.851   3.651  25.093  1.00  0.00     0.041 C 
ATOM     13  O   UNL     1      -3.826   2.640  24.342  1.00  0.00    -0.550 OA
ATOM     14  O   UNL     1      -5.057   4.295  25.340  1.00  0.00    -0.550 OA
ENDBRANCH  11  12
ENDBRANCH  10  11
ENDBRANCH   9  10
ENDBRANCH   8   9
ENDBRANCH   7   8
ENDBRANCH   6   7
ENDBRANCH   5   6
ENDBRANCH   4   5
ENDBRANCH   3   4
ENDBRANCH   2   3
ENDBRANCH   1   2
BRANCH   1  15
ATOM     15  C   UNL     1       4.572   8.375  29.171  1.00  0.00     0.000 C 
BRANCH  15  16
ATOM     16  C   UNL     1       3.238   8.683  28.472  1.00  0.00     0.000 C 
BRANCH  16  17
ATOM     17  C   UNL     1       2.834   7.596  27.460  1.00  0.00     0.000 C 
BRANCH  17  18
ATOM     18  C   UNL     1       4.034   6.758  26.989  1.00  0.00    -0.000 C 
BRANCH  18  19
ATOM     19  C   UNL     1       3.603   5.493  26.226  1.00  0.00    -0.000 C 
BRANCH  19  20
ATOM     20  C   UNL     1       2.073   5.339  26.137  1.00  0.00    -0.000 C 
BRANCH  20  21
ATOM     21  C   UNL     1       1.480   4.221  27.012  1.00  0.00    -0.000 C 
BRANCH  21  22
ATOM     22  C   UNL     1       2.455   3.718  28.088  1.00  0.00    -0.000 C 
BRANCH  22  23
ATOM     23  C   UNL     1       2.019   4.184  29.485  1.00  0.00    -0.000 C 
BRANCH  23  24
ATOM     24  C   UNL     1       3.131   4.943  30.229  1.00  0.00    -0.000 C 
BRANCH  24  25
ATOM     25  C   UNL     1       4.537   4.538  29.761  1.00  0.00    -0.003 C 
ATOM     26  C   UNL     1       5.605   5.055  30.722  1.00  0.00     0.004 C 
ENDBRANCH  24  25
ENDBRANCH  23  24
ENDBRANCH  22  23
ENDBRANCH  21  22
ENDBRANCH  20  21
ENDBRANCH  19  20
ENDBRANCH  18  19
ENDBRANCH  17  18
ENDBRANCH  16  17
ENDBRANCH  15  16
ENDBRANCH   1  15
TORSDOF 22
ENDMDL
MODEL 5
REMARK VINA RESULT:    -4.389      4.313      7.607
REMARK INTER + INTRA:         -14.744
REMARK INTER:                 -10.249
REMARK INTRA:                  -4.495
REMARK UNBOUND:                -4.712
REMARK SMILES CCCCCCCCCCCCCCCCCCCCCCCC(=O)[O-]
REMARK SMILES IDX 13 1 14 2 15 3 16 4 17 5 18 6 19 7 20 8 21 9 22 10 23 11
REMARK SMILES IDX 24 12 25 13 26 14 12 15 11 16 10 17 9 18 8 19 7 20 6 21 5 22
REMARK SMILES IDX 4 23 3 24 2 25 1 26
REMARK H PARENT
REMARK Flexibility Score: inf
ROOT
ATOM      1  C   UNL     1      -3.071   5.167  26.502  1.00  0.00     0.000 C 
ENDROOT
BRANCH   1   2
ATOM      2  C   UNL     1      -2.833   6.679  26.359  1.00  0.00     0.000 C 
BRANCH   2   3
ATOM      3  C   UNL     1      -2.926   7.160  24.903  1.00  0.00     0.000 C 
BRANCH   3   4
ATOM      4  C   UNL     1      -1.593   7.768  24.440  1.00  0.00     0.000 C 
BRANCH   4   5
ATOM      5  C   UNL     1      -0.484   7.670  25.503  1.00  0.00     0.000 C 
BRANCH   5   6
ATOM      6  C   UNL     1       0.816   6.996  25.027  1.00  0.00     0.000 C 
BRANCH   6   7
ATOM      7  C   UNL     1       1.042   5.615  25.659  1.00  0.00     0.000 C 
BRANCH   7   8
ATOM      8  C   UNL     1       0.314   4.523  24.863  1.00  0.00     0.000 C 
BRANCH   8   9
ATOM      9  C   UNL     1       0.592   4.594  23.351  1.00  0.00     0.000 C 
BRANCH   9  10
ATOM     10  C   UNL     1      -0.659   4.784  22.467  1.00  0.00     0.006 C 
BRANCH  10  11
ATOM     11  C   UNL     1      -1.948   4.183  23.049  1.00  0.00     0.053 C 
BRANCH  11  12
ATOM     12  C   UNL     1      -3.130   4.425  22.161  1.00  0.00     0.041 C 
ATOM     13  O   UNL     1      -3.378   5.585  21.739  1.00  0.00    -0.550 OA
ATOM     14  O   UNL     1      -3.941   3.364  21.777  1.00  0.00    -0.550 OA
ENDBRANCH  11  12
ENDBRANCH  10  11
ENDBRANCH   9  10
ENDBRANCH   8   9
ENDBRANCH   7   8
ENDBRANCH   6   7
ENDBRANCH   5   6
ENDBRANCH   4   5
ENDBRANCH   3   4
ENDBRANCH   2   3
ENDBRANCH   1   2
BRANCH   1  15
ATOM     15  C   UNL     1      -2.735   4.644  27.909  1.00  0.00     0.000 C 
BRANCH  15  16
ATOM     16  C   UNL     1      -1.256   4.848  28.274  1.00  0.00     0.000 C 
BRANCH  16  17
ATOM     17  C   UNL     1      -1.057   5.902  29.378  1.00  0.00     0.000 C 
BRANCH  17  18
ATOM     18  C   UNL     1      -0.001   6.954  29.001  1.00  0.00    -0.000 C 
BRANCH  18  19
ATOM     19  C   UNL     1      -0.142   8.247  29.822  1.00  0.00    -0.000 C 
BRANCH  19  20
ATOM     20  C   UNL     1       0.416   8.113  31.251  1.00  0.00    -0.000 C 
BRANCH  20  21
ATOM     21  C   UNL     1       1.778   7.404  31.353  1.00  0.00    -0.000 C 
BRANCH  21  22
ATOM     22  C   UNL     1       1.684   6.006  31.984  1.00  0.00    -0.000 C 
BRANCH  22  23
ATOM     23  C   UNL     1       2.624   5.020  31.276  1.00  0.00    -0.000 C 
BRANCH  23  24
ATOM     24  C   UNL     1       1.866   3.993  30.417  1.00  0.00    -0.000 C 
BRANCH  24  25
ATOM     25  C   UNL     1       2.344   3.976  28.958  1.00  0.00    -0.003 C 
ATOM     26  C   UNL     1       3.207   5.197  28.649  1.00  0.00     0.004 C 
ENDBRANCH  24  25
ENDBRANCH  23  24
ENDBRANCH  22  23
ENDBRANCH  21  22
ENDBRANCH  20  21
ENDBRANCH  19  20
ENDBRANCH  18  19
ENDBRANCH  17  18
ENDBRANCH  16  17
ENDBRANCH  15  16
ENDBRANCH   1  15
TORSDOF 22
ENDMDL
MODEL 6
REMARK VINA RESULT:    -4.387      2.002      4.217
REMARK INTER + INTRA:         -14.740
REMARK INTER:                 -10.893
REMARK INTRA:                  -3.847
REMARK UNBOUND:                -4.712
REMARK SMILES CCCCCCCCCCCCCCCCCCCCCCCC(=O)[O-]
REMARK SMILES IDX 13 1 14 2 15 3 16 4 17 5 18 6 19 7 20 8 21 9 22 10 23 11
REMARK SMILES IDX 24 12 25 13 26 14 12 15 11 16 10 17 9 18 8 19 7 20 6 21 5 22
REMARK SMILES IDX 4 23 3 24 2 25 1 26
REMARK H PARENT
REMARK Flexibility Score: inf
ROOT
ATOM      1  C   UNL     1      -3.169   7.371  24.058  1.00  0.00     0.000 C 
ENDROOT
BRANCH   1   2
ATOM      2  C   UNL     1      -3.056   6.378  22.891  1.00  0.00     0.000 C 
BRANCH   2   3
ATOM      3  C   UNL     1      -1.792   6.597  22.045  1.00  0.00     0.000 C 
BRANCH   3   4
ATOM      4  C   UNL     1      -0.997   5.291  21.898  1.00  0.00     0.000 C 
BRANCH   4   5
ATOM      5  C   UNL     1      -0.829   4.534  23.228  1.00  0.00     0.000 C 
BRANCH   5   6
ATOM      6  C   UNL     1       0.484   4.822  23.980  1.00  0.00     0.000 C 
BRANCH   6   7
ATOM      7  C   UNL     1       0.286   5.718  25.212  1.00  0.00     0.000 C 
BRANCH   7   8
ATOM      8  C   UNL     1       1.296   6.874  25.215  1.00  0.00     0.000 C 
BRANCH   8   9
ATOM      9  C   UNL     1       2.440   6.671  26.224  1.00  0.00     0.000 C 
BRANCH   9  10
ATOM     10  C   UNL     1       3.763   6.159  25.614  1.00  0.00     0.006 C 
BRANCH  10  11
ATOM     11  C   UNL     1       3.878   4.629  25.536  1.00  0.00     0.053 C 
BRANCH  11  12
ATOM     12  C   UNL     1       3.465   3.970  26.816  1.00  0.00     0.041 C 
ATOM     13  O   UNL     1       2.419   3.269  26.858  1.00  0.00    -0.550 OA
ATOM     14  O   UNL     1       4.249   4.106  27.955  1.00  0.00    -0.550 OA
ENDBRANCH  11  12
ENDBRANCH  10  11
ENDBRANCH   9  10
ENDBRANCH   8   9
ENDBRANCH   7   8
ENDBRANCH   6   7
ENDBRANCH   5   6
ENDBRANCH   4   5
ENDBRANCH   3   4
ENDBRANCH   2   3
ENDBRANCH   1   2
BRANCH   1  15
ATOM     15  C   UNL     1      -4.002   6.819  25.227  1.00  0.00     0.000 C 
BRANCH  15  16
ATOM     16  C   UNL     1      -3.131   6.172  26.315  1.00  0.00     0.000 C 
BRANCH  16  17
ATOM     17  C   UNL     1      -3.194   4.635  26.290  1.00  0.00     0.000 C 
BRANCH  17  18
ATOM     18  C   UNL     1      -4.318   4.109  25.383  1.00  0.00    -0.000 C 
BRANCH  18  19
ATOM     19  C   UNL     1      -3.855   2.943  24.491  1.00  0.00    -0.000 C 
BRANCH  19  20
ATOM     20  C   UNL     1      -4.751   2.745  23.254  1.00  0.00    -0.000 C 
BRANCH  20  21
ATOM     21  C   UNL     1      -6.249   3.009  23.487  1.00  0.00    -0.000 C 
BRANCH  21  22
ATOM     22  C   UNL     1      -6.801   4.151  22.620  1.00  0.00    -0.000 C 
BRANCH  22  23
ATOM     23  C   UNL     1      -6.541   3.884  21.130  1.00  0.00    -0.000 C 
BRANCH  23  24
ATOM     24  C   UNL     1      -5.627   4.944  20.491  1.00  0.00    -0.000 C 
BRANCH  24  25
ATOM     25  C   UNL     1      -4.323   4.347  19.943  1.00  0.00    -0.003 C 
ATOM     26  C   UNL     1      -3.634   5.317  18.986  1.00  0.00     0.004 C 
ENDBRANCH  24  25
ENDBRANCH  23  24
ENDBRANCH  22  23
ENDBRANCH  21  22
ENDBRANCH  20  21
ENDBRANCH  19  20
ENDBRANCH  18  19
ENDBRANCH  17  18
ENDBRANCH  16  17
ENDBRANCH  15  16
ENDBRANCH   1  15
TORSDOF 22
ENDMDL
MODEL 7
REMARK VINA RESULT:    -4.380      4.725      9.080
REMARK INTER + INTRA:         -14.725
REMARK INTER:                 -10.187
REMARK INTRA:                  -4.538
REMARK UNBOUND:                -4.712
REMARK SMILES CCCCCCCCCCCCCCCCCCCCCCCC(=O)[O-]
REMARK SMILES IDX 13 1 14 2 15 3 16 4 17 5 18 6 19 7 20 8 21 9 22 10 23 11
REMARK SMILES IDX 24 12 25 13 26 14 12 15 11 16 10 17 9 18 8 19 7 20 6 21 5 22
REMARK SMILES IDX 4 23 3 24 2 25 1 26
REMARK H PARENT
REMARK Flexibility Score: inf
ROOT
ATOM      1  C   UNL     1      -1.512   5.514  27.745  1.00  0.00     0.000 C 
ENDROOT
BRANCH   1   2
ATOM      2  C   UNL     1      -0.832   4.141  27.621  1.00  0.00     0.000 C 
BRANCH   2   3
ATOM      3  C   UNL     1       0.641   4.167  28.056  1.00  0.00     0.000 C 
BRANCH   3   4
ATOM      4  C   UNL     1       1.509   3.331  27.103  1.00  0.00     0.000 C 
BRANCH   4   5
ATOM      5  C   UNL     1       3.019   3.518  27.341  1.00  0.00     0.000 C 
BRANCH   5   6
ATOM      6  C   UNL     1       3.663   4.678  26.560  1.00  0.00     0.000 C 
BRANCH   6   7
ATOM      7  C   UNL     1       2.947   4.980  25.235  1.00  0.00     0.000 C 
BRANCH   7   8
ATOM      8  C   UNL     1       2.130   6.275  25.336  1.00  0.00     0.000 C 
BRANCH   8   9
ATOM      9  C   UNL     1       0.720   6.146  24.734  1.00  0.00     0.000 C 
BRANCH   9  10
ATOM     10  C   UNL     1       0.463   4.841  23.952  1.00  0.00     0.006 C 
BRANCH  10  11
ATOM     11  C   UNL     1      -1.006   4.391  23.929  1.00  0.00     0.053 C 
BRANCH  11  12
ATOM     12  C   UNL     1      -1.624   4.559  22.575  1.00  0.00     0.041 C 
ATOM     13  O   UNL     1      -2.679   3.938  22.278  1.00  0.00    -0.550 OA
ATOM     14  O   UNL     1      -1.051   5.425  21.651  1.00  0.00    -0.550 OA
ENDBRANCH  11  12
ENDBRANCH  10  11
ENDBRANCH   9  10
ENDBRANCH   8   9
ENDBRANCH   7   8
ENDBRANCH   6   7
ENDBRANCH   5   6
ENDBRANCH   4   5
ENDBRANCH   3   4
ENDBRANCH   2   3
ENDBRANCH   1   2
BRANCH   1  15
ATOM     15  C   UNL     1      -0.958   6.346  28.914  1.00  0.00     0.000 C 
BRANCH  15  16
ATOM     16  C   UNL     1      -0.636   7.792  28.504  1.00  0.00     0.000 C 
BRANCH  16  17
ATOM     17  C   UNL     1       0.638   8.331  29.180  1.00  0.00     0.000 C 
BRANCH  17  18
ATOM     18  C   UNL     1       1.921   7.825  28.501  1.00  0.00    -0.000 C 
BRANCH  18  19
ATOM     19  C   UNL     1       3.194   8.307  29.218  1.00  0.00    -0.000 C 
BRANCH  19  20
ATOM     20  C   UNL     1       4.434   7.464  28.867  1.00  0.00    -0.000 C 
BRANCH  20  21
ATOM     21  C   UNL     1       5.067   6.714  30.053  1.00  0.00    -0.000 C 
BRANCH  21  22
ATOM     22  C   UNL     1       4.796   5.202  30.023  1.00  0.00    -0.000 C 
BRANCH  22  23
ATOM     23  C   UNL     1       3.833   4.794  31.148  1.00  0.00    -0.000 C 
BRANCH  23  24
ATOM     24  C   UNL     1       2.357   4.922  30.738  1.00  0.00    -0.000 C 
BRANCH  24  25
ATOM     25  C   UNL     1       1.457   5.364  31.902  1.00  0.00    -0.003 C 
ATOM     26  C   UNL     1       1.764   6.800  32.318  1.00  0.00     0.004 C 
ENDBRANCH  24  25
ENDBRANCH  23  24
ENDBRANCH  22  23
ENDBRANCH  21  22
ENDBRANCH  20  21
ENDBRANCH  19  20
ENDBRANCH  18  19
ENDBRANCH  17  18
ENDBRANCH  16  17
ENDBRANCH  15  16
ENDBRANCH   1  15
TORSDOF 22
ENDMDL
MODEL 8
REMARK VINA RESULT:    -4.367      4.326      8.580
REMARK INTER + INTRA:         -14.695
REMARK INTER:                  -9.862
REMARK INTRA:                  -4.833
REMARK UNBOUND:                -4.712
REMARK SMILES CCCCCCCCCCCCCCCCCCCCCCCC(=O)[O-]
REMARK SMILES IDX 13 1 14 2 15 3 16 4 17 5 18 6 19 7 20 8 21 9 22 10 23 11
REMARK SMILES IDX 24 12 25 13 26 14 12 15 11 16 10 17 9 18 8 19 7 20 6 21 5 22
REMARK SMILES IDX 4 23 3 24 2 25 1 26
REMARK H PARENT
REMARK Flexibility Score: inf
ROOT
ATOM      1  C   UNL     1       1.234   6.973  27.904  1.00  0.00     0.000 C 
ENDROOT
BRANCH   1   2
ATOM      2  C   UNL     1       0.023   7.774  28.408  1.00  0.00     0.000 C 
BRANCH   2   3
ATOM      3  C   UNL     1      -1.020   6.894  29.113  1.00  0.00     0.000 C 
BRANCH   3   4
ATOM      4  C   UNL     1      -0.801   5.410  28.780  1.00  0.00     0.000 C 
BRANCH   4   5
ATOM      5  C   UNL     1      -1.982   4.784  28.017  1.00  0.00     0.000 C 
BRANCH   5   6
ATOM      6  C   UNL     1      -2.775   5.760  27.128  1.00  0.00     0.000 C 
BRANCH   6   7
ATOM      7  C   UNL     1      -2.573   5.504  25.627  1.00  0.00     0.000 C 
BRANCH   7   8
ATOM      8  C   UNL     1      -2.538   3.999  25.327  1.00  0.00     0.000 C 
BRANCH   8   9
ATOM      9  C   UNL     1      -2.154   3.684  23.871  1.00  0.00     0.000 C 
BRANCH   9  10
ATOM     10  C   UNL     1      -1.460   4.838  23.116  1.00  0.00     0.006 C 
BRANCH  10  11
ATOM     11  C   UNL     1      -2.112   5.203  21.773  1.00  0.00     0.053 C 
BRANCH  11  12
ATOM     12  C   UNL     1      -3.512   5.706  21.948  1.00  0.00     0.041 C 
ATOM     13  O   UNL     1      -4.489   5.001  21.583  1.00  0.00    -0.550 OA
ATOM     14  O   UNL     1      -3.738   6.943  22.540  1.00  0.00    -0.550 OA
ENDBRANCH  11  12
ENDBRANCH  10  11
ENDBRANCH   9  10
ENDBRANCH   8   9
ENDBRANCH   7   8
ENDBRANCH   6   7
ENDBRANCH   5   6
ENDBRANCH   4   5
ENDBRANCH   3   4
ENDBRANCH   2   3
ENDBRANCH   1   2
BRANCH   1  15
ATOM     15  C   UNL     1       1.567   7.265  26.431  1.00  0.00     0.000 C 
BRANCH  15  16
ATOM     16  C   UNL     1       0.952   6.231  25.474  1.00  0.00     0.000 C 
BRANCH  16  17
ATOM     17  C   UNL     1       1.769   4.928  25.403  1.00  0.00     0.000 C 
BRANCH  17  18
ATOM     18  C   UNL     1       1.022   3.733  26.016  1.00  0.00    -0.000 C 
BRANCH  18  19
ATOM     19  C   UNL     1       1.707   3.201  27.286  1.00  0.00    -0.000 C 
BRANCH  19  20
ATOM     20  C   UNL     1       3.150   3.716  27.448  1.00  0.00    -0.000 C 
BRANCH  20  21
ATOM     21  C   UNL     1       3.507   4.216  28.859  1.00  0.00    -0.000 C 
BRANCH  21  22
ATOM     22  C   UNL     1       2.340   4.103  29.851  1.00  0.00    -0.000 C 
BRANCH  22  23
ATOM     23  C   UNL     1       2.646   4.866  31.148  1.00  0.00    -0.000 C 
BRANCH  23  24
ATOM     24  C   UNL     1       1.373   5.287  31.901  1.00  0.00    -0.000 C 
BRANCH  24  25
ATOM     25  C   UNL     1       1.253   6.811  32.052  1.00  0.00    -0.003 C 
ATOM     26  C   UNL     1       2.421   7.523  31.374  1.00  0.00     0.004 C 
ENDBRANCH  24  25
ENDBRANCH  23  24
ENDBRANCH  22  23
ENDBRANCH  21  22
ENDBRANCH  20  21
ENDBRANCH  19  20
ENDBRANCH  18  19
ENDBRANCH  17  18
ENDBRANCH  16  17
ENDBRANCH  15  16
ENDBRANCH   1  15
TORSDOF 22
ENDMDL
MODEL 9
REMARK VINA RESULT:    -4.359      5.147      9.620
REMARK INTER + INTRA:         -14.676
REMARK INTER:                  -9.991
REMARK INTRA:                  -4.685
REMARK UNBOUND:                -4.712
REMARK SMILES CCCCCCCCCCCCCCCCCCCCCCCC(=O)[O-]
REMARK SMILES IDX 13 1 14 2 15 3 16 4 17 5 18 6 19 7 20 8 21 9 22 10 23 11
REMARK SMILES IDX 24 12 25 13 26 14 12 15 11 16 10 17 9 18 8 19 7 20 6 21 5 22
REMARK SMILES IDX 4 23 3 24 2 25 1 26
REMARK H PARENT
REMARK Flexibility Score: inf
ROOT
ATOM      1  C   UNL     1       2.215   4.563  29.268  1.00  0.00     0.000 C 
ENDROOT
BRANCH   1   2
ATOM      2  C   UNL     1       2.184   3.363  28.309  1.00  0.00     0.000 C 
BRANCH   2   3
ATOM      3  C   UNL     1       3.391   3.330  27.359  1.00  0.00     0.000 C 
BRANCH   3   4
ATOM      4  C   UNL     1       3.861   4.752  27.019  1.00  0.00     0.000 C 
BRANCH   4   5
ATOM      5  C   UNL     1       3.809   5.060  25.511  1.00  0.00     0.000 C 
BRANCH   5   6
ATOM      6  C   UNL     1       2.409   5.393  24.962  1.00  0.00     0.000 C 
BRANCH   6   7
ATOM      7  C   UNL     1       1.885   6.755  25.442  1.00  0.00     0.000 C 
BRANCH   7   8
ATOM      8  C   UNL     1       0.363   6.716  25.641  1.00  0.00     0.000 C 
BRANCH   8   9
ATOM      9  C   UNL     1      -0.046   6.408  27.093  1.00  0.00     0.000 C 
BRANCH   9  10
ATOM     10  C   UNL     1      -0.863   5.112  27.278  1.00  0.00     0.006 C 
BRANCH  10  11
ATOM     11  C   UNL     1      -1.352   4.475  25.969  1.00  0.00     0.053 C 
BRANCH  11  12
ATOM     12  C   UNL     1      -2.763   4.862  25.649  1.00  0.00     0.041 C 
ATOM     13  O   UNL     1      -3.719   4.122  26.003  1.00  0.00    -0.550 OA
ATOM     14  O   UNL     1      -3.025   6.055  24.985  1.00  0.00    -0.550 OA
ENDBRANCH  11  12
ENDBRANCH  10  11
ENDBRANCH   9  10
ENDBRANCH   8   9
ENDBRANCH   7   8
ENDBRANCH   6   7
ENDBRANCH   5   6
ENDBRANCH   4   5
ENDBRANCH   3   4
ENDBRANCH   2   3
ENDBRANCH   1   2
BRANCH   1  15
ATOM     15  C   UNL     1       2.042   4.151  30.740  1.00  0.00     0.000 C 
BRANCH  15  16
ATOM     16  C   UNL     1       1.584   5.319  31.628  1.00  0.00     0.000 C 
BRANCH  16  17
ATOM     17  C   UNL     1       0.736   6.349  30.862  1.00  0.00     0.000 C 
BRANCH  17  18
ATOM     18  C   UNL     1       1.321   7.768  30.944  1.00  0.00    -0.000 C 
BRANCH  18  19
ATOM     19  C   UNL     1       0.931   8.635  29.734  1.00  0.00    -0.000 C 
BRANCH  19  20
ATOM     20  C   UNL     1       2.137   9.009  28.852  1.00  0.00    -0.000 C 
BRANCH  20  21
ATOM     21  C   UNL     1       3.180   7.892  28.670  1.00  0.00    -0.000 C 
BRANCH  21  22
ATOM     22  C   UNL     1       4.623   8.419  28.615  1.00  0.00    -0.000 C 
BRANCH  22  23
ATOM     23  C   UNL     1       5.418   7.971  29.850  1.00  0.00    -0.000 C 
BRANCH  23  24
ATOM     24  C   UNL     1       4.827   6.714  30.510  1.00  0.00    -0.000 C 
BRANCH  24  25
ATOM     25  C   UNL     1       5.904   5.691  30.900  1.00  0.00    -0.003 C 
ATOM     26  C   UNL     1       5.801   4.432  30.043  1.00  0.00     0.004 C 
ENDBRANCH  24  25
ENDBRANCH  23  24
ENDBRANCH  22  23
ENDBRANCH  21  22
ENDBRANCH  20  21
ENDBRANCH  19  20
ENDBRANCH  18  19
ENDBRANCH  17  18
ENDBRANCH  16  17
ENDBRANCH  15  16
ENDBRANCH   1  15
TORSDOF 22
ENDMDL
