MODEL 1
REMARK VINA RESULT:    -4.738      0.000      0.000
REMARK INTER + INTRA:         -10.934
REMARK INTER:                  -8.616
REMARK INTRA:                  -2.318
REMARK UNBOUND:                -2.318
REMARK SMILES CCCCCCCCCCCCCCCC(=O)[O-]
REMARK SMILES IDX 9 1 10 2 11 3 12 4 13 5 14 6 15 7 16 8 17 9 18 10 8 11 7 12
REMARK SMILES IDX 6 13 5 14 4 15 3 16 2 17 1 18
REMARK H PARENT
REMARK Flexibility Score: inf
ROOT
ATOM      1  C   UNL     1       4.903  10.012  31.508  1.00  0.00     0.000 C 
ENDROOT
BRANCH   1   2
ATOM      2  C   UNL     1       4.470   9.263  30.233  1.00  0.00     0.000 C 
BRANCH   2   3
ATOM      3  C   UNL     1       5.625   8.654  29.415  1.00  0.00     0.000 C 
BRANCH   3   4
ATOM      4  C   UNL     1       5.807   9.299  28.022  1.00  0.00     0.000 C 
BRANCH   4   5
ATOM      5  C   UNL     1       6.668   8.461  27.060  1.00  0.00     0.000 C 
BRANCH   5   6
ATOM      6  C   UNL     1       6.744   6.983  27.480  1.00  0.00     0.006 C 
BRANCH   6   7
ATOM      7  C   UNL     1       6.736   6.037  26.272  1.00  0.00     0.053 C 
BRANCH   7   8
ATOM      8  C   UNL     1       8.106   5.510  25.970  1.00  0.00     0.041 C 
ATOM      9  O   UNL     1       8.553   5.541  24.793  1.00  0.00    -0.550 OA
ATOM     10  O   UNL     1       8.901   5.015  26.995  1.00  0.00    -0.550 OA
ENDBRANCH   7   8
ENDBRANCH   6   7
ENDBRANCH   5   6
ENDBRANCH   4   5
ENDBRANCH   3   4
ENDBRANCH   2   3
ENDBRANCH   1   2
BRANCH   1  11
ATOM     11  C   UNL     1       6.064  11.006  31.320  1.00  0.00     0.000 C 
BRANCH  11  12
ATOM     12  C   UNL     1       7.247  10.731  32.266  1.00  0.00    -0.000 C 
BRANCH  12  13
ATOM     13  C   UNL     1       8.532  10.357  31.509  1.00  0.00    -0.000 C 
BRANCH  13  14
ATOM     14  C   UNL     1       8.539  10.869  30.061  1.00  0.00    -0.000 C 
BRANCH  14  15
ATOM     15  C   UNL     1       9.369   9.949  29.157  1.00  0.00    -0.000 C 
BRANCH  15  16
ATOM     16  C   UNL     1       9.408   8.520  29.712  1.00  0.00    -0.000 C 
BRANCH  16  17
ATOM     17  C   UNL     1      10.337   7.632  28.876  1.00  0.00    -0.003 C 
ATOM     18  C   UNL     1      10.588   8.239  27.499  1.00  0.00     0.004 C 
ENDBRANCH  16  17
ENDBRANCH  15  16
ENDBRANCH  14  15
ENDBRANCH  13  14
ENDBRANCH  12  13
ENDBRANCH  11  12
ENDBRANCH   1  11
TORSDOF 14
ENDMDL
MODEL 2
REMARK VINA RESULT:    -4.618      2.549      5.361
REMARK INTER + INTRA:         -10.716
REMARK INTER:                  -8.774
REMARK INTRA:                  -1.942
REMARK UNBOUND:                -2.318
REMARK SMILES CCCCCCCCCCCCCCCC(=O)[O-]
REMARK SMILES IDX 9 1 10 2 11 3 12 4 13 5 14 6 15 7 16 8 17 9 18 10 8 11 7 12
REMARK SMILES IDX 6 13 5 14 4 15 3 16 2 17 1 18
REMARK H PARENT
REMARK Flexibility Score: inf
ROOT
ATOM      1  C   UNL     1       6.906   7.175  28.779  1.00  0.00     0.000 C 
ENDROOT
BRANCH   1   2
ATOM      2  C   UNL     1       6.088   8.261  28.054  1.00  0.00     0.000 C 
BRANCH   2   3
ATOM      3  C   UNL     1       5.667   9.453  28.935  1.00  0.00     0.000 C 
BRANCH   3   4
ATOM      4  C   UNL     1       4.753   9.057  30.117  1.00  0.00     0.000 C 
BRANCH   4   5
ATOM      5  C   UNL     1       4.942   9.936  31.366  1.00  0.00     0.000 C 
BRANCH   5   6
ATOM      6  C   UNL     1       6.192  10.827  31.271  1.00  0.00     0.006 C 
BRANCH   6   7
ATOM      7  C   UNL     1       7.333  10.322  32.164  1.00  0.00     0.053 C 
BRANCH   7   8
ATOM      8  C   UNL     1       8.553   9.979  31.364  1.00  0.00     0.041 C 
ATOM      9  O   UNL     1       8.869  10.669  30.360  1.00  0.00    -0.550 OA
ATOM     10  O   UNL     1       9.359   8.915  31.749  1.00  0.00    -0.550 OA
ENDBRANCH   7   8
ENDBRANCH   6   7
ENDBRANCH   5   6
ENDBRANCH   4   5
ENDBRANCH   3   4
ENDBRANCH   2   3
ENDBRANCH   1   2
BRANCH   1  11
ATOM     11  C   UNL     1       7.265   5.946  27.922  1.00  0.00     0.000 C 
BRANCH  11  12
ATOM     12  C   UNL     1       6.507   5.907  26.584  1.00  0.00    -0.000 C 
BRANCH  12  13
ATOM     13  C   UNL     1       7.453   5.900  25.371  1.00  0.00    -0.000 C 
BRANCH  13  14
ATOM     14  C   UNL     1       7.865   7.313  24.933  1.00  0.00    -0.000 C 
BRANCH  14  15
ATOM     15  C   UNL     1       9.340   7.580  25.259  1.00  0.00    -0.000 C 
BRANCH  15  16
ATOM     16  C   UNL     1       9.515   8.931  25.962  1.00  0.00    -0.000 C 
BRANCH  16  17
ATOM     17  C   UNL     1       9.887   8.739  27.437  1.00  0.00    -0.003 C 
ATOM     18  C   UNL     1      11.021   7.730  27.592  1.00  0.00     0.004 C 
ENDBRANCH  16  17
ENDBRANCH  15  16
ENDBRANCH  14  15
ENDBRANCH  13  14
ENDBRANCH  12  13
ENDBRANCH  11  12
ENDBRANCH   1  11
TORSDOF 14
ENDMDL
MODEL 3
REMARK VINA RESULT:    -4.555      0.888      1.358
REMARK INTER + INTRA:         -10.601
REMARK INTER:                  -8.288
REMARK INTRA:                  -2.313
REMARK UNBOUND:                -2.318
REMARK SMILES CCCCCCCCCCCCCCCC(=O)[O-]
REMARK SMILES IDX 9 1 10 2 11 3 12 4 13 5 14 6 15 7 16 8 17 9 18 10 8 11 7 12
REMARK SMILES IDX 6 13 5 14 4 15 3 16 2 17 1 18
REMARK H PARENT
REMARK Flexibility Score: inf
ROOT
ATOM      1  C   UNL     1       5.762  10.327  31.965  1.00  0.00     0.000 C 
ENDROOT
BRANCH   1   2
ATOM      2  C   UNL     1       4.746   9.843  30.913  1.00  0.00     0.000 C 
BRANCH   2   3
ATOM      3  C   UNL     1       5.306   8.839  29.886  1.00  0.00     0.000 C 
BRANCH   3   4
ATOM      4  C   UNL     1       5.356   9.391  28.443  1.00  0.00     0.000 C 
BRANCH   4   5
ATOM      5  C   UNL     1       6.422   8.717  27.561  1.00  0.00     0.000 C 
BRANCH   5   6
ATOM      6  C   UNL     1       6.765   7.295  28.039  1.00  0.00     0.006 C 
BRANCH   6   7
ATOM      7  C   UNL     1       6.489   6.240  26.960  1.00  0.00     0.053 C 
BRANCH   7   8
ATOM      8  C   UNL     1       7.750   5.572  26.501  1.00  0.00     0.041 C 
ATOM      9  O   UNL     1       8.521   5.030  27.336  1.00  0.00    -0.550 OA
ATOM     10  O   UNL     1       8.057   5.523  25.147  1.00  0.00    -0.550 OA
ENDBRANCH   7   8
ENDBRANCH   6   7
ENDBRANCH   5   6
ENDBRANCH   4   5
ENDBRANCH   3   4
ENDBRANCH   2   3
ENDBRANCH   1   2
BRANCH   1  11
ATOM     11  C   UNL     1       7.015  11.019  31.395  1.00  0.00     0.000 C 
BRANCH  11  12
ATOM     12  C   UNL     1       8.304  10.217  31.638  1.00  0.00    -0.000 C 
BRANCH  12  13
ATOM     13  C   UNL     1       8.882   9.623  30.343  1.00  0.00    -0.000 C 
BRANCH  13  14
ATOM     14  C   UNL     1       9.176  10.692  29.279  1.00  0.00    -0.000 C 
BRANCH  14  15
ATOM     15  C   UNL     1       9.704  10.053  27.989  1.00  0.00    -0.000 C 
BRANCH  15  16
ATOM     16  C   UNL     1      10.260   8.649  28.257  1.00  0.00    -0.000 C 
BRANCH  16  17
ATOM     17  C   UNL     1      10.641   7.950  26.946  1.00  0.00    -0.003 C 
ATOM     18  C   UNL     1       9.847   8.512  25.771  1.00  0.00     0.004 C 
ENDBRANCH  16  17
ENDBRANCH  15  16
ENDBRANCH  14  15
ENDBRANCH  13  14
ENDBRANCH  12  13
ENDBRANCH  11  12
ENDBRANCH   1  11
TORSDOF 14
ENDMDL
MODEL 4
REMARK VINA RESULT:    -4.539      1.123      3.583
REMARK INTER + INTRA:         -10.572
REMARK INTER:                  -8.225
REMARK INTRA:                  -2.347
REMARK UNBOUND:                -2.318
REMARK SMILES CCCCCCCCCCCCCCCC(=O)[O-]
REMARK SMILES IDX 9 1 10 2 11 3 12 4 13 5 14 6 15 7 16 8 17 9 18 10 8 11 7 12
REMARK SMILES IDX 6 13 5 14 4 15 3 16 2 17 1 18
REMARK H PARENT
REMARK Flexibility Score: inf
ROOT
ATOM      1  C   UNL     1       8.438  10.003  31.228  1.00  0.00     0.000 C 
ENDROOT
BRANCH   1   2
ATOM      2  C   UNL     1       8.671  10.972  30.052  1.00  0.00     0.000 C 
BRANCH   2   3
ATOM      3  C   UNL     1       9.480  10.385  28.879  1.00  0.00     0.000 C 
BRANCH   3   4
ATOM      4  C   UNL     1       9.850   8.895  29.065  1.00  0.00     0.000 C 
BRANCH   4   5
ATOM      5  C   UNL     1      10.130   8.159  27.743  1.00  0.00     0.000 C 
BRANCH   5   6
ATOM      6  C   UNL     1       9.779   6.662  27.820  1.00  0.00     0.006 C 
BRANCH   6   7
ATOM      7  C   UNL     1       8.850   6.227  26.681  1.00  0.00     0.053 C 
BRANCH   7   8
ATOM      8  C   UNL     1       7.609   5.566  27.198  1.00  0.00     0.041 C 
ATOM      9  O   UNL     1       7.591   5.063  28.352  1.00  0.00    -0.550 OA
ATOM     10  O   UNL     1       6.461   5.535  26.416  1.00  0.00    -0.550 OA
ENDBRANCH   7   8
ENDBRANCH   6   7
ENDBRANCH   5   6
ENDBRANCH   4   5
ENDBRANCH   3   4
ENDBRANCH   2   3
ENDBRANCH   1   2
BRANCH   1  11
ATOM     11  C   UNL     1       7.342  10.433  32.221  1.00  0.00     0.000 C 
BRANCH  11  12
ATOM     12  C   UNL     1       6.130  11.082  31.532  1.00  0.00    -0.000 C 
BRANCH  12  13
ATOM     13  C   UNL     1       4.825  10.308  31.781  1.00  0.00    -0.000 C 
BRANCH  13  14
ATOM     14  C   UNL     1       4.540   9.260  30.694  1.00  0.00    -0.000 C 
BRANCH  14  15
ATOM     15  C   UNL     1       5.114   9.702  29.342  1.00  0.00    -0.000 C 
BRANCH  15  16
ATOM     16  C   UNL     1       5.943   8.581  28.702  1.00  0.00    -0.000 C 
BRANCH  16  17
ATOM     17  C   UNL     1       6.453   8.998  27.317  1.00  0.00    -0.003 C 
ATOM     18  C   UNL     1       6.091  10.448  27.010  1.00  0.00     0.004 C 
ENDBRANCH  16  17
ENDBRANCH  15  16
ENDBRANCH  14  15
ENDBRANCH  13  14
ENDBRANCH  12  13
ENDBRANCH  11  12
ENDBRANCH   1  11
TORSDOF 14
ENDMDL
MODEL 5
REMARK VINA RESULT:    -4.516      1.466      3.118
REMARK INTER + INTRA:         -10.530
REMARK INTER:                  -8.529
REMARK INTRA:                  -2.000
REMARK UNBOUND:                -2.318
REMARK SMILES CCCCCCCCCCCCCCCC(=O)[O-]
REMARK SMILES IDX 9 1 10 2 11 3 12 4 13 5 14 6 15 7 16 8 17 9 18 10 8 11 7 12
REMARK SMILES IDX 6 13 5 14 4 15 3 16 2 17 1 18
REMARK H PARENT
REMARK Flexibility Score: inf
ROOT
ATOM      1  C   UNL     1       5.597   8.355  29.091  1.00  0.00     0.000 C 
ENDROOT
BRANCH   1   2
ATOM      2  C   UNL     1       5.392   9.413  27.989  1.00  0.00     0.000 C 
BRANCH   2   3
ATOM      3  C   UNL     1       6.485   9.438  26.903  1.00  0.00     0.000 C 
BRANCH   3   4
ATOM      4  C   UNL     1       7.383   8.179  26.898  1.00  0.00     0.000 C 
BRANCH   4   5
ATOM      5  C   UNL     1       7.492   7.504  25.519  1.00  0.00     0.000 C 
BRANCH   5   6
ATOM      6  C   UNL     1       8.936   7.490  24.987  1.00  0.00     0.006 C 
BRANCH   6   7
ATOM      7  C   UNL     1       9.915   8.167  25.953  1.00  0.00     0.053 C 
BRANCH   7   8
ATOM      8  C   UNL     1      10.866   7.182  26.561  1.00  0.00     0.041 C 
ATOM      9  O   UNL     1      12.109   7.365  26.477  1.00  0.00    -0.550 OA
ATOM     10  O   UNL     1      10.378   6.078  27.249  1.00  0.00    -0.550 OA
ENDBRANCH   7   8
ENDBRANCH   6   7
ENDBRANCH   5   6
ENDBRANCH   4   5
ENDBRANCH   3   4
ENDBRANCH   2   3
ENDBRANCH   1   2
BRANCH   1  11
ATOM     11  C   UNL     1       4.582   8.412  30.248  1.00  0.00     0.000 C 
BRANCH  11  12
ATOM     12  C   UNL     1       4.203   9.850  30.642  1.00  0.00    -0.000 C 
BRANCH  12  13
ATOM     13  C   UNL     1       4.937  10.328  31.906  1.00  0.00    -0.000 C 
BRANCH  13  14
ATOM     14  C   UNL     1       6.253  11.055  31.590  1.00  0.00    -0.000 C 
BRANCH  14  15
ATOM     15  C   UNL     1       7.450  10.306  32.188  1.00  0.00    -0.000 C 
BRANCH  15  16
ATOM     16  C   UNL     1       8.428   9.863  31.093  1.00  0.00    -0.000 C 
BRANCH  16  17
ATOM     17  C   UNL     1       8.351  10.795  29.878  1.00  0.00    -0.003 C 
ATOM     18  C   UNL     1       9.485  10.515  28.897  1.00  0.00     0.004 C 
ENDBRANCH  16  17
ENDBRANCH  15  16
ENDBRANCH  14  15
ENDBRANCH  13  14
ENDBRANCH  12  13
ENDBRANCH  11  12
ENDBRANCH   1  11
TORSDOF 14
ENDMDL
MODEL 6
REMARK VINA RESULT:    -4.513      1.597      3.868
REMARK INTER + INTRA:         -10.524
REMARK INTER:                  -8.665
REMARK INTRA:                  -1.859
REMARK UNBOUND:                -2.318
REMARK SMILES CCCCCCCCCCCCCCCC(=O)[O-]
REMARK SMILES IDX 9 1 10 2 11 3 12 4 13 5 14 6 15 7 16 8 17 9 18 10 8 11 7 12
REMARK SMILES IDX 6 13 5 14 4 15 3 16 2 17 1 18
REMARK H PARENT
REMARK Flexibility Score: inf
ROOT
ATOM      1  C   UNL     1       7.390  10.363  32.252  1.00  0.00     0.000 C 
ENDROOT
BRANCH   1   2
ATOM      2  C   UNL     1       8.682  10.300  31.413  1.00  0.00     0.000 C 
BRANCH   2   3
ATOM      3  C   UNL     1       9.334   8.907  31.333  1.00  0.00     0.000 C 
BRANCH   3   4
ATOM      4  C   UNL     1       9.371   8.321  29.902  1.00  0.00     0.000 C 
BRANCH   4   5
ATOM      5  C   UNL     1       9.752   9.350  28.823  1.00  0.00     0.000 C 
BRANCH   5   6
ATOM      6  C   UNL     1      10.333   8.688  27.561  1.00  0.00     0.006 C 
BRANCH   6   7
ATOM      7  C   UNL     1      10.484   7.170  27.722  1.00  0.00     0.053 C 
BRANCH   7   8
ATOM      8  C   UNL     1      11.673   6.648  26.974  1.00  0.00     0.041 C 
ATOM      9  O   UNL     1      12.266   7.377  26.136  1.00  0.00    -0.550 OA
ATOM     10  O   UNL     1      12.145   5.366  27.228  1.00  0.00    -0.550 OA
ENDBRANCH   7   8
ENDBRANCH   6   7
ENDBRANCH   5   6
ENDBRANCH   4   5
ENDBRANCH   3   4
ENDBRANCH   2   3
ENDBRANCH   1   2
BRANCH   1  11
ATOM     11  C   UNL     1       6.222  11.124  31.597  1.00  0.00     0.000 C 
BRANCH  11  12
ATOM     12  C   UNL     1       4.845  10.633  32.074  1.00  0.00    -0.000 C 
BRANCH  12  13
ATOM     13  C   UNL     1       4.027   9.982  30.946  1.00  0.00    -0.000 C 
BRANCH  13  14
ATOM     14  C   UNL     1       4.767   8.816  30.275  1.00  0.00    -0.000 C 
BRANCH  14  15
ATOM     15  C   UNL     1       4.759   8.967  28.749  1.00  0.00    -0.000 C 
BRANCH  15  16
ATOM     16  C   UNL     1       6.122   9.444  28.234  1.00  0.00    -0.000 C 
BRANCH  16  17
ATOM     17  C   UNL     1       6.534   8.673  26.974  1.00  0.00    -0.003 C 
ATOM     18  C   UNL     1       6.778   7.199  27.285  1.00  0.00     0.004 C 
ENDBRANCH  16  17
ENDBRANCH  15  16
ENDBRANCH  14  15
ENDBRANCH  13  14
ENDBRANCH  12  13
ENDBRANCH  11  12
ENDBRANCH   1  11
TORSDOF 14
ENDMDL
MODEL 7
REMARK VINA RESULT:    -4.482      1.289      3.736
REMARK INTER + INTRA:         -10.469
REMARK INTER:                  -8.601
REMARK INTRA:                  -1.868
REMARK UNBOUND:                -2.318
REMARK SMILES CCCCCCCCCCCCCCCC(=O)[O-]
REMARK SMILES IDX 9 1 10 2 11 3 12 4 13 5 14 6 15 7 16 8 17 9 18 10 8 11 7 12
REMARK SMILES IDX 6 13 5 14 4 15 3 16 2 17 1 18
REMARK H PARENT
REMARK Flexibility Score: inf
ROOT
ATOM      1  C   UNL     1       9.436   8.458  30.109  1.00  0.00     0.000 C 
ENDROOT
BRANCH   1   2
ATOM      2  C   UNL     1       9.955   9.358  28.972  1.00  0.00     0.000 C 
BRANCH   2   3
ATOM      3  C   UNL     1      10.015   8.684  27.587  1.00  0.00     0.000 C 
BRANCH   3   4
ATOM      4  C   UNL     1       8.762   8.939  26.719  1.00  0.00     0.000 C 
BRANCH   4   5
ATOM      5  C   UNL     1       8.449   7.797  25.736  1.00  0.00     0.000 C 
BRANCH   5   6
ATOM      6  C   UNL     1       7.186   7.012  26.132  1.00  0.00     0.006 C 
BRANCH   6   7
ATOM      7  C   UNL     1       7.511   5.582  26.583  1.00  0.00     0.053 C 
BRANCH   7   8
ATOM      8  C   UNL     1       7.916   5.533  28.025  1.00  0.00     0.041 C 
ATOM      9  O   UNL     1       7.247   6.152  28.893  1.00  0.00    -0.550 OA
ATOM     10  O   UNL     1       9.016   4.777  28.412  1.00  0.00    -0.550 OA
ENDBRANCH   7   8
ENDBRANCH   6   7
ENDBRANCH   5   6
ENDBRANCH   4   5
ENDBRANCH   3   4
ENDBRANCH   2   3
ENDBRANCH   1   2
BRANCH   1  11
ATOM     11  C   UNL     1       9.228   9.167  31.461  1.00  0.00     0.000 C 
BRANCH  11  12
ATOM     12  C   UNL     1       8.680  10.597  31.309  1.00  0.00    -0.000 C 
BRANCH  12  13
ATOM     13  C   UNL     1       7.441  10.849  32.184  1.00  0.00    -0.000 C 
BRANCH  13  14
ATOM     14  C   UNL     1       6.176  11.119  31.357  1.00  0.00    -0.000 C 
BRANCH  14  15
ATOM     15  C   UNL     1       5.080  10.096  31.683  1.00  0.00    -0.000 C 
BRANCH  15  16
ATOM     16  C   UNL     1       4.640   9.339  30.424  1.00  0.00    -0.000 C 
BRANCH  16  17
ATOM     17  C   UNL     1       5.786   9.244  29.410  1.00  0.00    -0.003 C 
ATOM     18  C   UNL     1       5.330   9.676  28.020  1.00  0.00     0.004 C 
ENDBRANCH  16  17
ENDBRANCH  15  16
ENDBRANCH  14  15
ENDBRANCH  13  14
ENDBRANCH  12  13
ENDBRANCH  11  12
ENDBRANCH   1  11
TORSDOF 14
ENDMDL
MODEL 8
REMARK VINA RESULT:    -4.465      1.368      2.685
REMARK INTER + INTRA:         -10.436
REMARK INTER:                  -8.649
REMARK INTRA:                  -1.787
REMARK UNBOUND:                -2.318
REMARK SMILES CCCCCCCCCCCCCCCC(=O)[O-]
REMARK SMILES IDX 9 1 10 2 11 3 12 4 13 5 14 6 15 7 16 8 17 9 18 10 8 11 7 12
REMARK SMILES IDX 6 13 5 14 4 15 3 16 2 17 1 18
REMARK H PARENT
REMARK Flexibility Score: inf
ROOT
ATOM      1  C   UNL     1       5.180   8.342  28.868  1.00  0.00     0.000 C 
ENDROOT
BRANCH   1   2
ATOM      2  C   UNL     1       6.397   7.411  28.704  1.00  0.00     0.000 C 
BRANCH   2   3
ATOM      3  C   UNL     1       6.685   6.969  27.256  1.00  0.00     0.000 C 
BRANCH   3   4
ATOM      4  C   UNL     1       7.647   7.914  26.500  1.00  0.00     0.000 C 
BRANCH   4   5
ATOM      5  C   UNL     1       8.706   7.176  25.662  1.00  0.00     0.000 C 
BRANCH   5   6
ATOM      6  C   UNL     1       8.618   5.648  25.820  1.00  0.00     0.006 C 
BRANCH   6   7
ATOM      7  C   UNL     1       9.757   5.089  26.683  1.00  0.00     0.053 C 
BRANCH   7   8
ATOM      8  C   UNL     1       9.312   3.910  27.493  1.00  0.00     0.041 C 
ATOM      9  O   UNL     1       9.880   2.795  27.355  1.00  0.00    -0.550 OA
ATOM     10  O   UNL     1       8.291   4.052  28.424  1.00  0.00    -0.550 OA
ENDBRANCH   7   8
ENDBRANCH   6   7
ENDBRANCH   5   6
ENDBRANCH   4   5
ENDBRANCH   3   4
ENDBRANCH   2   3
ENDBRANCH   1   2
BRANCH   1  11
ATOM     11  C   UNL     1       5.481   9.699  29.531  1.00  0.00     0.000 C 
BRANCH  11  12
ATOM     12  C   UNL     1       5.171   9.711  31.038  1.00  0.00    -0.000 C 
BRANCH  12  13
ATOM     13  C   UNL     1       5.891  10.850  31.779  1.00  0.00    -0.000 C 
BRANCH  13  14
ATOM     14  C   UNL     1       7.226  10.405  32.396  1.00  0.00    -0.000 C 
BRANCH  14  15
ATOM     15  C   UNL     1       8.385  10.626  31.416  1.00  0.00    -0.000 C 
BRANCH  15  16
ATOM     16  C   UNL     1       9.003   9.292  30.983  1.00  0.00    -0.000 C 
BRANCH  16  17
ATOM     17  C   UNL     1       9.445   9.342  29.515  1.00  0.00    -0.003 C 
ATOM     18  C   UNL     1      10.272   8.114  29.147  1.00  0.00     0.004 C 
ENDBRANCH  16  17
ENDBRANCH  15  16
ENDBRANCH  14  15
ENDBRANCH  13  14
ENDBRANCH  12  13
ENDBRANCH  11  12
ENDBRANCH   1  11
TORSDOF 14
ENDMDL
MODEL 9
REMARK VINA RESULT:    -4.402      1.836      4.522
REMARK INTER + INTRA:         -10.323
REMARK INTER:                  -8.217
REMARK INTRA:                  -2.106
REMARK UNBOUND:                -2.318
REMARK SMILES CCCCCCCCCCCCCCCC(=O)[O-]
REMARK SMILES IDX 9 1 10 2 11 3 12 4 13 5 14 6 15 7 16 8 17 9 18 10 8 11 7 12
REMARK SMILES IDX 6 13 5 14 4 15 3 16 2 17 1 18
REMARK H PARENT
REMARK Flexibility Score: inf
ROOT
ATOM      1  C   UNL     1       7.554   6.747  28.773  1.00  0.00     0.000 C 
ENDROOT
BRANCH   1   2
ATOM      2  C   UNL     1       7.794   5.472  27.941  1.00  0.00     0.000 C 
BRANCH   2   3
ATOM      3  C   UNL     1       7.521   5.623  26.432  1.00  0.00     0.000 C 
BRANCH   3   4
ATOM      4  C   UNL     1       8.773   6.003  25.610  1.00  0.00     0.000 C 
BRANCH   4   5
ATOM      5  C   UNL     1       8.830   7.492  25.223  1.00  0.00     0.000 C 
BRANCH   5   6
ATOM      6  C   UNL     1       9.709   8.313  26.183  1.00  0.00     0.006 C 
BRANCH   6   7
ATOM      7  C   UNL     1      10.894   7.501  26.720  1.00  0.00     0.053 C 
BRANCH   7   8
ATOM      8  C   UNL     1      11.033   7.638  28.206  1.00  0.00     0.041 C 
ATOM      9  O   UNL     1      10.866   8.757  28.759  1.00  0.00    -0.550 OA
ATOM     10  O   UNL     1      11.315   6.521  28.983  1.00  0.00    -0.550 OA
ENDBRANCH   7   8
ENDBRANCH   6   7
ENDBRANCH   5   6
ENDBRANCH   4   5
ENDBRANCH   3   4
ENDBRANCH   2   3
ENDBRANCH   1   2
BRANCH   1  11
ATOM     11  C   UNL     1       6.251   7.502  28.451  1.00  0.00     0.000 C 
BRANCH  11  12
ATOM     12  C   UNL     1       6.495   8.955  28.010  1.00  0.00    -0.000 C 
BRANCH  12  13
ATOM     13  C   UNL     1       5.705   9.969  28.855  1.00  0.00    -0.000 C 
BRANCH  13  14
ATOM     14  C   UNL     1       4.840   9.297  29.932  1.00  0.00    -0.000 C 
BRANCH  14  15
ATOM     15  C   UNL     1       5.080   9.936  31.305  1.00  0.00    -0.000 C 
BRANCH  15  16
ATOM     16  C   UNL     1       6.307  10.855  31.280  1.00  0.00    -0.000 C 
BRANCH  16  17
ATOM     17  C   UNL     1       7.413  10.320  32.198  1.00  0.00    -0.003 C 
ATOM     18  C   UNL     1       8.587   9.778  31.388  1.00  0.00     0.004 C 
ENDBRANCH  16  17
ENDBRANCH  15  16
ENDBRANCH  14  15
ENDBRANCH  13  14
ENDBRANCH  12  13
ENDBRANCH  11  12
ENDBRANCH   1  11
TORSDOF 14
ENDMDL
