MODEL 1
REMARK VINA RESULT:    -4.058      0.000      0.000
REMARK INTER + INTRA:          -8.727
REMARK INTER:                  -7.855
REMARK INTRA:                  -0.873
REMARK UNBOUND:                -0.873
REMARK SMILES CCCCCCCCCCCCCCCCCC(=O)[O-]
REMARK SMILES IDX 10 1 11 2 12 3 13 4 14 5 15 6 16 7 17 8 18 9 19 10 20 11
REMARK SMILES IDX 9 12 8 13 7 14 6 15 5 16 4 17 3 18 2 19 1 20
REMARK H PARENT
REMARK Flexibility Score: inf
ROOT
ATOM      1  C   UNL     1     -27.637   4.812  10.317  1.00  0.00     0.000 C 
ENDROOT
BRANCH   1   2
ATOM      2  C   UNL     1     -28.037   5.246  11.740  1.00  0.00     0.000 C 
BRANCH   2   3
ATOM      3  C   UNL     1     -26.906   6.000  12.464  1.00  0.00     0.000 C 
BRANCH   3   4
ATOM      4  C   UNL     1     -25.501   5.610  11.974  1.00  0.00     0.000 C 
BRANCH   4   5
ATOM      5  C   UNL     1     -24.442   6.695  12.273  1.00  0.00     0.000 C 
BRANCH   5   6
ATOM      6  C   UNL     1     -23.020   6.119  12.382  1.00  0.00     0.000 C 
BRANCH   6   7
ATOM      7  C   UNL     1     -22.963   4.584  12.259  1.00  0.00     0.006 C 
BRANCH   7   8
ATOM      8  C   UNL     1     -21.529   4.052  12.130  1.00  0.00     0.053 C 
BRANCH   8   9
ATOM      9  C   UNL     1     -21.508   2.786  11.328  1.00  0.00     0.041 C 
ATOM     10  O   UNL     1     -22.587   2.215  11.018  1.00  0.00    -0.550 OA
ATOM     11  O   UNL     1     -20.299   2.261  10.889  1.00  0.00    -0.550 OA
ENDBRANCH   8   9
ENDBRANCH   7   8
ENDBRANCH   6   7
ENDBRANCH   5   6
ENDBRANCH   4   5
ENDBRANCH   3   4
ENDBRANCH   2   3
ENDBRANCH   1   2
BRANCH   1  12
ATOM     12  C   UNL     1     -28.850   4.407   9.466  1.00  0.00     0.000 C 
BRANCH  12  13
ATOM     13  C   UNL     1     -29.240   5.482   8.436  1.00  0.00    -0.000 C 
BRANCH  13  14
ATOM     14  C   UNL     1     -28.468   5.318   7.118  1.00  0.00    -0.000 C 
BRANCH  14  15
ATOM     15  C   UNL     1     -28.971   6.281   6.026  1.00  0.00    -0.000 C 
BRANCH  15  16
ATOM     16  C   UNL     1     -30.330   6.913   6.391  1.00  0.00    -0.000 C 
BRANCH  16  17
ATOM     17  C   UNL     1     -31.266   7.093   5.178  1.00  0.00    -0.000 C 
BRANCH  17  18
ATOM     18  C   UNL     1     -30.791   6.321   3.936  1.00  0.00    -0.000 C 
BRANCH  18  19
ATOM     19  C   UNL     1     -31.916   6.101   2.912  1.00  0.00    -0.003 C 
ATOM     20  C   UNL     1     -33.271   5.842   3.568  1.00  0.00     0.004 C 
ENDBRANCH  18  19
ENDBRANCH  17  18
ENDBRANCH  16  17
ENDBRANCH  15  16
ENDBRANCH  14  15
ENDBRANCH  13  14
ENDBRANCH  12  13
ENDBRANCH   1  12
TORSDOF 16
ENDMDL
MODEL 2
REMARK VINA RESULT:    -4.018     13.467     15.089
REMARK INTER + INTRA:          -8.649
REMARK INTER:                  -8.041
REMARK INTRA:                  -0.608
REMARK UNBOUND:                -0.873
REMARK SMILES CCCCCCCCCCCCCCCCCC(=O)[O-]
REMARK SMILES IDX 10 1 11 2 12 3 13 4 14 5 15 6 16 7 17 8 18 9 19 10 20 11
REMARK SMILES IDX 9 12 8 13 7 14 6 15 5 16 4 17 3 18 2 19 1 20
REMARK H PARENT
REMARK Flexibility Score: inf
ROOT
ATOM      1  C   UNL     1     -19.019  -0.968  -4.369  1.00  0.00     0.000 C 
ENDROOT
BRANCH   1   2
ATOM      2  C   UNL     1     -19.934  -1.038  -3.132  1.00  0.00     0.000 C 
BRANCH   2   3
ATOM      3  C   UNL     1     -20.108  -2.477  -2.610  1.00  0.00     0.000 C 
BRANCH   3   4
ATOM      4  C   UNL     1     -20.136  -2.569  -1.074  1.00  0.00     0.000 C 
BRANCH   4   5
ATOM      5  C   UNL     1     -19.375  -3.802  -0.537  1.00  0.00     0.000 C 
BRANCH   5   6
ATOM      6  C   UNL     1     -19.612  -4.034   0.966  1.00  0.00     0.000 C 
BRANCH   6   7
ATOM      7  C   UNL     1     -19.126  -5.409   1.464  1.00  0.00     0.006 C 
BRANCH   7   8
ATOM      8  C   UNL     1     -20.061  -6.555   1.050  1.00  0.00     0.053 C 
BRANCH   8   9
ATOM      9  C   UNL     1     -20.758  -7.123   2.248  1.00  0.00     0.041 C 
ATOM     10  O   UNL     1     -20.570  -6.621   3.387  1.00  0.00    -0.550 OA
ATOM     11  O   UNL     1     -21.648  -8.180   2.099  1.00  0.00    -0.550 OA
ENDBRANCH   8   9
ENDBRANCH   7   8
ENDBRANCH   6   7
ENDBRANCH   5   6
ENDBRANCH   4   5
ENDBRANCH   3   4
ENDBRANCH   2   3
ENDBRANCH   1   2
BRANCH   1  12
ATOM     12  C   UNL     1     -18.165   0.308  -4.394  1.00  0.00     0.000 C 
BRANCH  12  13
ATOM     13  C   UNL     1     -18.964   1.566  -4.011  1.00  0.00    -0.000 C 
BRANCH  13  14
ATOM     14  C   UNL     1     -18.096   2.832  -4.057  1.00  0.00    -0.000 C 
BRANCH  14  15
ATOM     15  C   UNL     1     -18.939   4.120  -3.984  1.00  0.00    -0.000 C 
BRANCH  15  16
ATOM     16  C   UNL     1     -20.323   3.871  -3.348  1.00  0.00    -0.000 C 
BRANCH  16  17
ATOM     17  C   UNL     1     -20.967   5.146  -2.768  1.00  0.00    -0.000 C 
BRANCH  17  18
ATOM     18  C   UNL     1     -22.420   4.931  -2.313  1.00  0.00    -0.000 C 
BRANCH  18  19
ATOM     19  C   UNL     1     -22.747   5.675  -1.009  1.00  0.00    -0.003 C 
ATOM     20  C   UNL     1     -22.560   7.186  -1.127  1.00  0.00     0.004 C 
ENDBRANCH  18  19
ENDBRANCH  17  18
ENDBRANCH  16  17
ENDBRANCH  15  16
ENDBRANCH  14  15
ENDBRANCH  13  14
ENDBRANCH  12  13
ENDBRANCH   1  12
TORSDOF 16
ENDMDL
MODEL 3
REMARK VINA RESULT:    -3.958     13.339     16.080
REMARK INTER + INTRA:          -8.533
REMARK INTER:                  -7.919
REMARK INTRA:                  -0.614
REMARK UNBOUND:                -0.873
REMARK SMILES CCCCCCCCCCCCCCCCCC(=O)[O-]
REMARK SMILES IDX 10 1 11 2 12 3 13 4 14 5 15 6 16 7 17 8 18 9 19 10 20 11
REMARK SMILES IDX 9 12 8 13 7 14 6 15 5 16 4 17 3 18 2 19 1 20
REMARK H PARENT
REMARK Flexibility Score: inf
ROOT
ATOM      1  C   UNL     1     -19.660   0.031  -3.552  1.00  0.00     0.000 C 
ENDROOT
BRANCH   1   2
ATOM      2  C   UNL     1     -18.378   0.501  -4.267  1.00  0.00     0.000 C 
BRANCH   2   3
ATOM      3  C   UNL     1     -17.919   1.894  -3.796  1.00  0.00     0.000 C 
BRANCH   3   4
ATOM      4  C   UNL     1     -18.598   3.048  -4.552  1.00  0.00     0.000 C 
BRANCH   4   5
ATOM      5  C   UNL     1     -19.034   4.199  -3.617  1.00  0.00     0.000 C 
BRANCH   5   6
ATOM      6  C   UNL     1     -20.537   4.508  -3.722  1.00  0.00     0.000 C 
BRANCH   6   7
ATOM      7  C   UNL     1     -21.102   5.255  -2.498  1.00  0.00     0.006 C 
BRANCH   7   8
ATOM      8  C   UNL     1     -22.504   4.770  -2.103  1.00  0.00     0.053 C 
BRANCH   8   9
ATOM      9  C   UNL     1     -22.689   4.852  -0.618  1.00  0.00     0.041 C 
ATOM     10  O   UNL     1     -23.666   4.278  -0.069  1.00  0.00    -0.550 OA
ATOM     11  O   UNL     1     -21.759   5.527   0.163  1.00  0.00    -0.550 OA
ENDBRANCH   8   9
ENDBRANCH   7   8
ENDBRANCH   6   7
ENDBRANCH   5   6
ENDBRANCH   4   5
ENDBRANCH   3   4
ENDBRANCH   2   3
ENDBRANCH   1   2
BRANCH   1  12
ATOM     12  C   UNL     1     -19.771  -1.500  -3.495  1.00  0.00     0.000 C 
BRANCH  12  13
ATOM     13  C   UNL     1     -20.524  -1.995  -2.247  1.00  0.00    -0.000 C 
BRANCH  13  14
ATOM     14  C   UNL     1     -19.784  -3.149  -1.553  1.00  0.00    -0.000 C 
BRANCH  14  15
ATOM     15  C   UNL     1     -19.932  -3.096  -0.020  1.00  0.00    -0.000 C 
BRANCH  15  16
ATOM     16  C   UNL     1     -19.085  -4.179   0.681  1.00  0.00    -0.000 C 
BRANCH  16  17
ATOM     17  C   UNL     1     -19.910  -5.092   1.610  1.00  0.00    -0.000 C 
BRANCH  17  18
ATOM     18  C   UNL     1     -19.869  -6.570   1.188  1.00  0.00    -0.000 C 
BRANCH  18  19
ATOM     19  C   UNL     1     -20.685  -7.475   2.124  1.00  0.00    -0.003 C 
ATOM     20  C   UNL     1     -21.061  -6.785   3.434  1.00  0.00     0.004 C 
ENDBRANCH  18  19
ENDBRANCH  17  18
ENDBRANCH  16  17
ENDBRANCH  15  16
ENDBRANCH  14  15
ENDBRANCH  13  14
ENDBRANCH  12  13
ENDBRANCH   1  12
TORSDOF 16
ENDMDL
MODEL 4
REMARK VINA RESULT:    -3.917      4.381      9.991
REMARK INTER + INTRA:          -8.454
REMARK INTER:                  -7.598
REMARK INTRA:                  -0.856
REMARK UNBOUND:                -0.873
REMARK SMILES CCCCCCCCCCCCCCCCCC(=O)[O-]
REMARK SMILES IDX 10 1 11 2 12 3 13 4 14 5 15 6 16 7 17 8 18 9 19 10 20 11
REMARK SMILES IDX 9 12 8 13 7 14 6 15 5 16 4 17 3 18 2 19 1 20
REMARK H PARENT
REMARK Flexibility Score: inf
ROOT
ATOM      1  C   UNL     1     -27.609   4.806  10.298  1.00  0.00     0.000 C 
ENDROOT
BRANCH   1   2
ATOM      2  C   UNL     1     -28.817   4.440   9.416  1.00  0.00     0.000 C 
BRANCH   2   3
ATOM      3  C   UNL     1     -29.193   5.567   8.435  1.00  0.00     0.000 C 
BRANCH   3   4
ATOM      4  C   UNL     1     -28.706   5.313   6.998  1.00  0.00     0.000 C 
BRANCH   4   5
ATOM      5  C   UNL     1     -29.105   6.444   6.024  1.00  0.00     0.000 C 
BRANCH   5   6
ATOM      6  C   UNL     1     -30.512   6.999   6.308  1.00  0.00     0.000 C 
BRANCH   6   7
ATOM      7  C   UNL     1     -31.292   7.387   5.036  1.00  0.00     0.006 C 
BRANCH   7   8
ATOM      8  C   UNL     1     -32.615   6.620   4.896  1.00  0.00     0.053 C 
BRANCH   8   9
ATOM      9  C   UNL     1     -32.686   5.932   3.568  1.00  0.00     0.041 C 
ATOM     10  O   UNL     1     -31.724   6.017   2.758  1.00  0.00    -0.550 OA
ATOM     11  O   UNL     1     -33.795   5.162   3.241  1.00  0.00    -0.550 OA
ENDBRANCH   8   9
ENDBRANCH   7   8
ENDBRANCH   6   7
ENDBRANCH   5   6
ENDBRANCH   4   5
ENDBRANCH   3   4
ENDBRANCH   2   3
ENDBRANCH   1   2
BRANCH   1  12
ATOM     12  C   UNL     1     -28.022   5.183  11.729  1.00  0.00     0.000 C 
BRANCH  12  13
ATOM     13  C   UNL     1     -26.999   6.101  12.422  1.00  0.00    -0.000 C 
BRANCH  13  14
ATOM     14  C   UNL     1     -25.581   5.513  12.376  1.00  0.00    -0.000 C 
BRANCH  14  15
ATOM     15  C   UNL     1     -24.509   6.598  12.159  1.00  0.00    -0.000 C 
BRANCH  15  16
ATOM     16  C   UNL     1     -23.083   6.061  12.407  1.00  0.00    -0.000 C 
BRANCH  16  17
ATOM     17  C   UNL     1     -23.061   4.659  13.046  1.00  0.00    -0.000 C 
BRANCH  17  18
ATOM     18  C   UNL     1     -22.073   3.702  12.359  1.00  0.00    -0.000 C 
BRANCH  18  19
ATOM     19  C   UNL     1     -22.701   2.953  11.174  1.00  0.00    -0.003 C 
ATOM     20  C   UNL     1     -21.674   2.174  10.355  1.00  0.00     0.004 C 
ENDBRANCH  18  19
ENDBRANCH  17  18
ENDBRANCH  16  17
ENDBRANCH  15  16
ENDBRANCH  14  15
ENDBRANCH  13  14
ENDBRANCH  12  13
ENDBRANCH   1  12
TORSDOF 16
ENDMDL
MODEL 5
REMARK VINA RESULT:    -3.900      6.415      8.163
REMARK INTER + INTRA:          -8.420
REMARK INTER:                  -5.835
REMARK INTRA:                  -2.585
REMARK UNBOUND:                -0.873
REMARK SMILES CCCCCCCCCCCCCCCCCC(=O)[O-]
REMARK SMILES IDX 10 1 11 2 12 3 13 4 14 5 15 6 16 7 17 8 18 9 19 10 20 11
REMARK SMILES IDX 9 12 8 13 7 14 6 15 5 16 4 17 3 18 2 19 1 20
REMARK H PARENT
REMARK Flexibility Score: inf
ROOT
ATOM      1  C   UNL     1     -22.789   3.962  12.005  1.00  0.00     0.000 C 
ENDROOT
BRANCH   1   2
ATOM      2  C   UNL     1     -21.520   3.274  12.542  1.00  0.00     0.000 C 
BRANCH   2   3
ATOM      3  C   UNL     1     -20.438   4.284  12.969  1.00  0.00     0.000 C 
BRANCH   3   4
ATOM      4  C   UNL     1     -19.033   3.929  12.452  1.00  0.00     0.000 C 
BRANCH   4   5
ATOM      5  C   UNL     1     -18.591   2.505  12.859  1.00  0.00     0.000 C 
BRANCH   5   6
ATOM      6  C   UNL     1     -18.351   1.592  11.644  1.00  0.00     0.000 C 
BRANCH   6   7
ATOM      7  C   UNL     1     -18.808   2.208  10.307  1.00  0.00     0.006 C 
BRANCH   7   8
ATOM      8  C   UNL     1     -19.439   1.174   9.364  1.00  0.00     0.053 C 
BRANCH   8   9
ATOM      9  C   UNL     1     -20.844   1.564   9.022  1.00  0.00     0.041 C 
ATOM     10  O   UNL     1     -21.799   1.208   9.761  1.00  0.00    -0.550 OA
ATOM     11  O   UNL     1     -21.095   2.357   7.908  1.00  0.00    -0.550 OA
ENDBRANCH   8   9
ENDBRANCH   7   8
ENDBRANCH   6   7
ENDBRANCH   5   6
ENDBRANCH   4   5
ENDBRANCH   3   4
ENDBRANCH   2   3
ENDBRANCH   1   2
BRANCH   1  12
ATOM     12  C   UNL     1     -23.319   5.040  12.963  1.00  0.00     0.000 C 
BRANCH  12  13
ATOM     13  C   UNL     1     -24.220   6.070  12.259  1.00  0.00    -0.000 C 
BRANCH  13  14
ATOM     14  C   UNL     1     -23.683   7.500  12.413  1.00  0.00    -0.000 C 
BRANCH  14  15
ATOM     15  C   UNL     1     -22.999   8.007  11.128  1.00  0.00    -0.000 C 
BRANCH  15  16
ATOM     16  C   UNL     1     -21.514   7.593  11.059  1.00  0.00    -0.000 C 
BRANCH  16  17
ATOM     17  C   UNL     1     -21.065   7.163   9.648  1.00  0.00    -0.000 C 
BRANCH  17  18
ATOM     18  C   UNL     1     -20.757   5.660   9.549  1.00  0.00    -0.000 C 
BRANCH  18  19
ATOM     19  C   UNL     1     -19.549   5.362   8.649  1.00  0.00    -0.003 C 
ATOM     20  C   UNL     1     -18.216   5.687   9.321  1.00  0.00     0.004 C 
ENDBRANCH  18  19
ENDBRANCH  17  18
ENDBRANCH  16  17
ENDBRANCH  15  16
ENDBRANCH  14  15
ENDBRANCH  13  14
ENDBRANCH  12  13
ENDBRANCH   1  12
TORSDOF 16
ENDMDL
MODEL 6
REMARK VINA RESULT:    -3.883      4.986      8.116
REMARK INTER + INTRA:          -8.389
REMARK INTER:                  -6.367
REMARK INTRA:                  -2.022
REMARK UNBOUND:                -0.873
REMARK SMILES CCCCCCCCCCCCCCCCCC(=O)[O-]
REMARK SMILES IDX 10 1 11 2 12 3 13 4 14 5 15 6 16 7 17 8 18 9 19 10 20 11
REMARK SMILES IDX 9 12 8 13 7 14 6 15 5 16 4 17 3 18 2 19 1 20
REMARK H PARENT
REMARK Flexibility Score: inf
ROOT
ATOM      1  C   UNL     1     -21.883   3.005  10.109  1.00  0.00     0.000 C 
ENDROOT
BRANCH   1   2
ATOM      2  C   UNL     1     -22.021   1.645   9.399  1.00  0.00     0.000 C 
BRANCH   2   3
ATOM      3  C   UNL     1     -20.655   1.023   9.051  1.00  0.00     0.000 C 
BRANCH   3   4
ATOM      4  C   UNL     1     -19.493   1.599   9.879  1.00  0.00     0.000 C 
BRANCH   4   5
ATOM      5  C   UNL     1     -18.392   2.234   8.999  1.00  0.00     0.000 C 
BRANCH   5   6
ATOM      6  C   UNL     1     -18.193   3.731   9.291  1.00  0.00     0.000 C 
BRANCH   6   7
ATOM      7  C   UNL     1     -19.093   4.652   8.444  1.00  0.00     0.006 C 
BRANCH   7   8
ATOM      8  C   UNL     1     -19.370   4.086   7.044  1.00  0.00     0.053 C 
BRANCH   8   9
ATOM      9  C   UNL     1     -19.359   5.182   6.023  1.00  0.00     0.041 C 
ATOM     10  O   UNL     1     -19.433   4.906   4.796  1.00  0.00    -0.550 OA
ATOM     11  O   UNL     1     -19.310   6.510   6.428  1.00  0.00    -0.550 OA
ENDBRANCH   8   9
ENDBRANCH   7   8
ENDBRANCH   6   7
ENDBRANCH   5   6
ENDBRANCH   4   5
ENDBRANCH   3   4
ENDBRANCH   2   3
ENDBRANCH   1   2
BRANCH   1  12
ATOM     12  C   UNL     1     -22.459   2.983  11.533  1.00  0.00     0.000 C 
BRANCH  12  13
ATOM     13  C   UNL     1     -21.650   3.848  12.516  1.00  0.00    -0.000 C 
BRANCH  13  14
ATOM     14  C   UNL     1     -20.872   4.957  11.793  1.00  0.00    -0.000 C 
BRANCH  14  15
ATOM     15  C   UNL     1     -21.737   6.207  11.542  1.00  0.00    -0.000 C 
BRANCH  15  16
ATOM     16  C   UNL     1     -22.732   6.464  12.693  1.00  0.00    -0.000 C 
BRANCH  16  17
ATOM     17  C   UNL     1     -24.162   6.773  12.207  1.00  0.00    -0.000 C 
BRANCH  17  18
ATOM     18  C   UNL     1     -25.101   5.558  12.296  1.00  0.00    -0.000 C 
BRANCH  18  19
ATOM     19  C   UNL     1     -26.584   5.950  12.213  1.00  0.00    -0.003 C 
ATOM     20  C   UNL     1     -27.347   5.157  11.152  1.00  0.00     0.004 C 
ENDBRANCH  18  19
ENDBRANCH  17  18
ENDBRANCH  16  17
ENDBRANCH  15  16
ENDBRANCH  14  15
ENDBRANCH  13  14
ENDBRANCH  12  13
ENDBRANCH   1  12
TORSDOF 16
ENDMDL
MODEL 7
REMARK VINA RESULT:    -3.805      1.513      2.155
REMARK INTER + INTRA:          -8.238
REMARK INTER:                  -7.561
REMARK INTRA:                  -0.677
REMARK UNBOUND:                -0.873
REMARK SMILES CCCCCCCCCCCCCCCCCC(=O)[O-]
REMARK SMILES IDX 10 1 11 2 12 3 13 4 14 5 15 6 16 7 17 8 18 9 19 10 20 11
REMARK SMILES IDX 9 12 8 13 7 14 6 15 5 16 4 17 3 18 2 19 1 20
REMARK H PARENT
REMARK Flexibility Score: inf
ROOT
ATOM      1  C   UNL     1     -26.864   4.818  10.966  1.00  0.00     0.000 C 
ENDROOT
BRANCH   1   2
ATOM      2  C   UNL     1     -26.542   5.930  11.984  1.00  0.00     0.000 C 
BRANCH   2   3
ATOM      3  C   UNL     1     -25.039   6.263  12.036  1.00  0.00     0.000 C 
BRANCH   3   4
ATOM      4  C   UNL     1     -24.205   5.204  12.777  1.00  0.00     0.000 C 
BRANCH   4   5
ATOM      5  C   UNL     1     -22.949   4.773  11.986  1.00  0.00     0.000 C 
BRANCH   5   6
ATOM      6  C   UNL     1     -23.136   3.425  11.269  1.00  0.00     0.000 C 
BRANCH   6   7
ATOM      7  C   UNL     1     -21.820   2.814  10.747  1.00  0.00     0.006 C 
BRANCH   7   8
ATOM      8  C   UNL     1     -22.027   1.453  10.068  1.00  0.00     0.053 C 
BRANCH   8   9
ATOM      9  C   UNL     1     -21.591   1.509   8.636  1.00  0.00     0.041 C 
ATOM     10  O   UNL     1     -21.020   2.538   8.187  1.00  0.00    -0.550 OA
ATOM     11  O   UNL     1     -21.777   0.408   7.808  1.00  0.00    -0.550 OA
ENDBRANCH   8   9
ENDBRANCH   7   8
ENDBRANCH   6   7
ENDBRANCH   5   6
ENDBRANCH   4   5
ENDBRANCH   3   4
ENDBRANCH   2   3
ENDBRANCH   1   2
BRANCH   1  12
ATOM     12  C   UNL     1     -28.346   4.803  10.564  1.00  0.00     0.000 C 
BRANCH  12  13
ATOM     13  C   UNL     1     -28.551   4.588   9.054  1.00  0.00    -0.000 C 
BRANCH  13  14
ATOM     14  C   UNL     1     -29.511   5.625   8.454  1.00  0.00    -0.000 C 
BRANCH  14  15
ATOM     15  C   UNL     1     -29.207   5.907   6.969  1.00  0.00    -0.000 C 
BRANCH  15  16
ATOM     16  C   UNL     1     -30.121   7.008   6.390  1.00  0.00    -0.000 C 
BRANCH  16  17
ATOM     17  C   UNL     1     -30.689   6.661   4.999  1.00  0.00    -0.000 C 
BRANCH  17  18
ATOM     18  C   UNL     1     -32.215   6.824   4.917  1.00  0.00    -0.000 C 
BRANCH  18  19
ATOM     19  C   UNL     1     -32.804   6.233   3.627  1.00  0.00    -0.003 C 
ATOM     20  C   UNL     1     -31.733   5.869   2.600  1.00  0.00     0.004 C 
ENDBRANCH  18  19
ENDBRANCH  17  18
ENDBRANCH  16  17
ENDBRANCH  15  16
ENDBRANCH  14  15
ENDBRANCH  13  14
ENDBRANCH  12  13
ENDBRANCH   1  12
TORSDOF 16
ENDMDL
MODEL 8
REMARK VINA RESULT:    -3.765      5.852      8.666
REMARK INTER + INTRA:          -8.159
REMARK INTER:                  -6.102
REMARK INTRA:                  -2.057
REMARK UNBOUND:                -0.873
REMARK SMILES CCCCCCCCCCCCCCCCCC(=O)[O-]
REMARK SMILES IDX 10 1 11 2 12 3 13 4 14 5 15 6 16 7 17 8 18 9 19 10 20 11
REMARK SMILES IDX 9 12 8 13 7 14 6 15 5 16 4 17 3 18 2 19 1 20
REMARK H PARENT
REMARK Flexibility Score: inf
ROOT
ATOM      1  C   UNL     1     -22.039   1.801   8.908  1.00  0.00     0.000 C 
ENDROOT
BRANCH   1   2
ATOM      2  C   UNL     1     -20.863   2.503   8.204  1.00  0.00     0.000 C 
BRANCH   2   3
ATOM      3  C   UNL     1     -19.636   2.659   9.123  1.00  0.00     0.000 C 
BRANCH   3   4
ATOM      4  C   UNL     1     -19.066   4.088   9.142  1.00  0.00     0.000 C 
BRANCH   4   5
ATOM      5  C   UNL     1     -20.116   5.154   8.754  1.00  0.00     0.000 C 
BRANCH   5   6
ATOM      6  C   UNL     1     -19.539   6.244   7.834  1.00  0.00     0.000 C 
BRANCH   6   7
ATOM      7  C   UNL     1     -18.585   5.699   6.753  1.00  0.00     0.006 C 
BRANCH   7   8
ATOM      8  C   UNL     1     -19.330   5.114   5.544  1.00  0.00     0.053 C 
BRANCH   8   9
ATOM      9  C   UNL     1     -19.343   6.093   4.411  1.00  0.00     0.041 C 
ATOM     10  O   UNL     1     -20.077   7.116   4.465  1.00  0.00    -0.550 OA
ATOM     11  O   UNL     1     -18.514   5.898   3.313  1.00  0.00    -0.550 OA
ENDBRANCH   8   9
ENDBRANCH   7   8
ENDBRANCH   6   7
ENDBRANCH   5   6
ENDBRANCH   4   5
ENDBRANCH   3   4
ENDBRANCH   2   3
ENDBRANCH   1   2
BRANCH   1  12
ATOM     12  C   UNL     1     -21.930   1.867  10.439  1.00  0.00     0.000 C 
BRANCH  12  13
ATOM     13  C   UNL     1     -22.695   3.060  11.039  1.00  0.00    -0.000 C 
BRANCH  13  14
ATOM     14  C   UNL     1     -22.078   3.527  12.365  1.00  0.00    -0.000 C 
BRANCH  14  15
ATOM     15  C   UNL     1     -21.185   4.770  12.187  1.00  0.00    -0.000 C 
BRANCH  15  16
ATOM     16  C   UNL     1     -21.842   6.043  12.760  1.00  0.00    -0.000 C 
BRANCH  16  17
ATOM     17  C   UNL     1     -22.709   6.798  11.734  1.00  0.00    -0.000 C 
BRANCH  17  18
ATOM     18  C   UNL     1     -24.136   7.069  12.239  1.00  0.00    -0.000 C 
BRANCH  18  19
ATOM     19  C   UNL     1     -24.930   5.778  12.491  1.00  0.00    -0.003 C 
ATOM     20  C   UNL     1     -26.315   5.801  11.848  1.00  0.00     0.004 C 
ENDBRANCH  18  19
ENDBRANCH  17  18
ENDBRANCH  16  17
ENDBRANCH  15  16
ENDBRANCH  14  15
ENDBRANCH  13  14
ENDBRANCH  12  13
ENDBRANCH   1  12
TORSDOF 16
ENDMDL
MODEL 9
REMARK VINA RESULT:    -3.544      7.020      9.025
REMARK INTER + INTRA:          -7.731
REMARK INTER:                  -5.340
REMARK INTRA:                  -2.391
REMARK UNBOUND:                -0.873
REMARK SMILES CCCCCCCCCCCCCCCCCC(=O)[O-]
REMARK SMILES IDX 10 1 11 2 12 3 13 4 14 5 15 6 16 7 17 8 18 9 19 10 20 11
REMARK SMILES IDX 9 12 8 13 7 14 6 15 5 16 4 17 3 18 2 19 1 20
REMARK H PARENT
REMARK Flexibility Score: inf
ROOT
ATOM      1  C   UNL     1     -22.844   3.033  11.037  1.00  0.00     0.000 C 
ENDROOT
BRANCH   1   2
ATOM      2  C   UNL     1     -22.008   2.165  10.077  1.00  0.00     0.000 C 
BRANCH   2   3
ATOM      3  C   UNL     1     -20.512   2.156  10.444  1.00  0.00     0.000 C 
BRANCH   3   4
ATOM      4  C   UNL     1     -19.601   1.712   9.286  1.00  0.00     0.000 C 
BRANCH   4   5
ATOM      5  C   UNL     1     -18.878   2.897   8.608  1.00  0.00     0.000 C 
BRANCH   5   6
ATOM      6  C   UNL     1     -19.833   3.782   7.789  1.00  0.00     0.000 C 
BRANCH   6   7
ATOM      7  C   UNL     1     -19.230   4.279   6.460  1.00  0.00     0.006 C 
BRANCH   7   8
ATOM      8  C   UNL     1     -19.208   5.810   6.355  1.00  0.00     0.053 C 
BRANCH   8   9
ATOM      9  C   UNL     1     -19.385   6.241   4.931  1.00  0.00     0.041 C 
ATOM     10  O   UNL     1     -20.139   5.590   4.161  1.00  0.00    -0.550 OA
ATOM     11  O   UNL     1     -18.749   7.387   4.467  1.00  0.00    -0.550 OA
ENDBRANCH   8   9
ENDBRANCH   7   8
ENDBRANCH   6   7
ENDBRANCH   5   6
ENDBRANCH   4   5
ENDBRANCH   3   4
ENDBRANCH   2   3
ENDBRANCH   1   2
BRANCH   1  12
ATOM     12  C   UNL     1     -22.018   3.559  12.220  1.00  0.00     0.000 C 
BRANCH  12  13
ATOM     13  C   UNL     1     -22.817   4.515  13.124  1.00  0.00    -0.000 C 
BRANCH  13  14
ATOM     14  C   UNL     1     -23.709   5.462  12.307  1.00  0.00    -0.000 C 
BRANCH  14  15
ATOM     15  C   UNL     1     -23.317   6.940  12.498  1.00  0.00    -0.000 C 
BRANCH  15  16
ATOM     16  C   UNL     1     -22.994   7.631  11.156  1.00  0.00    -0.000 C 
BRANCH  16  17
ATOM     17  C   UNL     1     -21.483   7.735  10.871  1.00  0.00    -0.000 C 
BRANCH  17  18
ATOM     18  C   UNL     1     -20.930   6.514  10.119  1.00  0.00    -0.000 C 
BRANCH  18  19
ATOM     19  C   UNL     1     -19.691   5.911  10.800  1.00  0.00    -0.003 C 
ATOM     20  C   UNL     1     -19.531   6.371  12.248  1.00  0.00     0.004 C 
ENDBRANCH  18  19
ENDBRANCH  17  18
ENDBRANCH  16  17
ENDBRANCH  15  16
ENDBRANCH  14  15
ENDBRANCH  13  14
ENDBRANCH  12  13
ENDBRANCH   1  12
TORSDOF 16
ENDMDL
