MODEL 1
REMARK VINA RESULT:    -5.289      0.000      0.000
REMARK INTER + INTRA:         -11.598
REMARK INTER:                  -9.927
REMARK INTRA:                  -1.671
REMARK UNBOUND:                -1.671
REMARK SMILES CCCCCCCCC=CCCCCCCCC(=O)[O-]
REMARK SMILES IDX 10 1 9 2 11 3 12 4 13 5 14 6 15 7 16 8 17 9 18 10 19 11
REMARK SMILES IDX 20 12 8 13 7 14 6 15 5 16 4 17 3 18 2 19 1 20
REMARK H PARENT
REMARK Flexibility Score: inf
ROOT
ATOM      1  C   UNL     1     -23.497 -11.247   9.709  1.00  0.00    -0.031 C 
ATOM      2  C   UNL     1     -24.598 -10.937   9.010  1.00  0.00    -0.031 C 
ENDROOT
BRANCH   1   3
ATOM      3  C   UNL     1     -23.447 -12.441  10.624  1.00  0.00     0.027 C 
BRANCH   3   4
ATOM      4  C   UNL     1     -22.323 -13.416  10.231  1.00  0.00     0.004 C 
BRANCH   4   5
ATOM      5  C   UNL     1     -22.822 -14.698   9.538  1.00  0.00     0.000 C 
BRANCH   5   6
ATOM      6  C   UNL     1     -24.294 -14.676   9.085  1.00  0.00     0.000 C 
BRANCH   6   7
ATOM      7  C   UNL     1     -24.525 -14.222   7.633  1.00  0.00     0.000 C 
BRANCH   7   8
ATOM      8  C   UNL     1     -25.662 -14.986   6.940  1.00  0.00     0.006 C 
BRANCH   8   9
ATOM      9  C   UNL     1     -25.172 -15.642   5.646  1.00  0.00     0.053 C 
BRANCH   9  10
ATOM     10  C   UNL     1     -25.066 -14.627   4.551  1.00  0.00     0.041 C 
ATOM     11  O   UNL     1     -24.008 -14.533   3.875  1.00  0.00    -0.550 OA
ATOM     12  O   UNL     1     -26.151 -13.815   4.249  1.00  0.00    -0.550 OA
ENDBRANCH   9  10
ENDBRANCH   8   9
ENDBRANCH   7   8
ENDBRANCH   6   7
ENDBRANCH   5   6
ENDBRANCH   4   5
ENDBRANCH   3   4
ENDBRANCH   1   3
BRANCH   2  13
ATOM     13  C   UNL     1     -24.627  -9.768   8.062  1.00  0.00     0.027 C 
BRANCH  13  14
ATOM     14  C   UNL     1     -24.154  -8.474   8.744  1.00  0.00     0.004 C 
BRANCH  14  15
ATOM     15  C   UNL     1     -22.890  -7.865   8.106  1.00  0.00     0.000 C 
BRANCH  15  16
ATOM     16  C   UNL     1     -22.084  -8.870   7.252  1.00  0.00     0.000 C 
BRANCH  16  17
ATOM     17  C   UNL     1     -22.312  -8.713   5.737  1.00  0.00    -0.000 C 
BRANCH  17  18
ATOM     18  C   UNL     1     -21.724  -9.847   4.880  1.00  0.00    -0.000 C 
BRANCH  18  19
ATOM     19  C   UNL     1     -22.788 -10.570   4.041  1.00  0.00    -0.003 C 
ATOM     20  C   UNL     1     -23.884 -11.153   4.929  1.00  0.00     0.004 C 
ENDBRANCH  18  19
ENDBRANCH  17  18
ENDBRANCH  16  17
ENDBRANCH  15  16
ENDBRANCH  14  15
ENDBRANCH  13  14
ENDBRANCH   2  13
TORSDOF 15
ENDMDL
MODEL 2
REMARK VINA RESULT:    -5.288      2.731      6.873
REMARK INTER + INTRA:         -11.596
REMARK INTER:                 -10.186
REMARK INTRA:                  -1.410
REMARK UNBOUND:                -1.671
REMARK SMILES CCCCCCCCC=CCCCCCCCC(=O)[O-]
REMARK SMILES IDX 10 1 9 2 11 3 12 4 13 5 14 6 15 7 16 8 17 9 18 10 19 11
REMARK SMILES IDX 20 12 8 13 7 14 6 15 5 16 4 17 3 18 2 19 1 20
REMARK H PARENT
REMARK Flexibility Score: inf
ROOT
ATOM      1  C   UNL     1     -24.511 -12.342   4.298  1.00  0.00    -0.031 C 
ATOM      2  C   UNL     1     -24.274 -13.646   4.500  1.00  0.00    -0.031 C 
ENDROOT
BRANCH   1   3
ATOM      3  C   UNL     1     -23.400 -11.371   3.999  1.00  0.00     0.027 C 
BRANCH   3   4
ATOM      4  C   UNL     1     -23.403 -10.182   4.977  1.00  0.00     0.004 C 
BRANCH   4   5
ATOM      5  C   UNL     1     -22.047  -9.458   5.082  1.00  0.00     0.000 C 
BRANCH   5   6
ATOM      6  C   UNL     1     -21.940  -8.413   6.209  1.00  0.00     0.000 C 
BRANCH   6   7
ATOM      7  C   UNL     1     -22.239  -8.944   7.623  1.00  0.00     0.000 C 
BRANCH   7   8
ATOM      8  C   UNL     1     -23.204  -8.043   8.408  1.00  0.00     0.006 C 
BRANCH   8   9
ATOM      9  C   UNL     1     -24.624  -8.615   8.388  1.00  0.00     0.053 C 
BRANCH   9  10
ATOM     10  C   UNL     1     -25.631  -7.528   8.601  1.00  0.00     0.041 C 
ATOM     11  O   UNL     1     -25.286  -6.442   9.137  1.00  0.00    -0.550 OA
ATOM     12  O   UNL     1     -26.940  -7.699   8.170  1.00  0.00    -0.550 OA
ENDBRANCH   9  10
ENDBRANCH   8   9
ENDBRANCH   7   8
ENDBRANCH   6   7
ENDBRANCH   5   6
ENDBRANCH   4   5
ENDBRANCH   3   4
ENDBRANCH   1   3
BRANCH   2  13
ATOM     13  C   UNL     1     -25.394 -14.620   4.754  1.00  0.00     0.027 C 
BRANCH  13  14
ATOM     14  C   UNL     1     -25.287 -15.255   6.149  1.00  0.00     0.004 C 
BRANCH  14  15
ATOM     15  C   UNL     1     -24.696 -14.311   7.215  1.00  0.00     0.000 C 
BRANCH  15  16
ATOM     16  C   UNL     1     -24.320 -15.026   8.532  1.00  0.00     0.000 C 
BRANCH  16  17
ATOM     17  C   UNL     1     -23.820 -14.070   9.631  1.00  0.00    -0.000 C 
BRANCH  17  18
ATOM     18  C   UNL     1     -24.267 -12.608   9.460  1.00  0.00    -0.000 C 
BRANCH  18  19
ATOM     19  C   UNL     1     -23.416 -11.628  10.281  1.00  0.00    -0.003 C 
ATOM     20  C   UNL     1     -22.075 -12.250  10.662  1.00  0.00     0.004 C 
ENDBRANCH  18  19
ENDBRANCH  17  18
ENDBRANCH  16  17
ENDBRANCH  15  16
ENDBRANCH  14  15
ENDBRANCH  13  14
ENDBRANCH   2  13
TORSDOF 15
ENDMDL
MODEL 3
REMARK VINA RESULT:    -5.218      2.432      4.892
REMARK INTER + INTRA:         -11.465
REMARK INTER:                 -10.051
REMARK INTRA:                  -1.414
REMARK UNBOUND:                -1.671
REMARK SMILES CCCCCCCCC=CCCCCCCCC(=O)[O-]
REMARK SMILES IDX 10 1 9 2 11 3 12 4 13 5 14 6 15 7 16 8 17 9 18 10 19 11
REMARK SMILES IDX 20 12 8 13 7 14 6 15 5 16 4 17 3 18 2 19 1 20
REMARK H PARENT
REMARK Flexibility Score: inf
ROOT
ATOM      1  C   UNL     1     -24.479 -11.950   4.664  1.00  0.00    -0.031 C 
ATOM      2  C   UNL     1     -23.431 -11.651   3.882  1.00  0.00    -0.031 C 
ENDROOT
BRANCH   1   3
ATOM      3  C   UNL     1     -25.393 -13.106   4.359  1.00  0.00     0.027 C 
BRANCH   3   4
ATOM      4  C   UNL     1     -24.630 -14.441   4.311  1.00  0.00     0.004 C 
BRANCH   4   5
ATOM      5  C   UNL     1     -25.003 -15.415   5.446  1.00  0.00     0.000 C 
BRANCH   5   6
ATOM      6  C   UNL     1     -25.617 -14.765   6.700  1.00  0.00     0.000 C 
BRANCH   6   7
ATOM      7  C   UNL     1     -24.687 -14.699   7.925  1.00  0.00     0.000 C 
BRANCH   7   8
ATOM      8  C   UNL     1     -24.251 -13.267   8.269  1.00  0.00     0.006 C 
BRANCH   8   9
ATOM      9  C   UNL     1     -24.191 -13.062   9.785  1.00  0.00     0.053 C 
BRANCH   9  10
ATOM     10  C   UNL     1     -22.798 -13.272  10.288  1.00  0.00     0.041 C 
ATOM     11  O   UNL     1     -22.227 -14.383  10.126  1.00  0.00    -0.550 OA
ATOM     12  O   UNL     1     -22.115 -12.228  10.899  1.00  0.00    -0.550 OA
ENDBRANCH   9  10
ENDBRANCH   8   9
ENDBRANCH   7   8
ENDBRANCH   6   7
ENDBRANCH   5   6
ENDBRANCH   4   5
ENDBRANCH   3   4
ENDBRANCH   1   3
BRANCH   2  13
ATOM     13  C   UNL     1     -22.495 -10.522   4.217  1.00  0.00     0.027 C 
BRANCH  13  14
ATOM     14  C   UNL     1     -23.006  -9.696   5.408  1.00  0.00     0.004 C 
BRANCH  14  15
ATOM     15  C   UNL     1     -21.976  -8.685   5.947  1.00  0.00     0.000 C 
BRANCH  15  16
ATOM     16  C   UNL     1     -21.838  -8.705   7.487  1.00  0.00     0.000 C 
BRANCH  16  17
ATOM     17  C   UNL     1     -23.068  -8.143   8.223  1.00  0.00    -0.000 C 
BRANCH  17  18
ATOM     18  C   UNL     1     -24.116  -9.198   8.616  1.00  0.00    -0.000 C 
BRANCH  18  19
ATOM     19  C   UNL     1     -25.557  -8.687   8.468  1.00  0.00    -0.003 C 
ATOM     20  C   UNL     1     -25.658  -7.213   8.849  1.00  0.00     0.004 C 
ENDBRANCH  18  19
ENDBRANCH  17  18
ENDBRANCH  16  17
ENDBRANCH  15  16
ENDBRANCH  14  15
ENDBRANCH  13  14
ENDBRANCH   2  13
TORSDOF 15
ENDMDL
MODEL 4
REMARK VINA RESULT:    -5.121      2.963      5.625
REMARK INTER + INTRA:         -11.282
REMARK INTER:                  -9.861
REMARK INTRA:                  -1.421
REMARK UNBOUND:                -1.671
REMARK SMILES CCCCCCCCC=CCCCCCCCC(=O)[O-]
REMARK SMILES IDX 10 1 9 2 11 3 12 4 13 5 14 6 15 7 16 8 17 9 18 10 19 11
REMARK SMILES IDX 20 12 8 13 7 14 6 15 5 16 4 17 3 18 2 19 1 20
REMARK H PARENT
REMARK Flexibility Score: inf
ROOT
ATOM      1  C   UNL     1     -24.127 -14.855   9.068  1.00  0.00    -0.031 C 
ATOM      2  C   UNL     1     -24.308 -14.707   7.748  1.00  0.00    -0.031 C 
ENDROOT
BRANCH   1   3
ATOM      3  C   UNL     1     -22.753 -14.901   9.680  1.00  0.00     0.027 C 
BRANCH   3   4
ATOM      4  C   UNL     1     -22.381 -13.565  10.349  1.00  0.00     0.004 C 
BRANCH   4   5
ATOM      5  C   UNL     1     -23.551 -12.567  10.443  1.00  0.00     0.000 C 
BRANCH   5   6
ATOM      6  C   UNL     1     -23.277 -11.168   9.858  1.00  0.00     0.000 C 
BRANCH   6   7
ATOM      7  C   UNL     1     -24.261 -10.712   8.765  1.00  0.00     0.000 C 
BRANCH   7   8
ATOM      8  C   UNL     1     -24.039  -9.256   8.331  1.00  0.00     0.006 C 
BRANCH   8   9
ATOM      9  C   UNL     1     -25.336  -8.449   8.442  1.00  0.00     0.053 C 
BRANCH   9  10
ATOM     10  C   UNL     1     -25.038  -7.018   8.761  1.00  0.00     0.041 C 
ATOM     11  O   UNL     1     -23.861  -6.580   8.667  1.00  0.00    -0.550 OA
ATOM     12  O   UNL     1     -26.067  -6.156   9.120  1.00  0.00    -0.550 OA
ENDBRANCH   9  10
ENDBRANCH   8   9
ENDBRANCH   7   8
ENDBRANCH   6   7
ENDBRANCH   5   6
ENDBRANCH   4   5
ENDBRANCH   3   4
ENDBRANCH   1   3
BRANCH   2  13
ATOM     13  C   UNL     1     -25.685 -14.618   7.146  1.00  0.00     0.027 C 
BRANCH  13  14
ATOM     14  C   UNL     1     -25.772 -15.377   5.813  1.00  0.00     0.004 C 
BRANCH  14  15
ATOM     15  C   UNL     1     -24.803 -14.850   4.737  1.00  0.00     0.000 C 
BRANCH  15  16
ATOM     16  C   UNL     1     -25.151 -13.430   4.235  1.00  0.00     0.000 C 
BRANCH  16  17
ATOM     17  C   UNL     1     -23.916 -12.584   3.875  1.00  0.00    -0.000 C 
BRANCH  17  18
ATOM     18  C   UNL     1     -23.750 -11.304   4.713  1.00  0.00    -0.000 C 
BRANCH  18  19
ATOM     19  C   UNL     1     -22.575 -10.435   4.242  1.00  0.00    -0.003 C 
ATOM     20  C   UNL     1     -22.278  -9.323   5.244  1.00  0.00     0.004 C 
ENDBRANCH  18  19
ENDBRANCH  17  18
ENDBRANCH  16  17
ENDBRANCH  15  16
ENDBRANCH  14  15
ENDBRANCH  13  14
ENDBRANCH   2  13
TORSDOF 15
ENDMDL
MODEL 5
REMARK VINA RESULT:    -4.636      1.345      4.720
REMARK INTER + INTRA:         -10.372
REMARK INTER:                  -9.011
REMARK INTRA:                  -1.362
REMARK UNBOUND:                -1.671
REMARK SMILES CCCCCCCCC=CCCCCCCCC(=O)[O-]
REMARK SMILES IDX 10 1 9 2 11 3 12 4 13 5 14 6 15 7 16 8 17 9 18 10 19 11
REMARK SMILES IDX 20 12 8 13 7 14 6 15 5 16 4 17 3 18 2 19 1 20
REMARK H PARENT
REMARK Flexibility Score: inf
ROOT
ATOM      1  C   UNL     1     -22.621  -8.023   6.709  1.00  0.00    -0.031 C 
ATOM      2  C   UNL     1     -22.856  -8.374   7.982  1.00  0.00    -0.031 C 
ENDROOT
BRANCH   1   3
ATOM      3  C   UNL     1     -21.354  -8.416   5.998  1.00  0.00     0.027 C 
BRANCH   3   4
ATOM      4  C   UNL     1     -21.594  -9.553   4.989  1.00  0.00     0.004 C 
BRANCH   4   5
ATOM      5  C   UNL     1     -23.072  -9.970   4.859  1.00  0.00     0.000 C 
BRANCH   5   6
ATOM      6  C   UNL     1     -23.329 -11.248   4.037  1.00  0.00     0.000 C 
BRANCH   6   7
ATOM      7  C   UNL     1     -24.277 -12.267   4.694  1.00  0.00     0.000 C 
BRANCH   7   8
ATOM      8  C   UNL     1     -24.273 -13.630   3.986  1.00  0.00     0.006 C 
BRANCH   8   9
ATOM      9  C   UNL     1     -25.518 -14.442   4.355  1.00  0.00     0.053 C 
BRANCH   9  10
ATOM     10  C   UNL     1     -25.190 -15.460   5.401  1.00  0.00     0.041 C 
ATOM     11  O   UNL     1     -25.110 -15.121   6.611  1.00  0.00    -0.550 OA
ATOM     12  O   UNL     1     -25.014 -16.792   5.045  1.00  0.00    -0.550 OA
ENDBRANCH   9  10
ENDBRANCH   8   9
ENDBRANCH   7   8
ENDBRANCH   6   7
ENDBRANCH   5   6
ENDBRANCH   4   5
ENDBRANCH   3   4
ENDBRANCH   1   3
BRANCH   2  13
ATOM     13  C   UNL     1     -24.144  -8.017   8.673  1.00  0.00     0.027 C 
BRANCH  13  14
ATOM     14  C   UNL     1     -25.106  -9.214   8.733  1.00  0.00     0.004 C 
BRANCH  14  15
ATOM     15  C   UNL     1     -24.442 -10.559   8.375  1.00  0.00     0.000 C 
BRANCH  15  16
ATOM     16  C   UNL     1     -24.511 -11.603   9.512  1.00  0.00     0.000 C 
BRANCH  16  17
ATOM     17  C   UNL     1     -23.283 -11.582  10.443  1.00  0.00    -0.000 C 
BRANCH  17  18
ATOM     18  C   UNL     1     -22.408 -12.845  10.377  1.00  0.00    -0.000 C 
BRANCH  18  19
ATOM     19  C   UNL     1     -23.130 -14.034   9.725  1.00  0.00    -0.003 C 
ATOM     20  C   UNL     1     -23.642 -15.010  10.781  1.00  0.00     0.004 C 
ENDBRANCH  18  19
ENDBRANCH  17  18
ENDBRANCH  16  17
ENDBRANCH  15  16
ENDBRANCH  14  15
ENDBRANCH  13  14
ENDBRANCH   2  13
TORSDOF 15
ENDMDL
MODEL 6
REMARK VINA RESULT:    -4.579      2.064      4.917
REMARK INTER + INTRA:         -10.265
REMARK INTER:                  -8.796
REMARK INTRA:                  -1.469
REMARK UNBOUND:                -1.671
REMARK SMILES CCCCCCCCC=CCCCCCCCC(=O)[O-]
REMARK SMILES IDX 10 1 9 2 11 3 12 4 13 5 14 6 15 7 16 8 17 9 18 10 19 11
REMARK SMILES IDX 20 12 8 13 7 14 6 15 5 16 4 17 3 18 2 19 1 20
REMARK H PARENT
REMARK Flexibility Score: inf
ROOT
ATOM      1  C   UNL     1     -24.263 -14.490   8.041  1.00  0.00    -0.031 C 
ATOM      2  C   UNL     1     -23.860 -14.676   9.306  1.00  0.00    -0.031 C 
ENDROOT
BRANCH   1   3
ATOM      3  C   UNL     1     -25.424 -15.252   7.459  1.00  0.00     0.027 C 
BRANCH   3   4
ATOM      4  C   UNL     1     -25.811 -14.726   6.065  1.00  0.00     0.004 C 
BRANCH   4   5
ATOM      5  C   UNL     1     -25.001 -15.354   4.914  1.00  0.00     0.000 C 
BRANCH   5   6
ATOM      6  C   UNL     1     -24.287 -14.355   3.984  1.00  0.00     0.000 C 
BRANCH   6   7
ATOM      7  C   UNL     1     -24.700 -12.883   4.165  1.00  0.00     0.000 C 
BRANCH   7   8
ATOM      8  C   UNL     1     -23.538 -11.903   3.941  1.00  0.00     0.006 C 
BRANCH   8   9
ATOM      9  C   UNL     1     -23.637 -10.709   4.894  1.00  0.00     0.053 C 
BRANCH   9  10
ATOM     10  C   UNL     1     -22.348  -9.951   4.921  1.00  0.00     0.041 C 
ATOM     11  O   UNL     1     -21.407 -10.272   4.147  1.00  0.00    -0.550 OA
ATOM     12  O   UNL     1     -22.199  -8.861   5.770  1.00  0.00    -0.550 OA
ENDBRANCH   9  10
ENDBRANCH   8   9
ENDBRANCH   7   8
ENDBRANCH   6   7
ENDBRANCH   5   6
ENDBRANCH   4   5
ENDBRANCH   3   4
ENDBRANCH   1   3
BRANCH   2  13
ATOM     13  C   UNL     1     -22.727 -13.879   9.896  1.00  0.00     0.027 C 
BRANCH  13  14
ATOM     14  C   UNL     1     -23.243 -12.728  10.775  1.00  0.00     0.004 C 
BRANCH  14  15
ATOM     15  C   UNL     1     -22.886 -11.329  10.234  1.00  0.00     0.000 C 
BRANCH  15  16
ATOM     16  C   UNL     1     -23.428 -11.061   8.812  1.00  0.00     0.000 C 
BRANCH  16  17
ATOM     17  C   UNL     1     -24.718 -10.220   8.794  1.00  0.00    -0.000 C 
BRANCH  17  18
ATOM     18  C   UNL     1     -24.513  -8.740   8.428  1.00  0.00    -0.000 C 
BRANCH  18  19
ATOM     19  C   UNL     1     -25.825  -7.942   8.422  1.00  0.00    -0.003 C 
ATOM     20  C   UNL     1     -25.651  -6.594   9.115  1.00  0.00     0.004 C 
ENDBRANCH  18  19
ENDBRANCH  17  18
ENDBRANCH  16  17
ENDBRANCH  15  16
ENDBRANCH  14  15
ENDBRANCH  13  14
ENDBRANCH   2  13
TORSDOF 15
ENDMDL
MODEL 7
REMARK VINA RESULT:    -4.513      1.310      2.851
REMARK INTER + INTRA:         -10.141
REMARK INTER:                  -8.554
REMARK INTRA:                  -1.587
REMARK UNBOUND:                -1.671
REMARK SMILES CCCCCCCCC=CCCCCCCCC(=O)[O-]
REMARK SMILES IDX 10 1 9 2 11 3 12 4 13 5 14 6 15 7 16 8 17 9 18 10 19 11
REMARK SMILES IDX 20 12 8 13 7 14 6 15 5 16 4 17 3 18 2 19 1 20
REMARK H PARENT
REMARK Flexibility Score: inf
ROOT
ATOM      1  C   UNL     1     -22.937 -11.132   9.496  1.00  0.00    -0.031 C 
ATOM      2  C   UNL     1     -24.139 -10.864   8.966  1.00  0.00    -0.031 C 
ENDROOT
BRANCH   1   3
ATOM      3  C   UNL     1     -22.776 -12.061  10.669  1.00  0.00     0.027 C 
BRANCH   3   4
ATOM      4  C   UNL     1     -22.459 -13.499  10.220  1.00  0.00     0.004 C 
BRANCH   4   5
ATOM      5  C   UNL     1     -23.699 -14.408  10.117  1.00  0.00     0.000 C 
BRANCH   5   6
ATOM      6  C   UNL     1     -23.959 -15.019   8.727  1.00  0.00     0.000 C 
BRANCH   6   7
ATOM      7  C   UNL     1     -24.684 -14.095   7.732  1.00  0.00     0.000 C 
BRANCH   7   8
ATOM      8  C   UNL     1     -25.721 -14.835   6.874  1.00  0.00     0.006 C 
BRANCH   8   9
ATOM      9  C   UNL     1     -25.085 -15.371   5.589  1.00  0.00     0.053 C 
BRANCH   9  10
ATOM     10  C   UNL     1     -25.102 -14.326   4.519  1.00  0.00     0.041 C 
ATOM     11  O   UNL     1     -26.192 -13.813   4.151  1.00  0.00    -0.550 OA
ATOM     12  O   UNL     1     -23.910 -13.887   3.956  1.00  0.00    -0.550 OA
ENDBRANCH   9  10
ENDBRANCH   8   9
ENDBRANCH   7   8
ENDBRANCH   6   7
ENDBRANCH   5   6
ENDBRANCH   4   5
ENDBRANCH   3   4
ENDBRANCH   1   3
BRANCH   2  13
ATOM     13  C   UNL     1     -24.289  -9.970   7.765  1.00  0.00     0.027 C 
BRANCH  13  14
ATOM     14  C   UNL     1     -22.930  -9.657   7.118  1.00  0.00     0.004 C 
BRANCH  14  15
ATOM     15  C   UNL     1     -22.450  -8.212   7.355  1.00  0.00     0.000 C 
BRANCH  15  16
ATOM     16  C   UNL     1     -23.100  -7.540   8.586  1.00  0.00     0.000 C 
BRANCH  16  17
ATOM     17  C   UNL     1     -23.553  -6.091   8.329  1.00  0.00    -0.000 C 
BRANCH  17  18
ATOM     18  C   UNL     1     -24.990  -5.780   8.781  1.00  0.00    -0.000 C 
BRANCH  18  19
ATOM     19  C   UNL     1     -25.766  -7.038   9.199  1.00  0.00    -0.003 C 
ATOM     20  C   UNL     1     -26.774  -7.443   8.127  1.00  0.00     0.004 C 
ENDBRANCH  18  19
ENDBRANCH  17  18
ENDBRANCH  16  17
ENDBRANCH  15  16
ENDBRANCH  14  15
ENDBRANCH  13  14
ENDBRANCH   2  13
TORSDOF 15
ENDMDL
MODEL 8
REMARK VINA RESULT:    -4.448      2.814      6.187
REMARK INTER + INTRA:         -10.019
REMARK INTER:                  -8.492
REMARK INTRA:                  -1.528
REMARK UNBOUND:                -1.671
REMARK SMILES CCCCCCCCC=CCCCCCCCC(=O)[O-]
REMARK SMILES IDX 10 1 9 2 11 3 12 4 13 5 14 6 15 7 16 8 17 9 18 10 19 11
REMARK SMILES IDX 20 12 8 13 7 14 6 15 5 16 4 17 3 18 2 19 1 20
REMARK H PARENT
REMARK Flexibility Score: inf
ROOT
ATOM      1  C   UNL     1     -25.072 -15.244   6.085  1.00  0.00    -0.031 C 
ATOM      2  C   UNL     1     -24.794 -14.260   6.952  1.00  0.00    -0.031 C 
ENDROOT
BRANCH   1   3
ATOM      3  C   UNL     1     -25.004 -15.034   4.596  1.00  0.00     0.027 C 
BRANCH   3   4
ATOM      4  C   UNL     1     -25.176 -13.551   4.221  1.00  0.00     0.004 C 
BRANCH   4   5
ATOM      5  C   UNL     1     -23.854 -12.837   3.875  1.00  0.00     0.000 C 
BRANCH   5   6
ATOM      6  C   UNL     1     -23.731 -11.389   4.384  1.00  0.00     0.000 C 
BRANCH   6   7
ATOM      7  C   UNL     1     -24.405 -11.113   5.740  1.00  0.00     0.000 C 
BRANCH   7   8
ATOM      8  C   UNL     1     -23.913  -9.815   6.400  1.00  0.00     0.006 C 
BRANCH   8   9
ATOM      9  C   UNL     1     -24.278  -9.785   7.886  1.00  0.00     0.053 C 
BRANCH   9  10
ATOM     10  C   UNL     1     -24.313  -8.377   8.389  1.00  0.00     0.041 C 
ATOM     11  O   UNL     1     -25.387  -7.888   8.831  1.00  0.00    -0.550 OA
ATOM     12  O   UNL     1     -23.151  -7.616   8.411  1.00  0.00    -0.550 OA
ENDBRANCH   9  10
ENDBRANCH   8   9
ENDBRANCH   7   8
ENDBRANCH   6   7
ENDBRANCH   5   6
ENDBRANCH   4   5
ENDBRANCH   3   4
ENDBRANCH   1   3
BRANCH   2  13
ATOM     13  C   UNL     1     -24.820 -14.489   8.439  1.00  0.00     0.027 C 
BRANCH  13  14
ATOM     14  C   UNL     1     -23.455 -14.963   8.964  1.00  0.00     0.004 C 
BRANCH  14  15
ATOM     15  C   UNL     1     -23.039 -14.300  10.291  1.00  0.00     0.000 C 
BRANCH  15  16
ATOM     16  C   UNL     1     -23.853 -13.030  10.629  1.00  0.00     0.000 C 
BRANCH  16  17
ATOM     17  C   UNL     1     -22.978 -11.798  10.924  1.00  0.00    -0.000 C 
BRANCH  17  18
ATOM     18  C   UNL     1     -21.537 -11.894  10.393  1.00  0.00    -0.000 C 
BRANCH  18  19
ATOM     19  C   UNL     1     -21.166 -10.724   9.469  1.00  0.00    -0.003 C 
ATOM     20  C   UNL     1     -19.665 -10.453   9.502  1.00  0.00     0.004 C 
ENDBRANCH  18  19
ENDBRANCH  17  18
ENDBRANCH  16  17
ENDBRANCH  15  16
ENDBRANCH  14  15
ENDBRANCH  13  14
ENDBRANCH   2  13
TORSDOF 15
ENDMDL
MODEL 9
REMARK VINA RESULT:    -4.267      2.983      6.472
REMARK INTER + INTRA:          -9.680
REMARK INTER:                  -8.170
REMARK INTRA:                  -1.510
REMARK UNBOUND:                -1.671
REMARK SMILES CCCCCCCCC=CCCCCCCCC(=O)[O-]
REMARK SMILES IDX 10 1 9 2 11 3 12 4 13 5 14 6 15 7 16 8 17 9 18 10 19 11
REMARK SMILES IDX 20 12 8 13 7 14 6 15 5 16 4 17 3 18 2 19 1 20
REMARK H PARENT
REMARK Flexibility Score: inf
ROOT
ATOM      1  C   UNL     1     -24.241 -11.258   9.558  1.00  0.00    -0.031 C 
ATOM      2  C   UNL     1     -22.935 -11.512   9.719  1.00  0.00    -0.031 C 
ENDROOT
BRANCH   1   3
ATOM      3  C   UNL     1     -24.743 -10.324   8.489  1.00  0.00     0.027 C 
BRANCH   3   4
ATOM      4  C   UNL     1     -24.255 -10.743   7.090  1.00  0.00     0.004 C 
BRANCH   4   5
ATOM      5  C   UNL     1     -23.750  -9.570   6.228  1.00  0.00     0.000 C 
BRANCH   5   6
ATOM      6  C   UNL     1     -22.350  -9.037   6.591  1.00  0.00     0.000 C 
BRANCH   6   7
ATOM      7  C   UNL     1     -22.332  -7.652   7.263  1.00  0.00     0.000 C 
BRANCH   7   8
ATOM      8  C   UNL     1     -23.240  -7.575   8.499  1.00  0.00     0.006 C 
BRANCH   8   9
ATOM      9  C   UNL     1     -24.029  -6.264   8.517  1.00  0.00     0.053 C 
BRANCH   9  10
ATOM     10  C   UNL     1     -25.449  -6.511   8.918  1.00  0.00     0.041 C 
ATOM     11  O   UNL     1     -26.161  -7.319   8.266  1.00  0.00    -0.550 OA
ATOM     12  O   UNL     1     -25.975  -5.880  10.039  1.00  0.00    -0.550 OA
ENDBRANCH   9  10
ENDBRANCH   8   9
ENDBRANCH   7   8
ENDBRANCH   6   7
ENDBRANCH   5   6
ENDBRANCH   4   5
ENDBRANCH   3   4
ENDBRANCH   1   3
BRANCH   2  13
ATOM     13  C   UNL     1     -22.443 -12.481  10.760  1.00  0.00     0.027 C 
BRANCH  13  14
ATOM     14  C   UNL     1     -23.232 -13.799  10.726  1.00  0.00     0.004 C 
BRANCH  14  15
ATOM     15  C   UNL     1     -23.040 -14.601   9.424  1.00  0.00     0.000 C 
BRANCH  15  16
ATOM     16  C   UNL     1     -24.369 -14.974   8.727  1.00  0.00     0.000 C 
BRANCH  16  17
ATOM     17  C   UNL     1     -24.556 -14.301   7.355  1.00  0.00    -0.000 C 
BRANCH  17  18
ATOM     18  C   UNL     1     -25.396 -15.111   6.353  1.00  0.00    -0.000 C 
BRANCH  18  19
ATOM     19  C   UNL     1     -25.022 -14.818   4.892  1.00  0.00    -0.003 C 
ATOM     20  C   UNL     1     -24.546 -13.378   4.726  1.00  0.00     0.004 C 
ENDBRANCH  18  19
ENDBRANCH  17  18
ENDBRANCH  16  17
ENDBRANCH  15  16
ENDBRANCH  14  15
ENDBRANCH  13  14
ENDBRANCH   2  13
TORSDOF 15
ENDMDL
