MODEL 1
REMARK VINA RESULT:    -5.557      0.000      0.000
REMARK INTER + INTRA:          -5.882
REMARK INTER:                  -5.882
REMARK INTRA:                   0.000
REMARK UNBOUND:                 0.000
REMARK SMILES O=c1ccc2cc(O)c(O)cc2o1
REMARK SMILES IDX 4 1 3 2 2 3 1 4 13 5 12 6 11 7 9 8 7 9 6 10 5 11 8 12 10 14
REMARK H PARENT 8 13 10 15
REMARK Flexibility Score: inf
ROOT
ATOM      1  C   UNL     1       4.237  24.946  11.719  1.00  0.00     0.019 A 
ATOM      2  C   UNL     1       3.963  23.641  12.127  1.00  0.00     0.094 A 
ATOM      3  C   UNL     1       4.403  23.218  13.387  1.00  0.00     0.336 A 
ATOM      4  O   UNL     1       4.167  22.044  13.773  1.00  0.00    -0.246 OA
ATOM      5  O   UNL     1       5.072  24.051  14.181  1.00  0.00    -0.423 OA
ATOM      6  C   UNL     1       5.353  25.304  13.830  1.00  0.00     0.142 A 
ATOM      7  C   UNL     1       6.058  26.133  14.706  1.00  0.00     0.098 A 
ATOM      8  C   UNL     1       6.358  27.452  14.346  1.00  0.00     0.161 A 
ATOM      9  C   UNL     1       5.948  27.948  13.094  1.00  0.00     0.158 A 
ATOM     10  C   UNL     1       5.240  27.119  12.211  1.00  0.00     0.062 A 
ATOM     11  C   UNL     1       4.941  25.799  12.574  1.00  0.00     0.022 A 
ENDROOT
BRANCH   9  12
ATOM     12  O   UNL     1       6.247  29.261  12.733  1.00  0.00    -0.504 OA
ATOM     13  H   UNL     1       5.531  29.895  12.398  1.00  0.00     0.293 HD
ENDBRANCH   9  12
BRANCH   8  14
ATOM     14  O   UNL     1       7.064  28.254  15.242  1.00  0.00    -0.504 OA
ATOM     15  H   UNL     1       6.629  28.652  16.065  1.00  0.00     0.293 HD
ENDBRANCH   8  14
TORSDOF 2
ENDMDL
MODEL 2
REMARK VINA RESULT:    -5.313      1.720      4.895
REMARK INTER + INTRA:          -5.624
REMARK INTER:                  -5.624
REMARK INTRA:                   0.000
REMARK UNBOUND:                 0.000
REMARK SMILES O=c1ccc2cc(O)c(O)cc2o1
REMARK SMILES IDX 4 1 3 2 2 3 1 4 13 5 12 6 11 7 9 8 7 9 6 10 5 11 8 12 10 14
REMARK H PARENT 8 13 10 15
REMARK Flexibility Score: inf
ROOT
ATOM      1  C   UNL     1       5.981  25.939  14.771  1.00  0.00     0.019 A 
ATOM      2  C   UNL     1       6.457  27.214  15.074  1.00  0.00     0.094 A 
ATOM      3  C   UNL     1       6.292  28.239  14.137  1.00  0.00     0.336 A 
ATOM      4  O   UNL     1       6.715  29.397  14.391  1.00  0.00    -0.246 OA
ATOM      5  O   UNL     1       5.689  27.999  12.975  1.00  0.00    -0.423 OA
ATOM      6  C   UNL     1       5.220  26.797  12.647  1.00  0.00     0.142 A 
ATOM      7  C   UNL     1       4.595  26.604  11.411  1.00  0.00     0.098 A 
ATOM      8  C   UNL     1       4.099  25.344  11.058  1.00  0.00     0.161 A 
ATOM      9  C   UNL     1       4.229  24.263  11.951  1.00  0.00     0.158 A 
ATOM     10  C   UNL     1       4.855  24.453  13.192  1.00  0.00     0.062 A 
ATOM     11  C   UNL     1       5.351  25.715  13.543  1.00  0.00     0.022 A 
ENDROOT
BRANCH   9  12
ATOM     12  O   UNL     1       3.735  23.008  11.600  1.00  0.00    -0.504 OA
ATOM     13  H   UNL     1       3.714  22.696  10.636  1.00  0.00     0.293 HD
ENDBRANCH   9  12
BRANCH   8  14
ATOM     14  O   UNL     1       3.482  25.184   9.818  1.00  0.00    -0.504 OA
ATOM     15  H   UNL     1       3.999  25.231   8.949  1.00  0.00     0.293 HD
ENDBRANCH   8  14
TORSDOF 2
ENDMDL
MODEL 3
REMARK VINA RESULT:    -5.202      2.990      4.011
REMARK INTER + INTRA:          -5.506
REMARK INTER:                  -5.506
REMARK INTRA:                   0.000
REMARK UNBOUND:                 0.000
REMARK SMILES O=c1ccc2cc(O)c(O)cc2o1
REMARK SMILES IDX 4 1 3 2 2 3 1 4 13 5 12 6 11 7 9 8 7 9 6 10 5 11 8 12 10 14
REMARK H PARENT 8 13 10 15
REMARK Flexibility Score: inf
ROOT
ATOM      1  C   UNL     1       9.225  26.445  13.789  1.00  0.00     0.019 A 
ATOM      2  C   UNL     1       8.755  25.595  12.789  1.00  0.00     0.094 A 
ATOM      3  C   UNL     1       7.437  25.740  12.341  1.00  0.00     0.336 A 
ATOM      4  O   UNL     1       6.994  24.982  11.439  1.00  0.00    -0.246 OA
ATOM      5  O   UNL     1       6.648  26.676  12.862  1.00  0.00    -0.423 OA
ATOM      6  C   UNL     1       7.057  27.508  13.817  1.00  0.00     0.142 A 
ATOM      7  C   UNL     1       6.183  28.471  14.327  1.00  0.00     0.098 A 
ATOM      8  C   UNL     1       6.605  29.350  15.331  1.00  0.00     0.161 A 
ATOM      9  C   UNL     1       7.918  29.264  15.832  1.00  0.00     0.158 A 
ATOM     10  C   UNL     1       8.799  28.298  15.323  1.00  0.00     0.062 A 
ATOM     11  C   UNL     1       8.374  27.420  14.318  1.00  0.00     0.022 A 
ENDROOT
BRANCH   9  12
ATOM     12  O   UNL     1       8.340  30.138  16.833  1.00  0.00    -0.504 OA
ATOM     13  H   UNL     1       8.994  29.847  17.551  1.00  0.00     0.293 HD
ENDBRANCH   9  12
BRANCH   8  14
ATOM     14  O   UNL     1       5.709  30.300  15.819  1.00  0.00    -0.504 OA
ATOM     15  H   UNL     1       5.739  31.269  15.525  1.00  0.00     0.293 HD
ENDBRANCH   8  14
TORSDOF 2
ENDMDL
MODEL 4
REMARK VINA RESULT:    -5.193      2.903      3.649
REMARK INTER + INTRA:          -5.496
REMARK INTER:                  -5.496
REMARK INTRA:                   0.000
REMARK UNBOUND:                 0.000
REMARK SMILES O=c1ccc2cc(O)c(O)cc2o1
REMARK SMILES IDX 4 1 3 2 2 3 1 4 13 5 12 6 11 7 9 8 7 9 6 10 5 11 8 12 10 14
REMARK H PARENT 8 13 10 15
REMARK Flexibility Score: inf
ROOT
ATOM      1  C   UNL     1       5.832  27.079  13.137  1.00  0.00     0.019 A 
ATOM      2  C   UNL     1       6.526  26.037  12.524  1.00  0.00     0.094 A 
ATOM      3  C   UNL     1       7.867  25.824  12.863  1.00  0.00     0.336 A 
ATOM      4  O   UNL     1       8.511  24.889  12.320  1.00  0.00    -0.246 OA
ATOM      5  O   UNL     1       8.468  26.605  13.756  1.00  0.00    -0.423 OA
ATOM      6  C   UNL     1       7.842  27.610  14.365  1.00  0.00     0.142 A 
ATOM      7  C   UNL     1       8.525  28.398  15.296  1.00  0.00     0.098 A 
ATOM      8  C   UNL     1       7.875  29.457  15.940  1.00  0.00     0.161 A 
ATOM      9  C   UNL     1       6.525  29.732  15.650  1.00  0.00     0.158 A 
ATOM     10  C   UNL     1       5.835  28.944  14.716  1.00  0.00     0.062 A 
ATOM     11  C   UNL     1       6.489  27.885  14.073  1.00  0.00     0.022 A 
ENDROOT
BRANCH   9  12
ATOM     12  O   UNL     1       5.875  30.786  16.291  1.00  0.00    -0.504 OA
ATOM     13  H   UNL     1       6.383  31.456  16.856  1.00  0.00     0.293 HD
ENDBRANCH   9  12
BRANCH   8  14
ATOM     14  O   UNL     1       8.583  30.224  16.863  1.00  0.00    -0.504 OA
ATOM     15  H   UNL     1       8.211  30.445  17.779  1.00  0.00     0.293 HD
ENDBRANCH   8  14
TORSDOF 2
ENDMDL
MODEL 5
REMARK VINA RESULT:    -5.154      1.052      2.231
REMARK INTER + INTRA:          -5.455
REMARK INTER:                  -5.455
REMARK INTRA:                   0.000
REMARK UNBOUND:                 0.000
REMARK SMILES O=c1ccc2cc(O)c(O)cc2o1
REMARK SMILES IDX 4 1 3 2 2 3 1 4 13 5 12 6 11 7 9 8 7 9 6 10 5 11 8 12 10 14
REMARK H PARENT 8 13 10 15
REMARK Flexibility Score: inf
ROOT
ATOM      1  C   UNL     1       5.726  24.124  14.573  1.00  0.00     0.019 A 
ATOM      2  C   UNL     1       4.860  23.242  13.927  1.00  0.00     0.094 A 
ATOM      3  C   UNL     1       4.150  23.690  12.806  1.00  0.00     0.336 A 
ATOM      4  O   UNL     1       3.364  22.910  12.209  1.00  0.00    -0.246 OA
ATOM      5  O   UNL     1       4.301  24.937  12.367  1.00  0.00    -0.423 OA
ATOM      6  C   UNL     1       5.117  25.809  12.955  1.00  0.00     0.142 A 
ATOM      7  C   UNL     1       5.235  27.106  12.449  1.00  0.00     0.098 A 
ATOM      8  C   UNL     1       6.091  28.030  13.060  1.00  0.00     0.161 A 
ATOM      9  C   UNL     1       6.838  27.652  14.192  1.00  0.00     0.158 A 
ATOM     10  C   UNL     1       6.722  26.351  14.704  1.00  0.00     0.062 A 
ATOM     11  C   UNL     1       5.865  25.428  14.090  1.00  0.00     0.022 A 
ENDROOT
BRANCH   9  12
ATOM     12  O   UNL     1       7.690  28.571  14.803  1.00  0.00    -0.504 OA
ATOM     13  H   UNL     1       8.623  28.311  15.103  1.00  0.00     0.293 HD
ENDBRANCH   9  12
BRANCH   8  14
ATOM     14  O   UNL     1       6.186  29.316  12.532  1.00  0.00    -0.504 OA
ATOM     15  H   UNL     1       6.521  30.100  13.079  1.00  0.00     0.293 HD
ENDBRANCH   8  14
TORSDOF 2
ENDMDL
MODEL 6
REMARK VINA RESULT:    -5.117      2.409      2.993
REMARK INTER + INTRA:          -5.416
REMARK INTER:                  -5.416
REMARK INTRA:                   0.000
REMARK UNBOUND:                 0.000
REMARK SMILES O=c1ccc2cc(O)c(O)cc2o1
REMARK SMILES IDX 4 1 3 2 2 3 1 4 13 5 12 6 11 7 9 8 7 9 6 10 5 11 8 12 10 14
REMARK H PARENT 8 13 10 15
REMARK Flexibility Score: inf
ROOT
ATOM      1  C   UNL     1       6.667  24.830  12.216  1.00  0.00     0.019 A 
ATOM      2  C   UNL     1       5.704  24.687  11.218  1.00  0.00     0.094 A 
ATOM      3  C   UNL     1       4.844  25.758  10.947  1.00  0.00     0.336 A 
ATOM      4  O   UNL     1       3.969  25.648  10.051  1.00  0.00    -0.246 OA
ATOM      5  O   UNL     1       4.946  26.893  11.634  1.00  0.00    -0.423 OA
ATOM      6  C   UNL     1       5.851  27.071  12.594  1.00  0.00     0.142 A 
ATOM      7  C   UNL     1       5.911  28.286  13.282  1.00  0.00     0.098 A 
ATOM      8  C   UNL     1       6.860  28.481  14.293  1.00  0.00     0.161 A 
ATOM      9  C   UNL     1       7.759  27.449  14.620  1.00  0.00     0.158 A 
ATOM     10  C   UNL     1       7.702  26.227  13.933  1.00  0.00     0.062 A 
ATOM     11  C   UNL     1       6.752  26.034  12.922  1.00  0.00     0.022 A 
ENDROOT
BRANCH   9  12
ATOM     12  O   UNL     1       8.703  27.642  15.627  1.00  0.00    -0.504 OA
ATOM     13  H   UNL     1       8.597  27.220  16.542  1.00  0.00     0.293 HD
ENDBRANCH   9  12
BRANCH   8  14
ATOM     14  O   UNL     1       6.894  29.705  14.960  1.00  0.00    -0.504 OA
ATOM     15  H   UNL     1       6.873  29.768  15.970  1.00  0.00     0.293 HD
ENDBRANCH   8  14
TORSDOF 2
ENDMDL
MODEL 7
REMARK VINA RESULT:    -5.039      1.699      1.801
REMARK INTER + INTRA:          -5.334
REMARK INTER:                  -5.334
REMARK INTRA:                   0.000
REMARK UNBOUND:                 0.000
REMARK SMILES O=c1ccc2cc(O)c(O)cc2o1
REMARK SMILES IDX 4 1 3 2 2 3 1 4 13 5 12 6 11 7 9 8 7 9 6 10 5 11 8 12 10 14
REMARK H PARENT 8 13 10 15
REMARK Flexibility Score: inf
ROOT
ATOM      1  C   UNL     1       4.896  26.197  11.632  1.00  0.00     0.019 A 
ATOM      2  C   UNL     1       4.976  24.870  11.212  1.00  0.00     0.094 A 
ATOM      3  C   UNL     1       5.923  24.028  11.805  1.00  0.00     0.336 A 
ATOM      4  O   UNL     1       6.011  22.827  11.439  1.00  0.00    -0.246 OA
ATOM      5  O   UNL     1       6.733  24.489  12.755  1.00  0.00    -0.423 OA
ATOM      6  C   UNL     1       6.688  25.748  13.185  1.00  0.00     0.142 A 
ATOM      7  C   UNL     1       7.564  26.175  14.187  1.00  0.00     0.098 A 
ATOM      8  C   UNL     1       7.525  27.497  14.645  1.00  0.00     0.161 A 
ATOM      9  C   UNL     1       6.598  28.403  14.095  1.00  0.00     0.158 A 
ATOM     10  C   UNL     1       5.717  27.978  13.090  1.00  0.00     0.062 A 
ATOM     11  C   UNL     1       5.759  26.655  12.633  1.00  0.00     0.022 A 
ENDROOT
BRANCH   9  12
ATOM     12  O   UNL     1       6.558  29.720  14.550  1.00  0.00    -0.504 OA
ATOM     13  H   UNL     1       5.683  30.171  14.793  1.00  0.00     0.293 HD
ENDBRANCH   9  12
BRANCH   8  14
ATOM     14  O   UNL     1       8.412  27.893  15.645  1.00  0.00    -0.504 OA
ATOM     15  H   UNL     1       9.416  27.847  15.523  1.00  0.00     0.293 HD
ENDBRANCH   8  14
TORSDOF 2
ENDMDL
MODEL 8
REMARK VINA RESULT:    -5.014      1.943      4.511
REMARK INTER + INTRA:          -5.308
REMARK INTER:                  -5.308
REMARK INTRA:                   0.000
REMARK UNBOUND:                 0.000
REMARK SMILES O=c1ccc2cc(O)c(O)cc2o1
REMARK SMILES IDX 4 1 3 2 2 3 1 4 13 5 12 6 11 7 9 8 7 9 6 10 5 11 8 12 10 14
REMARK H PARENT 8 13 10 15
REMARK Flexibility Score: inf
ROOT
ATOM      1  C   UNL     1       5.944  28.259  12.986  1.00  0.00     0.019 A 
ATOM      2  C   UNL     1       6.910  28.522  13.957  1.00  0.00     0.094 A 
ATOM      3  C   UNL     1       7.657  27.458  14.475  1.00  0.00     0.336 A 
ATOM      4  O   UNL     1       8.532  27.674  15.352  1.00  0.00    -0.246 OA
ATOM      5  O   UNL     1       7.447  26.216  14.045  1.00  0.00    -0.423 OA
ATOM      6  C   UNL     1       6.537  25.922  13.120  1.00  0.00     0.142 A 
ATOM      7  C   UNL     1       6.361  24.599  12.707  1.00  0.00     0.098 A 
ATOM      8  C   UNL     1       5.405  24.281  11.735  1.00  0.00     0.161 A 
ATOM      9  C   UNL     1       4.616  25.299  11.168  1.00  0.00     0.158 A 
ATOM     10  C   UNL     1       4.789  26.629  11.579  1.00  0.00     0.062 A 
ATOM     11  C   UNL     1       5.745  26.944  12.553  1.00  0.00     0.022 A 
ENDROOT
BRANCH   9  12
ATOM     12  O   UNL     1       3.663  24.984  10.200  1.00  0.00    -0.504 OA
ATOM     13  H   UNL     1       2.672  24.994  10.408  1.00  0.00     0.293 HD
ENDBRANCH   9  12
BRANCH   8  14
ATOM     14  O   UNL     1       5.254  22.951  11.345  1.00  0.00    -0.504 OA
ATOM     15  H   UNL     1       5.825  22.209  11.730  1.00  0.00     0.293 HD
ENDBRANCH   8  14
TORSDOF 2
ENDMDL
MODEL 9
REMARK VINA RESULT:    -4.840     19.102     21.034
REMARK INTER + INTRA:          -5.123
REMARK INTER:                  -5.123
REMARK INTRA:                   0.000
REMARK UNBOUND:                 0.000
REMARK SMILES O=c1ccc2cc(O)c(O)cc2o1
REMARK SMILES IDX 4 1 3 2 2 3 1 4 13 5 12 6 11 7 9 8 7 9 6 10 5 11 8 12 10 14
REMARK H PARENT 8 13 10 15
REMARK Flexibility Score: inf
ROOT
ATOM      1  C   UNL     1      -0.345  41.015   1.322  1.00  0.00     0.019 A 
ATOM      2  C   UNL     1       0.129  41.583   0.140  1.00  0.00     0.094 A 
ATOM      3  C   UNL     1      -0.625  41.439  -1.030  1.00  0.00     0.336 A 
ATOM      4  O   UNL     1      -0.214  41.943  -2.107  1.00  0.00    -0.246 OA
ATOM      5  O   UNL     1      -1.775  40.771  -1.012  1.00  0.00    -0.423 OA
ATOM      6  C   UNL     1      -2.263  40.215   0.095  1.00  0.00     0.142 A 
ATOM      7  C   UNL     1      -3.478  39.525   0.054  1.00  0.00     0.098 A 
ATOM      8  C   UNL     1      -3.999  38.937   1.212  1.00  0.00     0.161 A 
ATOM      9  C   UNL     1      -3.296  39.041   2.428  1.00  0.00     0.158 A 
ATOM     10  C   UNL     1      -2.076  39.732   2.474  1.00  0.00     0.062 A 
ATOM     11  C   UNL     1      -1.557  40.319   1.312  1.00  0.00     0.022 A 
ENDROOT
BRANCH   9  12
ATOM     12  O   UNL     1      -3.812  38.456   3.583  1.00  0.00    -0.504 OA
ATOM     13  H   UNL     1      -3.216  37.974   4.246  1.00  0.00     0.293 HD
ENDBRANCH   9  12
BRANCH   8  14
ATOM     14  O   UNL     1      -5.212  38.256   1.138  1.00  0.00    -0.504 OA
ATOM     15  H   UNL     1      -5.524  37.630   1.871  1.00  0.00     0.293 HD
ENDBRANCH   8  14
TORSDOF 2
ENDMDL
