MODEL 1
REMARK VINA RESULT:    -3.909      0.000      0.000
REMARK INTER + INTRA:          -5.397
REMARK INTER:                  -5.051
REMARK INTRA:                  -0.346
REMARK UNBOUND:                -0.346
REMARK SMILES CCOC(=O)C=Cc1ccc(O)c(O)c1
REMARK SMILES IDX 6 1 7 2 4 3 5 4 3 5 2 6 1 7 8 8 15 9 9 10 13 11 10 12 11 13
REMARK SMILES IDX 14 14 12 16
REMARK H PARENT 14 15 12 17
REMARK Flexibility Score: inf
ROOT
ATOM      1  C   UNL     1       7.404 -21.246 -17.496  1.00  0.00     0.094 C 
ATOM      2  C   UNL     1       8.523 -21.617 -18.133  1.00  0.00     0.016 C 
ENDROOT
BRANCH   1   3
ATOM      3  C   UNL     1       7.374 -21.019 -16.043  1.00  0.00     0.330 C 
ATOM      4  O   UNL     1       6.350 -20.499 -15.525  1.00  0.00    -0.247 OA
BRANCH   3   5
ATOM      5  O   UNL     1       8.472 -21.370 -15.246  1.00  0.00    -0.463 OA
BRANCH   5   6
ATOM      6  C   UNL     1       9.237 -20.424 -14.501  1.00  0.00     0.230 C 
ATOM      7  C   UNL     1      10.669 -20.364 -15.018  1.00  0.00     0.049 C 
ENDBRANCH   5   6
ENDBRANCH   3   5
ENDBRANCH   1   3
BRANCH   2   8
ATOM      8  C   UNL     1       8.603 -21.846 -19.597  1.00  0.00    -0.021 A 
ATOM      9  C   UNL     1       9.353 -20.951 -20.378  1.00  0.00     0.058 A 
ATOM     10  C   UNL     1       7.986 -22.946 -20.226  1.00  0.00     0.012 A 
ATOM     11  C   UNL     1       9.467 -21.129 -21.761  1.00  0.00     0.157 A 
ATOM     12  C   UNL     1       8.100 -23.125 -21.606  1.00  0.00     0.051 A 
ATOM     13  C   UNL     1       8.836 -22.220 -22.380  1.00  0.00     0.157 A 
BRANCH  11  14
ATOM     14  O   UNL     1      10.213 -20.212 -22.503  1.00  0.00    -0.504 OA
ATOM     15  H   UNL     1       9.784 -19.425 -22.973  1.00  0.00     0.293 HD
ENDBRANCH  11  14
BRANCH  13  16
ATOM     16  O   UNL     1       8.945 -22.401 -23.759  1.00  0.00    -0.504 OA
ATOM     17  H   UNL     1       9.688 -21.968 -24.295  1.00  0.00     0.293 HD
ENDBRANCH  13  16
ENDBRANCH   2   8
TORSDOF 6
ENDMDL
MODEL 2
REMARK VINA RESULT:    -3.789      1.439      1.654
REMARK INTER + INTRA:          -5.242
REMARK INTER:                  -4.894
REMARK INTRA:                  -0.348
REMARK UNBOUND:                -0.346
REMARK SMILES CCOC(=O)C=Cc1ccc(O)c(O)c1
REMARK SMILES IDX 6 1 7 2 4 3 5 4 3 5 2 6 1 7 8 8 15 9 9 10 13 11 10 12 11 13
REMARK SMILES IDX 14 14 12 16
REMARK H PARENT 14 15 12 17
REMARK Flexibility Score: inf
ROOT
ATOM      1  C   UNL     1       8.178 -21.761 -17.612  1.00  0.00     0.094 C 
ATOM      2  C   UNL     1       9.394 -22.045 -18.099  1.00  0.00     0.016 C 
ENDROOT
BRANCH   1   3
ATOM      3  C   UNL     1       7.851 -21.931 -16.189  1.00  0.00     0.330 C 
ATOM      4  O   UNL     1       7.436 -23.050 -15.784  1.00  0.00    -0.247 OA
BRANCH   3   5
ATOM      5  O   UNL     1       7.991 -20.861 -15.294  1.00  0.00    -0.463 OA
BRANCH   5   6
ATOM      6  C   UNL     1       8.903 -20.867 -14.198  1.00  0.00     0.230 C 
ATOM      7  C   UNL     1      10.208 -20.177 -14.580  1.00  0.00     0.049 C 
ENDBRANCH   5   6
ENDBRANCH   3   5
ENDBRANCH   1   3
BRANCH   2   8
ATOM      8  C   UNL     1       9.772 -21.879 -19.524  1.00  0.00    -0.021 A 
ATOM      9  C   UNL     1       9.136 -20.877 -20.277  1.00  0.00     0.058 A 
ATOM     10  C   UNL     1      10.767 -22.664 -20.141  1.00  0.00     0.012 A 
ATOM     11  C   UNL     1       9.464 -20.674 -21.622  1.00  0.00     0.157 A 
ATOM     12  C   UNL     1      11.096 -22.461 -21.483  1.00  0.00     0.051 A 
ATOM     13  C   UNL     1      10.447 -21.471 -22.230  1.00  0.00     0.157 A 
BRANCH  11  14
ATOM     14  O   UNL     1       8.803 -19.675 -22.337  1.00  0.00    -0.504 OA
ATOM     15  H   UNL     1       7.822 -19.470 -22.194  1.00  0.00     0.293 HD
ENDBRANCH  11  14
BRANCH  13  16
ATOM     16  O   UNL     1      10.777 -21.275 -23.571  1.00  0.00    -0.504 OA
ATOM     17  H   UNL     1      10.230 -20.666 -24.169  1.00  0.00     0.293 HD
ENDBRANCH  13  16
ENDBRANCH   2   8
TORSDOF 6
ENDMDL
MODEL 3
REMARK VINA RESULT:    -3.381      1.786      2.612
REMARK INTER + INTRA:          -4.716
REMARK INTER:                  -4.394
REMARK INTRA:                  -0.321
REMARK UNBOUND:                -0.346
REMARK SMILES CCOC(=O)C=Cc1ccc(O)c(O)c1
REMARK SMILES IDX 6 1 7 2 4 3 5 4 3 5 2 6 1 7 8 8 15 9 9 10 13 11 10 12 11 13
REMARK SMILES IDX 14 14 12 16
REMARK H PARENT 14 15 12 17
REMARK Flexibility Score: inf
ROOT
ATOM      1  C   UNL     1       8.214 -21.606 -17.616  1.00  0.00     0.094 C 
ATOM      2  C   UNL     1       9.327 -22.133 -18.145  1.00  0.00     0.016 C 
ENDROOT
BRANCH   1   3
ATOM      3  C   UNL     1       7.859 -21.796 -16.201  1.00  0.00     0.330 C 
ATOM      4  O   UNL     1       8.357 -21.026 -15.336  1.00  0.00    -0.247 OA
BRANCH   3   5
ATOM      5  O   UNL     1       6.986 -22.823 -15.819  1.00  0.00    -0.463 OA
BRANCH   5   6
ATOM      6  C   UNL     1       5.776 -23.125 -16.511  1.00  0.00     0.230 C 
ATOM      7  C   UNL     1       4.754 -22.011 -16.320  1.00  0.00     0.049 C 
ENDBRANCH   5   6
ENDBRANCH   3   5
ENDBRANCH   1   3
BRANCH   2   8
ATOM      8  C   UNL     1       9.730 -21.960 -19.562  1.00  0.00    -0.021 A 
ATOM      9  C   UNL     1       9.124 -20.938 -20.313  1.00  0.00     0.058 A 
ATOM     10  C   UNL     1      10.719 -22.757 -20.172  1.00  0.00     0.012 A 
ATOM     11  C   UNL     1       9.476 -20.727 -21.651  1.00  0.00     0.157 A 
ATOM     12  C   UNL     1      11.072 -22.546 -21.507  1.00  0.00     0.051 A 
ATOM     13  C   UNL     1      10.453 -21.536 -22.253  1.00  0.00     0.157 A 
BRANCH  11  14
ATOM     14  O   UNL     1       8.845 -19.708 -22.365  1.00  0.00    -0.504 OA
ATOM     15  H   UNL     1       7.849 -19.540 -22.297  1.00  0.00     0.293 HD
ENDBRANCH  11  14
BRANCH  13  16
ATOM     16  O   UNL     1      10.807 -21.332 -23.586  1.00  0.00    -0.504 OA
ATOM     17  H   UNL     1      10.129 -21.028 -24.275  1.00  0.00     0.293 HD
ENDBRANCH  13  16
ENDBRANCH   2   8
TORSDOF 6
ENDMDL
MODEL 4
REMARK VINA RESULT:    -2.933      2.324      6.454
REMARK INTER + INTRA:          -4.136
REMARK INTER:                  -4.042
REMARK INTRA:                  -0.094
REMARK UNBOUND:                -0.346
REMARK SMILES CCOC(=O)C=Cc1ccc(O)c(O)c1
REMARK SMILES IDX 6 1 7 2 4 3 5 4 3 5 2 6 1 7 8 8 15 9 9 10 13 11 10 12 11 13
REMARK SMILES IDX 14 14 12 16
REMARK H PARENT 14 15 12 17
REMARK Flexibility Score: inf
ROOT
ATOM      1  C   UNL     1       8.502 -21.588 -19.395  1.00  0.00     0.094 C 
ATOM      2  C   UNL     1       8.173 -22.266 -18.287  1.00  0.00     0.016 C 
ENDROOT
BRANCH   1   3
ATOM      3  C   UNL     1       9.574 -22.040 -20.294  1.00  0.00     0.330 C 
ATOM      4  O   UNL     1       9.427 -23.118 -20.931  1.00  0.00    -0.247 OA
BRANCH   3   5
ATOM      5  O   UNL     1      10.748 -21.287 -20.436  1.00  0.00    -0.463 OA
BRANCH   5   6
ATOM      6  C   UNL     1      11.086 -20.574 -21.624  1.00  0.00     0.230 C 
ATOM      7  C   UNL     1       9.852 -20.362 -22.494  1.00  0.00     0.049 C 
ENDBRANCH   5   6
ENDBRANCH   3   5
ENDBRANCH   1   3
BRANCH   2   8
ATOM      8  C   UNL     1       7.093 -21.853 -17.357  1.00  0.00    -0.021 A 
ATOM      9  C   UNL     1       5.939 -22.650 -17.270  1.00  0.00     0.058 A 
ATOM     10  C   UNL     1       7.196 -20.714 -16.534  1.00  0.00     0.012 A 
ATOM     11  C   UNL     1       4.896 -22.310 -16.401  1.00  0.00     0.157 A 
ATOM     12  C   UNL     1       6.156 -20.374 -15.665  1.00  0.00     0.051 A 
ATOM     13  C   UNL     1       5.003 -21.165 -15.596  1.00  0.00     0.157 A 
BRANCH  11  14
ATOM     14  O   UNL     1       3.763 -23.123 -16.352  1.00  0.00    -0.504 OA
ATOM     15  H   UNL     1       3.823 -24.132 -16.407  1.00  0.00     0.293 HD
ENDBRANCH  11  14
BRANCH  13  16
ATOM     16  O   UNL     1       3.966 -20.819 -14.729  1.00  0.00    -0.504 OA
ATOM     17  H   UNL     1       4.120 -20.709 -13.734  1.00  0.00     0.293 HD
ENDBRANCH  13  16
ENDBRANCH   2   8
TORSDOF 6
ENDMDL
MODEL 5
REMARK VINA RESULT:    -2.493     13.264     15.576
REMARK INTER + INTRA:          -3.568
REMARK INTER:                  -3.466
REMARK INTRA:                  -0.102
REMARK UNBOUND:                -0.346
REMARK SMILES CCOC(=O)C=Cc1ccc(O)c(O)c1
REMARK SMILES IDX 6 1 7 2 4 3 5 4 3 5 2 6 1 7 8 8 15 9 9 10 13 11 10 12 11 13
REMARK SMILES IDX 14 14 12 16
REMARK H PARENT 14 15 12 17
REMARK Flexibility Score: inf
ROOT
ATOM      1  C   UNL     1      -6.925 -21.680 -12.680  1.00  0.00     0.094 C 
ATOM      2  C   UNL     1      -6.232 -22.798 -12.939  1.00  0.00     0.016 C 
ENDROOT
BRANCH   1   3
ATOM      3  C   UNL     1      -8.211 -21.709 -11.968  1.00  0.00     0.330 C 
ATOM      4  O   UNL     1      -8.595 -22.786 -11.438  1.00  0.00    -0.247 OA
BRANCH   3   5
ATOM      5  O   UNL     1      -9.004 -20.556 -11.885  1.00  0.00    -0.463 OA
BRANCH   5   6
ATOM      6  C   UNL     1      -8.781 -19.390 -12.675  1.00  0.00     0.230 C 
ATOM      7  C   UNL     1      -9.116 -19.659 -14.137  1.00  0.00     0.049 C 
ENDBRANCH   5   6
ENDBRANCH   3   5
ENDBRANCH   1   3
BRANCH   2   8
ATOM      8  C   UNL     1      -4.927 -22.816 -13.645  1.00  0.00    -0.021 A 
ATOM      9  C   UNL     1      -3.754 -22.957 -12.885  1.00  0.00     0.058 A 
ATOM     10  C   UNL     1      -4.823 -22.731 -15.047  1.00  0.00     0.012 A 
ATOM     11  C   UNL     1      -2.499 -22.990 -13.504  1.00  0.00     0.157 A 
ATOM     12  C   UNL     1      -3.571 -22.764 -15.666  1.00  0.00     0.051 A 
ATOM     13  C   UNL     1      -2.405 -22.891 -14.901  1.00  0.00     0.157 A 
BRANCH  11  14
ATOM     14  O   UNL     1      -1.357 -23.123 -12.713  1.00  0.00    -0.504 OA
ATOM     15  H   UNL     1      -1.329 -23.736 -11.908  1.00  0.00     0.293 HD
ENDBRANCH  11  14
BRANCH  13  16
ATOM     16  O   UNL     1      -1.158 -22.920 -15.523  1.00  0.00    -0.504 OA
ATOM     17  H   UNL     1      -0.711 -22.075 -15.858  1.00  0.00     0.293 HD
ENDBRANCH  13  16
ENDBRANCH   2   8
TORSDOF 6
ENDMDL
MODEL 6
REMARK VINA RESULT:    -2.366     13.593     15.872
REMARK INTER + INTRA:          -3.404
REMARK INTER:                  -3.182
REMARK INTRA:                  -0.221
REMARK UNBOUND:                -0.346
REMARK SMILES CCOC(=O)C=Cc1ccc(O)c(O)c1
REMARK SMILES IDX 6 1 7 2 4 3 5 4 3 5 2 6 1 7 8 8 15 9 9 10 13 11 10 12 11 13
REMARK SMILES IDX 14 14 12 16
REMARK H PARENT 14 15 12 17
REMARK Flexibility Score: inf
ROOT
ATOM      1  C   UNL     1      -7.125 -21.341 -12.630  1.00  0.00     0.094 C 
ATOM      2  C   UNL     1      -6.635 -22.502 -13.083  1.00  0.00     0.016 C 
ENDROOT
BRANCH   1   3
ATOM      3  C   UNL     1      -8.467 -21.242 -12.036  1.00  0.00     0.330 C 
ATOM      4  O   UNL     1      -9.014 -20.110 -11.943  1.00  0.00    -0.247 OA
BRANCH   3   5
ATOM      5  O   UNL     1      -9.125 -22.389 -11.571  1.00  0.00    -0.463 OA
BRANCH   5   6
ATOM      6  C   UNL     1      -8.764 -23.071 -10.372  1.00  0.00     0.230 C 
ATOM      7  C   UNL     1      -8.393 -22.076  -9.279  1.00  0.00     0.049 C 
ENDBRANCH   5   6
ENDBRANCH   3   5
ENDBRANCH   1   3
BRANCH   2   8
ATOM      8  C   UNL     1      -5.284 -22.652 -13.680  1.00  0.00    -0.021 A 
ATOM      9  C   UNL     1      -4.184 -22.817 -12.823  1.00  0.00     0.058 A 
ATOM     10  C   UNL     1      -5.069 -22.669 -15.073  1.00  0.00     0.012 A 
ATOM     11  C   UNL     1      -2.891 -22.971 -13.336  1.00  0.00     0.157 A 
ATOM     12  C   UNL     1      -3.780 -22.824 -15.587  1.00  0.00     0.051 A 
ATOM     13  C   UNL     1      -2.686 -22.973 -14.725  1.00  0.00     0.157 A 
BRANCH  11  14
ATOM     14  O   UNL     1      -1.824 -23.123 -12.450  1.00  0.00    -0.504 OA
ATOM     15  H   UNL     1      -1.656 -22.472 -11.693  1.00  0.00     0.293 HD
ENDBRANCH  11  14
BRANCH  13  16
ATOM     16  O   UNL     1      -1.400 -23.124 -15.243  1.00  0.00    -0.504 OA
ATOM     17  H   UNL     1      -0.644 -23.503 -14.685  1.00  0.00     0.293 HD
ENDBRANCH  13  16
ENDBRANCH   2   8
TORSDOF 6
ENDMDL
MODEL 7
REMARK VINA RESULT:    -2.341      1.611      6.355
REMARK INTER + INTRA:          -3.371
REMARK INTER:                  -3.097
REMARK INTRA:                  -0.274
REMARK UNBOUND:                -0.346
REMARK SMILES CCOC(=O)C=Cc1ccc(O)c(O)c1
REMARK SMILES IDX 6 1 7 2 4 3 5 4 3 5 2 6 1 7 8 8 15 9 9 10 13 11 10 12 11 13
REMARK SMILES IDX 14 14 12 16
REMARK H PARENT 14 15 12 17
REMARK Flexibility Score: inf
ROOT
ATOM      1  C   UNL     1       8.923 -22.242 -19.882  1.00  0.00     0.094 C 
ATOM      2  C   UNL     1       8.001 -22.277 -18.911  1.00  0.00     0.016 C 
ENDROOT
BRANCH   1   3
ATOM      3  C   UNL     1       8.658 -22.775 -21.227  1.00  0.00     0.330 C 
ATOM      4  O   UNL     1       7.476 -23.074 -21.545  1.00  0.00    -0.247 OA
BRANCH   3   5
ATOM      5  O   UNL     1       9.706 -22.956 -22.139  1.00  0.00    -0.463 OA
BRANCH   5   6
ATOM      6  C   UNL     1       9.905 -22.127 -23.282  1.00  0.00     0.230 C 
ATOM      7  C   UNL     1      10.703 -20.882 -22.912  1.00  0.00     0.049 C 
ENDBRANCH   5   6
ENDBRANCH   3   5
ENDBRANCH   1   3
BRANCH   2   8
ATOM      8  C   UNL     1       8.221 -21.742 -17.544  1.00  0.00    -0.021 A 
ATOM      9  C   UNL     1       9.540 -21.561 -17.097  1.00  0.00     0.058 A 
ATOM     10  C   UNL     1       7.158 -21.377 -16.693  1.00  0.00     0.012 A 
ATOM     11  C   UNL     1       9.801 -21.051 -15.820  1.00  0.00     0.157 A 
ATOM     12  C   UNL     1       7.417 -20.866 -15.419  1.00  0.00     0.051 A 
ATOM     13  C   UNL     1       8.735 -20.703 -14.975  1.00  0.00     0.157 A 
BRANCH  11  14
ATOM     14  O   UNL     1      11.125 -20.895 -15.410  1.00  0.00    -0.504 OA
ATOM     15  H   UNL     1      11.905 -21.091 -16.024  1.00  0.00     0.293 HD
ENDBRANCH  11  14
BRANCH  13  16
ATOM     16  O   UNL     1       8.988 -20.196 -13.701  1.00  0.00    -0.504 OA
ATOM     17  H   UNL     1       9.649 -19.443 -13.550  1.00  0.00     0.293 HD
ENDBRANCH  13  16
ENDBRANCH   2   8
TORSDOF 6
ENDMDL
MODEL 8
REMARK VINA RESULT:    -2.186     14.930     18.110
REMARK INTER + INTRA:          -3.171
REMARK INTER:                  -2.799
REMARK INTRA:                  -0.372
REMARK UNBOUND:                -0.346
REMARK SMILES CCOC(=O)C=Cc1ccc(O)c(O)c1
REMARK SMILES IDX 6 1 7 2 4 3 5 4 3 5 2 6 1 7 8 8 15 9 9 10 13 11 10 12 11 13
REMARK SMILES IDX 14 14 12 16
REMARK H PARENT 14 15 12 17
REMARK Flexibility Score: inf
ROOT
ATOM      1  C   UNL     1      -5.510 -22.448 -13.443  1.00  0.00     0.094 C 
ATOM      2  C   UNL     1      -6.747 -22.829 -13.099  1.00  0.00     0.016 C 
ENDROOT
BRANCH   1   3
ATOM      3  C   UNL     1      -4.928 -22.782 -14.751  1.00  0.00     0.330 C 
ATOM      4  O   UNL     1      -3.710 -23.102 -14.818  1.00  0.00    -0.247 OA
BRANCH   3   5
ATOM      5  O   UNL     1      -5.714 -22.739 -15.911  1.00  0.00    -0.463 OA
BRANCH   5   6
ATOM      6  C   UNL     1      -6.150 -21.526 -16.521  1.00  0.00     0.230 C 
ATOM      7  C   UNL     1      -7.672 -21.466 -16.572  1.00  0.00     0.049 C 
ENDBRANCH   5   6
ENDBRANCH   3   5
ENDBRANCH   1   3
BRANCH   2   8
ATOM      8  C   UNL     1      -7.379 -22.506 -11.795  1.00  0.00    -0.021 A 
ATOM      9  C   UNL     1      -6.753 -22.947 -10.618  1.00  0.00     0.058 A 
ATOM     10  C   UNL     1      -8.561 -21.746 -11.693  1.00  0.00     0.012 A 
ATOM     11  C   UNL     1      -7.302 -22.661  -9.363  1.00  0.00     0.157 A 
ATOM     12  C   UNL     1      -9.110 -21.458 -10.442  1.00  0.00     0.051 A 
ATOM     13  C   UNL     1      -8.488 -21.914  -9.273  1.00  0.00     0.157 A 
BRANCH  11  14
ATOM     14  O   UNL     1      -6.655 -23.125  -8.218  1.00  0.00    -0.504 OA
ATOM     15  H   UNL     1      -7.000 -22.927  -7.287  1.00  0.00     0.293 HD
ENDBRANCH  11  14
BRANCH  13  16
ATOM     16  O   UNL     1      -9.042 -21.627  -8.026  1.00  0.00    -0.504 OA
ATOM     17  H   UNL     1      -9.221 -22.354  -7.344  1.00  0.00     0.293 HD
ENDBRANCH  13  16
ENDBRANCH   2   8
TORSDOF 6
ENDMDL
