MODEL 1
REMARK VINA RESULT:    -4.098      0.000      0.000
REMARK INTER + INTRA:          -7.196
REMARK INTER:                  -6.494
REMARK INTRA:                  -0.702
REMARK UNBOUND:                -0.702
REMARK SMILES CCCCCCCCCCCC(=O)[O-]
REMARK SMILES IDX 7 1 8 2 9 3 10 4 11 5 12 6 13 7 14 8 6 9 5 10 4 11 3 12 2 13
REMARK SMILES IDX 1 14
REMARK H PARENT
REMARK Flexibility Score: inf
ROOT
ATOM      1  C   UNL     1     -99.937 -62.732 -68.464  1.00  0.00     0.000 C 
ENDROOT
BRANCH   1   2
ATOM      2  C   UNL     1     -98.504 -63.074 -68.910  1.00  0.00     0.000 C 
BRANCH   2   3
ATOM      3  C   UNL     1     -97.973 -62.104 -69.977  1.00  0.00     0.000 C 
BRANCH   3   4
ATOM      4  C   UNL     1     -96.478 -62.313 -70.280  1.00  0.00     0.006 C 
BRANCH   4   5
ATOM      5  C   UNL     1     -95.807 -61.031 -70.791  1.00  0.00     0.053 C 
BRANCH   5   6
ATOM      6  C   UNL     1     -94.323 -61.193 -70.916  1.00  0.00     0.041 C 
ATOM      7  O   UNL     1     -93.746 -60.929 -72.005  1.00  0.00    -0.550 OA
ATOM      8  O   UNL     1     -93.581 -61.671 -69.844  1.00  0.00    -0.550 OA
ENDBRANCH   5   6
ENDBRANCH   4   5
ENDBRANCH   3   4
ENDBRANCH   2   3
ENDBRANCH   1   2
BRANCH   1   9
ATOM      9  C   UNL     1     -99.976 -62.014 -67.105  1.00  0.00     0.000 C 
BRANCH   9  10
ATOM     10  C   UNL     1    -100.785 -60.710 -67.145  1.00  0.00    -0.000 C 
BRANCH  10  11
ATOM     11  C   UNL     1     -99.954 -59.532 -66.624  1.00  0.00    -0.000 C 
BRANCH  11  12
ATOM     12  C   UNL     1     -98.453 -59.822 -66.739  1.00  0.00    -0.000 C 
BRANCH  12  13
ATOM     13  C   UNL     1     -97.677 -58.561 -67.138  1.00  0.00    -0.003 C 
ATOM     14  C   UNL     1     -96.919 -57.981 -65.948  1.00  0.00     0.004 C 
ENDBRANCH  12  13
ENDBRANCH  11  12
ENDBRANCH  10  11
ENDBRANCH   9  10
ENDBRANCH   1   9
TORSDOF 10
ENDMDL
MODEL 2
REMARK VINA RESULT:    -4.051      2.352      5.134
REMARK INTER + INTRA:          -7.121
REMARK INTER:                  -6.390
REMARK INTRA:                  -0.732
REMARK UNBOUND:                -0.702
REMARK SMILES CCCCCCCCCCCC(=O)[O-]
REMARK SMILES IDX 7 1 8 2 9 3 10 4 11 5 12 6 13 7 14 8 6 9 5 10 4 11 3 12 2 13
REMARK SMILES IDX 1 14
REMARK H PARENT
REMARK Flexibility Score: inf
ROOT
ATOM      1  C   UNL     1     -99.036 -62.955 -68.512  1.00  0.00     0.000 C 
ENDROOT
BRANCH   1   2
ATOM      2  C   UNL     1    -100.009 -62.137 -67.643  1.00  0.00     0.000 C 
BRANCH   2   3
ATOM      3  C   UNL     1     -99.623 -62.152 -66.156  1.00  0.00     0.000 C 
BRANCH   3   4
ATOM      4  C   UNL     1     -99.159 -60.775 -65.648  1.00  0.00     0.006 C 
BRANCH   4   5
ATOM      5  C   UNL     1     -99.314 -59.683 -66.714  1.00  0.00     0.053 C 
BRANCH   5   6
ATOM      6  C   UNL     1     -98.035 -58.932 -66.930  1.00  0.00     0.041 C 
ATOM      7  O   UNL     1     -97.387 -59.078 -68.000  1.00  0.00    -0.550 OA
ATOM      8  O   UNL     1     -97.541 -58.098 -65.936  1.00  0.00    -0.550 OA
ENDBRANCH   5   6
ENDBRANCH   4   5
ENDBRANCH   3   4
ENDBRANCH   2   3
ENDBRANCH   1   2
BRANCH   1   9
ATOM      9  C   UNL     1     -98.396 -62.116 -69.630  1.00  0.00     0.000 C 
BRANCH   9  10
ATOM     10  C   UNL     1     -97.023 -62.651 -70.062  1.00  0.00    -0.000 C 
BRANCH  10  11
ATOM     11  C   UNL     1     -96.535 -61.948 -71.334  1.00  0.00    -0.000 C 
BRANCH  11  12
ATOM     12  C   UNL     1     -95.790 -60.651 -70.996  1.00  0.00    -0.000 C 
BRANCH  12  13
ATOM     13  C   UNL     1     -94.570 -60.933 -70.109  1.00  0.00    -0.003 C 
ATOM     14  C   UNL     1     -93.316 -61.148 -70.950  1.00  0.00     0.004 C 
ENDBRANCH  12  13
ENDBRANCH  11  12
ENDBRANCH  10  11
ENDBRANCH   9  10
ENDBRANCH   1   9
TORSDOF 10
ENDMDL
MODEL 3
REMARK VINA RESULT:    -4.013      2.922      5.212
REMARK INTER + INTRA:          -7.060
REMARK INTER:                  -6.297
REMARK INTRA:                  -0.763
REMARK UNBOUND:                -0.702
REMARK SMILES CCCCCCCCCCCC(=O)[O-]
REMARK SMILES IDX 7 1 8 2 9 3 10 4 11 5 12 6 13 7 14 8 6 9 5 10 4 11 3 12 2 13
REMARK SMILES IDX 1 14
REMARK H PARENT
REMARK Flexibility Score: inf
ROOT
ATOM      1  C   UNL     1     -99.613 -61.745 -66.807  1.00  0.00     0.000 C 
ENDROOT
BRANCH   1   2
ATOM      2  C   UNL     1    -100.431 -60.484 -66.475  1.00  0.00     0.000 C 
BRANCH   2   3
ATOM      3  C   UNL     1     -99.674 -59.188 -66.804  1.00  0.00     0.000 C 
BRANCH   3   4
ATOM      4  C   UNL     1     -98.149 -59.389 -66.866  1.00  0.00     0.006 C 
BRANCH   4   5
ATOM      5  C   UNL     1     -97.389 -58.269 -66.143  1.00  0.00     0.053 C 
BRANCH   5   6
ATOM      6  C   UNL     1     -96.806 -58.740 -64.846  1.00  0.00     0.041 C 
ATOM      7  O   UNL     1     -96.075 -57.974 -64.164  1.00  0.00    -0.550 OA
ATOM      8  O   UNL     1     -97.040 -60.037 -64.407  1.00  0.00    -0.550 OA
ENDBRANCH   5   6
ENDBRANCH   4   5
ENDBRANCH   3   4
ENDBRANCH   2   3
ENDBRANCH   1   2
BRANCH   1   9
ATOM      9  C   UNL     1     -99.988 -62.349 -68.171  1.00  0.00     0.000 C 
BRANCH   9  10
ATOM     10  C   UNL     1     -98.797 -63.026 -68.867  1.00  0.00    -0.000 C 
BRANCH  10  11
ATOM     11  C   UNL     1     -97.899 -61.988 -69.550  1.00  0.00    -0.000 C 
BRANCH  11  12
ATOM     12  C   UNL     1     -96.691 -62.658 -70.217  1.00  0.00    -0.000 C 
BRANCH  12  13
ATOM     13  C   UNL     1     -95.537 -61.662 -70.391  1.00  0.00    -0.003 C 
ATOM     14  C   UNL     1     -95.974 -60.452 -71.210  1.00  0.00     0.004 C 
ENDBRANCH  12  13
ENDBRANCH  11  12
ENDBRANCH  10  11
ENDBRANCH   9  10
ENDBRANCH   1   9
TORSDOF 10
ENDMDL
MODEL 4
REMARK VINA RESULT:    -3.836      3.170      6.175
REMARK INTER + INTRA:          -6.780
REMARK INTER:                  -6.046
REMARK INTRA:                  -0.735
REMARK UNBOUND:                -0.702
REMARK SMILES CCCCCCCCCCCC(=O)[O-]
REMARK SMILES IDX 7 1 8 2 9 3 10 4 11 5 12 6 13 7 14 8 6 9 5 10 4 11 3 12 2 13
REMARK SMILES IDX 1 14
REMARK H PARENT
REMARK Flexibility Score: inf
ROOT
ATOM      1  C   UNL     1     -96.693 -62.626 -70.352  1.00  0.00     0.000 C 
ENDROOT
BRANCH   1   2
ATOM      2  C   UNL     1     -97.959 -62.050 -69.693  1.00  0.00     0.000 C 
BRANCH   2   3
ATOM      3  C   UNL     1     -98.744 -63.107 -68.901  1.00  0.00     0.000 C 
BRANCH   3   4
ATOM      4  C   UNL     1    -100.004 -62.534 -68.229  1.00  0.00     0.006 C 
BRANCH   4   5
ATOM      5  C   UNL     1     -99.725 -62.043 -66.802  1.00  0.00     0.053 C 
BRANCH   5   6
ATOM      6  C   UNL     1    -100.015 -60.581 -66.650  1.00  0.00     0.041 C 
ATOM      7  O   UNL     1     -99.105 -59.731 -66.844  1.00  0.00    -0.550 OA
ATOM      8  O   UNL     1    -101.279 -60.158 -66.259  1.00  0.00    -0.550 OA
ENDBRANCH   5   6
ENDBRANCH   4   5
ENDBRANCH   3   4
ENDBRANCH   2   3
ENDBRANCH   1   2
BRANCH   1   9
ATOM      9  C   UNL     1     -96.230 -61.801 -71.564  1.00  0.00     0.000 C 
BRANCH   9  10
ATOM     10  C   UNL     1     -95.295 -60.646 -71.174  1.00  0.00    -0.000 C 
BRANCH  10  11
ATOM     11  C   UNL     1     -94.296 -61.090 -70.099  1.00  0.00    -0.000 C 
BRANCH  11  12
ATOM     12  C   UNL     1     -93.039 -61.699 -70.731  1.00  0.00    -0.000 C 
BRANCH  12  13
ATOM     13  C   UNL     1     -92.920 -63.190 -70.392  1.00  0.00    -0.003 C 
ATOM     14  C   UNL     1     -92.980 -63.418 -68.884  1.00  0.00     0.004 C 
ENDBRANCH  12  13
ENDBRANCH  11  12
ENDBRANCH  10  11
ENDBRANCH   9  10
ENDBRANCH   1   9
TORSDOF 10
ENDMDL
MODEL 5
REMARK VINA RESULT:    -3.640      2.030      2.889
REMARK INTER + INTRA:          -6.470
REMARK INTER:                  -5.803
REMARK INTRA:                  -0.666
REMARK UNBOUND:                -0.702
REMARK SMILES CCCCCCCCCCCC(=O)[O-]
REMARK SMILES IDX 7 1 8 2 9 3 10 4 11 5 12 6 13 7 14 8 6 9 5 10 4 11 3 12 2 13
REMARK SMILES IDX 1 14
REMARK H PARENT
REMARK Flexibility Score: inf
ROOT
ATOM      1  C   UNL     1     -99.991 -62.739 -67.636  1.00  0.00     0.000 C 
ENDROOT
BRANCH   1   2
ATOM      2  C   UNL     1     -99.106 -63.193 -68.811  1.00  0.00     0.000 C 
BRANCH   2   3
ATOM      3  C   UNL     1     -98.272 -62.043 -69.397  1.00  0.00     0.000 C 
BRANCH   3   4
ATOM      4  C   UNL     1     -97.030 -62.538 -70.160  1.00  0.00     0.006 C 
BRANCH   4   5
ATOM      5  C   UNL     1     -96.043 -61.401 -70.458  1.00  0.00     0.053 C 
BRANCH   5   6
ATOM      6  C   UNL     1     -94.638 -61.904 -70.589  1.00  0.00     0.041 C 
ATOM      7  O   UNL     1     -94.392 -63.134 -70.473  1.00  0.00    -0.550 OA
ATOM      8  O   UNL     1     -93.596 -61.011 -70.804  1.00  0.00    -0.550 OA
ENDBRANCH   5   6
ENDBRANCH   4   5
ENDBRANCH   3   4
ENDBRANCH   2   3
ENDBRANCH   1   2
BRANCH   1   9
ATOM      9  C   UNL     1    -100.114 -61.208 -67.548  1.00  0.00     0.000 C 
BRANCH   9  10
ATOM     10  C   UNL     1     -99.696 -60.658 -66.176  1.00  0.00    -0.000 C 
BRANCH  10  11
ATOM     11  C   UNL     1     -98.932 -61.715 -65.370  1.00  0.00    -0.000 C 
BRANCH  11  12
ATOM     12  C   UNL     1     -99.635 -62.008 -64.039  1.00  0.00    -0.000 C 
BRANCH  12  13
ATOM     13  C   UNL     1     -99.470 -63.481 -63.643  1.00  0.00    -0.003 C 
ATOM     14  C   UNL     1     -97.997 -63.874 -63.583  1.00  0.00     0.004 C 
ENDBRANCH  12  13
ENDBRANCH  11  12
ENDBRANCH  10  11
ENDBRANCH   9  10
ENDBRANCH   1   9
TORSDOF 10
ENDMDL
MODEL 6
REMARK VINA RESULT:    -3.628     13.215     14.530
REMARK INTER + INTRA:          -6.451
REMARK INTER:                  -5.178
REMARK INTRA:                  -1.273
REMARK UNBOUND:                -0.702
REMARK SMILES CCCCCCCCCCCC(=O)[O-]
REMARK SMILES IDX 7 1 8 2 9 3 10 4 11 5 12 6 13 7 14 8 6 9 5 10 4 11 3 12 2 13
REMARK SMILES IDX 1 14
REMARK H PARENT
REMARK Flexibility Score: inf
ROOT
ATOM      1  C   UNL     1     -95.064 -45.869 -68.133  1.00  0.00     0.000 C 
ENDROOT
BRANCH   1   2
ATOM      2  C   UNL     1     -94.007 -46.879 -68.614  1.00  0.00     0.000 C 
BRANCH   2   3
ATOM      3  C   UNL     1     -93.754 -46.790 -70.127  1.00  0.00     0.000 C 
BRANCH   3   4
ATOM      4  C   UNL     1     -94.326 -47.993 -70.898  1.00  0.00     0.006 C 
BRANCH   4   5
ATOM      5  C   UNL     1     -94.191 -47.824 -72.417  1.00  0.00     0.053 C 
BRANCH   5   6
ATOM      6  C   UNL     1     -95.072 -48.779 -73.163  1.00  0.00     0.041 C 
ATOM      7  O   UNL     1     -95.829 -48.359 -74.078  1.00  0.00    -0.550 OA
ATOM      8  O   UNL     1     -95.085 -50.125 -72.824  1.00  0.00    -0.550 OA
ENDBRANCH   5   6
ENDBRANCH   4   5
ENDBRANCH   3   4
ENDBRANCH   2   3
ENDBRANCH   1   2
BRANCH   1   9
ATOM      9  C   UNL     1     -95.439 -44.846 -69.218  1.00  0.00     0.000 C 
BRANCH   9  10
ATOM     10  C   UNL     1     -96.930 -44.890 -69.584  1.00  0.00    -0.000 C 
BRANCH  10  11
ATOM     11  C   UNL     1     -97.665 -45.958 -68.766  1.00  0.00    -0.000 C 
BRANCH  11  12
ATOM     12  C   UNL     1     -98.490 -46.877 -69.675  1.00  0.00    -0.000 C 
BRANCH  12  13
ATOM     13  C   UNL     1     -97.933 -46.883 -71.104  1.00  0.00    -0.003 C 
ATOM     14  C   UNL     1     -98.580 -47.981 -71.942  1.00  0.00     0.004 C 
ENDBRANCH  12  13
ENDBRANCH  11  12
ENDBRANCH  10  11
ENDBRANCH   9  10
ENDBRANCH   1   9
TORSDOF 10
ENDMDL
MODEL 7
REMARK VINA RESULT:    -3.473     14.066     15.503
REMARK INTER + INTRA:          -6.205
REMARK INTER:                  -4.664
REMARK INTRA:                  -1.541
REMARK UNBOUND:                -0.702
REMARK SMILES CCCCCCCCCCCC(=O)[O-]
REMARK SMILES IDX 7 1 8 2 9 3 10 4 11 5 12 6 13 7 14 8 6 9 5 10 4 11 3 12 2 13
REMARK SMILES IDX 1 14
REMARK H PARENT
REMARK Flexibility Score: inf
ROOT
ATOM      1  C   UNL     1     -95.417 -44.804 -69.194  1.00  0.00     0.000 C 
ENDROOT
BRANCH   1   2
ATOM      2  C   UNL     1     -96.943 -44.881 -69.382  1.00  0.00     0.000 C 
BRANCH   2   3
ATOM      3  C   UNL     1     -97.574 -46.037 -68.590  1.00  0.00     0.000 C 
BRANCH   3   4
ATOM      4  C   UNL     1     -98.495 -46.918 -69.454  1.00  0.00     0.006 C 
BRANCH   4   5
ATOM      5  C   UNL     1     -98.904 -46.220 -70.758  1.00  0.00     0.053 C 
BRANCH   5   6
ATOM      6  C   UNL     1     -99.738 -47.112 -71.627  1.00  0.00     0.041 C 
ATOM      7  O   UNL     1    -100.991 -46.990 -71.642  1.00  0.00    -0.550 OA
ATOM      8  O   UNL     1     -99.134 -48.101 -72.393  1.00  0.00    -0.550 OA
ENDBRANCH   5   6
ENDBRANCH   4   5
ENDBRANCH   3   4
ENDBRANCH   2   3
ENDBRANCH   1   2
BRANCH   1   9
ATOM      9  C   UNL     1     -94.892 -45.847 -68.194  1.00  0.00     0.000 C 
BRANCH   9  10
ATOM     10  C   UNL     1     -93.981 -46.895 -68.851  1.00  0.00    -0.000 C 
BRANCH  10  11
ATOM     11  C   UNL     1     -93.840 -46.632 -70.355  1.00  0.00    -0.000 C 
BRANCH  11  12
ATOM     12  C   UNL     1     -94.326 -47.834 -71.173  1.00  0.00    -0.000 C 
BRANCH  12  13
ATOM     13  C   UNL     1     -95.640 -47.511 -71.896  1.00  0.00    -0.003 C 
ATOM     14  C   UNL     1     -95.547 -46.182 -72.640  1.00  0.00     0.004 C 
ENDBRANCH  12  13
ENDBRANCH  11  12
ENDBRANCH  10  11
ENDBRANCH   9  10
ENDBRANCH   1   9
TORSDOF 10
ENDMDL
MODEL 8
REMARK VINA RESULT:    -3.350      3.561      6.081
REMARK INTER + INTRA:          -6.010
REMARK INTER:                  -5.428
REMARK INTRA:                  -0.581
REMARK UNBOUND:                -0.702
REMARK SMILES CCCCCCCCCCCC(=O)[O-]
REMARK SMILES IDX 7 1 8 2 9 3 10 4 11 5 12 6 13 7 14 8 6 9 5 10 4 11 3 12 2 13
REMARK SMILES IDX 1 14
REMARK H PARENT
REMARK Flexibility Score: inf
ROOT
ATOM      1  C   UNL     1     -98.315 -63.001 -69.268  1.00  0.00     0.000 C 
ENDROOT
BRANCH   1   2
ATOM      2  C   UNL     1     -99.589 -62.439 -68.612  1.00  0.00     0.000 C 
BRANCH   2   3
ATOM      3  C   UNL     1     -99.609 -62.650 -67.090  1.00  0.00     0.000 C 
BRANCH   3   4
ATOM      4  C   UNL     1     -99.674 -61.327 -66.306  1.00  0.00     0.006 C 
BRANCH   4   5
ATOM      5  C   UNL     1     -99.952 -61.551 -64.814  1.00  0.00     0.053 C 
BRANCH   5   6
ATOM      6  C   UNL     1     -98.886 -62.384 -64.169  1.00  0.00     0.041 C 
ATOM      7  O   UNL     1     -97.729 -61.914 -64.002  1.00  0.00    -0.550 OA
ATOM      8  O   UNL     1     -99.160 -63.690 -63.785  1.00  0.00    -0.550 OA
ENDBRANCH   5   6
ENDBRANCH   4   5
ENDBRANCH   3   4
ENDBRANCH   2   3
ENDBRANCH   1   2
BRANCH   1   9
ATOM      9  C   UNL     1     -97.306 -61.901 -69.634  1.00  0.00     0.000 C 
BRANCH   9  10
ATOM     10  C   UNL     1     -96.958 -61.888 -71.130  1.00  0.00    -0.000 C 
BRANCH  10  11
ATOM     11  C   UNL     1     -95.481 -61.538 -71.347  1.00  0.00    -0.000 C 
BRANCH  11  12
ATOM     12  C   UNL     1     -94.836 -61.037 -70.049  1.00  0.00    -0.000 C 
BRANCH  12  13
ATOM     13  C   UNL     1     -93.384 -61.515 -69.936  1.00  0.00    -0.003 C 
ATOM     14  C   UNL     1     -93.308 -62.898 -69.295  1.00  0.00     0.004 C 
ENDBRANCH  12  13
ENDBRANCH  11  12
ENDBRANCH  10  11
ENDBRANCH   9  10
ENDBRANCH   1   9
TORSDOF 10
ENDMDL
MODEL 9
REMARK VINA RESULT:    -3.337     13.872     15.154
REMARK INTER + INTRA:          -5.989
REMARK INTER:                  -4.885
REMARK INTRA:                  -1.104
REMARK UNBOUND:                -0.702
REMARK SMILES CCCCCCCCCCCC(=O)[O-]
REMARK SMILES IDX 7 1 8 2 9 3 10 4 11 5 12 6 13 7 14 8 6 9 5 10 4 11 3 12 2 13
REMARK SMILES IDX 1 14
REMARK H PARENT
REMARK Flexibility Score: inf
ROOT
ATOM      1  C   UNL     1     -96.285 -45.523 -69.191  1.00  0.00     0.000 C 
ENDROOT
BRANCH   1   2
ATOM      2  C   UNL     1     -97.701 -45.894 -68.715  1.00  0.00     0.000 C 
BRANCH   2   3
ATOM      3  C   UNL     1     -98.378 -46.926 -69.631  1.00  0.00     0.000 C 
BRANCH   3   4
ATOM      4  C   UNL     1     -97.872 -46.856 -71.083  1.00  0.00     0.006 C 
BRANCH   4   5
ATOM      5  C   UNL     1     -98.455 -47.977 -71.954  1.00  0.00     0.053 C 
BRANCH   5   6
ATOM      6  C   UNL     1     -99.541 -47.473 -72.854  1.00  0.00     0.041 C 
ATOM      7  O   UNL     1     -99.252 -46.922 -73.949  1.00  0.00    -0.550 OA
ATOM      8  O   UNL     1    -100.871 -47.578 -72.468  1.00  0.00    -0.550 OA
ENDBRANCH   5   6
ENDBRANCH   4   5
ENDBRANCH   3   4
ENDBRANCH   2   3
ENDBRANCH   1   2
BRANCH   1   9
ATOM      9  C   UNL     1     -95.195 -45.968 -68.202  1.00  0.00     0.000 C 
BRANCH   9  10
ATOM     10  C   UNL     1     -94.115 -46.838 -68.862  1.00  0.00    -0.000 C 
BRANCH  10  11
ATOM     11  C   UNL     1     -93.368 -46.056 -69.949  1.00  0.00    -0.000 C 
BRANCH  11  12
ATOM     12  C   UNL     1     -93.439 -46.782 -71.297  1.00  0.00    -0.000 C 
BRANCH  12  13
ATOM     13  C   UNL     1     -94.336 -48.022 -71.208  1.00  0.00    -0.003 C 
ATOM     14  C   UNL     1     -94.684 -48.551 -72.596  1.00  0.00     0.004 C 
ENDBRANCH  12  13
ENDBRANCH  11  12
ENDBRANCH  10  11
ENDBRANCH   9  10
ENDBRANCH   1   9
TORSDOF 10
ENDMDL
