MODEL 1
REMARK VINA RESULT:    -7.734      0.000      0.000
REMARK INTER + INTRA:          -9.455
REMARK INTER:                  -9.317
REMARK INTRA:                  -0.138
REMARK UNBOUND:                -0.138
REMARK SMILES O=c1c(O)c(-c2ccc(O)cc2O)oc2cc(O)cc(O)c12
REMARK SMILES IDX 5 1 3 2 2 3 1 4 22 5 20 6 19 7 17 8 16 9 15 10 14 11 6 12
REMARK SMILES IDX 8 13 7 14 9 15 11 16 12 17 10 18 13 20 4 22 21 24 18 26
REMARK H PARENT 10 19 13 21 4 23 21 25 18 27
REMARK Flexibility Score: inf
ROOT
ATOM      1  C   UNL     1     168.722 146.057 152.220  1.00  0.00     0.184 A 
ATOM      2  C   UNL     1     169.582 145.081 151.687  1.00  0.00     0.208 A 
ATOM      3  C   UNL     1     170.647 144.616 152.473  1.00  0.00     0.238 A 
ATOM      4  O   UNL     1     171.419 143.731 152.009  1.00  0.00    -0.285 OA
ATOM      5  C   UNL     1     170.845 145.146 153.764  1.00  0.00     0.111 A 
ATOM      6  C   UNL     1     171.896 144.734 154.618  1.00  0.00     0.134 A 
ATOM      7  C   UNL     1     172.031 145.316 155.887  1.00  0.00     0.093 A 
ATOM      8  C   UNL     1     171.136 146.303 156.316  1.00  0.00     0.123 A 
ATOM      9  C   UNL     1     170.098 146.712 155.479  1.00  0.00     0.094 A 
ATOM     10  C   UNL     1     169.945 146.142 154.211  1.00  0.00     0.146 A 
ATOM     11  O   UNL     1     168.945 146.548 153.435  1.00  0.00    -0.451 OA
ENDROOT
BRANCH   1  12
ATOM     12  C   UNL     1     167.573 146.583 151.452  1.00  0.00     0.063 A 
ATOM     13  C   UNL     1     166.711 147.497 149.371  1.00  0.00     0.047 A 
ATOM     14  C   UNL     1     167.774 146.991 150.124  1.00  0.00     0.020 A 
ATOM     15  C   UNL     1     165.438 147.615 149.942  1.00  0.00     0.119 A 
ATOM     16  C   UNL     1     165.235 147.234 151.271  1.00  0.00     0.093 A 
ATOM     17  C   UNL     1     166.298 146.729 152.036  1.00  0.00     0.130 A 
BRANCH  15  18
ATOM     18  O   UNL     1     164.371 148.114 149.199  1.00  0.00    -0.508 OA
ATOM     19  H   UNL     1     164.277 147.920 148.209  1.00  0.00     0.293 HD
ENDBRANCH  15  18
BRANCH  17  20
ATOM     20  O   UNL     1     166.093 146.398 153.376  1.00  0.00    -0.507 OA
ATOM     21  H   UNL     1     165.183 146.116 153.720  1.00  0.00     0.293 HD
ENDBRANCH  17  20
ENDBRANCH   1  12
BRANCH   2  22
ATOM     22  O   UNL     1     169.386 144.609 150.387  1.00  0.00    -0.502 OA
ATOM     23  H   UNL     1     169.990 144.874 149.618  1.00  0.00     0.293 HD
ENDBRANCH   2  22
BRANCH   6  24
ATOM     24  O   UNL     1     172.804 143.753 154.217  1.00  0.00    -0.507 OA
ATOM     25  H   UNL     1     173.139 143.042 154.858  1.00  0.00     0.293 HD
ENDBRANCH   6  24
BRANCH   8  26
ATOM     26  O   UNL     1     171.270 146.883 157.576  1.00  0.00    -0.508 OA
ATOM     27  H   UNL     1     171.664 147.810 157.694  1.00  0.00     0.293 HD
ENDBRANCH   8  26
TORSDOF 6
ENDMDL
MODEL 2
REMARK VINA RESULT:    -7.705      1.146      1.550
REMARK INTER + INTRA:          -9.420
REMARK INTER:                  -9.022
REMARK INTRA:                  -0.398
REMARK UNBOUND:                -0.138
REMARK SMILES O=c1c(O)c(-c2ccc(O)cc2O)oc2cc(O)cc(O)c12
REMARK SMILES IDX 5 1 3 2 2 3 1 4 22 5 20 6 19 7 17 8 16 9 15 10 14 11 6 12
REMARK SMILES IDX 8 13 7 14 9 15 11 16 12 17 10 18 13 20 4 22 21 24 18 26
REMARK H PARENT 10 19 13 21 4 23 21 25 18 27
REMARK Flexibility Score: inf
ROOT
ATOM      1  C   UNL     1     169.599 146.096 153.226  1.00  0.00     0.184 A 
ATOM      2  C   UNL     1     170.432 144.974 153.076  1.00  0.00     0.208 A 
ATOM      3  C   UNL     1     171.342 144.664 154.099  1.00  0.00     0.238 A 
ATOM      4  O   UNL     1     172.087 143.653 153.981  1.00  0.00    -0.285 OA
ATOM      5  C   UNL     1     171.415 145.490 155.239  1.00  0.00     0.111 A 
ATOM      6  C   UNL     1     172.306 145.251 156.312  1.00  0.00     0.134 A 
ATOM      7  C   UNL     1     172.325 146.125 157.409  1.00  0.00     0.093 A 
ATOM      8  C   UNL     1     171.471 147.234 157.452  1.00  0.00     0.123 A 
ATOM      9  C   UNL     1     170.591 147.473 156.396  1.00  0.00     0.094 A 
ATOM     10  C   UNL     1     170.555 146.612 155.295  1.00  0.00     0.146 A 
ATOM     11  O   UNL     1     169.704 146.863 154.306  1.00  0.00    -0.451 OA
ENDROOT
BRANCH   1  12
ATOM     12  C   UNL     1     168.610 146.472 152.193  1.00  0.00     0.063 A 
ATOM     13  C   UNL     1     168.162 147.321 149.959  1.00  0.00     0.047 A 
ATOM     14  C   UNL     1     169.069 146.952 150.956  1.00  0.00     0.020 A 
ATOM     15  C   UNL     1     166.785 147.227 150.192  1.00  0.00     0.119 A 
ATOM     16  C   UNL     1     166.319 146.772 151.429  1.00  0.00     0.093 A 
ATOM     17  C   UNL     1     167.223 146.404 152.437  1.00  0.00     0.130 A 
BRANCH  15  18
ATOM     18  O   UNL     1     165.871 147.588 149.204  1.00  0.00    -0.508 OA
ATOM     19  H   UNL     1     166.022 147.349 148.231  1.00  0.00     0.293 HD
ENDBRANCH  15  18
BRANCH  17  20
ATOM     20  O   UNL     1     166.746 145.998 153.684  1.00  0.00    -0.507 OA
ATOM     21  H   UNL     1     166.002 145.315 153.771  1.00  0.00     0.293 HD
ENDBRANCH  17  20
ENDBRANCH   1  12
BRANCH   2  22
ATOM     22  O   UNL     1     170.367 144.201 151.913  1.00  0.00    -0.502 OA
ATOM     23  H   UNL     1     170.483 144.602 150.990  1.00  0.00     0.293 HD
ENDBRANCH   2  22
BRANCH   6  24
ATOM     24  O   UNL     1     173.170 144.155 156.298  1.00  0.00    -0.507 OA
ATOM     25  H   UNL     1     173.104 143.415 156.989  1.00  0.00     0.293 HD
ENDBRANCH   6  24
BRANCH   8  26
ATOM     26  O   UNL     1     171.491 148.103 158.541  1.00  0.00    -0.508 OA
ATOM     27  H   UNL     1     172.351 148.320 159.031  1.00  0.00     0.293 HD
ENDBRANCH   8  26
TORSDOF 6
ENDMDL
MODEL 3
REMARK VINA RESULT:    -7.613      2.090      6.380
REMARK INTER + INTRA:          -9.309
REMARK INTER:                  -9.103
REMARK INTRA:                  -0.206
REMARK UNBOUND:                -0.138
REMARK SMILES O=c1c(O)c(-c2ccc(O)cc2O)oc2cc(O)cc(O)c12
REMARK SMILES IDX 5 1 3 2 2 3 1 4 22 5 20 6 19 7 17 8 16 9 15 10 14 11 6 12
REMARK SMILES IDX 8 13 7 14 9 15 11 16 12 17 10 18 13 20 4 22 21 24 18 26
REMARK H PARENT 10 19 13 21 4 23 21 25 18 27
REMARK Flexibility Score: inf
ROOT
ATOM      1  C   UNL     1     168.679 145.595 153.626  1.00  0.00     0.184 A 
ATOM      2  C   UNL     1     169.674 145.700 152.638  1.00  0.00     0.208 A 
ATOM      3  C   UNL     1     169.337 146.259 151.395  1.00  0.00     0.238 A 
ATOM      4  O   UNL     1     170.224 146.369 150.504  1.00  0.00    -0.285 OA
ATOM      5  C   UNL     1     168.014 146.683 151.157  1.00  0.00     0.111 A 
ATOM      6  C   UNL     1     167.592 147.254 149.933  1.00  0.00     0.134 A 
ATOM      7  C   UNL     1     166.254 147.643 149.770  1.00  0.00     0.093 A 
ATOM      8  C   UNL     1     165.332 147.472 150.809  1.00  0.00     0.123 A 
ATOM      9  C   UNL     1     165.743 146.911 152.019  1.00  0.00     0.094 A 
ATOM     10  C   UNL     1     167.073 146.518 152.201  1.00  0.00     0.146 A 
ATOM     11  O   UNL     1     167.438 145.990 153.364  1.00  0.00    -0.451 OA
ENDROOT
BRANCH   1  12
ATOM     12  C   UNL     1     168.968 145.028 154.960  1.00  0.00     0.063 A 
ATOM     13  C   UNL     1     170.379 144.989 156.939  1.00  0.00     0.047 A 
ATOM     14  C   UNL     1     170.075 145.507 155.677  1.00  0.00     0.020 A 
ATOM     15  C   UNL     1     169.588 143.976 157.493  1.00  0.00     0.119 A 
ATOM     16  C   UNL     1     168.497 143.476 156.775  1.00  0.00     0.093 A 
ATOM     17  C   UNL     1     168.188 143.987 155.505  1.00  0.00     0.130 A 
BRANCH  15  18
ATOM     18  O   UNL     1     169.880 143.455 158.752  1.00  0.00    -0.508 OA
ATOM     19  H   UNL     1     170.188 144.049 159.512  1.00  0.00     0.293 HD
ENDBRANCH  15  18
BRANCH  17  20
ATOM     20  O   UNL     1     167.127 143.446 154.779  1.00  0.00    -0.507 OA
ATOM     21  H   UNL     1     166.300 143.991 154.560  1.00  0.00     0.293 HD
ENDBRANCH  17  20
ENDBRANCH   1  12
BRANCH   2  22
ATOM     22  O   UNL     1     170.965 145.229 152.889  1.00  0.00    -0.502 OA
ATOM     23  H   UNL     1     171.275 144.313 152.586  1.00  0.00     0.293 HD
ENDBRANCH   2  22
BRANCH   6  24
ATOM     24  O   UNL     1     168.489 147.437 148.879  1.00  0.00    -0.507 OA
ATOM     25  H   UNL     1     168.825 148.357 148.618  1.00  0.00     0.293 HD
ENDBRANCH   6  24
BRANCH   8  26
ATOM     26  O   UNL     1     164.002 147.858 150.648  1.00  0.00    -0.508 OA
ATOM     27  H   UNL     1     163.400 148.033 151.445  1.00  0.00     0.293 HD
ENDBRANCH   8  26
TORSDOF 6
ENDMDL
MODEL 4
REMARK VINA RESULT:    -7.451      1.855      3.726
REMARK INTER + INTRA:          -9.113
REMARK INTER:                  -8.928
REMARK INTRA:                  -0.186
REMARK UNBOUND:                -0.138
REMARK SMILES O=c1c(O)c(-c2ccc(O)cc2O)oc2cc(O)cc(O)c12
REMARK SMILES IDX 5 1 3 2 2 3 1 4 22 5 20 6 19 7 17 8 16 9 15 10 14 11 6 12
REMARK SMILES IDX 8 13 7 14 9 15 11 16 12 17 10 18 13 20 4 22 21 24 18 26
REMARK H PARENT 10 19 13 21 4 23 21 25 18 27
REMARK Flexibility Score: inf
ROOT
ATOM      1  C   UNL     1     169.341 145.424 151.900  1.00  0.00     0.184 A 
ATOM      2  C   UNL     1     170.134 145.735 153.018  1.00  0.00     0.208 A 
ATOM      3  C   UNL     1     171.309 144.999 153.241  1.00  0.00     0.238 A 
ATOM      4  O   UNL     1     172.035 145.276 154.234  1.00  0.00    -0.285 OA
ATOM      5  C   UNL     1     171.656 143.957 152.356  1.00  0.00     0.111 A 
ATOM      6  C   UNL     1     172.820 143.166 152.511  1.00  0.00     0.134 A 
ATOM      7  C   UNL     1     173.092 142.142 151.592  1.00  0.00     0.093 A 
ATOM      8  C   UNL     1     172.222 141.893 150.524  1.00  0.00     0.123 A 
ATOM      9  C   UNL     1     171.074 142.671 150.366  1.00  0.00     0.094 A 
ATOM     10  C   UNL     1     170.786 143.698 151.271  1.00  0.00     0.146 A 
ATOM     11  O   UNL     1     169.688 144.426 151.095  1.00  0.00    -0.451 OA
ENDROOT
BRANCH   1  12
ATOM     12  C   UNL     1     168.098 146.166 151.600  1.00  0.00     0.063 A 
ATOM     13  C   UNL     1     166.863 147.627 150.099  1.00  0.00     0.047 A 
ATOM     14  C   UNL     1     168.021 146.909 150.411  1.00  0.00     0.020 A 
ATOM     15  C   UNL     1     165.774 147.622 150.978  1.00  0.00     0.119 A 
ATOM     16  C   UNL     1     165.851 146.903 152.175  1.00  0.00     0.093 A 
ATOM     17  C   UNL     1     167.012 146.185 152.499  1.00  0.00     0.130 A 
BRANCH  15  18
ATOM     18  O   UNL     1     164.613 148.330 150.675  1.00  0.00    -0.508 OA
ATOM     19  H   UNL     1     164.468 148.742 149.761  1.00  0.00     0.293 HD
ENDBRANCH  15  18
BRANCH  17  20
ATOM     20  O   UNL     1     167.095 145.512 153.719  1.00  0.00    -0.507 OA
ATOM     21  H   UNL     1     167.012 146.003 154.602  1.00  0.00     0.293 HD
ENDBRANCH  17  20
ENDBRANCH   1  12
BRANCH   2  22
ATOM     22  O   UNL     1     169.738 146.742 153.901  1.00  0.00    -0.502 OA
ATOM     23  H   UNL     1     169.465 146.547 154.857  1.00  0.00     0.293 HD
ENDBRANCH   2  22
BRANCH   6  24
ATOM     24  O   UNL     1     173.705 143.390 153.566  1.00  0.00    -0.507 OA
ATOM     25  H   UNL     1     174.604 143.836 153.423  1.00  0.00     0.293 HD
ENDBRANCH   6  24
BRANCH   8  26
ATOM     26  O   UNL     1     172.492 140.875 149.612  1.00  0.00    -0.508 OA
ATOM     27  H   UNL     1     173.116 140.110 149.840  1.00  0.00     0.293 HD
ENDBRANCH   8  26
TORSDOF 6
ENDMDL
MODEL 5
REMARK VINA RESULT:    -7.381      2.064      3.098
REMARK INTER + INTRA:          -9.029
REMARK INTER:                  -8.768
REMARK INTRA:                  -0.261
REMARK UNBOUND:                -0.138
REMARK SMILES O=c1c(O)c(-c2ccc(O)cc2O)oc2cc(O)cc(O)c12
REMARK SMILES IDX 5 1 3 2 2 3 1 4 22 5 20 6 19 7 17 8 16 9 15 10 14 11 6 12
REMARK SMILES IDX 8 13 7 14 9 15 11 16 12 17 10 18 13 20 4 22 21 24 18 26
REMARK H PARENT 10 19 13 21 4 23 21 25 18 27
REMARK Flexibility Score: inf
ROOT
ATOM      1  C   UNL     1     168.771 145.712 154.227  1.00  0.00     0.184 A 
ATOM      2  C   UNL     1     168.315 144.583 154.929  1.00  0.00     0.208 A 
ATOM      3  C   UNL     1     168.965 144.214 156.116  1.00  0.00     0.238 A 
ATOM      4  O   UNL     1     168.557 143.209 156.760  1.00  0.00    -0.285 OA
ATOM      5  C   UNL     1     170.068 144.967 156.569  1.00  0.00     0.111 A 
ATOM      6  C   UNL     1     170.780 144.661 157.753  1.00  0.00     0.134 A 
ATOM      7  C   UNL     1     171.873 145.454 158.133  1.00  0.00     0.093 A 
ATOM      8  C   UNL     1     172.267 146.546 157.349  1.00  0.00     0.123 A 
ATOM      9  C   UNL     1     171.567 146.852 156.182  1.00  0.00     0.094 A 
ATOM     10  C   UNL     1     170.474 146.074 155.788  1.00  0.00     0.146 A 
ATOM     11  O   UNL     1     169.823 146.391 154.673  1.00  0.00    -0.451 OA
ENDROOT
BRANCH   1  12
ATOM     12  C   UNL     1     168.125 146.163 152.977  1.00  0.00     0.063 A 
ATOM     13  C   UNL     1     166.097 146.819 151.807  1.00  0.00     0.047 A 
ATOM     14  C   UNL     1     166.741 146.397 152.973  1.00  0.00     0.020 A 
ATOM     15  C   UNL     1     166.827 146.998 150.626  1.00  0.00     0.119 A 
ATOM     16  C   UNL     1     168.202 146.745 150.615  1.00  0.00     0.093 A 
ATOM     17  C   UNL     1     168.855 146.316 151.780  1.00  0.00     0.130 A 
BRANCH  15  18
ATOM     18  O   UNL     1     166.197 147.423 149.459  1.00  0.00    -0.508 OA
ATOM     19  H   UNL     1     166.335 148.357 149.091  1.00  0.00     0.293 HD
ENDBRANCH  15  18
BRANCH  17  20
ATOM     20  O   UNL     1     170.218 146.019 151.743  1.00  0.00    -0.507 OA
ATOM     21  H   UNL     1     170.917 146.745 151.630  1.00  0.00     0.293 HD
ENDBRANCH  17  20
ENDBRANCH   1  12
BRANCH   2  22
ATOM     22  O   UNL     1     167.248 143.831 154.429  1.00  0.00    -0.502 OA
ATOM     23  H   UNL     1     166.319 143.875 154.832  1.00  0.00     0.293 HD
ENDBRANCH   2  22
BRANCH   6  24
ATOM     24  O   UNL     1     170.412 143.579 158.554  1.00  0.00    -0.507 OA
ATOM     25  H   UNL     1     170.602 143.563 159.550  1.00  0.00     0.293 HD
ENDBRANCH   6  24
BRANCH   8  26
ATOM     26  O   UNL     1     173.353 147.334 157.725  1.00  0.00    -0.508 OA
ATOM     27  H   UNL     1     174.239 146.921 157.996  1.00  0.00     0.293 HD
ENDBRANCH   8  26
TORSDOF 6
ENDMDL
MODEL 6
REMARK VINA RESULT:    -7.000      2.095      6.698
REMARK INTER + INTRA:          -8.571
REMARK INTER:                  -8.427
REMARK INTRA:                  -0.143
REMARK UNBOUND:                -0.138
REMARK SMILES O=c1c(O)c(-c2ccc(O)cc2O)oc2cc(O)cc(O)c12
REMARK SMILES IDX 5 1 3 2 2 3 1 4 22 5 20 6 19 7 17 8 16 9 15 10 14 11 6 12
REMARK SMILES IDX 8 13 7 14 9 15 11 16 12 17 10 18 13 20 4 22 21 24 18 26
REMARK H PARENT 10 19 13 21 4 23 21 25 18 27
REMARK Flexibility Score: inf
ROOT
ATOM      1  C   UNL     1     169.564 145.354 153.739  1.00  0.00     0.184 A 
ATOM      2  C   UNL     1     168.283 145.877 153.487  1.00  0.00     0.208 A 
ATOM      3  C   UNL     1     167.914 146.156 152.162  1.00  0.00     0.238 A 
ATOM      4  O   UNL     1     166.764 146.615 151.922  1.00  0.00    -0.285 OA
ATOM      5  C   UNL     1     168.835 145.927 151.120  1.00  0.00     0.111 A 
ATOM      6  C   UNL     1     168.543 146.184 149.759  1.00  0.00     0.134 A 
ATOM      7  C   UNL     1     169.517 145.937 148.779  1.00  0.00     0.093 A 
ATOM      8  C   UNL     1     170.776 145.439 149.136  1.00  0.00     0.123 A 
ATOM      9  C   UNL     1     171.068 145.183 150.476  1.00  0.00     0.094 A 
ATOM     10  C   UNL     1     170.110 145.421 151.467  1.00  0.00     0.146 A 
ATOM     11  O   UNL     1     170.413 145.164 152.735  1.00  0.00    -0.451 OA
ENDROOT
BRANCH   1  12
ATOM     12  C   UNL     1     170.013 145.026 155.109  1.00  0.00     0.063 A 
ATOM     13  C   UNL     1     169.539 143.991 157.257  1.00  0.00     0.047 A 
ATOM     14  C   UNL     1     169.148 144.313 155.955  1.00  0.00     0.020 A 
ATOM     15  C   UNL     1     170.793 144.390 157.734  1.00  0.00     0.119 A 
ATOM     16  C   UNL     1     171.651 145.121 156.906  1.00  0.00     0.093 A 
ATOM     17  C   UNL     1     171.264 145.453 155.599  1.00  0.00     0.130 A 
BRANCH  15  18
ATOM     18  O   UNL     1     171.195 144.071 159.029  1.00  0.00    -0.508 OA
ATOM     19  H   UNL     1     172.089 143.632 159.213  1.00  0.00     0.293 HD
ENDBRANCH  15  18
BRANCH  17  20
ATOM     20  O   UNL     1     172.109 146.224 154.800  1.00  0.00    -0.507 OA
ATOM     21  H   UNL     1     173.115 146.108 154.824  1.00  0.00     0.293 HD
ENDBRANCH  17  20
ENDBRANCH   1  12
BRANCH   2  22
ATOM     22  O   UNL     1     167.410 146.136 154.547  1.00  0.00    -0.502 OA
ATOM     23  H   UNL     1     167.104 145.411 155.185  1.00  0.00     0.293 HD
ENDBRANCH   2  22
BRANCH   6  24
ATOM     24  O   UNL     1     167.298 146.681 149.372  1.00  0.00    -0.507 OA
ATOM     25  H   UNL     1     166.798 146.307 148.574  1.00  0.00     0.293 HD
ENDBRANCH   6  24
BRANCH   8  26
ATOM     26  O   UNL     1     171.744 145.195 148.164  1.00  0.00    -0.508 OA
ATOM     27  H   UNL     1     172.479 145.865 147.967  1.00  0.00     0.293 HD
ENDBRANCH   8  26
TORSDOF 6
ENDMDL
MODEL 7
REMARK VINA RESULT:    -6.955      2.071      4.022
REMARK INTER + INTRA:          -8.516
REMARK INTER:                  -8.118
REMARK INTRA:                  -0.398
REMARK UNBOUND:                -0.138
REMARK SMILES O=c1c(O)c(-c2ccc(O)cc2O)oc2cc(O)cc(O)c12
REMARK SMILES IDX 5 1 3 2 2 3 1 4 22 5 20 6 19 7 17 8 16 9 15 10 14 11 6 12
REMARK SMILES IDX 8 13 7 14 9 15 11 16 12 17 10 18 13 20 4 22 21 24 18 26
REMARK H PARENT 10 19 13 21 4 23 21 25 18 27
REMARK Flexibility Score: inf
ROOT
ATOM      1  C   UNL     1     170.251 145.335 152.493  1.00  0.00     0.184 A 
ATOM      2  C   UNL     1     170.646 145.501 153.832  1.00  0.00     0.208 A 
ATOM      3  C   UNL     1     171.724 144.746 154.319  1.00  0.00     0.238 A 
ATOM      4  O   UNL     1     172.095 144.894 155.516  1.00  0.00    -0.285 OA
ATOM      5  C   UNL     1     172.372 143.828 153.468  1.00  0.00     0.111 A 
ATOM      6  C   UNL     1     173.464 143.027 153.880  1.00  0.00     0.134 A 
ATOM      7  C   UNL     1     174.051 142.130 152.975  1.00  0.00     0.093 A 
ATOM      8  C   UNL     1     173.565 142.020 151.667  1.00  0.00     0.123 A 
ATOM      9  C   UNL     1     172.491 142.808 151.255  1.00  0.00     0.094 A 
ATOM     10  C   UNL     1     171.893 143.709 152.142  1.00  0.00     0.146 A 
ATOM     11  O   UNL     1     170.873 144.450 151.722  1.00  0.00    -0.451 OA
ENDROOT
BRANCH   1  12
ATOM     12  C   UNL     1     169.132 146.107 151.913  1.00  0.00     0.063 A 
ATOM     13  C   UNL     1     166.743 146.550 151.820  1.00  0.00     0.047 A 
ATOM     14  C   UNL     1     167.825 145.843 152.352  1.00  0.00     0.020 A 
ATOM     15  C   UNL     1     166.954 147.521 150.834  1.00  0.00     0.119 A 
ATOM     16  C   UNL     1     168.250 147.774 150.375  1.00  0.00     0.093 A 
ATOM     17  C   UNL     1     169.341 147.064 150.899  1.00  0.00     0.130 A 
BRANCH  15  18
ATOM     18  O   UNL     1     165.883 148.235 150.301  1.00  0.00    -0.508 OA
ATOM     19  H   UNL     1     165.007 148.329 150.801  1.00  0.00     0.293 HD
ENDBRANCH  15  18
BRANCH  17  20
ATOM     20  O   UNL     1     170.623 147.291 150.397  1.00  0.00    -0.507 OA
ATOM     21  H   UNL     1     170.866 148.161 149.936  1.00  0.00     0.293 HD
ENDBRANCH  17  20
ENDBRANCH   1  12
BRANCH   2  22
ATOM     22  O   UNL     1     169.953 146.385 154.663  1.00  0.00    -0.502 OA
ATOM     23  H   UNL     1     169.572 146.101 155.558  1.00  0.00     0.293 HD
ENDBRANCH   2  22
BRANCH   6  24
ATOM     24  O   UNL     1     173.969 143.115 155.178  1.00  0.00    -0.507 OA
ATOM     25  H   UNL     1     173.513 142.657 155.960  1.00  0.00     0.293 HD
ENDBRANCH   6  24
BRANCH   8  26
ATOM     26  O   UNL     1     174.147 141.128 150.767  1.00  0.00    -0.508 OA
ATOM     27  H   UNL     1     173.729 140.937 149.864  1.00  0.00     0.293 HD
ENDBRANCH   8  26
TORSDOF 6
ENDMDL
