MODEL 1
REMARK VINA RESULT:    -0.816      0.000      0.000
REMARK INTER + INTRA:          -0.527
REMARK INTER:                  -0.983
REMARK INTRA:                   0.456
REMARK UNBOUND:                 0.456
REMARK SMILES O=c1c(O)c(-c2ccc(O)c(O)c2)oc2cc(O)cc(O)c12
REMARK SMILES IDX 5 1 3 2 2 3 1 4 22 5 20 6 19 7 17 8 16 9 15 10 14 11 6 12
REMARK SMILES IDX 7 13 8 14 9 15 13 16 11 17 10 18 12 20 4 22 21 24 18 26
REMARK H PARENT 10 19 12 21 4 23 21 25 18 27
REMARK Flexibility Score: inf
ROOT
ATOM      1  C   UNL     1      11.942 -14.424   4.959  1.00  0.00     0.180 A 
ATOM      2  C   UNL     1      10.773 -13.641   5.022  1.00  0.00     0.208 A 
ATOM      3  C   UNL     1      10.893 -12.244   5.057  1.00  0.00     0.238 A 
ATOM      4  O   UNL     1       9.854 -11.533   5.125  1.00  0.00    -0.285 OA
ATOM      5  C   UNL     1      12.172 -11.653   5.010  1.00  0.00     0.111 A 
ATOM      6  C   UNL     1      12.380 -10.252   5.037  1.00  0.00     0.134 A 
ATOM      7  C   UNL     1      13.685  -9.741   4.976  1.00  0.00     0.093 A 
ATOM      8  C   UNL     1      14.785 -10.603   4.888  1.00  0.00     0.123 A 
ATOM      9  C   UNL     1      14.585 -11.984   4.861  1.00  0.00     0.094 A 
ATOM     10  C   UNL     1      13.292 -12.513   4.922  1.00  0.00     0.146 A 
ATOM     11  O   UNL     1      13.131 -13.831   4.900  1.00  0.00    -0.452 OA
ENDROOT
BRANCH   1  12
ATOM     12  C   UNL     1      11.899 -15.904   4.938  1.00  0.00     0.025 A 
ATOM     13  C   UNL     1      13.089 -16.632   5.087  1.00  0.00     0.016 A 
ATOM     14  C   UNL     1      13.070 -18.029   5.090  1.00  0.00     0.051 A 
ATOM     15  C   UNL     1      11.861 -18.719   4.960  1.00  0.00     0.157 A 
ATOM     16  C   UNL     1      10.682 -16.600   4.827  1.00  0.00     0.062 A 
ATOM     17  C   UNL     1      10.660 -18.002   4.832  1.00  0.00     0.158 A 
BRANCH  15  18
ATOM     18  O   UNL     1      11.874 -20.113   4.963  1.00  0.00    -0.504 OA
ATOM     19  H   UNL     1      12.647 -20.643   5.349  1.00  0.00     0.293 HD
ENDBRANCH  15  18
BRANCH  17  20
ATOM     20  O   UNL     1       9.450 -18.684   4.716  1.00  0.00    -0.504 OA
ATOM     21  H   UNL     1       8.723 -18.373   4.082  1.00  0.00     0.293 HD
ENDBRANCH  17  20
ENDBRANCH   1  12
BRANCH   2  22
ATOM     22  O   UNL     1       9.516 -14.250   5.018  1.00  0.00    -0.502 OA
ATOM     23  H   UNL     1       9.399 -15.255   4.990  1.00  0.00     0.293 HD
ENDBRANCH   2  22
BRANCH   6  24
ATOM     24  O   UNL     1      11.304  -9.368   5.123  1.00  0.00    -0.507 OA
ATOM     25  H   UNL     1      10.378  -9.622   4.799  1.00  0.00     0.293 HD
ENDBRANCH   6  24
BRANCH   8  26
ATOM     26  O   UNL     1      16.080 -10.095   4.826  1.00  0.00    -0.508 OA
ATOM     27  H   UNL     1      16.796 -10.536   4.262  1.00  0.00     0.293 HD
ENDBRANCH   8  26
TORSDOF 6
ENDMDL
MODEL 2
REMARK VINA RESULT:     0.082      1.184      6.694
REMARK INTER + INTRA:           0.554
REMARK INTER:                   0.099
REMARK INTRA:                   0.455
REMARK UNBOUND:                 0.456
REMARK SMILES O=c1c(O)c(-c2ccc(O)c(O)c2)oc2cc(O)cc(O)c12
REMARK SMILES IDX 5 1 3 2 2 3 1 4 22 5 20 6 19 7 17 8 16 9 15 10 14 11 6 12
REMARK SMILES IDX 7 13 8 14 9 15 13 16 11 17 10 18 12 20 4 22 21 24 18 26
REMARK H PARENT 10 19 12 21 4 23 21 25 18 27
REMARK Flexibility Score: inf
ROOT
ATOM      1  C   UNL     1      11.880 -14.408   5.068  1.00  0.00     0.180 A 
ATOM      2  C   UNL     1      10.535 -14.823   5.075  1.00  0.00     0.208 A 
ATOM      3  C   UNL     1      10.248 -16.196   5.068  1.00  0.00     0.238 A 
ATOM      4  O   UNL     1       9.047 -16.580   5.062  1.00  0.00    -0.285 OA
ATOM      5  C   UNL     1      11.306 -17.129   5.074  1.00  0.00     0.111 A 
ATOM      6  C   UNL     1      11.103 -18.531   5.071  1.00  0.00     0.134 A 
ATOM      7  C   UNL     1      12.209 -19.394   5.087  1.00  0.00     0.093 A 
ATOM      8  C   UNL     1      13.512 -18.883   5.107  1.00  0.00     0.123 A 
ATOM      9  C   UNL     1      13.717 -17.502   5.109  1.00  0.00     0.094 A 
ATOM     10  C   UNL     1      12.628 -16.625   5.092  1.00  0.00     0.146 A 
ATOM     11  O   UNL     1      12.852 -15.316   5.089  1.00  0.00    -0.452 OA
ENDROOT
BRANCH   1  12
ATOM     12  C   UNL     1      12.263 -12.978   5.056  1.00  0.00     0.025 A 
ATOM     13  C   UNL     1      13.621 -12.626   5.107  1.00  0.00     0.016 A 
ATOM     14  C   UNL     1      14.007 -11.283   5.077  1.00  0.00     0.051 A 
ATOM     15  C   UNL     1      13.044 -10.274   4.979  1.00  0.00     0.157 A 
ATOM     16  C   UNL     1      11.298 -11.961   4.938  1.00  0.00     0.062 A 
ATOM     17  C   UNL     1      11.683 -10.614   4.905  1.00  0.00     0.158 A 
BRANCH  15  18
ATOM     18  O   UNL     1      13.459  -8.943   4.954  1.00  0.00    -0.504 OA
ATOM     19  H   UNL     1      14.433  -8.682   5.048  1.00  0.00     0.293 HD
ENDBRANCH  15  18
BRANCH  17  20
ATOM     20  O   UNL     1      10.719  -9.612   4.794  1.00  0.00    -0.504 OA
ATOM     21  H   UNL     1       9.859  -9.641   5.329  1.00  0.00     0.293 HD
ENDBRANCH  17  20
ENDBRANCH   1  12
BRANCH   2  22
ATOM     22  O   UNL     1       9.506 -13.879   5.118  1.00  0.00    -0.502 OA
ATOM     23  H   UNL     1       8.528 -14.140   5.087  1.00  0.00     0.293 HD
ENDBRANCH   2  22
BRANCH   6  24
ATOM     24  O   UNL     1       9.816 -19.070   5.052  1.00  0.00    -0.507 OA
ATOM     25  H   UNL     1       9.422 -19.480   4.214  1.00  0.00     0.293 HD
ENDBRANCH   6  24
BRANCH   8  26
ATOM     26  O   UNL     1      14.609 -19.740   5.125  1.00  0.00    -0.508 OA
ATOM     27  H   UNL     1      15.067 -19.997   5.990  1.00  0.00     0.293 HD
ENDBRANCH   8  26
TORSDOF 6
ENDMDL
MODEL 3
REMARK VINA RESULT:     0.156      2.331      8.460
REMARK INTER + INTRA:           0.644
REMARK INTER:                   0.104
REMARK INTRA:                   0.540
REMARK UNBOUND:                 0.456
REMARK SMILES O=c1c(O)c(-c2ccc(O)c(O)c2)oc2cc(O)cc(O)c12
REMARK SMILES IDX 5 1 3 2 2 3 1 4 22 5 20 6 19 7 17 8 16 9 15 10 14 11 6 12
REMARK SMILES IDX 7 13 8 14 9 15 13 16 11 17 10 18 12 20 4 22 21 24 18 26
REMARK H PARENT 10 19 12 21 4 23 21 25 18 27
REMARK Flexibility Score: inf
ROOT
ATOM      1  C   UNL     1      11.369 -18.004   5.110  1.00  0.00     0.180 A 
ATOM      2  C   UNL     1      12.442 -18.915   5.083  1.00  0.00     0.208 A 
ATOM      3  C   UNL     1      12.165 -20.291   5.091  1.00  0.00     0.238 A 
ATOM      4  O   UNL     1      13.118 -21.116   5.078  1.00  0.00    -0.285 OA
ATOM      5  C   UNL     1      10.826 -20.731   5.105  1.00  0.00     0.111 A 
ATOM      6  C   UNL     1      10.460 -22.100   5.109  1.00  0.00     0.134 A 
ATOM      7  C   UNL     1       9.104 -22.458   5.114  1.00  0.00     0.093 A 
ATOM      8  C   UNL     1       8.107 -21.475   5.113  1.00  0.00     0.123 A 
ATOM      9  C   UNL     1       8.462 -20.125   5.109  1.00  0.00     0.094 A 
ATOM     10  C   UNL     1       9.808 -19.748   5.106  1.00  0.00     0.146 A 
ATOM     11  O   UNL     1      10.118 -18.456   5.108  1.00  0.00    -0.452 OA
ENDROOT
BRANCH   1  12
ATOM     12  C   UNL     1      11.580 -16.539   5.123  1.00  0.00     0.025 A 
ATOM     13  C   UNL     1      12.887 -16.028   5.076  1.00  0.00     0.016 A 
ATOM     14  C   UNL     1      13.109 -14.649   5.067  1.00  0.00     0.051 A 
ATOM     15  C   UNL     1      12.030 -13.760   5.090  1.00  0.00     0.157 A 
ATOM     16  C   UNL     1      10.496 -15.642   5.125  1.00  0.00     0.062 A 
ATOM     17  C   UNL     1      10.717 -14.258   5.114  1.00  0.00     0.158 A 
BRANCH  15  18
ATOM     18  O   UNL     1      12.283 -12.388   5.083  1.00  0.00    -0.504 OA
ATOM     19  H   UNL     1      11.980 -11.790   4.324  1.00  0.00     0.293 HD
ENDBRANCH  15  18
BRANCH  17  20
ATOM     20  O   UNL     1       9.637 -13.376   5.123  1.00  0.00    -0.504 OA
ATOM     21  H   UNL     1       8.680 -13.708   5.130  1.00  0.00     0.293 HD
ENDBRANCH  17  20
ENDBRANCH   1  12
BRANCH   2  22
ATOM     22  O   UNL     1      13.759 -18.453   5.020  1.00  0.00    -0.502 OA
ATOM     23  H   UNL     1      14.166 -18.088   4.168  1.00  0.00     0.293 HD
ENDBRANCH   2  22
BRANCH   6  24
ATOM     24  O   UNL     1      11.431 -23.102   5.110  1.00  0.00    -0.507 OA
ATOM     25  H   UNL     1      12.365 -22.940   4.752  1.00  0.00     0.293 HD
ENDBRANCH   6  24
BRANCH   8  26
ATOM     26  O   UNL     1       6.760 -21.831   5.116  1.00  0.00    -0.508 OA
ATOM     27  H   UNL     1       6.183 -21.713   5.940  1.00  0.00     0.293 HD
ENDBRANCH   8  26
TORSDOF 6
ENDMDL
MODEL 4
REMARK VINA RESULT:     0.530      1.617      7.139
REMARK INTER + INTRA:           1.095
REMARK INTER:                   0.657
REMARK INTRA:                   0.437
REMARK UNBOUND:                 0.456
REMARK SMILES O=c1c(O)c(-c2ccc(O)c(O)c2)oc2cc(O)cc(O)c12
REMARK SMILES IDX 5 1 3 2 2 3 1 4 22 5 20 6 19 7 17 8 16 9 15 10 14 11 6 12
REMARK SMILES IDX 7 13 8 14 9 15 13 16 11 17 10 18 12 20 4 22 21 24 18 26
REMARK H PARENT 10 19 12 21 4 23 21 25 18 27
REMARK Flexibility Score: inf
ROOT
ATOM      1  C   UNL     1      11.630 -16.242   5.039  1.00  0.00     0.180 A 
ATOM      2  C   UNL     1      10.309 -16.726   5.075  1.00  0.00     0.208 A 
ATOM      3  C   UNL     1      10.094 -18.112   5.089  1.00  0.00     0.238 A 
ATOM      4  O   UNL     1       8.914 -18.558   5.109  1.00  0.00    -0.285 OA
ATOM      5  C   UNL     1      11.199 -18.989   5.088  1.00  0.00     0.111 A 
ATOM      6  C   UNL     1      11.069 -20.399   5.106  1.00  0.00     0.134 A 
ATOM      7  C   UNL     1      12.218 -21.203   5.113  1.00  0.00     0.093 A 
ATOM      8  C   UNL     1      13.493 -20.625   5.103  1.00  0.00     0.123 A 
ATOM      9  C   UNL     1      13.626 -19.236   5.085  1.00  0.00     0.094 A 
ATOM     10  C   UNL     1      12.493 -18.417   5.076  1.00  0.00     0.146 A 
ATOM     11  O   UNL     1      12.648 -17.098   5.054  1.00  0.00    -0.452 OA
ENDROOT
BRANCH   1  12
ATOM     12  C   UNL     1      11.938 -14.794   5.003  1.00  0.00     0.025 A 
ATOM     13  C   UNL     1      13.269 -14.367   5.125  1.00  0.00     0.016 A 
ATOM     14  C   UNL     1      13.586 -13.008   5.073  1.00  0.00     0.051 A 
ATOM     15  C   UNL     1      12.580 -12.055   4.884  1.00  0.00     0.157 A 
ATOM     16  C   UNL     1      10.930 -13.835   4.792  1.00  0.00     0.062 A 
ATOM     17  C   UNL     1      11.246 -12.470   4.738  1.00  0.00     0.158 A 
BRANCH  15  18
ATOM     18  O   UNL     1      12.925 -10.705   4.839  1.00  0.00    -0.504 OA
ATOM     19  H   UNL     1      13.835 -10.373   5.136  1.00  0.00     0.293 HD
ENDBRANCH  15  18
BRANCH  17  20
ATOM     20  O   UNL     1      10.240 -11.527   4.535  1.00  0.00    -0.504 OA
ATOM     21  H   UNL     1      10.453 -10.551   4.364  1.00  0.00     0.293 HD
ENDBRANCH  17  20
ENDBRANCH   1  12
BRANCH   2  22
ATOM     22  O   UNL     1       9.233 -15.836   5.125  1.00  0.00    -0.502 OA
ATOM     23  H   UNL     1       8.962 -15.266   4.333  1.00  0.00     0.293 HD
ENDBRANCH   2  22
BRANCH   6  24
ATOM     24  O   UNL     1       9.811 -21.004   5.116  1.00  0.00    -0.507 OA
ATOM     25  H   UNL     1       9.477 -21.553   4.333  1.00  0.00     0.293 HD
ENDBRANCH   6  24
BRANCH   8  26
ATOM     26  O   UNL     1      14.634 -21.424   5.112  1.00  0.00    -0.508 OA
ATOM     27  H   UNL     1      15.417 -21.236   4.498  1.00  0.00     0.293 HD
ENDBRANCH   8  26
TORSDOF 6
ENDMDL
MODEL 5
REMARK VINA RESULT:     2.026      1.449      7.351
REMARK INTER + INTRA:           2.896
REMARK INTER:                   2.356
REMARK INTRA:                   0.540
REMARK UNBOUND:                 0.456
REMARK SMILES O=c1c(O)c(-c2ccc(O)c(O)c2)oc2cc(O)cc(O)c12
REMARK SMILES IDX 5 1 3 2 2 3 1 4 22 5 20 6 19 7 17 8 16 9 15 10 14 11 6 12
REMARK SMILES IDX 7 13 8 14 9 15 13 16 11 17 10 18 12 20 4 22 21 24 18 26
REMARK H PARENT 10 19 12 21 4 23 21 25 18 27
REMARK Flexibility Score: inf
ROOT
ATOM      1  C   UNL     1      11.956 -15.146   5.108  1.00  0.00     0.180 A 
ATOM      2  C   UNL     1      13.163 -15.870   5.085  1.00  0.00     0.208 A 
ATOM      3  C   UNL     1      13.115 -17.271   5.096  1.00  0.00     0.238 A 
ATOM      4  O   UNL     1      14.190 -17.930   5.087  1.00  0.00    -0.285 OA
ATOM      5  C   UNL     1      11.866 -17.925   5.110  1.00  0.00     0.111 A 
ATOM      6  C   UNL     1      11.729 -19.335   5.118  1.00  0.00     0.134 A 
ATOM      7  C   UNL     1      10.449 -19.910   5.123  1.00  0.00     0.093 A 
ATOM      8  C   UNL     1       9.305 -19.103   5.118  1.00  0.00     0.123 A 
ATOM      9  C   UNL     1       9.435 -17.713   5.111  1.00  0.00     0.094 A 
ATOM     10  C   UNL     1      10.702 -17.121   5.108  1.00  0.00     0.146 A 
ATOM     11  O   UNL     1      10.796 -15.796   5.106  1.00  0.00    -0.452 OA
ENDROOT
BRANCH   1  12
ATOM     12  C   UNL     1      11.925 -13.666   5.117  1.00  0.00     0.025 A 
ATOM     13  C   UNL     1      13.131 -12.949   5.125  1.00  0.00     0.016 A 
ATOM     14  C   UNL     1      13.127 -11.552   5.114  1.00  0.00     0.051 A 
ATOM     15  C   UNL     1      11.917 -10.850   5.079  1.00  0.00     0.157 A 
ATOM     16  C   UNL     1      10.711 -12.958   5.061  1.00  0.00     0.062 A 
ATOM     17  C   UNL     1      10.703 -11.556   5.048  1.00  0.00     0.158 A 
BRANCH  15  18
ATOM     18  O   UNL     1      11.944  -9.456   5.071  1.00  0.00    -0.504 OA
ATOM     19  H   UNL     1      12.781  -8.936   4.838  1.00  0.00     0.293 HD
ENDBRANCH  15  18
BRANCH  17  20
ATOM     20  O   UNL     1       9.494 -10.862   4.999  1.00  0.00    -0.504 OA
ATOM     21  H   UNL     1       9.325 -10.139   4.310  1.00  0.00     0.293 HD
ENDBRANCH  17  20
ENDBRANCH   1  12
BRANCH   2  22
ATOM     22  O   UNL     1      14.387 -15.198   5.021  1.00  0.00    -0.502 OA
ATOM     23  H   UNL     1      15.122 -15.467   4.379  1.00  0.00     0.293 HD
ENDBRANCH   2  22
BRANCH   6  24
ATOM     24  O   UNL     1      12.851 -20.165   5.122  1.00  0.00    -0.507 OA
ATOM     25  H   UNL     1      13.368 -20.358   5.971  1.00  0.00     0.293 HD
ENDBRANCH   6  24
BRANCH   8  26
ATOM     26  O   UNL     1       8.035 -19.674   5.121  1.00  0.00    -0.508 OA
ATOM     27  H   UNL     1       7.899 -20.665   4.962  1.00  0.00     0.293 HD
ENDBRANCH   8  26
TORSDOF 6
ENDMDL
