MODEL 1
REMARK VINA RESULT:    13.003      0.000      0.000
REMARK INTER + INTRA:          27.216
REMARK INTER:                  28.207
REMARK INTRA:                  -0.991
REMARK UNBOUND:                -0.991
REMARK SMILES CCCCCCCCCCCCCCCCCCCCCC(=O)[O-]
REMARK SMILES IDX 12 1 11 2 10 3 9 4 8 5 7 6 6 7 5 8 4 9 3 10 2 11 1 12 13 13
REMARK SMILES IDX 14 14 15 15 16 16 17 17 18 18 19 19 20 20 21 21 22 22 23 23
REMARK SMILES IDX 24 24
REMARK H PARENT
REMARK Flexibility Score: inf
ROOT
ATOM      1  C   UNL     1      -7.622  29.470 -12.953  1.00  0.00     0.000 C 
ENDROOT
BRANCH   1   2
ATOM      2  C   UNL     1      -8.639  29.625 -14.095  1.00  0.00     0.000 C 
BRANCH   2   3
ATOM      3  C   UNL     1      -8.445  30.932 -14.884  1.00  0.00     0.000 C 
BRANCH   3   4
ATOM      4  C   UNL     1      -9.350  31.020 -16.127  1.00  0.00    -0.000 C 
BRANCH   4   5
ATOM      5  C   UNL     1      -9.475  29.718 -16.945  1.00  0.00    -0.000 C 
BRANCH   5   6
ATOM      6  C   UNL     1      -8.526  29.606 -18.152  1.00  0.00    -0.000 C 
BRANCH   6   7
ATOM      7  C   UNL     1      -7.317  28.695 -17.879  1.00  0.00    -0.000 C 
BRANCH   7   8
ATOM      8  C   UNL     1      -6.489  28.419 -19.144  1.00  0.00    -0.000 C 
BRANCH   8   9
ATOM      9  C   UNL     1      -6.830  29.375 -20.298  1.00  0.00    -0.000 C 
BRANCH   9  10
ATOM     10  C   UNL     1      -6.031  29.021 -21.558  1.00  0.00    -0.000 C 
BRANCH  10  11
ATOM     11  C   UNL     1      -5.828  27.506 -21.673  1.00  0.00    -0.003 C 
ATOM     12  C   UNL     1      -6.053  27.027 -23.105  1.00  0.00     0.004 C 
ENDBRANCH  10  11
ENDBRANCH   9  10
ENDBRANCH   8   9
ENDBRANCH   7   8
ENDBRANCH   6   7
ENDBRANCH   5   6
ENDBRANCH   4   5
ENDBRANCH   3   4
ENDBRANCH   2   3
ENDBRANCH   1   2
BRANCH   1  13
ATOM     13  C   UNL     1      -8.285  29.420 -11.568  1.00  0.00     0.000 C 
BRANCH  13  14
ATOM     14  C   UNL     1      -7.729  28.253 -10.737  1.00  0.00     0.000 C 
BRANCH  14  15
ATOM     15  C   UNL     1      -8.830  27.453 -10.019  1.00  0.00     0.000 C 
BRANCH  15  16
ATOM     16  C   UNL     1      -8.369  26.117  -9.402  1.00  0.00     0.000 C 
BRANCH  16  17
ATOM     17  C   UNL     1      -8.741  25.914  -7.922  1.00  0.00     0.000 C 
BRANCH  17  18
ATOM     18  C   UNL     1      -7.976  24.751  -7.267  1.00  0.00     0.000 C 
BRANCH  18  19
ATOM     19  C   UNL     1      -8.299  24.600  -5.772  1.00  0.00     0.000 C 
BRANCH  19  20
ATOM     20  C   UNL     1      -8.845  25.894  -5.149  1.00  0.00     0.006 C 
BRANCH  20  21
ATOM     21  C   UNL     1     -10.255  25.681  -4.593  1.00  0.00     0.053 C 
BRANCH  21  22
ATOM     22  C   UNL     1     -11.059  26.938  -4.705  1.00  0.00     0.041 C 
ATOM     23  O   UNL     1     -12.277  26.885  -5.018  1.00  0.00    -0.550 OA
ATOM     24  O   UNL     1     -10.473  28.165  -4.415  1.00  0.00    -0.550 OA
ENDBRANCH  21  22
ENDBRANCH  20  21
ENDBRANCH  19  20
ENDBRANCH  18  19
ENDBRANCH  17  18
ENDBRANCH  16  17
ENDBRANCH  15  16
ENDBRANCH  14  15
ENDBRANCH  13  14
ENDBRANCH   1  13
TORSDOF 20
ENDMDL
MODEL 2
REMARK VINA RESULT:    13.109      0.793      1.462
REMARK INTER + INTRA:          27.444
REMARK INTER:                  28.024
REMARK INTRA:                  -0.580
REMARK UNBOUND:                -0.991
REMARK SMILES CCCCCCCCCCCCCCCCCCCCCC(=O)[O-]
REMARK SMILES IDX 12 1 11 2 10 3 9 4 8 5 7 6 6 7 5 8 4 9 3 10 2 11 1 12 13 13
REMARK SMILES IDX 14 14 15 15 16 16 17 17 18 18 19 19 20 20 21 21 22 22 23 23
REMARK SMILES IDX 24 24
REMARK H PARENT
REMARK Flexibility Score: inf
ROOT
ATOM      1  C   UNL     1      -8.103  29.485 -11.652  1.00  0.00     0.000 C 
ENDROOT
BRANCH   1   2
ATOM      2  C   UNL     1      -7.673  29.487 -13.128  1.00  0.00     0.000 C 
BRANCH   2   3
ATOM      3  C   UNL     1      -8.864  29.651 -14.089  1.00  0.00     0.000 C 
BRANCH   3   4
ATOM      4  C   UNL     1      -8.755  30.912 -14.966  1.00  0.00    -0.000 C 
BRANCH   4   5
ATOM      5  C   UNL     1      -8.998  30.691 -16.473  1.00  0.00    -0.000 C 
BRANCH   5   6
ATOM      6  C   UNL     1      -8.628  29.292 -17.001  1.00  0.00    -0.000 C 
BRANCH   6   7
ATOM      7  C   UNL     1      -7.194  28.875 -16.632  1.00  0.00    -0.000 C 
BRANCH   7   8
ATOM      8  C   UNL     1      -6.393  28.380 -17.846  1.00  0.00    -0.000 C 
BRANCH   8   9
ATOM      9  C   UNL     1      -7.098  28.669 -19.181  1.00  0.00    -0.000 C 
BRANCH   9  10
ATOM     10  C   UNL     1      -6.082  29.019 -20.274  1.00  0.00    -0.000 C 
BRANCH  10  11
ATOM     11  C   UNL     1      -6.536  28.490 -21.639  1.00  0.00    -0.003 C 
ATOM     12  C   UNL     1      -5.376  27.852 -22.397  1.00  0.00     0.004 C 
ENDBRANCH  10  11
ENDBRANCH   9  10
ENDBRANCH   8   9
ENDBRANCH   7   8
ENDBRANCH   6   7
ENDBRANCH   5   6
ENDBRANCH   4   5
ENDBRANCH   3   4
ENDBRANCH   2   3
ENDBRANCH   1   2
BRANCH   1  13
ATOM     13  C   UNL     1      -7.658  28.220 -10.904  1.00  0.00     0.000 C 
BRANCH  13  14
ATOM     14  C   UNL     1      -8.699  27.812  -9.850  1.00  0.00     0.000 C 
BRANCH  14  15
ATOM     15  C   UNL     1      -8.601  26.328  -9.456  1.00  0.00     0.000 C 
BRANCH  15  16
ATOM     16  C   UNL     1      -8.733  26.042  -7.946  1.00  0.00     0.000 C 
BRANCH  16  17
ATOM     17  C   UNL     1      -7.950  24.817  -7.439  1.00  0.00     0.000 C 
BRANCH  17  18
ATOM     18  C   UNL     1      -8.395  24.362  -6.039  1.00  0.00     0.000 C 
BRANCH  18  19
ATOM     19  C   UNL     1      -8.472  25.526  -5.037  1.00  0.00     0.000 C 
BRANCH  19  20
ATOM     20  C   UNL     1      -9.892  25.746  -4.493  1.00  0.00     0.006 C 
BRANCH  20  21
ATOM     21  C   UNL     1     -10.495  27.041  -5.045  1.00  0.00     0.053 C 
BRANCH  21  22
ATOM     22  C   UNL     1     -11.984  27.027  -4.908  1.00  0.00     0.041 C 
ATOM     23  O   UNL     1     -12.588  28.031  -4.448  1.00  0.00    -0.550 OA
ATOM     24  O   UNL     1     -12.710  25.922  -5.336  1.00  0.00    -0.550 OA
ENDBRANCH  21  22
ENDBRANCH  20  21
ENDBRANCH  19  20
ENDBRANCH  18  19
ENDBRANCH  17  18
ENDBRANCH  16  17
ENDBRANCH  15  16
ENDBRANCH  14  15
ENDBRANCH  13  14
ENDBRANCH   1  13
TORSDOF 20
ENDMDL
MODEL 3
REMARK VINA RESULT:    13.414      5.378     12.731
REMARK INTER + INTRA:          28.108
REMARK INTER:                  28.865
REMARK INTRA:                  -0.757
REMARK UNBOUND:                -0.991
REMARK SMILES CCCCCCCCCCCCCCCCCCCCCC(=O)[O-]
REMARK SMILES IDX 12 1 11 2 10 3 9 4 8 5 7 6 6 7 5 8 4 9 3 10 2 11 1 12 13 13
REMARK SMILES IDX 14 14 15 15 16 16 17 17 18 18 19 19 20 20 21 21 22 22 23 23
REMARK SMILES IDX 24 24
REMARK H PARENT
REMARK Flexibility Score: inf
ROOT
ATOM      1  C   UNL     1      -8.645  29.569 -12.201  1.00  0.00     0.000 C 
ENDROOT
BRANCH   1   2
ATOM      2  C   UNL     1      -7.585  28.921 -11.295  1.00  0.00     0.000 C 
BRANCH   2   3
ATOM      3  C   UNL     1      -8.148  28.532  -9.916  1.00  0.00     0.000 C 
BRANCH   3   4
ATOM      4  C   UNL     1      -8.792  27.133  -9.906  1.00  0.00    -0.000 C 
BRANCH   4   5
ATOM      5  C   UNL     1      -9.019  26.522  -8.508  1.00  0.00    -0.000 C 
BRANCH   5   6
ATOM      6  C   UNL     1      -8.072  25.366  -8.134  1.00  0.00    -0.000 C 
BRANCH   6   7
ATOM      7  C   UNL     1      -8.579  24.542  -6.938  1.00  0.00    -0.000 C 
BRANCH   7   8
ATOM      8  C   UNL     1      -8.226  25.185  -5.587  1.00  0.00    -0.000 C 
BRANCH   8   9
ATOM      9  C   UNL     1      -9.467  25.624  -4.795  1.00  0.00    -0.000 C 
BRANCH   9  10
ATOM     10  C   UNL     1      -9.641  27.146  -4.846  1.00  0.00    -0.000 C 
BRANCH  10  11
ATOM     11  C   UNL     1     -11.047  27.556  -4.393  1.00  0.00    -0.003 C 
ATOM     12  C   UNL     1     -12.117  26.734  -5.105  1.00  0.00     0.004 C 
ENDBRANCH  10  11
ENDBRANCH   9  10
ENDBRANCH   8   9
ENDBRANCH   7   8
ENDBRANCH   6   7
ENDBRANCH   5   6
ENDBRANCH   4   5
ENDBRANCH   3   4
ENDBRANCH   2   3
ENDBRANCH   1   2
BRANCH   1  13
ATOM     13  C   UNL     1      -8.171  29.724 -13.654  1.00  0.00     0.000 C 
BRANCH  13  14
ATOM     14  C   UNL     1      -9.307  30.245 -14.548  1.00  0.00     0.000 C 
BRANCH  14  15
ATOM     15  C   UNL     1      -8.816  31.228 -15.625  1.00  0.00     0.000 C 
BRANCH  15  16
ATOM     16  C   UNL     1      -9.297  30.920 -17.058  1.00  0.00     0.000 C 
BRANCH  16  17
ATOM     17  C   UNL     1      -8.798  29.587 -17.645  1.00  0.00     0.000 C 
BRANCH  17  18
ATOM     18  C   UNL     1      -7.530  29.065 -16.948  1.00  0.00     0.000 C 
BRANCH  18  19
ATOM     19  C   UNL     1      -6.485  28.536 -17.944  1.00  0.00     0.000 C 
BRANCH  19  20
ATOM     20  C   UNL     1      -6.953  28.636 -19.403  1.00  0.00     0.006 C 
BRANCH  20  21
ATOM     21  C   UNL     1      -6.182  27.658 -20.294  1.00  0.00     0.053 C 
BRANCH  21  22
ATOM     22  C   UNL     1      -6.111  28.170 -21.697  1.00  0.00     0.041 C 
ATOM     23  O   UNL     1      -6.469  27.439 -22.658  1.00  0.00    -0.550 OA
ATOM     24  O   UNL     1      -5.695  29.473 -21.941  1.00  0.00    -0.550 OA
ENDBRANCH  21  22
ENDBRANCH  20  21
ENDBRANCH  19  20
ENDBRANCH  18  19
ENDBRANCH  17  18
ENDBRANCH  16  17
ENDBRANCH  15  16
ENDBRANCH  14  15
ENDBRANCH  13  14
ENDBRANCH   1  13
TORSDOF 20
ENDMDL
MODEL 4
REMARK VINA RESULT:    13.731      1.070      1.874
REMARK INTER + INTRA:          28.793
REMARK INTER:                  29.650
REMARK INTRA:                  -0.856
REMARK UNBOUND:                -0.991
REMARK SMILES CCCCCCCCCCCCCCCCCCCCCC(=O)[O-]
REMARK SMILES IDX 12 1 11 2 10 3 9 4 8 5 7 6 6 7 5 8 4 9 3 10 2 11 1 12 13 13
REMARK SMILES IDX 14 14 15 15 16 16 17 17 18 18 19 19 20 20 21 21 22 22 23 23
REMARK SMILES IDX 24 24
REMARK H PARENT
REMARK Flexibility Score: inf
ROOT
ATOM      1  C   UNL     1      -7.473  28.692 -10.996  1.00  0.00     0.000 C 
ENDROOT
BRANCH   1   2
ATOM      2  C   UNL     1      -8.348  29.403 -12.041  1.00  0.00     0.000 C 
BRANCH   2   3
ATOM      3  C   UNL     1      -7.711  29.401 -13.442  1.00  0.00     0.000 C 
BRANCH   3   4
ATOM      4  C   UNL     1      -8.678  29.883 -14.539  1.00  0.00    -0.000 C 
BRANCH   4   5
ATOM      5  C   UNL     1      -8.260  29.539 -15.985  1.00  0.00    -0.000 C 
BRANCH   5   6
ATOM      6  C   UNL     1      -7.252  28.383 -16.121  1.00  0.00    -0.000 C 
BRANCH   6   7
ATOM      7  C   UNL     1      -6.517  28.388 -17.472  1.00  0.00    -0.000 C 
BRANCH   7   8
ATOM      8  C   UNL     1      -7.389  28.929 -18.616  1.00  0.00    -0.000 C 
BRANCH   8   9
ATOM      9  C   UNL     1      -6.643  28.985 -19.957  1.00  0.00    -0.000 C 
BRANCH   9  10
ATOM     10  C   UNL     1      -6.222  27.582 -20.409  1.00  0.00    -0.000 C 
BRANCH  10  11
ATOM     11  C   UNL     1      -6.203  27.479 -21.939  1.00  0.00    -0.003 C 
ATOM     12  C   UNL     1      -5.756  28.792 -22.575  1.00  0.00     0.004 C 
ENDBRANCH  10  11
ENDBRANCH   9  10
ENDBRANCH   8   9
ENDBRANCH   7   8
ENDBRANCH   6   7
ENDBRANCH   5   6
ENDBRANCH   4   5
ENDBRANCH   3   4
ENDBRANCH   2   3
ENDBRANCH   1   2
BRANCH   1  13
ATOM     13  C   UNL     1      -8.267  28.246  -9.760  1.00  0.00     0.000 C 
BRANCH  13  14
ATOM     14  C   UNL     1      -8.536  26.733  -9.798  1.00  0.00     0.000 C 
BRANCH  14  15
ATOM     15  C   UNL     1      -8.990  26.172  -8.438  1.00  0.00     0.000 C 
BRANCH  15  16
ATOM     16  C   UNL     1      -8.193  24.950  -7.937  1.00  0.00     0.000 C 
BRANCH  16  17
ATOM     17  C   UNL     1      -7.766  25.006  -6.459  1.00  0.00     0.000 C 
BRANCH  17  18
ATOM     18  C   UNL     1      -8.884  24.571  -5.497  1.00  0.00     0.000 C 
BRANCH  18  19
ATOM     19  C   UNL     1      -9.261  25.673  -4.494  1.00  0.00     0.000 C 
BRANCH  19  20
ATOM     20  C   UNL     1      -9.754  26.956  -5.180  1.00  0.00     0.006 C 
BRANCH  20  21
ATOM     21  C   UNL     1     -10.745  27.708  -4.287  1.00  0.00     0.053 C 
BRANCH  21  22
ATOM     22  C   UNL     1     -12.152  27.385  -4.677  1.00  0.00     0.041 C 
ATOM     23  O   UNL     1     -13.078  28.206  -4.446  1.00  0.00    -0.550 OA
ATOM     24  O   UNL     1     -12.434  26.198  -5.341  1.00  0.00    -0.550 OA
ENDBRANCH  21  22
ENDBRANCH  20  21
ENDBRANCH  19  20
ENDBRANCH  18  19
ENDBRANCH  17  18
ENDBRANCH  16  17
ENDBRANCH  15  16
ENDBRANCH  14  15
ENDBRANCH  13  14
ENDBRANCH   1  13
TORSDOF 20
ENDMDL
MODEL 5
REMARK VINA RESULT:    14.020      5.171     12.773
REMARK INTER + INTRA:          29.422
REMARK INTER:                  29.687
REMARK INTRA:                  -0.265
REMARK UNBOUND:                -0.991
REMARK SMILES CCCCCCCCCCCCCCCCCCCCCC(=O)[O-]
REMARK SMILES IDX 12 1 11 2 10 3 9 4 8 5 7 6 6 7 5 8 4 9 3 10 2 11 1 12 13 13
REMARK SMILES IDX 14 14 15 15 16 16 17 17 18 18 19 19 20 20 21 21 22 22 23 23
REMARK SMILES IDX 24 24
REMARK H PARENT
REMARK Flexibility Score: inf
ROOT
ATOM      1  C   UNL     1      -7.680  28.966 -11.083  1.00  0.00     0.000 C 
ENDROOT
BRANCH   1   2
ATOM      2  C   UNL     1      -7.405  27.619 -10.397  1.00  0.00     0.000 C 
BRANCH   2   3
ATOM      3  C   UNL     1      -8.646  27.059  -9.679  1.00  0.00     0.000 C 
BRANCH   3   4
ATOM      4  C   UNL     1      -8.407  25.664  -9.073  1.00  0.00    -0.000 C 
BRANCH   4   5
ATOM      5  C   UNL     1      -8.706  25.541  -7.564  1.00  0.00    -0.000 C 
BRANCH   5   6
ATOM      6  C   UNL     1      -7.601  24.870  -6.727  1.00  0.00    -0.000 C 
BRANCH   6   7
ATOM      7  C   UNL     1      -8.036  24.589  -5.279  1.00  0.00    -0.000 C 
BRANCH   7   8
ATOM      8  C   UNL     1      -9.428  25.158  -4.961  1.00  0.00    -0.000 C 
BRANCH   8   9
ATOM      9  C   UNL     1      -9.466  26.693  -5.000  1.00  0.00    -0.000 C 
BRANCH   9  10
ATOM     10  C   UNL     1     -10.554  27.240  -4.069  1.00  0.00    -0.000 C 
BRANCH  10  11
ATOM     11  C   UNL     1     -11.775  27.713  -4.867  1.00  0.00    -0.003 C 
ATOM     12  C   UNL     1     -12.714  26.552  -5.179  1.00  0.00     0.004 C 
ENDBRANCH  10  11
ENDBRANCH   9  10
ENDBRANCH   8   9
ENDBRANCH   7   8
ENDBRANCH   6   7
ENDBRANCH   5   6
ENDBRANCH   4   5
ENDBRANCH   3   4
ENDBRANCH   2   3
ENDBRANCH   1   2
BRANCH   1  13
ATOM     13  C   UNL     1      -7.529  28.900 -12.610  1.00  0.00     0.000 C 
BRANCH  13  14
ATOM     14  C   UNL     1      -8.171  30.125 -13.279  1.00  0.00     0.000 C 
BRANCH  14  15
ATOM     15  C   UNL     1      -9.040  29.756 -14.494  1.00  0.00     0.000 C 
BRANCH  15  16
ATOM     16  C   UNL     1      -8.851  30.659 -15.730  1.00  0.00     0.000 C 
BRANCH  16  17
ATOM     17  C   UNL     1      -9.557  30.176 -17.010  1.00  0.00     0.000 C 
BRANCH  17  18
ATOM     18  C   UNL     1      -8.577  29.628 -18.062  1.00  0.00     0.000 C 
BRANCH  18  19
ATOM     19  C   UNL     1      -7.377  28.904 -17.431  1.00  0.00     0.000 C 
BRANCH  19  20
ATOM     20  C   UNL     1      -6.300  28.532 -18.462  1.00  0.00     0.006 C 
BRANCH  20  21
ATOM     21  C   UNL     1      -6.936  28.111 -19.790  1.00  0.00     0.053 C 
BRANCH  21  22
ATOM     22  C   UNL     1      -6.132  28.624 -20.942  1.00  0.00     0.041 C 
ATOM     23  O   UNL     1      -5.721  27.833 -21.831  1.00  0.00    -0.550 OA
ATOM     24  O   UNL     1      -5.878  29.986 -21.061  1.00  0.00    -0.550 OA
ENDBRANCH  21  22
ENDBRANCH  20  21
ENDBRANCH  19  20
ENDBRANCH  18  19
ENDBRANCH  17  18
ENDBRANCH  16  17
ENDBRANCH  15  16
ENDBRANCH  14  15
ENDBRANCH  13  14
ENDBRANCH   1  13
TORSDOF 20
ENDMDL
MODEL 6
REMARK VINA RESULT:    14.395      5.547     12.857
REMARK INTER + INTRA:          30.234
REMARK INTER:                  31.073
REMARK INTRA:                  -0.839
REMARK UNBOUND:                -0.991
REMARK SMILES CCCCCCCCCCCCCCCCCCCCCC(=O)[O-]
REMARK SMILES IDX 12 1 11 2 10 3 9 4 8 5 7 6 6 7 5 8 4 9 3 10 2 11 1 12 13 13
REMARK SMILES IDX 14 14 15 15 16 16 17 17 18 18 19 19 20 20 21 21 22 22 23 23
REMARK SMILES IDX 24 24
REMARK H PARENT
REMARK Flexibility Score: inf
ROOT
ATOM      1  C   UNL     1      -8.296  29.773 -12.492  1.00  0.00     0.000 C 
ENDROOT
BRANCH   1   2
ATOM      2  C   UNL     1      -7.464  28.716 -11.747  1.00  0.00     0.000 C 
BRANCH   2   3
ATOM      3  C   UNL     1      -7.887  28.564 -10.275  1.00  0.00     0.000 C 
BRANCH   3   4
ATOM      4  C   UNL     1      -8.155  27.100  -9.879  1.00  0.00    -0.000 C 
BRANCH   4   5
ATOM      5  C   UNL     1      -9.343  26.884  -8.918  1.00  0.00    -0.000 C 
BRANCH   5   6
ATOM      6  C   UNL     1      -8.968  26.389  -7.509  1.00  0.00    -0.000 C 
BRANCH   6   7
ATOM      7  C   UNL     1     -10.084  26.624  -6.477  1.00  0.00    -0.000 C 
BRANCH   7   8
ATOM      8  C   UNL     1      -9.689  26.160  -5.066  1.00  0.00    -0.000 C 
BRANCH   8   9
ATOM      9  C   UNL     1      -8.220  25.718  -4.976  1.00  0.00    -0.000 C 
BRANCH   9  10
ATOM     10  C   UNL     1      -8.105  24.189  -5.005  1.00  0.00    -0.000 C 
BRANCH  10  11
ATOM     11  C   UNL     1      -6.928  23.742  -5.880  1.00  0.00    -0.003 C 
ATOM     12  C   UNL     1      -5.635  23.675  -5.073  1.00  0.00     0.004 C 
ENDBRANCH  10  11
ENDBRANCH   9  10
ENDBRANCH   8   9
ENDBRANCH   7   8
ENDBRANCH   6   7
ENDBRANCH   5   6
ENDBRANCH   4   5
ENDBRANCH   3   4
ENDBRANCH   2   3
ENDBRANCH   1   2
BRANCH   1  13
ATOM     13  C   UNL     1      -8.019  29.794 -14.002  1.00  0.00     0.000 C 
BRANCH  13  14
ATOM     14  C   UNL     1      -9.291  30.150 -14.787  1.00  0.00     0.000 C 
BRANCH  14  15
ATOM     15  C   UNL     1      -9.051  31.230 -15.856  1.00  0.00     0.000 C 
BRANCH  15  16
ATOM     16  C   UNL     1      -9.536  30.865 -17.274  1.00  0.00     0.000 C 
BRANCH  16  17
ATOM     17  C   UNL     1      -9.060  29.499 -17.800  1.00  0.00     0.000 C 
BRANCH  17  18
ATOM     18  C   UNL     1      -7.819  29.606 -18.702  1.00  0.00     0.000 C 
BRANCH  18  19
ATOM     19  C   UNL     1      -6.795  28.491 -18.432  1.00  0.00     0.000 C 
BRANCH  19  20
ATOM     20  C   UNL     1      -6.306  27.811 -19.720  1.00  0.00     0.006 C 
BRANCH  20  21
ATOM     21  C   UNL     1      -6.297  28.798 -20.891  1.00  0.00     0.053 C 
BRANCH  21  22
ATOM     22  C   UNL     1      -5.957  28.095 -22.167  1.00  0.00     0.041 C 
ATOM     23  O   UNL     1      -4.883  28.359 -22.769  1.00  0.00    -0.550 OA
ATOM     24  O   UNL     1      -6.804  27.113 -22.666  1.00  0.00    -0.550 OA
ENDBRANCH  21  22
ENDBRANCH  20  21
ENDBRANCH  19  20
ENDBRANCH  18  19
ENDBRANCH  17  18
ENDBRANCH  16  17
ENDBRANCH  15  16
ENDBRANCH  14  15
ENDBRANCH  13  14
ENDBRANCH   1  13
TORSDOF 20
ENDMDL
MODEL 7
REMARK VINA RESULT:    14.481      2.079      2.685
REMARK INTER + INTRA:          30.421
REMARK INTER:                  31.281
REMARK INTRA:                  -0.860
REMARK UNBOUND:                -0.991
REMARK SMILES CCCCCCCCCCCCCCCCCCCCCC(=O)[O-]
REMARK SMILES IDX 12 1 11 2 10 3 9 4 8 5 7 6 6 7 5 8 4 9 3 10 2 11 1 12 13 13
REMARK SMILES IDX 14 14 15 15 16 16 17 17 18 18 19 19 20 20 21 21 22 22 23 23
REMARK SMILES IDX 24 24
REMARK H PARENT
REMARK Flexibility Score: inf
ROOT
ATOM      1  C   UNL     1      -7.921  29.618 -11.947  1.00  0.00     0.000 C 
ENDROOT
BRANCH   1   2
ATOM      2  C   UNL     1      -7.749  29.402 -13.459  1.00  0.00     0.000 C 
BRANCH   2   3
ATOM      3  C   UNL     1      -8.981  29.853 -14.264  1.00  0.00     0.000 C 
BRANCH   3   4
ATOM      4  C   UNL     1      -8.690  31.058 -15.177  1.00  0.00    -0.000 C 
BRANCH   4   5
ATOM      5  C   UNL     1      -9.408  31.039 -16.543  1.00  0.00    -0.000 C 
BRANCH   5   6
ATOM      6  C   UNL     1      -9.390  29.686 -17.277  1.00  0.00    -0.000 C 
BRANCH   6   7
ATOM      7  C   UNL     1      -8.287  29.600 -18.345  1.00  0.00    -0.000 C 
BRANCH   7   8
ATOM      8  C   UNL     1      -7.113  28.709 -17.910  1.00  0.00    -0.000 C 
BRANCH   8   9
ATOM      9  C   UNL     1      -6.223  28.281 -19.088  1.00  0.00    -0.000 C 
BRANCH   9  10
ATOM     10  C   UNL     1      -6.775  28.816 -20.414  1.00  0.00    -0.000 C 
BRANCH  10  11
ATOM     11  C   UNL     1      -5.774  28.597 -21.555  1.00  0.00    -0.003 C 
ATOM     12  C   UNL     1      -6.337  27.646 -22.607  1.00  0.00     0.004 C 
ENDBRANCH  10  11
ENDBRANCH   9  10
ENDBRANCH   8   9
ENDBRANCH   7   8
ENDBRANCH   6   7
ENDBRANCH   5   6
ENDBRANCH   4   5
ENDBRANCH   3   4
ENDBRANCH   2   3
ENDBRANCH   1   2
BRANCH   1  13
ATOM     13  C   UNL     1      -7.433  28.424 -11.115  1.00  0.00     0.000 C 
BRANCH  13  14
ATOM     14  C   UNL     1      -8.338  28.201  -9.894  1.00  0.00     0.000 C 
BRANCH  14  15
ATOM     15  C   UNL     1      -8.867  26.758  -9.797  1.00  0.00     0.000 C 
BRANCH  15  16
ATOM     16  C   UNL     1      -8.791  26.127  -8.392  1.00  0.00     0.000 C 
BRANCH  16  17
ATOM     17  C   UNL     1      -9.346  26.997  -7.251  1.00  0.00     0.000 C 
BRANCH  17  18
ATOM     18  C   UNL     1     -10.063  26.174  -6.167  1.00  0.00     0.000 C 
BRANCH  18  19
ATOM     19  C   UNL     1      -9.242  26.060  -4.872  1.00  0.00     0.000 C 
BRANCH  19  20
ATOM     20  C   UNL     1      -8.621  24.667  -4.686  1.00  0.00     0.006 C 
BRANCH  20  21
ATOM     21  C   UNL     1      -7.542  24.403  -5.739  1.00  0.00     0.053 C 
BRANCH  21  22
ATOM     22  C   UNL     1      -6.198  24.277  -5.094  1.00  0.00     0.041 C 
ATOM     23  O   UNL     1      -6.076  23.673  -3.996  1.00  0.00    -0.550 OA
ATOM     24  O   UNL     1      -5.072  24.785  -5.730  1.00  0.00    -0.550 OA
ENDBRANCH  21  22
ENDBRANCH  20  21
ENDBRANCH  19  20
ENDBRANCH  18  19
ENDBRANCH  17  18
ENDBRANCH  16  17
ENDBRANCH  15  16
ENDBRANCH  14  15
ENDBRANCH  13  14
ENDBRANCH   1  13
TORSDOF 20
ENDMDL
MODEL 8
REMARK VINA RESULT:    14.637      4.087     12.025
REMARK INTER + INTRA:          30.760
REMARK INTER:                  31.616
REMARK INTRA:                  -0.857
REMARK UNBOUND:                -0.991
REMARK SMILES CCCCCCCCCCCCCCCCCCCCCC(=O)[O-]
REMARK SMILES IDX 12 1 11 2 10 3 9 4 8 5 7 6 6 7 5 8 4 9 3 10 2 11 1 12 13 13
REMARK SMILES IDX 14 14 15 15 16 16 17 17 18 18 19 19 20 20 21 21 22 22 23 23
REMARK SMILES IDX 24 24
REMARK H PARENT
REMARK Flexibility Score: inf
ROOT
ATOM      1  C   UNL     1      -8.294  23.627 -11.844  1.00  0.00     0.000 C 
ENDROOT
BRANCH   1   2
ATOM      2  C   UNL     1      -9.298  23.598 -10.680  1.00  0.00     0.000 C 
BRANCH   2   3
ATOM      3  C   UNL     1      -9.593  22.169 -10.191  1.00  0.00     0.000 C 
BRANCH   3   4
ATOM      4  C   UNL     1      -9.548  22.042  -8.657  1.00  0.00    -0.000 C 
BRANCH   4   5
ATOM      5  C   UNL     1      -8.853  23.204  -7.918  1.00  0.00    -0.000 C 
BRANCH   5   6
ATOM      6  C   UNL     1      -8.301  22.860  -6.523  1.00  0.00    -0.000 C 
BRANCH   6   7
ATOM      7  C   UNL     1      -7.295  23.902  -6.005  1.00  0.00    -0.000 C 
BRANCH   7   8
ATOM      8  C   UNL     1      -7.887  24.798  -4.905  1.00  0.00    -0.000 C 
BRANCH   8   9
ATOM      9  C   UNL     1      -8.833  25.874  -5.461  1.00  0.00    -0.000 C 
BRANCH   9  10
ATOM     10  C   UNL     1     -10.127  25.943  -4.642  1.00  0.00    -0.000 C 
BRANCH  10  11
ATOM     11  C   UNL     1     -10.522  27.397  -4.357  1.00  0.00    -0.003 C 
ATOM     12  C   UNL     1     -12.010  27.623  -4.606  1.00  0.00     0.004 C 
ENDBRANCH  10  11
ENDBRANCH   9  10
ENDBRANCH   8   9
ENDBRANCH   7   8
ENDBRANCH   6   7
ENDBRANCH   5   6
ENDBRANCH   4   5
ENDBRANCH   3   4
ENDBRANCH   2   3
ENDBRANCH   1   2
BRANCH   1  13
ATOM     13  C   UNL     1      -8.704  24.598 -12.961  1.00  0.00     0.000 C 
BRANCH  13  14
ATOM     14  C   UNL     1      -7.495  25.408 -13.454  1.00  0.00     0.000 C 
BRANCH  14  15
ATOM     15  C   UNL     1      -7.498  25.619 -14.978  1.00  0.00     0.000 C 
BRANCH  15  16
ATOM     16  C   UNL     1      -6.601  26.768 -15.481  1.00  0.00     0.000 C 
BRANCH  16  17
ATOM     17  C   UNL     1      -7.338  28.076 -15.819  1.00  0.00     0.000 C 
BRANCH  17  18
ATOM     18  C   UNL     1      -6.796  28.756 -17.088  1.00  0.00     0.000 C 
BRANCH  18  19
ATOM     19  C   UNL     1      -7.914  29.179 -18.055  1.00  0.00     0.000 C 
BRANCH  19  20
ATOM     20  C   UNL     1      -9.219  29.540 -17.329  1.00  0.00     0.006 C 
BRANCH  20  21
ATOM     21  C   UNL     1      -9.312  31.049 -17.086  1.00  0.00     0.053 C 
BRANCH  21  22
ATOM     22  C   UNL     1      -9.110  31.361 -15.637  1.00  0.00     0.041 C 
ATOM     23  O   UNL     1      -9.204  30.449 -14.774  1.00  0.00    -0.550 OA
ATOM     24  O   UNL     1      -8.771  32.650 -15.245  1.00  0.00    -0.550 OA
ENDBRANCH  21  22
ENDBRANCH  20  21
ENDBRANCH  19  20
ENDBRANCH  18  19
ENDBRANCH  17  18
ENDBRANCH  16  17
ENDBRANCH  15  16
ENDBRANCH  14  15
ENDBRANCH  13  14
ENDBRANCH   1  13
TORSDOF 20
ENDMDL
MODEL 9
REMARK VINA RESULT:    15.287      2.796      4.877
REMARK INTER + INTRA:          32.169
REMARK INTER:                  32.598
REMARK INTRA:                  -0.429
REMARK UNBOUND:                -0.991
REMARK SMILES CCCCCCCCCCCCCCCCCCCCCC(=O)[O-]
REMARK SMILES IDX 12 1 11 2 10 3 9 4 8 5 7 6 6 7 5 8 4 9 3 10 2 11 1 12 13 13
REMARK SMILES IDX 14 14 15 15 16 16 17 17 18 18 19 19 20 20 21 21 22 22 23 23
REMARK SMILES IDX 24 24
REMARK H PARENT
REMARK Flexibility Score: inf
ROOT
ATOM      1  C   UNL     1      -8.700  23.813 -11.540  1.00  0.00     0.000 C 
ENDROOT
BRANCH   1   2
ATOM      2  C   UNL     1      -8.691  24.182 -13.032  1.00  0.00     0.000 C 
BRANCH   2   3
ATOM      3  C   UNL     1      -7.643  25.258 -13.366  1.00  0.00     0.000 C 
BRANCH   3   4
ATOM      4  C   UNL     1      -7.687  25.698 -14.841  1.00  0.00    -0.000 C 
BRANCH   4   5
ATOM      5  C   UNL     1      -6.745  26.863 -15.211  1.00  0.00    -0.000 C 
BRANCH   5   6
ATOM      6  C   UNL     1      -7.446  28.184 -15.577  1.00  0.00    -0.000 C 
BRANCH   6   7
ATOM      7  C   UNL     1      -7.098  28.671 -16.994  1.00  0.00    -0.000 C 
BRANCH   7   8
ATOM      8  C   UNL     1      -8.196  29.562 -17.597  1.00  0.00    -0.000 C 
BRANCH   8   9
ATOM      9  C   UNL     1      -9.400  29.737 -16.659  1.00  0.00    -0.000 C 
BRANCH   9  10
ATOM     10  C   UNL     1      -9.075  30.718 -15.527  1.00  0.00    -0.000 C 
BRANCH  10  11
ATOM     11  C   UNL     1      -8.885  32.140 -16.067  1.00  0.00    -0.003 C 
ATOM     12  C   UNL     1      -8.747  33.148 -14.930  1.00  0.00     0.004 C 
ENDBRANCH  10  11
ENDBRANCH   9  10
ENDBRANCH   8   9
ENDBRANCH   7   8
ENDBRANCH   6   7
ENDBRANCH   5   6
ENDBRANCH   4   5
ENDBRANCH   3   4
ENDBRANCH   2   3
ENDBRANCH   1   2
BRANCH   1  13
ATOM     13  C   UNL     1      -9.135  22.361 -11.288  1.00  0.00     0.000 C 
BRANCH  13  14
ATOM     14  C   UNL     1      -9.740  22.206  -9.885  1.00  0.00     0.000 C 
BRANCH  14  15
ATOM     15  C   UNL     1      -8.988  23.020  -8.816  1.00  0.00     0.000 C 
BRANCH  15  16
ATOM     16  C   UNL     1      -9.026  22.423  -7.394  1.00  0.00     0.000 C 
BRANCH  16  17
ATOM     17  C   UNL     1      -7.751  22.637  -6.559  1.00  0.00     0.000 C 
BRANCH  17  18
ATOM     18  C   UNL     1      -7.594  24.086  -6.067  1.00  0.00     0.000 C 
BRANCH  18  19
ATOM     19  C   UNL     1      -8.546  24.421  -4.907  1.00  0.00     0.000 C 
BRANCH  19  20
ATOM     20  C   UNL     1      -8.993  25.891  -4.913  1.00  0.00     0.006 C 
BRANCH  20  21
ATOM     21  C   UNL     1     -10.446  26.023  -4.449  1.00  0.00     0.053 C 
BRANCH  21  22
ATOM     22  C   UNL     1     -10.919  27.434  -4.600  1.00  0.00     0.041 C 
ATOM     23  O   UNL     1     -10.087  28.374  -4.706  1.00  0.00    -0.550 OA
ATOM     24  O   UNL     1     -12.279  27.707  -4.673  1.00  0.00    -0.550 OA
ENDBRANCH  21  22
ENDBRANCH  20  21
ENDBRANCH  19  20
ENDBRANCH  18  19
ENDBRANCH  17  18
ENDBRANCH  16  17
ENDBRANCH  15  16
ENDBRANCH  14  15
ENDBRANCH  13  14
ENDBRANCH   1  13
TORSDOF 20
ENDMDL
