MODEL 1
REMARK VINA RESULT:    -4.776      0.000      0.000
REMARK INTER + INTRA:         -10.843
REMARK INTER:                  -8.964
REMARK INTRA:                  -1.879
REMARK UNBOUND:                -1.879
REMARK SMILES CCCCCCCCC=CCCCCCCCC(=O)[O-]
REMARK SMILES IDX 10 1 9 2 11 3 12 4 13 5 14 6 15 7 16 8 17 9 18 10 19 11
REMARK SMILES IDX 20 12 8 13 7 14 6 15 5 16 4 17 3 18 2 19 1 20
REMARK H PARENT
REMARK Flexibility Score: inf
ROOT
ATOM      1  C   UNL     1       2.272  51.802  22.378  1.00  0.00    -0.031 C 
ATOM      2  C   UNL     1       2.439  52.033  23.693  1.00  0.00    -0.031 C 
ENDROOT
BRANCH   1   3
ATOM      3  C   UNL     1       1.358  50.742  21.809  1.00  0.00     0.027 C 
BRANCH   3   4
ATOM      4  C   UNL     1       2.070  49.387  21.624  1.00  0.00     0.004 C 
BRANCH   4   5
ATOM      5  C   UNL     1       1.116  48.181  21.620  1.00  0.00     0.000 C 
BRANCH   5   6
ATOM      6  C   UNL     1       0.223  48.123  22.867  1.00  0.00     0.000 C 
BRANCH   6   7
ATOM      7  C   UNL     1      -0.412  46.732  23.025  1.00  0.00     0.000 C 
BRANCH   7   8
ATOM      8  C   UNL     1      -0.570  46.319  24.497  1.00  0.00     0.006 C 
BRANCH   8   9
ATOM      9  C   UNL     1      -1.884  46.817  25.113  1.00  0.00     0.053 C 
BRANCH   9  10
ATOM     10  C   UNL     1      -3.023  45.948  24.683  1.00  0.00     0.041 C 
ATOM     11  O   UNL     1      -2.811  44.768  24.296  1.00  0.00    -0.550 OA
ATOM     12  O   UNL     1      -4.317  46.456  24.661  1.00  0.00    -0.550 OA
ENDBRANCH   9  10
ENDBRANCH   8   9
ENDBRANCH   7   8
ENDBRANCH   6   7
ENDBRANCH   5   6
ENDBRANCH   4   5
ENDBRANCH   3   4
ENDBRANCH   1   3
BRANCH   2  13
ATOM     13  C   UNL     1       1.698  51.281  24.774  1.00  0.00     0.027 C 
BRANCH  13  14
ATOM     14  C   UNL     1       2.480  50.035  25.214  1.00  0.00     0.004 C 
BRANCH  14  15
ATOM     15  C   UNL     1       1.635  49.090  26.083  1.00  0.00     0.000 C 
BRANCH  15  16
ATOM     16  C   UNL     1       2.478  48.328  27.122  1.00  0.00     0.000 C 
BRANCH  16  17
ATOM     17  C   UNL     1       3.571  49.220  27.746  1.00  0.00    -0.000 C 
BRANCH  17  18
ATOM     18  C   UNL     1       3.273  49.632  29.199  1.00  0.00    -0.000 C 
BRANCH  18  19
ATOM     19  C   UNL     1       3.285  51.152  29.403  1.00  0.00    -0.003 C 
ATOM     20  C   UNL     1       2.221  51.831  28.547  1.00  0.00     0.004 C 
ENDBRANCH  18  19
ENDBRANCH  17  18
ENDBRANCH  16  17
ENDBRANCH  15  16
ENDBRANCH  14  15
ENDBRANCH  13  14
ENDBRANCH   2  13
TORSDOF 15
ENDMDL
MODEL 2
REMARK VINA RESULT:    -4.707      1.868      4.058
REMARK INTER + INTRA:         -10.715
REMARK INTER:                  -8.739
REMARK INTRA:                  -1.976
REMARK UNBOUND:                -1.879
REMARK SMILES CCCCCCCCC=CCCCCCCCC(=O)[O-]
REMARK SMILES IDX 10 1 9 2 11 3 12 4 13 5 14 6 15 7 16 8 17 9 18 10 19 11
REMARK SMILES IDX 20 12 8 13 7 14 6 15 5 16 4 17 3 18 2 19 1 20
REMARK H PARENT
REMARK Flexibility Score: inf
ROOT
ATOM      1  C   UNL     1       0.257  47.584  22.373  1.00  0.00    -0.031 C 
ATOM      2  C   UNL     1       1.281  48.012  21.613  1.00  0.00    -0.031 C 
ENDROOT
BRANCH   1   3
ATOM      3  C   UNL     1      -0.128  48.189  23.702  1.00  0.00     0.027 C 
BRANCH   3   4
ATOM      4  C   UNL     1      -0.264  47.129  24.814  1.00  0.00     0.004 C 
BRANCH   4   5
ATOM      5  C   UNL     1      -1.639  47.128  25.505  1.00  0.00     0.000 C 
BRANCH   5   6
ATOM      6  C   UNL     1      -2.755  46.572  24.610  1.00  0.00     0.000 C 
BRANCH   6   7
ATOM      7  C   UNL     1      -2.372  45.195  24.045  1.00  0.00     0.000 C 
BRANCH   7   8
ATOM      8  C   UNL     1      -3.560  44.218  24.013  1.00  0.00     0.006 C 
BRANCH   8   9
ATOM      9  C   UNL     1      -4.885  44.886  24.404  1.00  0.00     0.053 C 
BRANCH   9  10
ATOM     10  C   UNL     1      -6.040  44.112  23.853  1.00  0.00     0.041 C 
ATOM     11  O   UNL     1      -6.492  43.116  24.478  1.00  0.00    -0.550 OA
ATOM     12  O   UNL     1      -6.588  44.459  22.624  1.00  0.00    -0.550 OA
ENDBRANCH   9  10
ENDBRANCH   8   9
ENDBRANCH   7   8
ENDBRANCH   6   7
ENDBRANCH   5   6
ENDBRANCH   4   5
ENDBRANCH   3   4
ENDBRANCH   1   3
BRANCH   2  13
ATOM     13  C   UNL     1       2.159  49.185  21.979  1.00  0.00     0.027 C 
BRANCH  13  14
ATOM     14  C   UNL     1       1.689  50.467  21.276  1.00  0.00     0.004 C 
BRANCH  14  15
ATOM     15  C   UNL     1       1.795  51.704  22.181  1.00  0.00     0.000 C 
BRANCH  15  16
ATOM     16  C   UNL     1       2.339  51.367  23.582  1.00  0.00     0.000 C 
BRANCH  16  17
ATOM     17  C   UNL     1       1.246  51.463  24.666  1.00  0.00    -0.000 C 
BRANCH  17  18
ATOM     18  C   UNL     1       1.581  50.680  25.948  1.00  0.00    -0.000 C 
BRANCH  18  19
ATOM     19  C   UNL     1       2.625  49.579  25.720  1.00  0.00    -0.003 C 
ATOM     20  C   UNL     1       2.542  48.509  26.804  1.00  0.00     0.004 C 
ENDBRANCH  18  19
ENDBRANCH  17  18
ENDBRANCH  16  17
ENDBRANCH  15  16
ENDBRANCH  14  15
ENDBRANCH  13  14
ENDBRANCH   2  13
TORSDOF 15
ENDMDL
MODEL 3
REMARK VINA RESULT:    -4.657      3.543      6.448
REMARK INTER + INTRA:         -10.620
REMARK INTER:                  -8.234
REMARK INTRA:                  -2.387
REMARK UNBOUND:                -1.879
REMARK SMILES CCCCCCCCC=CCCCCCCCC(=O)[O-]
REMARK SMILES IDX 10 1 9 2 11 3 12 4 13 5 14 6 15 7 16 8 17 9 18 10 19 11
REMARK SMILES IDX 20 12 8 13 7 14 6 15 5 16 4 17 3 18 2 19 1 20
REMARK H PARENT
REMARK Flexibility Score: inf
ROOT
ATOM      1  C   UNL     1       2.861  51.729  24.342  1.00  0.00    -0.031 C 
ATOM      2  C   UNL     1       2.708  51.922  23.020  1.00  0.00    -0.031 C 
ENDROOT
BRANCH   1   3
ATOM      3  C   UNL     1       1.734  51.777  25.346  1.00  0.00     0.027 C 
BRANCH   3   4
ATOM      4  C   UNL     1       1.169  50.379  25.666  1.00  0.00     0.004 C 
BRANCH   4   5
ATOM      5  C   UNL     1       2.186  49.240  25.473  1.00  0.00     0.000 C 
BRANCH   5   6
ATOM      6  C   UNL     1       2.537  48.526  26.786  1.00  0.00     0.000 C 
BRANCH   6   7
ATOM      7  C   UNL     1       3.741  49.192  27.469  1.00  0.00     0.000 C 
BRANCH   7   8
ATOM      8  C   UNL     1       3.465  49.546  28.940  1.00  0.00     0.006 C 
BRANCH   8   9
ATOM      9  C   UNL     1       2.418  50.657  29.094  1.00  0.00     0.053 C 
BRANCH   9  10
ATOM     10  C   UNL     1       3.088  51.978  29.305  1.00  0.00     0.041 C 
ATOM     11  O   UNL     1       2.742  52.980  28.626  1.00  0.00    -0.550 OA
ATOM     12  O   UNL     1       4.129  52.092  30.218  1.00  0.00    -0.550 OA
ENDBRANCH   9  10
ENDBRANCH   8   9
ENDBRANCH   7   8
ENDBRANCH   6   7
ENDBRANCH   5   6
ENDBRANCH   4   5
ENDBRANCH   3   4
ENDBRANCH   1   3
BRANCH   2  13
ATOM     13  C   UNL     1       1.372  52.176  22.362  1.00  0.00     0.027 C 
BRANCH  13  14
ATOM     14  C   UNL     1       0.709  50.859  21.932  1.00  0.00     0.004 C 
BRANCH  14  15
ATOM     15  C   UNL     1       1.738  49.775  21.574  1.00  0.00     0.000 C 
BRANCH  15  16
ATOM     16  C   UNL     1       1.161  48.352  21.691  1.00  0.00     0.000 C 
BRANCH  16  17
ATOM     17  C   UNL     1       0.140  48.233  22.841  1.00  0.00    -0.000 C 
BRANCH  17  18
ATOM     18  C   UNL     1      -0.367  46.798  23.068  1.00  0.00    -0.000 C 
BRANCH  18  19
ATOM     19  C   UNL     1      -0.442  46.418  24.552  1.00  0.00    -0.003 C 
ATOM     20  C   UNL     1      -1.379  47.351  25.313  1.00  0.00     0.004 C 
ENDBRANCH  18  19
ENDBRANCH  17  18
ENDBRANCH  16  17
ENDBRANCH  15  16
ENDBRANCH  14  15
ENDBRANCH  13  14
ENDBRANCH   2  13
TORSDOF 15
ENDMDL
MODEL 4
REMARK VINA RESULT:    -4.607      1.345      2.458
REMARK INTER + INTRA:         -10.525
REMARK INTER:                  -8.301
REMARK INTRA:                  -2.224
REMARK UNBOUND:                -1.879
REMARK SMILES CCCCCCCCC=CCCCCCCCC(=O)[O-]
REMARK SMILES IDX 10 1 9 2 11 3 12 4 13 5 14 6 15 7 16 8 17 9 18 10 19 11
REMARK SMILES IDX 20 12 8 13 7 14 6 15 5 16 4 17 3 18 2 19 1 20
REMARK H PARENT
REMARK Flexibility Score: inf
ROOT
ATOM      1  C   UNL     1       2.396  54.103  22.591  1.00  0.00    -0.031 C 
ATOM      2  C   UNL     1       3.143  53.729  23.645  1.00  0.00    -0.031 C 
ENDROOT
BRANCH   1   3
ATOM      3  C   UNL     1       1.785  53.145  21.596  1.00  0.00     0.027 C 
BRANCH   3   4
ATOM      4  C   UNL     1       0.387  52.658  22.028  1.00  0.00     0.004 C 
BRANCH   4   5
ATOM      5  C   UNL     1       0.262  51.127  22.114  1.00  0.00     0.000 C 
BRANCH   5   6
ATOM      6  C   UNL     1       1.473  50.396  21.517  1.00  0.00     0.000 C 
BRANCH   6   7
ATOM      7  C   UNL     1       1.579  48.967  22.069  1.00  0.00     0.000 C 
BRANCH   7   8
ATOM      8  C   UNL     1       0.398  48.596  22.981  1.00  0.00     0.006 C 
BRANCH   8   9
ATOM      9  C   UNL     1      -0.117  47.172  22.731  1.00  0.00     0.053 C 
BRANCH   9  10
ATOM     10  C   UNL     1      -0.663  46.587  23.995  1.00  0.00     0.041 C 
ATOM     11  O   UNL     1      -0.044  46.733  25.081  1.00  0.00    -0.550 OA
ATOM     12  O   UNL     1      -1.833  45.837  23.966  1.00  0.00    -0.550 OA
ENDBRANCH   9  10
ENDBRANCH   8   9
ENDBRANCH   7   8
ENDBRANCH   6   7
ENDBRANCH   5   6
ENDBRANCH   4   5
ENDBRANCH   3   4
ENDBRANCH   1   3
BRANCH   2  13
ATOM     13  C   UNL     1       3.437  52.288  23.991  1.00  0.00     0.027 C 
BRANCH  13  14
ATOM     14  C   UNL     1       2.401  51.736  24.981  1.00  0.00     0.004 C 
BRANCH  14  15
ATOM     15  C   UNL     1       2.637  50.253  25.309  1.00  0.00     0.000 C 
BRANCH  15  16
ATOM     16  C   UNL     1       1.604  49.697  26.307  1.00  0.00     0.000 C 
BRANCH  16  17
ATOM     17  C   UNL     1       2.238  48.705  27.304  1.00  0.00    -0.000 C 
BRANCH  17  18
ATOM     18  C   UNL     1       3.546  49.216  27.932  1.00  0.00    -0.000 C 
BRANCH  18  19
ATOM     19  C   UNL     1       3.346  49.807  29.334  1.00  0.00    -0.003 C 
ATOM     20  C   UNL     1       3.101  51.311  29.268  1.00  0.00     0.004 C 
ENDBRANCH  18  19
ENDBRANCH  17  18
ENDBRANCH  16  17
ENDBRANCH  15  16
ENDBRANCH  14  15
ENDBRANCH  13  14
ENDBRANCH   2  13
TORSDOF 15
ENDMDL
MODEL 5
REMARK VINA RESULT:    -4.592      2.880      5.496
REMARK INTER + INTRA:         -10.498
REMARK INTER:                  -8.024
REMARK INTRA:                  -2.473
REMARK UNBOUND:                -1.879
REMARK SMILES CCCCCCCCC=CCCCCCCCC(=O)[O-]
REMARK SMILES IDX 10 1 9 2 11 3 12 4 13 5 14 6 15 7 16 8 17 9 18 10 19 11
REMARK SMILES IDX 20 12 8 13 7 14 6 15 5 16 4 17 3 18 2 19 1 20
REMARK H PARENT
REMARK Flexibility Score: inf
ROOT
ATOM      1  C   UNL     1       2.255  50.292  21.926  1.00  0.00    -0.031 C 
ATOM      2  C   UNL     1       2.203  48.948  21.920  1.00  0.00    -0.031 C 
ENDROOT
BRANCH   1   3
ATOM      3  C   UNL     1       1.080  51.192  21.628  1.00  0.00     0.027 C 
BRANCH   3   4
ATOM      4  C   UNL     1       1.004  52.399  22.584  1.00  0.00     0.004 C 
BRANCH   4   5
ATOM      5  C   UNL     1       1.221  52.034  24.063  1.00  0.00     0.000 C 
BRANCH   5   6
ATOM      6  C   UNL     1       0.037  51.267  24.667  1.00  0.00     0.000 C 
BRANCH   6   7
ATOM      7  C   UNL     1       0.506  50.319  25.781  1.00  0.00     0.000 C 
BRANCH   7   8
ATOM      8  C   UNL     1       1.951  49.834  25.575  1.00  0.00     0.006 C 
BRANCH   8   9
ATOM      9  C   UNL     1       2.263  48.555  26.363  1.00  0.00     0.053 C 
BRANCH   9  10
ATOM     10  C   UNL     1       2.899  48.894  27.674  1.00  0.00     0.041 C 
ATOM     11  O   UNL     1       4.150  49.020  27.759  1.00  0.00    -0.550 OA
ATOM     12  O   UNL     1       2.116  49.021  28.815  1.00  0.00    -0.550 OA
ENDBRANCH   9  10
ENDBRANCH   8   9
ENDBRANCH   7   8
ENDBRANCH   6   7
ENDBRANCH   5   6
ENDBRANCH   4   5
ENDBRANCH   3   4
ENDBRANCH   1   3
BRANCH   2  13
ATOM     13  C   UNL     1       0.942  48.163  21.648  1.00  0.00     0.027 C 
BRANCH  13  14
ATOM     14  C   UNL     1       0.129  47.962  22.936  1.00  0.00     0.004 C 
BRANCH  14  15
ATOM     15  C   UNL     1      -0.448  46.542  23.048  1.00  0.00     0.000 C 
BRANCH  15  16
ATOM     16  C   UNL     1      -0.812  46.164  24.496  1.00  0.00     0.000 C 
BRANCH  16  17
ATOM     17  C   UNL     1      -2.302  45.793  24.641  1.00  0.00    -0.000 C 
BRANCH  17  18
ATOM     18  C   UNL     1      -3.051  46.647  25.679  1.00  0.00    -0.000 C 
BRANCH  18  19
ATOM     19  C   UNL     1      -2.164  47.724  26.318  1.00  0.00    -0.003 C 
ATOM     20  C   UNL     1      -2.911  49.048  26.445  1.00  0.00     0.004 C 
ENDBRANCH  18  19
ENDBRANCH  17  18
ENDBRANCH  16  17
ENDBRANCH  15  16
ENDBRANCH  14  15
ENDBRANCH  13  14
ENDBRANCH   2  13
TORSDOF 15
ENDMDL
MODEL 6
REMARK VINA RESULT:    -4.574      1.555      3.029
REMARK INTER + INTRA:         -10.463
REMARK INTER:                  -8.082
REMARK INTRA:                  -2.381
REMARK UNBOUND:                -1.879
REMARK SMILES CCCCCCCCC=CCCCCCCCC(=O)[O-]
REMARK SMILES IDX 10 1 9 2 11 3 12 4 13 5 14 6 15 7 16 8 17 9 18 10 19 11
REMARK SMILES IDX 20 12 8 13 7 14 6 15 5 16 4 17 3 18 2 19 1 20
REMARK H PARENT
REMARK Flexibility Score: inf
ROOT
ATOM      1  C   UNL     1       1.618  51.560  25.110  1.00  0.00    -0.031 C 
ATOM      2  C   UNL     1       1.472  50.349  25.677  1.00  0.00    -0.031 C 
ENDROOT
BRANCH   1   3
ATOM      3  C   UNL     1       2.814  51.975  24.286  1.00  0.00     0.027 C 
BRANCH   3   4
ATOM      4  C   UNL     1       2.413  52.534  22.905  1.00  0.00     0.004 C 
BRANCH   4   5
ATOM      5  C   UNL     1       1.500  51.595  22.098  1.00  0.00     0.000 C 
BRANCH   5   6
ATOM      6  C   UNL     1       2.182  50.269  21.733  1.00  0.00     0.000 C 
BRANCH   6   7
ATOM      7  C   UNL     1       1.162  49.256  21.192  1.00  0.00     0.000 C 
BRANCH   7   8
ATOM      8  C   UNL     1       1.056  47.998  22.069  1.00  0.00     0.006 C 
BRANCH   8   9
ATOM      9  C   UNL     1      -0.028  48.119  23.148  1.00  0.00     0.053 C 
BRANCH   9  10
ATOM     10  C   UNL     1      -0.477  46.762  23.589  1.00  0.00     0.041 C 
ATOM     11  O   UNL     1      -0.931  45.940  22.750  1.00  0.00    -0.550 OA
ATOM     12  O   UNL     1      -0.442  46.421  24.936  1.00  0.00    -0.550 OA
ENDBRANCH   9  10
ENDBRANCH   8   9
ENDBRANCH   7   8
ENDBRANCH   6   7
ENDBRANCH   5   6
ENDBRANCH   4   5
ENDBRANCH   3   4
ENDBRANCH   1   3
BRANCH   2  13
ATOM     13  C   UNL     1       2.475  49.230  25.529  1.00  0.00     0.027 C 
BRANCH  13  14
ATOM     14  C   UNL     1       2.683  48.495  26.861  1.00  0.00     0.004 C 
BRANCH  14  15
ATOM     15  C   UNL     1       3.860  49.066  27.668  1.00  0.00     0.000 C 
BRANCH  15  16
ATOM     16  C   UNL     1       3.399  49.887  28.886  1.00  0.00     0.000 C 
BRANCH  16  17
ATOM     17  C   UNL     1       1.981  49.494  29.346  1.00  0.00    -0.000 C 
BRANCH  17  18
ATOM     18  C   UNL     1       1.141  50.686  29.838  1.00  0.00    -0.000 C 
BRANCH  18  19
ATOM     19  C   UNL     1      -0.100  50.941  28.972  1.00  0.00    -0.003 C 
ATOM     20  C   UNL     1      -0.814  49.636  28.636  1.00  0.00     0.004 C 
ENDBRANCH  18  19
ENDBRANCH  17  18
ENDBRANCH  16  17
ENDBRANCH  15  16
ENDBRANCH  14  15
ENDBRANCH  13  14
ENDBRANCH   2  13
TORSDOF 15
ENDMDL
MODEL 7
REMARK VINA RESULT:    -4.523      1.996      3.436
REMARK INTER + INTRA:         -10.368
REMARK INTER:                  -7.776
REMARK INTRA:                  -2.592
REMARK UNBOUND:                -1.879
REMARK SMILES CCCCCCCCC=CCCCCCCCC(=O)[O-]
REMARK SMILES IDX 10 1 9 2 11 3 12 4 13 5 14 6 15 7 16 8 17 9 18 10 19 11
REMARK SMILES IDX 20 12 8 13 7 14 6 15 5 16 4 17 3 18 2 19 1 20
REMARK H PARENT
REMARK Flexibility Score: inf
ROOT
ATOM      1  C   UNL     1       0.393  50.959  21.995  1.00  0.00    -0.031 C 
ATOM      2  C   UNL     1       0.306  52.302  21.976  1.00  0.00    -0.031 C 
ENDROOT
BRANCH   1   3
ATOM      3  C   UNL     1       1.588  50.176  21.505  1.00  0.00     0.027 C 
BRANCH   3   4
ATOM      4  C   UNL     1       1.470  48.669  21.809  1.00  0.00     0.004 C 
BRANCH   4   5
ATOM      5  C   UNL     1       0.315  48.318  22.763  1.00  0.00     0.000 C 
BRANCH   5   6
ATOM      6  C   UNL     1      -0.109  46.846  22.667  1.00  0.00     0.000 C 
BRANCH   6   7
ATOM      7  C   UNL     1      -0.694  46.354  24.000  1.00  0.00     0.000 C 
BRANCH   7   8
ATOM      8  C   UNL     1      -0.381  47.303  25.169  1.00  0.00     0.006 C 
BRANCH   8   9
ATOM      9  C   UNL     1      -1.645  47.787  25.892  1.00  0.00     0.053 C 
BRANCH   9  10
ATOM     10  C   UNL     1      -2.099  49.096  25.327  1.00  0.00     0.041 C 
ATOM     11  O   UNL     1      -1.786  50.175  25.895  1.00  0.00    -0.550 OA
ATOM     12  O   UNL     1      -2.911  49.123  24.200  1.00  0.00    -0.550 OA
ENDBRANCH   9  10
ENDBRANCH   8   9
ENDBRANCH   7   8
ENDBRANCH   6   7
ENDBRANCH   5   6
ENDBRANCH   4   5
ENDBRANCH   3   4
ENDBRANCH   1   3
BRANCH   2  13
ATOM     13  C   UNL     1       1.416  53.204  21.492  1.00  0.00     0.027 C 
BRANCH  13  14
ATOM     14  C   UNL     1       2.053  53.971  22.660  1.00  0.00     0.004 C 
BRANCH  14  15
ATOM     15  C   UNL     1       3.416  53.390  23.069  1.00  0.00     0.000 C 
BRANCH  15  16
ATOM     16  C   UNL     1       3.286  52.214  24.054  1.00  0.00     0.000 C 
BRANCH  16  17
ATOM     17  C   UNL     1       2.151  52.436  25.074  1.00  0.00    -0.000 C 
BRANCH  17  18
ATOM     18  C   UNL     1       1.683  51.142  25.764  1.00  0.00    -0.000 C 
BRANCH  18  19
ATOM     19  C   UNL     1       2.414  49.894  25.253  1.00  0.00    -0.003 C 
ATOM     20  C   UNL     1       2.779  48.960  26.403  1.00  0.00     0.004 C 
ENDBRANCH  18  19
ENDBRANCH  17  18
ENDBRANCH  16  17
ENDBRANCH  15  16
ENDBRANCH  14  15
ENDBRANCH  13  14
ENDBRANCH   2  13
TORSDOF 15
ENDMDL
MODEL 8
REMARK VINA RESULT:    -4.522      3.425      5.762
REMARK INTER + INTRA:         -10.367
REMARK INTER:                  -8.058
REMARK INTRA:                  -2.309
REMARK UNBOUND:                -1.879
REMARK SMILES CCCCCCCCC=CCCCCCCCC(=O)[O-]
REMARK SMILES IDX 10 1 9 2 11 3 12 4 13 5 14 6 15 7 16 8 17 9 18 10 19 11
REMARK SMILES IDX 20 12 8 13 7 14 6 15 5 16 4 17 3 18 2 19 1 20
REMARK H PARENT
REMARK Flexibility Score: inf
ROOT
ATOM      1  C   UNL     1      -1.910  46.002  24.402  1.00  0.00    -0.031 C 
ATOM      2  C   UNL     1      -2.718  46.624  25.280  1.00  0.00    -0.031 C 
ENDROOT
BRANCH   1   3
ATOM      3  C   UNL     1      -0.469  46.381  24.154  1.00  0.00     0.027 C 
BRANCH   3   4
ATOM      4  C   UNL     1      -0.258  47.018  22.766  1.00  0.00     0.004 C 
BRANCH   4   5
ATOM      5  C   UNL     1       0.480  48.368  22.809  1.00  0.00     0.000 C 
BRANCH   5   6
ATOM      6  C   UNL     1       1.473  48.541  21.651  1.00  0.00     0.000 C 
BRANCH   6   7
ATOM      7  C   UNL     1       1.709  50.028  21.347  1.00  0.00     0.000 C 
BRANCH   7   8
ATOM      8  C   UNL     1       1.308  50.942  22.516  1.00  0.00     0.006 C 
BRANCH   8   9
ATOM      9  C   UNL     1       2.462  51.833  22.994  1.00  0.00     0.053 C 
BRANCH   9  10
ATOM     10  C   UNL     1       2.260  53.240  22.529  1.00  0.00     0.041 C 
ATOM     11  O   UNL     1       3.206  54.070  22.588  1.00  0.00    -0.550 OA
ATOM     12  O   UNL     1       1.012  53.651  22.077  1.00  0.00    -0.550 OA
ENDBRANCH   9  10
ENDBRANCH   8   9
ENDBRANCH   7   8
ENDBRANCH   6   7
ENDBRANCH   5   6
ENDBRANCH   4   5
ENDBRANCH   3   4
ENDBRANCH   1   3
BRANCH   2  13
ATOM     13  C   UNL     1      -2.271  47.764  26.163  1.00  0.00     0.027 C 
BRANCH  13  14
ATOM     14  C   UNL     1      -2.372  49.107  25.426  1.00  0.00     0.004 C 
BRANCH  14  15
ATOM     15  C   UNL     1      -1.187  50.035  25.733  1.00  0.00     0.000 C 
BRANCH  15  16
ATOM     16  C   UNL     1       0.016  49.281  26.330  1.00  0.00     0.000 C 
BRANCH  16  17
ATOM     17  C   UNL     1       1.319  50.100  26.234  1.00  0.00    -0.000 C 
BRANCH  17  18
ATOM     18  C   UNL     1       2.519  49.289  25.715  1.00  0.00    -0.000 C 
BRANCH  18  19
ATOM     19  C   UNL     1       3.354  48.669  26.842  1.00  0.00    -0.003 C 
ATOM     20  C   UNL     1       3.241  49.487  28.125  1.00  0.00     0.004 C 
ENDBRANCH  18  19
ENDBRANCH  17  18
ENDBRANCH  16  17
ENDBRANCH  15  16
ENDBRANCH  14  15
ENDBRANCH  13  14
ENDBRANCH   2  13
TORSDOF 15
ENDMDL
MODEL 9
REMARK VINA RESULT:    -4.430      1.536      2.381
REMARK INTER + INTRA:         -10.193
REMARK INTER:                  -7.968
REMARK INTRA:                  -2.225
REMARK UNBOUND:                -1.879
REMARK SMILES CCCCCCCCC=CCCCCCCCC(=O)[O-]
REMARK SMILES IDX 10 1 9 2 11 3 12 4 13 5 14 6 15 7 16 8 17 9 18 10 19 11
REMARK SMILES IDX 20 12 8 13 7 14 6 15 5 16 4 17 3 18 2 19 1 20
REMARK H PARENT
REMARK Flexibility Score: inf
ROOT
ATOM      1  C   UNL     1       1.741  50.498  21.247  1.00  0.00    -0.031 C 
ATOM      2  C   UNL     1       1.775  51.707  21.836  1.00  0.00    -0.031 C 
ENDROOT
BRANCH   1   3
ATOM      3  C   UNL     1       2.090  49.202  21.939  1.00  0.00     0.027 C 
BRANCH   3   4
ATOM      4  C   UNL     1       0.997  48.129  21.766  1.00  0.00     0.004 C 
BRANCH   4   5
ATOM      5  C   UNL     1       0.136  47.911  23.022  1.00  0.00     0.000 C 
BRANCH   5   6
ATOM      6  C   UNL     1      -0.515  46.522  23.065  1.00  0.00     0.000 C 
BRANCH   6   7
ATOM      7  C   UNL     1      -1.084  46.224  24.461  1.00  0.00     0.000 C 
BRANCH   7   8
ATOM      8  C   UNL     1      -1.041  47.448  25.390  1.00  0.00     0.006 C 
BRANCH   8   9
ATOM      9  C   UNL     1      -2.357  47.660  26.150  1.00  0.00     0.053 C 
BRANCH   9  10
ATOM     10  C   UNL     1      -3.112  48.815  25.572  1.00  0.00     0.041 C 
ATOM     11  O   UNL     1      -3.974  49.420  26.263  1.00  0.00    -0.550 OA
ATOM     12  O   UNL     1      -2.900  49.195  24.252  1.00  0.00    -0.550 OA
ENDBRANCH   9  10
ENDBRANCH   8   9
ENDBRANCH   7   8
ENDBRANCH   6   7
ENDBRANCH   5   6
ENDBRANCH   4   5
ENDBRANCH   3   4
ENDBRANCH   1   3
BRANCH   2  13
ATOM     13  C   UNL     1       2.134  51.917  23.288  1.00  0.00     0.027 C 
BRANCH  13  14
ATOM     14  C   UNL     1       0.876  51.940  24.170  1.00  0.00     0.004 C 
BRANCH  14  15
ATOM     15  C   UNL     1       0.937  50.905  25.304  1.00  0.00     0.000 C 
BRANCH  15  16
ATOM     16  C   UNL     1       2.364  50.384  25.554  1.00  0.00     0.000 C 
BRANCH  16  17
ATOM     17  C   UNL     1       2.385  48.871  25.854  1.00  0.00    -0.000 C 
BRANCH  17  18
ATOM     18  C   UNL     1       2.637  48.542  27.336  1.00  0.00    -0.000 C 
BRANCH  18  19
ATOM     19  C   UNL     1       3.430  49.635  28.064  1.00  0.00    -0.003 C 
ATOM     20  C   UNL     1       3.051  49.699  29.540  1.00  0.00     0.004 C 
ENDBRANCH  18  19
ENDBRANCH  17  18
ENDBRANCH  16  17
ENDBRANCH  15  16
ENDBRANCH  14  15
ENDBRANCH  13  14
ENDBRANCH   2  13
TORSDOF 15
ENDMDL
