MODEL 1
REMARK VINA RESULT:    -6.027      0.000      0.000
REMARK INTER + INTRA:         -20.030
REMARK INTER:                 -15.187
REMARK INTRA:                  -4.843
REMARK UNBOUND:                -4.843
REMARK SMILES CCCCCCCCCCCCCCCCCCCCCCCCCCCC(=O)[O-]
REMARK SMILES IDX 15 1 16 2 17 3 18 4 19 5 20 6 21 7 22 8 23 9 24 10 25 11
REMARK SMILES IDX 26 12 27 13 28 14 29 15 30 16 14 17 13 18 12 19 11 20 10 21
REMARK SMILES IDX 9 22 8 23 7 24 6 25 5 26 4 27 3 28 2 29 1 30
REMARK H PARENT
REMARK Flexibility Score: inf
ROOT
ATOM      1  C   UNL     1      15.441  -4.941  11.135  1.00  0.00     0.000 C 
ENDROOT
BRANCH   1   2
ATOM      2  C   UNL     1      14.220  -5.871  11.035  1.00  0.00     0.000 C 
BRANCH   2   3
ATOM      3  C   UNL     1      13.769  -6.420  12.407  1.00  0.00     0.000 C 
BRANCH   3   4
ATOM      4  C   UNL     1      14.433  -5.715  13.605  1.00  0.00     0.000 C 
BRANCH   4   5
ATOM      5  C   UNL     1      14.887  -6.662  14.731  1.00  0.00     0.000 C 
BRANCH   5   6
ATOM      6  C   UNL     1      15.186  -5.935  16.062  1.00  0.00     0.000 C 
BRANCH   6   7
ATOM      7  C   UNL     1      15.479  -4.439  15.862  1.00  0.00     0.000 C 
BRANCH   7   8
ATOM      8  C   UNL     1      14.521  -3.533  16.652  1.00  0.00     0.000 C 
BRANCH   8   9
ATOM      9  C   UNL     1      15.250  -2.651  17.680  1.00  0.00     0.000 C 
BRANCH   9  10
ATOM     10  C   UNL     1      16.763  -2.566  17.411  1.00  0.00     0.000 C 
BRANCH  10  11
ATOM     11  C   UNL     1      17.601  -2.997  18.627  1.00  0.00     0.000 C 
BRANCH  11  12
ATOM     12  C   UNL     1      19.110  -2.990  18.337  1.00  0.00     0.006 C 
BRANCH  12  13
ATOM     13  C   UNL     1      19.426  -3.019  16.837  1.00  0.00     0.053 C 
BRANCH  13  14
ATOM     14  C   UNL     1      20.819  -2.535  16.583  1.00  0.00     0.041 C 
ATOM     15  O   UNL     1      21.807  -3.190  17.009  1.00  0.00    -0.550 OA
ATOM     16  O   UNL     1      21.027  -1.366  15.865  1.00  0.00    -0.550 OA
ENDBRANCH  13  14
ENDBRANCH  12  13
ENDBRANCH  11  12
ENDBRANCH  10  11
ENDBRANCH   9  10
ENDBRANCH   8   9
ENDBRANCH   7   8
ENDBRANCH   6   7
ENDBRANCH   5   6
ENDBRANCH   4   5
ENDBRANCH   3   4
ENDBRANCH   2   3
ENDBRANCH   1   2
BRANCH   1  17
ATOM     17  C   UNL     1      16.742  -5.626  10.688  1.00  0.00     0.000 C 
BRANCH  17  18
ATOM     18  C   UNL     1      17.634  -6.031  11.875  1.00  0.00     0.000 C 
BRANCH  18  19
ATOM     19  C   UNL     1      17.913  -4.863  12.836  1.00  0.00     0.000 C 
BRANCH  19  20
ATOM     20  C   UNL     1      19.261  -4.150  12.616  1.00  0.00     0.000 C 
BRANCH  20  21
ATOM     21  C   UNL     1      19.246  -2.632  12.885  1.00  0.00     0.000 C 
BRANCH  21  22
ATOM     22  C   UNL     1      18.217  -2.166  13.935  1.00  0.00    -0.000 C 
BRANCH  22  23
ATOM     23  C   UNL     1      17.293  -1.020  13.483  1.00  0.00    -0.000 C 
BRANCH  23  24
ATOM     24  C   UNL     1      16.236  -1.470  12.460  1.00  0.00    -0.000 C 
BRANCH  24  25
ATOM     25  C   UNL     1      15.046  -2.182  13.123  1.00  0.00    -0.000 C 
BRANCH  25  26
ATOM     26  C   UNL     1      13.712  -1.465  12.867  1.00  0.00    -0.000 C 
BRANCH  26  27
ATOM     27  C   UNL     1      12.544  -2.247  13.486  1.00  0.00    -0.000 C 
BRANCH  27  28
ATOM     28  C   UNL     1      11.961  -3.299  12.530  1.00  0.00    -0.000 C 
BRANCH  28  29
ATOM     29  C   UNL     1      11.941  -2.821  11.071  1.00  0.00    -0.003 C 
ATOM     30  C   UNL     1      10.993  -3.671  10.227  1.00  0.00     0.004 C 
ENDBRANCH  28  29
ENDBRANCH  27  28
ENDBRANCH  26  27
ENDBRANCH  25  26
ENDBRANCH  24  25
ENDBRANCH  23  24
ENDBRANCH  22  23
ENDBRANCH  21  22
ENDBRANCH  20  21
ENDBRANCH  19  20
ENDBRANCH  18  19
ENDBRANCH  17  18
ENDBRANCH   1  17
TORSDOF 26
ENDMDL
MODEL 2
REMARK VINA RESULT:    -6.019      3.290      6.408
REMARK INTER + INTRA:         -20.010
REMARK INTER:                 -14.737
REMARK INTRA:                  -5.273
REMARK UNBOUND:                -4.843
REMARK SMILES CCCCCCCCCCCCCCCCCCCCCCCCCCCC(=O)[O-]
REMARK SMILES IDX 15 1 16 2 17 3 18 4 19 5 20 6 21 7 22 8 23 9 24 10 25 11
REMARK SMILES IDX 26 12 27 13 28 14 29 15 30 16 14 17 13 18 12 19 11 20 10 21
REMARK SMILES IDX 9 22 8 23 7 24 6 25 5 26 4 27 3 28 2 29 1 30
REMARK H PARENT
REMARK Flexibility Score: inf
ROOT
ATOM      1  C   UNL     1      14.340  -3.239  17.056  1.00  0.00     0.000 C 
ENDROOT
BRANCH   1   2
ATOM      2  C   UNL     1      14.068  -4.589  16.369  1.00  0.00     0.000 C 
BRANCH   2   3
ATOM      3  C   UNL     1      15.310  -5.155  15.645  1.00  0.00     0.000 C 
BRANCH   3   4
ATOM      4  C   UNL     1      15.132  -5.284  14.120  1.00  0.00     0.000 C 
BRANCH   4   5
ATOM      5  C   UNL     1      14.932  -6.727  13.621  1.00  0.00     0.000 C 
BRANCH   5   6
ATOM      6  C   UNL     1      16.193  -7.329  12.959  1.00  0.00     0.000 C 
BRANCH   6   7
ATOM      7  C   UNL     1      17.192  -6.250  12.511  1.00  0.00     0.000 C 
BRANCH   7   8
ATOM      8  C   UNL     1      17.188  -6.027  10.991  1.00  0.00     0.000 C 
BRANCH   8   9
ATOM      9  C   UNL     1      16.210  -4.922  10.555  1.00  0.00     0.000 C 
BRANCH   9  10
ATOM     10  C   UNL     1      15.168  -5.427   9.542  1.00  0.00     0.000 C 
BRANCH  10  11
ATOM     11  C   UNL     1      13.782  -5.634  10.178  1.00  0.00     0.000 C 
BRANCH  11  12
ATOM     12  C   UNL     1      13.327  -4.423  11.009  1.00  0.00     0.006 C 
BRANCH  12  13
ATOM     13  C   UNL     1      11.808  -4.383  11.216  1.00  0.00     0.053 C 
BRANCH  13  14
ATOM     14  C   UNL     1      11.158  -3.526  10.175  1.00  0.00     0.041 C 
ATOM     15  O   UNL     1      10.435  -4.046   9.285  1.00  0.00    -0.550 OA
ATOM     16  O   UNL     1      11.342  -2.150  10.196  1.00  0.00    -0.550 OA
ENDBRANCH  13  14
ENDBRANCH  12  13
ENDBRANCH  11  12
ENDBRANCH  10  11
ENDBRANCH   9  10
ENDBRANCH   8   9
ENDBRANCH   7   8
ENDBRANCH   6   7
ENDBRANCH   5   6
ENDBRANCH   4   5
ENDBRANCH   3   4
ENDBRANCH   2   3
ENDBRANCH   1   2
BRANCH   1  17
ATOM     17  C   UNL     1      15.751  -2.704  16.765  1.00  0.00     0.000 C 
BRANCH  17  18
ATOM     18  C   UNL     1      16.586  -2.514  18.043  1.00  0.00     0.000 C 
BRANCH  18  19
ATOM     19  C   UNL     1      17.862  -3.373  18.055  1.00  0.00     0.000 C 
BRANCH  19  20
ATOM     20  C   UNL     1      18.893  -3.018  16.966  1.00  0.00     0.000 C 
BRANCH  20  21
ATOM     21  C   UNL     1      18.754  -3.816  15.654  1.00  0.00     0.000 C 
BRANCH  21  22
ATOM     22  C   UNL     1      19.500  -3.217  14.445  1.00  0.00    -0.000 C 
BRANCH  22  23
ATOM     23  C   UNL     1      18.647  -3.031  13.176  1.00  0.00    -0.000 C 
BRANCH  23  24
ATOM     24  C   UNL     1      17.886  -1.695  13.155  1.00  0.00    -0.000 C 
BRANCH  24  25
ATOM     25  C   UNL     1      16.364  -1.887  13.240  1.00  0.00    -0.000 C 
BRANCH  25  26
ATOM     26  C   UNL     1      15.615  -1.177  12.102  1.00  0.00    -0.000 C 
BRANCH  26  27
ATOM     27  C   UNL     1      14.103  -1.160  12.371  1.00  0.00    -0.000 C 
BRANCH  27  28
ATOM     28  C   UNL     1      13.706  -2.020  13.582  1.00  0.00    -0.000 C 
BRANCH  28  29
ATOM     29  C   UNL     1      12.265  -1.761  14.040  1.00  0.00    -0.003 C 
ATOM     30  C   UNL     1      11.619  -3.038  14.573  1.00  0.00     0.004 C 
ENDBRANCH  28  29
ENDBRANCH  27  28
ENDBRANCH  26  27
ENDBRANCH  25  26
ENDBRANCH  24  25
ENDBRANCH  23  24
ENDBRANCH  22  23
ENDBRANCH  21  22
ENDBRANCH  20  21
ENDBRANCH  19  20
ENDBRANCH  18  19
ENDBRANCH  17  18
ENDBRANCH   1  17
TORSDOF 26
ENDMDL
MODEL 3
REMARK VINA RESULT:    -6.002      2.617      6.395
REMARK INTER + INTRA:         -19.968
REMARK INTER:                 -15.314
REMARK INTRA:                  -4.654
REMARK UNBOUND:                -4.843
REMARK SMILES CCCCCCCCCCCCCCCCCCCCCCCCCCCC(=O)[O-]
REMARK SMILES IDX 15 1 16 2 17 3 18 4 19 5 20 6 21 7 22 8 23 9 24 10 25 11
REMARK SMILES IDX 26 12 27 13 28 14 29 15 30 16 14 17 13 18 12 19 11 20 10 21
REMARK SMILES IDX 9 22 8 23 7 24 6 25 5 26 4 27 3 28 2 29 1 30
REMARK H PARENT
REMARK Flexibility Score: inf
ROOT
ATOM      1  C   UNL     1      13.087  -4.826  10.988  1.00  0.00     0.000 C 
ENDROOT
BRANCH   1   2
ATOM      2  C   UNL     1      13.841  -5.716   9.986  1.00  0.00     0.000 C 
BRANCH   2   3
ATOM      3  C   UNL     1      15.197  -5.114   9.551  1.00  0.00     0.000 C 
BRANCH   3   4
ATOM      4  C   UNL     1      16.417  -5.902  10.066  1.00  0.00     0.000 C 
BRANCH   4   5
ATOM      5  C   UNL     1      17.155  -5.238  11.242  1.00  0.00     0.000 C 
BRANCH   5   6
ATOM      6  C   UNL     1      18.381  -6.043  11.732  1.00  0.00     0.000 C 
BRANCH   6   7
ATOM      7  C   UNL     1      19.345  -5.190  12.572  1.00  0.00     0.000 C 
BRANCH   7   8
ATOM      8  C   UNL     1      18.619  -4.165  13.458  1.00  0.00     0.000 C 
BRANCH   8   9
ATOM      9  C   UNL     1      19.151  -2.734  13.270  1.00  0.00     0.000 C 
BRANCH   9  10
ATOM     10  C   UNL     1      18.024  -1.687  13.250  1.00  0.00     0.000 C 
BRANCH  10  11
ATOM     11  C   UNL     1      16.638  -2.320  13.037  1.00  0.00     0.000 C 
BRANCH  11  12
ATOM     12  C   UNL     1      15.490  -1.339  13.322  1.00  0.00     0.006 C 
BRANCH  12  13
ATOM     13  C   UNL     1      14.635  -1.049  12.082  1.00  0.00     0.053 C 
BRANCH  13  14
ATOM     14  C   UNL     1      13.198  -1.371  12.348  1.00  0.00     0.041 C 
ATOM     15  O   UNL     1      12.372  -1.420  11.398  1.00  0.00    -0.550 OA
ATOM     16  O   UNL     1      12.772  -1.627  13.644  1.00  0.00    -0.550 OA
ENDBRANCH  13  14
ENDBRANCH  12  13
ENDBRANCH  11  12
ENDBRANCH  10  11
ENDBRANCH   9  10
ENDBRANCH   8   9
ENDBRANCH   7   8
ENDBRANCH   6   7
ENDBRANCH   5   6
ENDBRANCH   4   5
ENDBRANCH   3   4
ENDBRANCH   2   3
ENDBRANCH   1   2
BRANCH   1  17
ATOM     17  C   UNL     1      13.638  -4.949  12.417  1.00  0.00     0.000 C 
BRANCH  17  18
ATOM     18  C   UNL     1      13.775  -6.412  12.873  1.00  0.00     0.000 C 
BRANCH  18  19
ATOM     19  C   UNL     1      15.188  -6.748  13.381  1.00  0.00     0.000 C 
BRANCH  19  20
ATOM     20  C   UNL     1      15.246  -7.296  14.821  1.00  0.00     0.000 C 
BRANCH  20  21
ATOM     21  C   UNL     1      15.828  -6.321  15.864  1.00  0.00     0.000 C 
BRANCH  21  22
ATOM     22  C   UNL     1      15.587  -4.828  15.568  1.00  0.00    -0.000 C 
BRANCH  22  23
ATOM     23  C   UNL     1      14.436  -4.180  16.360  1.00  0.00    -0.000 C 
BRANCH  23  24
ATOM     24  C   UNL     1      14.853  -2.883  17.072  1.00  0.00    -0.000 C 
BRANCH  24  25
ATOM     25  C   UNL     1      16.376  -2.671  17.058  1.00  0.00    -0.000 C 
BRANCH  25  26
ATOM     26  C   UNL     1      17.015  -2.891  18.438  1.00  0.00    -0.000 C 
BRANCH  26  27
ATOM     27  C   UNL     1      18.543  -2.991  18.321  1.00  0.00    -0.000 C 
BRANCH  27  28
ATOM     28  C   UNL     1      19.031  -2.946  16.864  1.00  0.00    -0.000 C 
BRANCH  28  29
ATOM     29  C   UNL     1      20.548  -2.739  16.758  1.00  0.00    -0.003 C 
ATOM     30  C   UNL     1      21.175  -2.549  18.138  1.00  0.00     0.004 C 
ENDBRANCH  28  29
ENDBRANCH  27  28
ENDBRANCH  26  27
ENDBRANCH  25  26
ENDBRANCH  24  25
ENDBRANCH  23  24
ENDBRANCH  22  23
ENDBRANCH  21  22
ENDBRANCH  20  21
ENDBRANCH  19  20
ENDBRANCH  18  19
ENDBRANCH  17  18
ENDBRANCH   1  17
TORSDOF 26
ENDMDL
MODEL 4
REMARK VINA RESULT:    -6.002      0.952      2.673
REMARK INTER + INTRA:         -19.967
REMARK INTER:                 -15.618
REMARK INTRA:                  -4.349
REMARK UNBOUND:                -4.843
REMARK SMILES CCCCCCCCCCCCCCCCCCCCCCCCCCCC(=O)[O-]
REMARK SMILES IDX 15 1 16 2 17 3 18 4 19 5 20 6 21 7 22 8 23 9 24 10 25 11
REMARK SMILES IDX 26 12 27 13 28 14 29 15 30 16 14 17 13 18 12 19 11 20 10 21
REMARK SMILES IDX 9 22 8 23 7 24 6 25 5 26 4 27 3 28 2 29 1 30
REMARK H PARENT
REMARK Flexibility Score: inf
ROOT
ATOM      1  C   UNL     1      17.557  -4.883  12.270  1.00  0.00     0.000 C 
ENDROOT
BRANCH   1   2
ATOM      2  C   UNL     1      17.327  -6.399  12.381  1.00  0.00     0.000 C 
BRANCH   2   3
ATOM      3  C   UNL     1      15.935  -6.755  12.951  1.00  0.00     0.000 C 
BRANCH   3   4
ATOM      4  C   UNL     1      15.990  -7.555  14.267  1.00  0.00     0.000 C 
BRANCH   4   5
ATOM      5  C   UNL     1      15.169  -6.946  15.418  1.00  0.00     0.000 C 
BRANCH   5   6
ATOM      6  C   UNL     1      14.583  -5.555  15.086  1.00  0.00     0.000 C 
BRANCH   6   7
ATOM      7  C   UNL     1      15.305  -4.421  15.832  1.00  0.00     0.000 C 
BRANCH   7   8
ATOM      8  C   UNL     1      14.337  -3.473  16.558  1.00  0.00     0.000 C 
BRANCH   8   9
ATOM      9  C   UNL     1      15.039  -2.602  17.615  1.00  0.00     0.000 C 
BRANCH   9  10
ATOM     10  C   UNL     1      16.566  -2.577  17.434  1.00  0.00     0.000 C 
BRANCH  10  11
ATOM     11  C   UNL     1      17.317  -2.980  18.715  1.00  0.00     0.000 C 
BRANCH  11  12
ATOM     12  C   UNL     1      18.842  -3.014  18.521  1.00  0.00     0.006 C 
BRANCH  12  13
ATOM     13  C   UNL     1      19.251  -3.034  17.043  1.00  0.00     0.053 C 
BRANCH  13  14
ATOM     14  C   UNL     1      20.625  -2.466  16.870  1.00  0.00     0.041 C 
ATOM     15  O   UNL     1      20.904  -1.776  15.854  1.00  0.00    -0.550 OA
ATOM     16  O   UNL     1      21.594  -2.689  17.838  1.00  0.00    -0.550 OA
ENDBRANCH  13  14
ENDBRANCH  12  13
ENDBRANCH  11  12
ENDBRANCH  10  11
ENDBRANCH   9  10
ENDBRANCH   8   9
ENDBRANCH   7   8
ENDBRANCH   6   7
ENDBRANCH   5   6
ENDBRANCH   4   5
ENDBRANCH   3   4
ENDBRANCH   2   3
ENDBRANCH   1   2
BRANCH   1  17
ATOM     17  C   UNL     1      18.944  -4.459  12.778  1.00  0.00     0.000 C 
BRANCH  17  18
ATOM     18  C   UNL     1      19.056  -2.939  12.992  1.00  0.00     0.000 C 
BRANCH  18  19
ATOM     19  C   UNL     1      17.916  -2.374  13.856  1.00  0.00     0.000 C 
BRANCH  19  20
ATOM     20  C   UNL     1      17.085  -1.261  13.187  1.00  0.00     0.000 C 
BRANCH  20  21
ATOM     21  C   UNL     1      15.876  -1.756  12.368  1.00  0.00     0.000 C 
BRANCH  21  22
ATOM     22  C   UNL     1      14.775  -0.703  12.130  1.00  0.00    -0.000 C 
BRANCH  22  23
ATOM     23  C   UNL     1      13.336  -1.251  12.120  1.00  0.00    -0.000 C 
BRANCH  23  24
ATOM     24  C   UNL     1      12.920  -1.866  13.467  1.00  0.00    -0.000 C 
BRANCH  24  25
ATOM     25  C   UNL     1      12.305  -3.265  13.306  1.00  0.00    -0.000 C 
BRANCH  25  26
ATOM     26  C   UNL     1      12.247  -3.720  11.840  1.00  0.00    -0.000 C 
BRANCH  26  27
ATOM     27  C   UNL     1      13.212  -4.889  11.593  1.00  0.00    -0.000 C 
BRANCH  27  28
ATOM     28  C   UNL     1      14.432  -4.483  10.752  1.00  0.00    -0.000 C 
BRANCH  28  29
ATOM     29  C   UNL     1      14.757  -5.505   9.653  1.00  0.00    -0.003 C 
ATOM     30  C   UNL     1      13.480  -6.080   9.044  1.00  0.00     0.004 C 
ENDBRANCH  28  29
ENDBRANCH  27  28
ENDBRANCH  26  27
ENDBRANCH  25  26
ENDBRANCH  24  25
ENDBRANCH  23  24
ENDBRANCH  22  23
ENDBRANCH  21  22
ENDBRANCH  20  21
ENDBRANCH  19  20
ENDBRANCH  18  19
ENDBRANCH  17  18
ENDBRANCH   1  17
TORSDOF 26
ENDMDL
MODEL 5
REMARK VINA RESULT:    -5.991      3.655      6.728
REMARK INTER + INTRA:         -19.941
REMARK INTER:                 -15.093
REMARK INTRA:                  -4.848
REMARK UNBOUND:                -4.843
REMARK SMILES CCCCCCCCCCCCCCCCCCCCCCCCCCCC(=O)[O-]
REMARK SMILES IDX 15 1 16 2 17 3 18 4 19 5 20 6 21 7 22 8 23 9 24 10 25 11
REMARK SMILES IDX 26 12 27 13 28 14 29 15 30 16 14 17 13 18 12 19 11 20 10 21
REMARK SMILES IDX 9 22 8 23 7 24 6 25 5 26 4 27 3 28 2 29 1 30
REMARK H PARENT
REMARK Flexibility Score: inf
ROOT
ATOM      1  C   UNL     1      13.960  -3.739  15.655  1.00  0.00     0.000 C 
ENDROOT
BRANCH   1   2
ATOM      2  C   UNL     1      14.736  -4.721  14.761  1.00  0.00     0.000 C 
BRANCH   2   3
ATOM      3  C   UNL     1      15.402  -5.863  15.562  1.00  0.00     0.000 C 
BRANCH   3   4
ATOM      4  C   UNL     1      15.623  -7.148  14.741  1.00  0.00     0.000 C 
BRANCH   4   5
ATOM      5  C   UNL     1      15.664  -6.932  13.217  1.00  0.00     0.000 C 
BRANCH   5   6
ATOM      6  C   UNL     1      17.097  -6.792  12.655  1.00  0.00     0.000 C 
BRANCH   6   7
ATOM      7  C   UNL     1      17.144  -5.942  11.374  1.00  0.00     0.000 C 
BRANCH   7   8
ATOM      8  C   UNL     1      15.923  -5.020  11.225  1.00  0.00     0.000 C 
BRANCH   8   9
ATOM      9  C   UNL     1      15.181  -5.229   9.893  1.00  0.00     0.000 C 
BRANCH   9  10
ATOM     10  C   UNL     1      13.653  -5.259  10.072  1.00  0.00     0.000 C 
BRANCH  10  11
ATOM     11  C   UNL     1      13.231  -5.115  11.545  1.00  0.00     0.000 C 
BRANCH  11  12
ATOM     12  C   UNL     1      12.044  -4.156  11.728  1.00  0.00     0.006 C 
BRANCH  12  13
ATOM     13  C   UNL     1      11.621  -3.480  10.418  1.00  0.00     0.053 C 
BRANCH  13  14
ATOM     14  C   UNL     1      10.301  -4.013   9.954  1.00  0.00     0.041 C 
ATOM     15  O   UNL     1       9.324  -4.069  10.746  1.00  0.00    -0.550 OA
ATOM     16  O   UNL     1      10.147  -4.437   8.641  1.00  0.00    -0.550 OA
ENDBRANCH  13  14
ENDBRANCH  12  13
ENDBRANCH  11  12
ENDBRANCH  10  11
ENDBRANCH   9  10
ENDBRANCH   8   9
ENDBRANCH   7   8
ENDBRANCH   6   7
ENDBRANCH   5   6
ENDBRANCH   4   5
ENDBRANCH   3   4
ENDBRANCH   2   3
ENDBRANCH   1   2
BRANCH   1  17
ATOM     17  C   UNL     1      14.646  -3.506  17.010  1.00  0.00     0.000 C 
BRANCH  17  18
ATOM     18  C   UNL     1      15.825  -2.521  16.914  1.00  0.00     0.000 C 
BRANCH  18  19
ATOM     19  C   UNL     1      16.820  -2.667  18.077  1.00  0.00     0.000 C 
BRANCH  19  20
ATOM     20  C   UNL     1      18.233  -3.129  17.668  1.00  0.00     0.000 C 
BRANCH  20  21
ATOM     21  C   UNL     1      18.293  -3.971  16.378  1.00  0.00     0.000 C 
BRANCH  21  22
ATOM     22  C   UNL     1      19.478  -3.651  15.446  1.00  0.00    -0.000 C 
BRANCH  22  23
ATOM     23  C   UNL     1      19.321  -4.141  13.995  1.00  0.00    -0.000 C 
BRANCH  23  24
ATOM     24  C   UNL     1      18.581  -3.134  13.098  1.00  0.00    -0.000 C 
BRANCH  24  25
ATOM     25  C   UNL     1      18.689  -1.694  13.622  1.00  0.00    -0.000 C 
BRANCH  25  26
ATOM     26  C   UNL     1      17.423  -0.868  13.347  1.00  0.00    -0.000 C 
BRANCH  26  27
ATOM     27  C   UNL     1      16.206  -1.784  13.157  1.00  0.00    -0.000 C 
BRANCH  27  28
ATOM     28  C   UNL     1      15.444  -1.496  11.853  1.00  0.00    -0.000 C 
BRANCH  28  29
ATOM     29  C   UNL     1      14.098  -0.801  12.100  1.00  0.00    -0.003 C 
ATOM     30  C   UNL     1      13.311  -1.503  13.204  1.00  0.00     0.004 C 
ENDBRANCH  28  29
ENDBRANCH  27  28
ENDBRANCH  26  27
ENDBRANCH  25  26
ENDBRANCH  24  25
ENDBRANCH  23  24
ENDBRANCH  22  23
ENDBRANCH  21  22
ENDBRANCH  20  21
ENDBRANCH  19  20
ENDBRANCH  18  19
ENDBRANCH  17  18
ENDBRANCH   1  17
TORSDOF 26
ENDMDL
MODEL 6
REMARK VINA RESULT:    -5.989      1.087      2.025
REMARK INTER + INTRA:         -19.934
REMARK INTER:                 -15.232
REMARK INTRA:                  -4.702
REMARK UNBOUND:                -4.843
REMARK SMILES CCCCCCCCCCCCCCCCCCCCCCCCCCCC(=O)[O-]
REMARK SMILES IDX 15 1 16 2 17 3 18 4 19 5 20 6 21 7 22 8 23 9 24 10 25 11
REMARK SMILES IDX 26 12 27 13 28 14 29 15 30 16 14 17 13 18 12 19 11 20 10 21
REMARK SMILES IDX 9 22 8 23 7 24 6 25 5 26 4 27 3 28 2 29 1 30
REMARK H PARENT
REMARK Flexibility Score: inf
ROOT
ATOM      1  C   UNL     1      14.053  -4.565  10.783  1.00  0.00     0.000 C 
ENDROOT
BRANCH   1   2
ATOM      2  C   UNL     1      12.992  -5.154  11.728  1.00  0.00     0.000 C 
BRANCH   2   3
ATOM      3  C   UNL     1      13.541  -6.299  12.609  1.00  0.00     0.000 C 
BRANCH   3   4
ATOM      4  C   UNL     1      14.805  -5.918  13.403  1.00  0.00     0.000 C 
BRANCH   4   5
ATOM      5  C   UNL     1      15.282  -6.992  14.397  1.00  0.00     0.000 C 
BRANCH   5   6
ATOM      6  C   UNL     1      15.851  -6.407  15.710  1.00  0.00     0.000 C 
BRANCH   6   7
ATOM      7  C   UNL     1      15.790  -4.871  15.742  1.00  0.00     0.000 C 
BRANCH   7   8
ATOM      8  C   UNL     1      14.638  -4.339  16.611  1.00  0.00     0.000 C 
BRANCH   8   9
ATOM      9  C   UNL     1      14.948  -2.966  17.232  1.00  0.00     0.000 C 
BRANCH   9  10
ATOM     10  C   UNL     1      16.448  -2.628  17.190  1.00  0.00     0.000 C 
BRANCH  10  11
ATOM     11  C   UNL     1      17.130  -2.810  18.558  1.00  0.00     0.000 C 
BRANCH  11  12
ATOM     12  C   UNL     1      18.636  -3.095  18.434  1.00  0.00     0.006 C 
BRANCH  12  13
ATOM     13  C   UNL     1      19.141  -2.997  16.990  1.00  0.00     0.053 C 
BRANCH  13  14
ATOM     14  C   UNL     1      20.534  -2.450  16.956  1.00  0.00     0.041 C 
ATOM     15  O   UNL     1      20.942  -1.812  15.949  1.00  0.00    -0.550 OA
ATOM     16  O   UNL     1      21.378  -2.635  18.042  1.00  0.00    -0.550 OA
ENDBRANCH  13  14
ENDBRANCH  12  13
ENDBRANCH  11  12
ENDBRANCH  10  11
ENDBRANCH   9  10
ENDBRANCH   8   9
ENDBRANCH   7   8
ENDBRANCH   6   7
ENDBRANCH   5   6
ENDBRANCH   4   5
ENDBRANCH   3   4
ENDBRANCH   2   3
ENDBRANCH   1   2
BRANCH   1  17
ATOM     17  C   UNL     1      14.578  -5.596   9.771  1.00  0.00     0.000 C 
BRANCH  17  18
ATOM     18  C   UNL     1      16.115  -5.630   9.706  1.00  0.00     0.000 C 
BRANCH  18  19
ATOM     19  C   UNL     1      16.777  -5.146  11.006  1.00  0.00     0.000 C 
BRANCH  19  20
ATOM     20  C   UNL     1      17.859  -6.087  11.573  1.00  0.00     0.000 C 
BRANCH  20  21
ATOM     21  C   UNL     1      18.870  -5.417  12.524  1.00  0.00     0.000 C 
BRANCH  21  22
ATOM     22  C   UNL     1      18.899  -3.877  12.466  1.00  0.00    -0.000 C 
BRANCH  22  23
ATOM     23  C   UNL     1      18.075  -3.165  13.555  1.00  0.00    -0.000 C 
BRANCH  23  24
ATOM     24  C   UNL     1      18.307  -1.645  13.585  1.00  0.00    -0.000 C 
BRANCH  24  25
ATOM     25  C   UNL     1      17.079  -0.855  13.104  1.00  0.00    -0.000 C 
BRANCH  25  26
ATOM     26  C   UNL     1      15.925  -1.769  12.663  1.00  0.00    -0.000 C 
BRANCH  26  27
ATOM     27  C   UNL     1      14.757  -0.942  12.107  1.00  0.00    -0.000 C 
BRANCH  27  28
ATOM     28  C   UNL     1      13.388  -1.454  12.583  1.00  0.00    -0.000 C 
BRANCH  28  29
ATOM     29  C   UNL     1      13.496  -2.364  13.815  1.00  0.00    -0.003 C 
ATOM     30  C   UNL     1      12.133  -2.553  14.479  1.00  0.00     0.004 C 
ENDBRANCH  28  29
ENDBRANCH  27  28
ENDBRANCH  26  27
ENDBRANCH  25  26
ENDBRANCH  24  25
ENDBRANCH  23  24
ENDBRANCH  22  23
ENDBRANCH  21  22
ENDBRANCH  20  21
ENDBRANCH  19  20
ENDBRANCH  18  19
ENDBRANCH  17  18
ENDBRANCH   1  17
TORSDOF 26
ENDMDL
MODEL 7
REMARK VINA RESULT:    -5.975      3.270      6.998
REMARK INTER + INTRA:         -19.900
REMARK INTER:                 -15.508
REMARK INTRA:                  -4.392
REMARK UNBOUND:                -4.843
REMARK SMILES CCCCCCCCCCCCCCCCCCCCCCCCCCCC(=O)[O-]
REMARK SMILES IDX 15 1 16 2 17 3 18 4 19 5 20 6 21 7 22 8 23 9 24 10 25 11
REMARK SMILES IDX 26 12 27 13 28 14 29 15 30 16 14 17 13 18 12 19 11 20 10 21
REMARK SMILES IDX 9 22 8 23 7 24 6 25 5 26 4 27 3 28 2 29 1 30
REMARK H PARENT
REMARK Flexibility Score: inf
ROOT
ATOM      1  C   UNL     1      19.461  -3.001  16.661  1.00  0.00     0.000 C 
ENDROOT
BRANCH   1   2
ATOM      2  C   UNL     1      20.072  -3.587  15.377  1.00  0.00     0.000 C 
BRANCH   2   3
ATOM      3  C   UNL     1      19.029  -4.298  14.485  1.00  0.00     0.000 C 
BRANCH   3   4
ATOM      4  C   UNL     1      18.475  -3.411  13.353  1.00  0.00     0.000 C 
BRANCH   4   5
ATOM      5  C   UNL     1      19.034  -1.977  13.335  1.00  0.00     0.000 C 
BRANCH   5   6
ATOM      6  C   UNL     1      17.935  -0.890  13.298  1.00  0.00     0.000 C 
BRANCH   6   7
ATOM      7  C   UNL     1      16.519  -1.485  13.358  1.00  0.00     0.000 C 
BRANCH   7   8
ATOM      8  C   UNL     1      15.649  -1.076  12.158  1.00  0.00     0.000 C 
BRANCH   8   9
ATOM      9  C   UNL     1      14.151  -1.338  12.393  1.00  0.00     0.000 C 
BRANCH   9  10
ATOM     10  C   UNL     1      13.893  -2.697  13.068  1.00  0.00     0.000 C 
BRANCH  10  11
ATOM     11  C   UNL     1      12.448  -2.832  13.580  1.00  0.00     0.000 C 
BRANCH  11  12
ATOM     12  C   UNL     1      11.652  -3.909  12.825  1.00  0.00     0.006 C 
BRANCH  12  13
ATOM     13  C   UNL     1      12.142  -4.107  11.385  1.00  0.00     0.053 C 
BRANCH  13  14
ATOM     14  C   UNL     1      11.261  -3.372  10.424  1.00  0.00     0.041 C 
ATOM     15  O   UNL     1      11.402  -2.133  10.253  1.00  0.00    -0.550 OA
ATOM     16  O   UNL     1      10.292  -4.060   9.707  1.00  0.00    -0.550 OA
ENDBRANCH  13  14
ENDBRANCH  12  13
ENDBRANCH  11  12
ENDBRANCH  10  11
ENDBRANCH   9  10
ENDBRANCH   8   9
ENDBRANCH   7   8
ENDBRANCH   6   7
ENDBRANCH   5   6
ENDBRANCH   4   5
ENDBRANCH   3   4
ENDBRANCH   2   3
ENDBRANCH   1   2
BRANCH   1  17
ATOM     17  C   UNL     1      18.028  -3.498  16.911  1.00  0.00     0.000 C 
BRANCH  17  18
ATOM     18  C   UNL     1      17.426  -2.933  18.210  1.00  0.00     0.000 C 
BRANCH  18  19
ATOM     19  C   UNL     1      15.940  -2.563  18.066  1.00  0.00     0.000 C 
BRANCH  19  20
ATOM     20  C   UNL     1      15.315  -2.908  16.700  1.00  0.00     0.000 C 
BRANCH  20  21
ATOM     21  C   UNL     1      13.954  -3.630  16.771  1.00  0.00     0.000 C 
BRANCH  21  22
ATOM     22  C   UNL     1      13.891  -4.976  16.021  1.00  0.00    -0.000 C 
BRANCH  22  23
ATOM     23  C   UNL     1      15.224  -5.452  15.416  1.00  0.00    -0.000 C 
BRANCH  23  24
ATOM     24  C   UNL     1      15.124  -6.840  14.761  1.00  0.00    -0.000 C 
BRANCH  24  25
ATOM     25  C   UNL     1      16.022  -6.967  13.520  1.00  0.00    -0.000 C 
BRANCH  25  26
ATOM     26  C   UNL     1      15.735  -5.883  12.470  1.00  0.00    -0.000 C 
BRANCH  26  27
ATOM     27  C   UNL     1      16.895  -5.772  11.470  1.00  0.00    -0.000 C 
BRANCH  27  28
ATOM     28  C   UNL     1      16.415  -5.651  10.015  1.00  0.00    -0.000 C 
BRANCH  28  29
ATOM     29  C   UNL     1      14.976  -5.128   9.912  1.00  0.00    -0.003 C 
ATOM     30  C   UNL     1      14.110  -6.063   9.070  1.00  0.00     0.004 C 
ENDBRANCH  28  29
ENDBRANCH  27  28
ENDBRANCH  26  27
ENDBRANCH  25  26
ENDBRANCH  24  25
ENDBRANCH  23  24
ENDBRANCH  22  23
ENDBRANCH  21  22
ENDBRANCH  20  21
ENDBRANCH  19  20
ENDBRANCH  18  19
ENDBRANCH  17  18
ENDBRANCH   1  17
TORSDOF 26
ENDMDL
MODEL 8
REMARK VINA RESULT:    -5.940      3.641      7.167
REMARK INTER + INTRA:         -19.812
REMARK INTER:                 -14.950
REMARK INTRA:                  -4.862
REMARK UNBOUND:                -4.843
REMARK SMILES CCCCCCCCCCCCCCCCCCCCCCCCCCCC(=O)[O-]
REMARK SMILES IDX 15 1 16 2 17 3 18 4 19 5 20 6 21 7 22 8 23 9 24 10 25 11
REMARK SMILES IDX 26 12 27 13 28 14 29 15 30 16 14 17 13 18 12 19 11 20 10 21
REMARK SMILES IDX 9 22 8 23 7 24 6 25 5 26 4 27 3 28 2 29 1 30
REMARK H PARENT
REMARK Flexibility Score: inf
ROOT
ATOM      1  C   UNL     1      12.594  -3.004  15.326  1.00  0.00     0.000 C 
ENDROOT
BRANCH   1   2
ATOM      2  C   UNL     1      13.597  -3.788  16.190  1.00  0.00     0.000 C 
BRANCH   2   3
ATOM      3  C   UNL     1      14.444  -4.786  15.370  1.00  0.00     0.000 C 
BRANCH   3   4
ATOM      4  C   UNL     1      14.693  -6.126  16.090  1.00  0.00     0.000 C 
BRANCH   4   5
ATOM      5  C   UNL     1      15.256  -7.239  15.190  1.00  0.00     0.000 C 
BRANCH   5   6
ATOM      6  C   UNL     1      15.053  -6.972  13.681  1.00  0.00     0.000 C 
BRANCH   6   7
ATOM      7  C   UNL     1      16.383  -6.788  12.932  1.00  0.00     0.000 C 
BRANCH   7   8
ATOM      8  C   UNL     1      16.420  -5.503  12.089  1.00  0.00     0.000 C 
BRANCH   8   9
ATOM      9  C   UNL     1      16.565  -5.785  10.583  1.00  0.00     0.000 C 
BRANCH   9  10
ATOM     10  C   UNL     1      15.330  -5.338   9.782  1.00  0.00     0.000 C 
BRANCH  10  11
ATOM     11  C   UNL     1      14.123  -5.031  10.686  1.00  0.00     0.000 C 
BRANCH  11  12
ATOM     12  C   UNL     1      12.810  -4.905   9.896  1.00  0.00     0.006 C 
BRANCH  12  13
ATOM     13  C   UNL     1      11.872  -3.837  10.471  1.00  0.00     0.053 C 
BRANCH  13  14
ATOM     14  C   UNL     1      10.470  -4.057   9.994  1.00  0.00     0.041 C 
ATOM     15  O   UNL     1       9.500  -3.898  10.781  1.00  0.00    -0.550 OA
ATOM     16  O   UNL     1      10.235  -4.427   8.677  1.00  0.00    -0.550 OA
ENDBRANCH  13  14
ENDBRANCH  12  13
ENDBRANCH  11  12
ENDBRANCH  10  11
ENDBRANCH   9  10
ENDBRANCH   8   9
ENDBRANCH   7   8
ENDBRANCH   6   7
ENDBRANCH   5   6
ENDBRANCH   4   5
ENDBRANCH   3   4
ENDBRANCH   2   3
ENDBRANCH   1   2
BRANCH   1  17
ATOM     17  C   UNL     1      12.967  -3.014  13.835  1.00  0.00     0.000 C 
BRANCH  17  18
ATOM     18  C   UNL     1      13.042  -1.598  13.236  1.00  0.00     0.000 C 
BRANCH  18  19
ATOM     19  C   UNL     1      14.294  -1.383  12.369  1.00  0.00     0.000 C 
BRANCH  19  20
ATOM     20  C   UNL     1      15.453  -2.359  12.651  1.00  0.00     0.000 C 
BRANCH  20  21
ATOM     21  C   UNL     1      16.427  -1.910  13.759  1.00  0.00     0.000 C 
BRANCH  21  22
ATOM     22  C   UNL     1      17.673  -1.150  13.264  1.00  0.00    -0.000 C 
BRANCH  22  23
ATOM     23  C   UNL     1      19.023  -1.785  13.646  1.00  0.00    -0.000 C 
BRANCH  23  24
ATOM     24  C   UNL     1      19.393  -2.986  12.758  1.00  0.00    -0.000 C 
BRANCH  24  25
ATOM     25  C   UNL     1      19.354  -4.316  13.527  1.00  0.00    -0.000 C 
BRANCH  25  26
ATOM     26  C   UNL     1      19.283  -4.117  15.049  1.00  0.00    -0.000 C 
BRANCH  26  27
ATOM     27  C   UNL     1      17.909  -4.538  15.590  1.00  0.00    -0.000 C 
BRANCH  27  28
ATOM     28  C   UNL     1      17.824  -4.457  17.122  1.00  0.00    -0.000 C 
BRANCH  28  29
ATOM     29  C   UNL     1      17.810  -3.011  17.635  1.00  0.00    -0.003 C 
ATOM     30  C   UNL     1      16.392  -2.443  17.640  1.00  0.00     0.004 C 
ENDBRANCH  28  29
ENDBRANCH  27  28
ENDBRANCH  26  27
ENDBRANCH  25  26
ENDBRANCH  24  25
ENDBRANCH  23  24
ENDBRANCH  22  23
ENDBRANCH  21  22
ENDBRANCH  20  21
ENDBRANCH  19  20
ENDBRANCH  18  19
ENDBRANCH  17  18
ENDBRANCH   1  17
TORSDOF 26
ENDMDL
MODEL 9
REMARK VINA RESULT:    -5.934      2.567      5.947
REMARK INTER + INTRA:         -19.797
REMARK INTER:                 -14.340
REMARK INTRA:                  -5.457
REMARK UNBOUND:                -4.843
REMARK SMILES CCCCCCCCCCCCCCCCCCCCCCCCCCCC(=O)[O-]
REMARK SMILES IDX 15 1 16 2 17 3 18 4 19 5 20 6 21 7 22 8 23 9 24 10 25 11
REMARK SMILES IDX 26 12 27 13 28 14 29 15 30 16 14 17 13 18 12 19 11 20 10 21
REMARK SMILES IDX 9 22 8 23 7 24 6 25 5 26 4 27 3 28 2 29 1 30
REMARK H PARENT
REMARK Flexibility Score: inf
ROOT
ATOM      1  C   UNL     1      15.893  -2.272  17.746  1.00  0.00     0.000 C 
ENDROOT
BRANCH   1   2
ATOM      2  C   UNL     1      16.730  -2.927  18.858  1.00  0.00     0.000 C 
BRANCH   2   3
ATOM      3  C   UNL     1      18.221  -3.070  18.482  1.00  0.00     0.000 C 
BRANCH   3   4
ATOM      4  C   UNL     1      18.482  -3.049  16.963  1.00  0.00     0.000 C 
BRANCH   4   5
ATOM      5  C   UNL     1      19.949  -2.799  16.571  1.00  0.00     0.000 C 
BRANCH   5   6
ATOM      6  C   UNL     1      20.545  -3.911  15.678  1.00  0.00     0.000 C 
BRANCH   6   7
ATOM      7  C   UNL     1      19.481  -4.598  14.807  1.00  0.00     0.000 C 
BRANCH   7   8
ATOM      8  C   UNL     1      19.720  -4.394  13.302  1.00  0.00     0.000 C 
BRANCH   8   9
ATOM      9  C   UNL     1      18.949  -3.189  12.735  1.00  0.00     0.000 C 
BRANCH   9  10
ATOM     10  C   UNL     1      17.570  -3.014  13.394  1.00  0.00     0.000 C 
BRANCH  10  11
ATOM     11  C   UNL     1      17.348  -1.585  13.921  1.00  0.00     0.000 C 
BRANCH  11  12
ATOM     12  C   UNL     1      16.565  -0.706  12.932  1.00  0.00     0.006 C 
BRANCH  12  13
ATOM     13  C   UNL     1      15.562  -1.507  12.093  1.00  0.00     0.053 C 
BRANCH  13  14
ATOM     14  C   UNL     1      14.207  -0.872  12.146  1.00  0.00     0.041 C 
ATOM     15  O   UNL     1      13.893   0.024  11.319  1.00  0.00    -0.550 OA
ATOM     16  O   UNL     1      13.287  -1.279  13.102  1.00  0.00    -0.550 OA
ENDBRANCH  13  14
ENDBRANCH  12  13
ENDBRANCH  11  12
ENDBRANCH  10  11
ENDBRANCH   9  10
ENDBRANCH   8   9
ENDBRANCH   7   8
ENDBRANCH   6   7
ENDBRANCH   5   6
ENDBRANCH   4   5
ENDBRANCH   3   4
ENDBRANCH   2   3
ENDBRANCH   1   2
BRANCH   1  17
ATOM     17  C   UNL     1      14.730  -3.162  17.282  1.00  0.00     0.000 C 
BRANCH  17  18
ATOM     18  C   UNL     1      14.508  -3.098  15.760  1.00  0.00     0.000 C 
BRANCH  18  19
ATOM     19  C   UNL     1      14.676  -4.465  15.075  1.00  0.00     0.000 C 
BRANCH  19  20
ATOM     20  C   UNL     1      15.675  -5.416  15.762  1.00  0.00     0.000 C 
BRANCH  20  21
ATOM     21  C   UNL     1      16.307  -6.474  14.835  1.00  0.00     0.000 C 
BRANCH  21  22
ATOM     22  C   UNL     1      15.933  -6.344  13.346  1.00  0.00    -0.000 C 
BRANCH  22  23
ATOM     23  C   UNL     1      17.030  -6.775  12.355  1.00  0.00    -0.000 C 
BRANCH  23  24
ATOM     24  C   UNL     1      17.065  -5.908  11.084  1.00  0.00    -0.000 C 
BRANCH  24  25
ATOM     25  C   UNL     1      15.860  -4.957  10.992  1.00  0.00    -0.000 C 
BRANCH  25  26
ATOM     26  C   UNL     1      14.949  -5.274   9.796  1.00  0.00    -0.000 C 
BRANCH  26  27
ATOM     27  C   UNL     1      13.473  -5.268  10.219  1.00  0.00    -0.000 C 
BRANCH  27  28
ATOM     28  C   UNL     1      13.218  -4.415  11.472  1.00  0.00    -0.000 C 
BRANCH  28  29
ATOM     29  C   UNL     1      11.751  -3.981  11.599  1.00  0.00    -0.003 C 
ATOM     30  C   UNL     1      11.207  -3.484  10.262  1.00  0.00     0.004 C 
ENDBRANCH  28  29
ENDBRANCH  27  28
ENDBRANCH  26  27
ENDBRANCH  25  26
ENDBRANCH  24  25
ENDBRANCH  23  24
ENDBRANCH  22  23
ENDBRANCH  21  22
ENDBRANCH  20  21
ENDBRANCH  19  20
ENDBRANCH  18  19
ENDBRANCH  17  18
ENDBRANCH   1  17
TORSDOF 26
ENDMDL
