MODEL 1
REMARK VINA RESULT:    -4.477      0.000      0.000
REMARK INTER + INTRA:          -4.739
REMARK INTER:                  -4.739
REMARK INTRA:                   0.000
REMARK UNBOUND:                 0.000
REMARK SMILES O=c1ccc2cc(O)c(O)cc2o1
REMARK SMILES IDX 4 1 3 2 2 3 1 4 13 5 12 6 11 7 9 8 7 9 6 10 5 11 8 12 10 14
REMARK H PARENT 8 13 10 15
REMARK Flexibility Score: inf
ROOT
ATOM      1  C   UNL     1       1.595  35.474   5.360  1.00  0.00     0.019 A 
ATOM      2  C   UNL     1       0.386  34.854   5.676  1.00  0.00     0.094 A 
ATOM      3  C   UNL     1      -0.610  35.598   6.318  1.00  0.00     0.336 A 
ATOM      4  O   UNL     1      -1.708  35.057   6.610  1.00  0.00    -0.246 OA
ATOM      5  O   UNL     1      -0.404  36.877   6.623  1.00  0.00    -0.423 OA
ATOM      6  C   UNL     1       0.734  37.506   6.340  1.00  0.00     0.142 A 
ATOM      7  C   UNL     1       0.893  38.852   6.685  1.00  0.00     0.098 A 
ATOM      8  C   UNL     1       2.087  39.522   6.391  1.00  0.00     0.161 A 
ATOM      9  C   UNL     1       3.135  38.838   5.746  1.00  0.00     0.158 A 
ATOM     10  C   UNL     1       2.979  37.487   5.398  1.00  0.00     0.062 A 
ATOM     11  C   UNL     1       1.783  36.820   5.693  1.00  0.00     0.022 A 
ENDROOT
BRANCH   9  12
ATOM     12  O   UNL     1       4.324  39.503   5.453  1.00  0.00    -0.504 OA
ATOM     13  H   UNL     1       4.523  40.424   5.825  1.00  0.00     0.293 HD
ENDBRANCH   9  12
BRANCH   8  14
ATOM     14  O   UNL     1       2.214  40.864   6.748  1.00  0.00    -0.504 OA
ATOM     15  H   UNL     1       1.428  41.501   6.734  1.00  0.00     0.293 HD
ENDBRANCH   8  14
TORSDOF 2
ENDMDL
MODEL 2
REMARK VINA RESULT:    -4.474      1.477      4.718
REMARK INTER + INTRA:          -4.736
REMARK INTER:                  -4.736
REMARK INTRA:                   0.000
REMARK UNBOUND:                 0.000
REMARK SMILES O=c1ccc2cc(O)c(O)cc2o1
REMARK SMILES IDX 4 1 3 2 2 3 1 4 13 5 12 6 11 7 9 8 7 9 6 10 5 11 8 12 10 14
REMARK H PARENT 8 13 10 15
REMARK Flexibility Score: inf
ROOT
ATOM      1  C   UNL     1       1.670  35.873   5.319  1.00  0.00     0.019 A 
ATOM      2  C   UNL     1       2.520  36.973   5.205  1.00  0.00     0.094 A 
ATOM      3  C   UNL     1       2.081  38.220   5.663  1.00  0.00     0.336 A 
ATOM      4  O   UNL     1       2.835  39.224   5.570  1.00  0.00    -0.246 OA
ATOM      5  O   UNL     1       0.870  38.352   6.198  1.00  0.00    -0.423 OA
ATOM      6  C   UNL     1       0.028  37.330   6.324  1.00  0.00     0.142 A 
ATOM      7  C   UNL     1      -1.233  37.530   6.895  1.00  0.00     0.098 A 
ATOM      8  C   UNL     1      -2.126  36.461   7.032  1.00  0.00     0.161 A 
ATOM      9  C   UNL     1      -1.755  35.176   6.594  1.00  0.00     0.158 A 
ATOM     10  C   UNL     1      -0.490  34.970   6.021  1.00  0.00     0.062 A 
ATOM     11  C   UNL     1       0.401  36.043   5.885  1.00  0.00     0.022 A 
ENDROOT
BRANCH   9  12
ATOM     12  O   UNL     1      -2.642  34.109   6.730  1.00  0.00    -0.504 OA
ATOM     13  H   UNL     1      -2.335  33.201   7.057  1.00  0.00     0.293 HD
ENDBRANCH   9  12
BRANCH   8  14
ATOM     14  O   UNL     1      -3.376  36.693   7.605  1.00  0.00    -0.504 OA
ATOM     15  H   UNL     1      -3.481  36.974   8.572  1.00  0.00     0.293 HD
ENDBRANCH   8  14
TORSDOF 2
ENDMDL
MODEL 3
REMARK VINA RESULT:    -4.385      3.299      4.969
REMARK INTER + INTRA:          -4.641
REMARK INTER:                  -4.641
REMARK INTRA:                   0.000
REMARK UNBOUND:                 0.000
REMARK SMILES O=c1ccc2cc(O)c(O)cc2o1
REMARK SMILES IDX 4 1 3 2 2 3 1 4 13 5 12 6 11 7 9 8 7 9 6 10 5 11 8 12 10 14
REMARK H PARENT 8 13 10 15
REMARK Flexibility Score: inf
ROOT
ATOM      1  C   UNL     1       2.701  37.944   6.844  1.00  0.00     0.019 A 
ATOM      2  C   UNL     1       2.180  38.682   5.782  1.00  0.00     0.094 A 
ATOM      3  C   UNL     1       3.020  39.563   5.092  1.00  0.00     0.336 A 
ATOM      4  O   UNL     1       2.569  40.238   4.130  1.00  0.00    -0.246 OA
ATOM      5  O   UNL     1       4.296  39.694   5.447  1.00  0.00    -0.423 OA
ATOM      6  C   UNL     1       4.832  39.009   6.454  1.00  0.00     0.142 A 
ATOM      7  C   UNL     1       6.180  39.187   6.781  1.00  0.00     0.098 A 
ATOM      8  C   UNL     1       6.753  38.471   7.839  1.00  0.00     0.161 A 
ATOM      9  C   UNL     1       5.969  37.565   8.579  1.00  0.00     0.158 A 
ATOM     10  C   UNL     1       4.616  37.383   8.254  1.00  0.00     0.062 A 
ATOM     11  C   UNL     1       4.046  38.101   7.195  1.00  0.00     0.022 A 
ENDROOT
BRANCH   9  12
ATOM     12  O   UNL     1       6.538  36.851   9.632  1.00  0.00    -0.504 OA
ATOM     13  H   UNL     1       6.857  35.897   9.516  1.00  0.00     0.293 HD
ENDBRANCH   9  12
BRANCH   8  14
ATOM     14  O   UNL     1       8.099  38.671   8.141  1.00  0.00    -0.504 OA
ATOM     15  H   UNL     1       8.762  37.906   8.177  1.00  0.00     0.293 HD
ENDBRANCH   8  14
TORSDOF 2
ENDMDL
MODEL 4
REMARK VINA RESULT:    -4.158      3.045      4.299
REMARK INTER + INTRA:          -4.401
REMARK INTER:                  -4.401
REMARK INTRA:                   0.000
REMARK UNBOUND:                 0.000
REMARK SMILES O=c1ccc2cc(O)c(O)cc2o1
REMARK SMILES IDX 4 1 3 2 2 3 1 4 13 5 12 6 11 7 9 8 7 9 6 10 5 11 8 12 10 14
REMARK H PARENT 8 13 10 15
REMARK Flexibility Score: inf
ROOT
ATOM      1  C   UNL     1       3.908  39.465   5.245  1.00  0.00     0.019 A 
ATOM      2  C   UNL     1       2.559  39.141   5.107  1.00  0.00     0.094 A 
ATOM      3  C   UNL     1       1.968  38.287   6.045  1.00  0.00     0.336 A 
ATOM      4  O   UNL     1       0.751  37.984   5.938  1.00  0.00    -0.246 OA
ATOM      5  O   UNL     1       2.684  37.792   7.051  1.00  0.00    -0.423 OA
ATOM      6  C   UNL     1       3.973  38.075   7.218  1.00  0.00     0.142 A 
ATOM      7  C   UNL     1       4.675  37.526   8.296  1.00  0.00     0.098 A 
ATOM      8  C   UNL     1       6.032  37.818   8.480  1.00  0.00     0.161 A 
ATOM      9  C   UNL     1       6.696  38.670   7.577  1.00  0.00     0.158 A 
ATOM     10  C   UNL     1       5.995  39.224   6.495  1.00  0.00     0.062 A 
ATOM     11  C   UNL     1       4.637  38.929   6.312  1.00  0.00     0.022 A 
ENDROOT
BRANCH   9  12
ATOM     12  O   UNL     1       8.046  38.962   7.759  1.00  0.00    -0.504 OA
ATOM     13  H   UNL     1       8.691  39.000   6.979  1.00  0.00     0.293 HD
ENDBRANCH   9  12
BRANCH   8  14
ATOM     14  O   UNL     1       6.704  37.254   9.564  1.00  0.00    -0.504 OA
ATOM     15  H   UNL     1       6.754  37.715  10.465  1.00  0.00     0.293 HD
ENDBRANCH   8  14
TORSDOF 2
ENDMDL
MODEL 5
REMARK VINA RESULT:    -4.098      1.275      5.043
REMARK INTER + INTRA:          -4.338
REMARK INTER:                  -4.338
REMARK INTRA:                   0.000
REMARK UNBOUND:                 0.000
REMARK SMILES O=c1ccc2cc(O)c(O)cc2o1
REMARK SMILES IDX 4 1 3 2 2 3 1 4 13 5 12 6 11 7 9 8 7 9 6 10 5 11 8 12 10 14
REMARK H PARENT 8 13 10 15
REMARK Flexibility Score: inf
ROOT
ATOM      1  C   UNL     1       1.765  39.728   6.544  1.00  0.00     0.019 A 
ATOM      2  C   UNL     1       3.041  40.194   6.231  1.00  0.00     0.094 A 
ATOM      3  C   UNL     1       3.958  39.318   5.641  1.00  0.00     0.336 A 
ATOM      4  O   UNL     1       5.115  39.721   5.350  1.00  0.00    -0.246 OA
ATOM      5  O   UNL     1       3.615  38.058   5.384  1.00  0.00    -0.423 OA
ATOM      6  C   UNL     1       2.409  37.572   5.667  1.00  0.00     0.142 A 
ATOM      7  C   UNL     1       2.106  36.239   5.373  1.00  0.00     0.098 A 
ATOM      8  C   UNL     1       0.840  35.720   5.667  1.00  0.00     0.161 A 
ATOM      9  C   UNL     1      -0.136  36.542   6.262  1.00  0.00     0.158 A 
ATOM     10  C   UNL     1       0.164  37.881   6.558  1.00  0.00     0.062 A 
ATOM     11  C   UNL     1       1.433  38.398   6.263  1.00  0.00     0.022 A 
ENDROOT
BRANCH   9  12
ATOM     12  O   UNL     1      -1.397  36.027   6.555  1.00  0.00    -0.504 OA
ATOM     13  H   UNL     1      -2.187  36.632   6.747  1.00  0.00     0.293 HD
ENDBRANCH   9  12
BRANCH   8  14
ATOM     14  O   UNL     1       0.568  34.386   5.362  1.00  0.00    -0.504 OA
ATOM     15  H   UNL     1       0.494  34.057   4.407  1.00  0.00     0.293 HD
ENDBRANCH   8  14
TORSDOF 2
ENDMDL
MODEL 6
REMARK VINA RESULT:    -4.059      1.260      4.531
REMARK INTER + INTRA:          -4.296
REMARK INTER:                  -4.296
REMARK INTRA:                   0.000
REMARK UNBOUND:                 0.000
REMARK SMILES O=c1ccc2cc(O)c(O)cc2o1
REMARK SMILES IDX 4 1 3 2 2 3 1 4 13 5 12 6 11 7 9 8 7 9 6 10 5 11 8 12 10 14
REMARK H PARENT 8 13 10 15
REMARK Flexibility Score: inf
ROOT
ATOM      1  C   UNL     1       3.435  38.191   4.717  1.00  0.00     0.019 A 
ATOM      2  C   UNL     1       3.660  39.551   4.930  1.00  0.00     0.094 A 
ATOM      3  C   UNL     1       2.718  40.290   5.654  1.00  0.00     0.336 A 
ATOM      4  O   UNL     1       2.904  41.518   5.857  1.00  0.00    -0.246 OA
ATOM      5  O   UNL     1       1.623  39.702   6.129  1.00  0.00    -0.423 OA
ATOM      6  C   UNL     1       1.369  38.409   5.949  1.00  0.00     0.142 A 
ATOM      7  C   UNL     1       0.202  37.845   6.473  1.00  0.00     0.098 A 
ATOM      8  C   UNL     1      -0.074  36.485   6.288  1.00  0.00     0.161 A 
ATOM      9  C   UNL     1       0.829  35.678   5.570  1.00  0.00     0.158 A 
ATOM     10  C   UNL     1       2.002  36.239   5.043  1.00  0.00     0.062 A 
ATOM     11  C   UNL     1       2.275  37.600   5.229  1.00  0.00     0.022 A 
ENDROOT
BRANCH   9  12
ATOM     12  O   UNL     1       0.557  34.323   5.385  1.00  0.00    -0.504 OA
ATOM     13  H   UNL     1      -0.136  33.839   5.944  1.00  0.00     0.293 HD
ENDBRANCH   9  12
BRANCH   8  14
ATOM     14  O   UNL     1      -1.247  35.954   6.822  1.00  0.00    -0.504 OA
ATOM     15  H   UNL     1      -1.708  35.149   6.415  1.00  0.00     0.293 HD
ENDBRANCH   8  14
TORSDOF 2
ENDMDL
MODEL 7
REMARK VINA RESULT:    -4.059      3.177      5.643
REMARK INTER + INTRA:          -4.296
REMARK INTER:                  -4.296
REMARK INTRA:                   0.000
REMARK UNBOUND:                 0.000
REMARK SMILES O=c1ccc2cc(O)c(O)cc2o1
REMARK SMILES IDX 4 1 3 2 2 3 1 4 13 5 12 6 11 7 9 8 7 9 6 10 5 11 8 12 10 14
REMARK H PARENT 8 13 10 15
REMARK Flexibility Score: inf
ROOT
ATOM      1  C   UNL     1       5.462  37.390   8.387  1.00  0.00     0.019 A 
ATOM      2  C   UNL     1       6.654  37.870   8.929  1.00  0.00     0.094 A 
ATOM      3  C   UNL     1       7.051  39.180   8.639  1.00  0.00     0.336 A 
ATOM      4  O   UNL     1       8.124  39.632   9.119  1.00  0.00    -0.246 OA
ATOM      5  O   UNL     1       6.302  39.954   7.859  1.00  0.00    -0.423 OA
ATOM      6  C   UNL     1       5.159  39.536   7.322  1.00  0.00     0.142 A 
ATOM      7  C   UNL     1       4.413  40.395   6.509  1.00  0.00     0.098 A 
ATOM      8  C   UNL     1       3.209  39.963   5.939  1.00  0.00     0.161 A 
ATOM      9  C   UNL     1       2.744  38.658   6.186  1.00  0.00     0.158 A 
ATOM     10  C   UNL     1       3.490  37.792   7.001  1.00  0.00     0.062 A 
ATOM     11  C   UNL     1       4.694  38.227   7.569  1.00  0.00     0.022 A 
ENDROOT
BRANCH   9  12
ATOM     12  O   UNL     1       1.546  38.226   5.620  1.00  0.00    -0.504 OA
ATOM     13  H   UNL     1       1.292  38.462   4.668  1.00  0.00     0.293 HD
ENDBRANCH   9  12
BRANCH   8  14
ATOM     14  O   UNL     1       2.488  40.844   5.133  1.00  0.00    -0.504 OA
ATOM     15  H   UNL     1       2.506  41.846   5.280  1.00  0.00     0.293 HD
ENDBRANCH   8  14
TORSDOF 2
ENDMDL
MODEL 8
REMARK VINA RESULT:    -3.978      1.945      5.379
REMARK INTER + INTRA:          -4.211
REMARK INTER:                  -4.211
REMARK INTRA:                   0.000
REMARK UNBOUND:                 0.000
REMARK SMILES O=c1ccc2cc(O)c(O)cc2o1
REMARK SMILES IDX 4 1 3 2 2 3 1 4 13 5 12 6 11 7 9 8 7 9 6 10 5 11 8 12 10 14
REMARK H PARENT 8 13 10 15
REMARK Flexibility Score: inf
ROOT
ATOM      1  C   UNL     1       0.035  38.448   6.681  1.00  0.00     0.019 A 
ATOM      2  C   UNL     1       1.290  38.341   6.082  1.00  0.00     0.094 A 
ATOM      3  C   UNL     1       1.692  37.104   5.566  1.00  0.00     0.336 A 
ATOM      4  O   UNL     1       2.820  36.988   5.020  1.00  0.00    -0.246 OA
ATOM      5  O   UNL     1       0.888  36.047   5.648  1.00  0.00    -0.423 OA
ATOM      6  C   UNL     1      -0.316  36.106   6.212  1.00  0.00     0.142 A 
ATOM      7  C   UNL     1      -1.118  34.961   6.269  1.00  0.00     0.098 A 
ATOM      8  C   UNL     1      -2.386  35.014   6.860  1.00  0.00     0.161 A 
ATOM      9  C   UNL     1      -2.859  36.224   7.401  1.00  0.00     0.158 A 
ATOM     10  C   UNL     1      -2.057  37.375   7.346  1.00  0.00     0.062 A 
ATOM     11  C   UNL     1      -0.789  37.320   6.754  1.00  0.00     0.022 A 
ENDROOT
BRANCH   9  12
ATOM     12  O   UNL     1      -4.120  36.278   7.990  1.00  0.00    -0.504 OA
ATOM     13  H   UNL     1      -4.687  37.118   7.957  1.00  0.00     0.293 HD
ENDBRANCH   9  12
BRANCH   8  14
ATOM     14  O   UNL     1      -3.161  33.855   6.902  1.00  0.00    -0.504 OA
ATOM     15  H   UNL     1      -3.997  33.788   7.469  1.00  0.00     0.293 HD
ENDBRANCH   8  14
TORSDOF 2
ENDMDL
MODEL 9
REMARK VINA RESULT:    -3.942      1.419      2.094
REMARK INTER + INTRA:          -4.173
REMARK INTER:                  -4.173
REMARK INTRA:                   0.000
REMARK UNBOUND:                 0.000
REMARK SMILES O=c1ccc2cc(O)c(O)cc2o1
REMARK SMILES IDX 4 1 3 2 2 3 1 4 13 5 12 6 11 7 9 8 7 9 6 10 5 11 8 12 10 14
REMARK H PARENT 8 13 10 15
REMARK Flexibility Score: inf
ROOT
ATOM      1  C   UNL     1       2.523  37.173   5.400  1.00  0.00     0.019 A 
ATOM      2  C   UNL     1       1.992  35.885   5.347  1.00  0.00     0.094 A 
ATOM      3  C   UNL     1       0.671  35.678   5.758  1.00  0.00     0.336 A 
ATOM      4  O   UNL     1       0.174  34.522   5.716  1.00  0.00    -0.246 OA
ATOM      5  O   UNL     1      -0.066  36.697   6.193  1.00  0.00    -0.423 OA
ATOM      6  C   UNL     1       0.401  37.941   6.260  1.00  0.00     0.142 A 
ATOM      7  C   UNL     1      -0.420  38.972   6.726  1.00  0.00     0.098 A 
ATOM      8  C   UNL     1       0.063  40.284   6.800  1.00  0.00     0.161 A 
ATOM      9  C   UNL     1       1.383  40.569   6.404  1.00  0.00     0.158 A 
ATOM     10  C   UNL     1       2.211  39.537   5.935  1.00  0.00     0.062 A 
ATOM     11  C   UNL     1       1.725  38.225   5.863  1.00  0.00     0.022 A 
ENDROOT
BRANCH   9  12
ATOM     12  O   UNL     1       1.866  41.874   6.476  1.00  0.00    -0.504 OA
ATOM     13  H   UNL     1       2.330  42.224   7.307  1.00  0.00     0.293 HD
ENDBRANCH   9  12
BRANCH   8  14
ATOM     14  O   UNL     1      -0.781  41.290   7.270  1.00  0.00    -0.504 OA
ATOM     15  H   UNL     1      -0.589  41.798   8.125  1.00  0.00     0.293 HD
ENDBRANCH   8  14
TORSDOF 2
ENDMDL
