MODEL 1
REMARK VINA RESULT:    -5.065      0.000      0.000
REMARK INTER + INTRA:          -6.416
REMARK INTER:                  -6.101
REMARK INTRA:                  -0.315
REMARK UNBOUND:                -0.315
REMARK SMILES O=c1c(O)c(-c2ccc(O)c(O)c2)oc2cc(O)cc(O)c12
REMARK SMILES IDX 5 1 3 2 2 3 1 4 22 5 20 6 19 7 17 8 16 9 15 10 14 11 6 12
REMARK SMILES IDX 7 13 8 14 9 15 13 16 11 17 10 18 12 20 4 22 21 24 18 26
REMARK H PARENT 10 19 12 21 4 23 21 25 18 27
REMARK Flexibility Score: inf
ROOT
ATOM      1  C   UNL     1      32.803  -6.556  -0.848  1.00  0.00     0.180 A 
ATOM      2  C   UNL     1      33.574  -5.819  -1.766  1.00  0.00     0.208 A 
ATOM      3  C   UNL     1      33.363  -6.014  -3.140  1.00  0.00     0.238 A 
ATOM      4  O   UNL     1      34.041  -5.351  -3.972  1.00  0.00    -0.285 OA
ATOM      5  C   UNL     1      32.403  -6.953  -3.571  1.00  0.00     0.111 A 
ATOM      6  C   UNL     1      32.132  -7.212  -4.937  1.00  0.00     0.134 A 
ATOM      7  C   UNL     1      31.169  -8.170  -5.284  1.00  0.00     0.093 A 
ATOM      8  C   UNL     1      30.472  -8.871  -4.298  1.00  0.00     0.123 A 
ATOM      9  C   UNL     1      30.735  -8.619  -2.948  1.00  0.00     0.094 A 
ATOM     10  C   UNL     1      31.691  -7.668  -2.580  1.00  0.00     0.146 A 
ATOM     11  O   UNL     1      31.917  -7.444  -1.291  1.00  0.00    -0.452 OA
ENDROOT
BRANCH   1  12
ATOM     12  C   UNL     1      32.953  -6.393   0.617  1.00  0.00     0.025 A 
ATOM     13  C   UNL     1      33.796  -7.234   1.365  1.00  0.00     0.016 A 
ATOM     14  C   UNL     1      33.939  -7.045   2.742  1.00  0.00     0.051 A 
ATOM     15  C   UNL     1      33.255  -6.009   3.389  1.00  0.00     0.157 A 
ATOM     16  C   UNL     1      32.285  -5.342   1.267  1.00  0.00     0.062 A 
ATOM     17  C   UNL     1      32.426  -5.152   2.647  1.00  0.00     0.158 A 
BRANCH  15  18
ATOM     18  O   UNL     1      33.398  -5.825   4.763  1.00  0.00    -0.504 OA
ATOM     19  H   UNL     1      32.856  -5.132   5.266  1.00  0.00     0.293 HD
ENDBRANCH  15  18
BRANCH  17  20
ATOM     20  O   UNL     1      31.736  -4.106   3.259  1.00  0.00    -0.504 OA
ATOM     21  H   UNL     1      30.859  -4.252   3.745  1.00  0.00     0.293 HD
ENDBRANCH  17  20
ENDBRANCH   1  12
BRANCH   2  22
ATOM     22  O   UNL     1      34.554  -4.930  -1.313  1.00  0.00    -0.502 OA
ATOM     23  H   UNL     1      34.752  -4.056  -1.784  1.00  0.00     0.293 HD
ENDBRANCH   2  22
BRANCH   6  24
ATOM     24  O   UNL     1      32.812  -6.529  -5.946  1.00  0.00    -0.507 OA
ATOM     25  H   UNL     1      33.739  -6.146  -5.800  1.00  0.00     0.293 HD
ENDBRANCH   6  24
BRANCH   8  26
ATOM     26  O   UNL     1      29.520  -9.818  -4.671  1.00  0.00    -0.508 OA
ATOM     27  H   UNL     1      28.900 -10.241  -3.991  1.00  0.00     0.293 HD
ENDBRANCH   8  26
TORSDOF 6
ENDMDL
MODEL 2
REMARK VINA RESULT:    -5.063      2.028      7.167
REMARK INTER + INTRA:          -6.414
REMARK INTER:                  -6.146
REMARK INTRA:                  -0.268
REMARK UNBOUND:                -0.315
REMARK SMILES O=c1c(O)c(-c2ccc(O)c(O)c2)oc2cc(O)cc(O)c12
REMARK SMILES IDX 5 1 3 2 2 3 1 4 22 5 20 6 19 7 17 8 16 9 15 10 14 11 6 12
REMARK SMILES IDX 7 13 8 14 9 15 13 16 11 17 10 18 12 20 4 22 21 24 18 26
REMARK H PARENT 10 19 12 21 4 23 21 25 18 27
REMARK Flexibility Score: inf
ROOT
ATOM      1  C   UNL     1      32.812  -6.346  -1.858  1.00  0.00     0.180 A 
ATOM      2  C   UNL     1      31.538  -6.160  -1.289  1.00  0.00     0.208 A 
ATOM      3  C   UNL     1      31.439  -5.537  -0.035  1.00  0.00     0.238 A 
ATOM      4  O   UNL     1      30.302  -5.356   0.479  1.00  0.00    -0.285 OA
ATOM      5  C   UNL     1      32.611  -5.130   0.635  1.00  0.00     0.111 A 
ATOM      6  C   UNL     1      32.599  -4.500   1.903  1.00  0.00     0.134 A 
ATOM      7  C   UNL     1      33.809  -4.134   2.509  1.00  0.00     0.093 A 
ATOM      8  C   UNL     1      35.028  -4.385   1.876  1.00  0.00     0.123 A 
ATOM      9  C   UNL     1      35.047  -5.007   0.624  1.00  0.00     0.094 A 
ATOM     10  C   UNL     1      33.852  -5.378   0.002  1.00  0.00     0.146 A 
ATOM     11  O   UNL     1      33.896  -5.962  -1.190  1.00  0.00    -0.452 OA
ENDROOT
BRANCH   1  12
ATOM     12  C   UNL     1      32.998  -6.976  -3.185  1.00  0.00     0.025 A 
ATOM     13  C   UNL     1      32.865  -8.365  -3.361  1.00  0.00     0.016 A 
ATOM     14  C   UNL     1      33.022  -8.934  -4.628  1.00  0.00     0.051 A 
ATOM     15  C   UNL     1      33.301  -8.126  -5.737  1.00  0.00     0.157 A 
ATOM     16  C   UNL     1      33.257  -6.168  -4.304  1.00  0.00     0.062 A 
ATOM     17  C   UNL     1      33.416  -6.736  -5.574  1.00  0.00     0.158 A 
BRANCH  15  18
ATOM     18  O   UNL     1      33.459  -8.698  -6.998  1.00  0.00    -0.504 OA
ATOM     19  H   UNL     1      33.613  -9.693  -7.115  1.00  0.00     0.293 HD
ENDBRANCH  15  18
BRANCH  17  20
ATOM     20  O   UNL     1      33.686  -5.902  -6.659  1.00  0.00    -0.504 OA
ATOM     21  H   UNL     1      34.092  -4.981  -6.541  1.00  0.00     0.293 HD
ENDBRANCH  17  20
ENDBRANCH   1  12
BRANCH   2  22
ATOM     22  O   UNL     1      30.395  -6.617  -1.952  1.00  0.00    -0.502 OA
ATOM     23  H   UNL     1      30.355  -6.710  -2.960  1.00  0.00     0.293 HD
ENDBRANCH   2  22
BRANCH   6  24
ATOM     24  O   UNL     1      31.398  -4.236   2.562  1.00  0.00    -0.507 OA
ATOM     25  H   UNL     1      31.348  -4.168   3.572  1.00  0.00     0.293 HD
ENDBRANCH   6  24
BRANCH   8  26
ATOM     26  O   UNL     1      36.217  -4.012   2.500  1.00  0.00    -0.508 OA
ATOM     27  H   UNL     1      36.784  -3.250   2.149  1.00  0.00     0.293 HD
ENDBRANCH   8  26
TORSDOF 6
ENDMDL
MODEL 3
REMARK VINA RESULT:    -5.052      2.090      7.796
REMARK INTER + INTRA:          -6.401
REMARK INTER:                  -6.078
REMARK INTRA:                  -0.323
REMARK UNBOUND:                -0.315
REMARK SMILES O=c1c(O)c(-c2ccc(O)c(O)c2)oc2cc(O)cc(O)c12
REMARK SMILES IDX 5 1 3 2 2 3 1 4 22 5 20 6 19 7 17 8 16 9 15 10 14 11 6 12
REMARK SMILES IDX 7 13 8 14 9 15 13 16 11 17 10 18 12 20 4 22 21 24 18 26
REMARK H PARENT 10 19 12 21 4 23 21 25 18 27
REMARK Flexibility Score: inf
ROOT
ATOM      1  C   UNL     1      33.036  -6.201   1.644  1.00  0.00     0.180 A 
ATOM      2  C   UNL     1      33.739  -7.197   2.349  1.00  0.00     0.208 A 
ATOM      3  C   UNL     1      34.003  -7.004   3.714  1.00  0.00     0.238 A 
ATOM      4  O   UNL     1      34.623  -7.894   4.358  1.00  0.00    -0.285 OA
ATOM      5  C   UNL     1      33.579  -5.816   4.344  1.00  0.00     0.111 A 
ATOM      6  C   UNL     1      33.809  -5.542   5.715  1.00  0.00     0.134 A 
ATOM      7  C   UNL     1      33.365  -4.331   6.266  1.00  0.00     0.093 A 
ATOM      8  C   UNL     1      32.698  -3.392   5.477  1.00  0.00     0.123 A 
ATOM      9  C   UNL     1      32.468  -3.656   4.123  1.00  0.00     0.094 A 
ATOM     10  C   UNL     1      32.902  -4.857   3.555  1.00  0.00     0.146 A 
ATOM     11  O   UNL     1      32.666  -5.087   2.269  1.00  0.00    -0.452 OA
ENDROOT
BRANCH   1  12
ATOM     12  C   UNL     1      32.702  -6.339   0.208  1.00  0.00     0.025 A 
ATOM     13  C   UNL     1      33.609  -5.953  -0.795  1.00  0.00     0.016 A 
ATOM     14  C   UNL     1      33.281  -6.115  -2.143  1.00  0.00     0.051 A 
ATOM     15  C   UNL     1      32.051  -6.675  -2.510  1.00  0.00     0.157 A 
ATOM     16  C   UNL     1      31.479  -6.920  -0.164  1.00  0.00     0.062 A 
ATOM     17  C   UNL     1      31.147  -7.082  -1.515  1.00  0.00     0.158 A 
BRANCH  15  18
ATOM     18  O   UNL     1      31.726  -6.833  -3.856  1.00  0.00    -0.504 OA
ATOM     19  H   UNL     1      31.767  -7.738  -4.310  1.00  0.00     0.293 HD
ENDBRANCH  15  18
BRANCH  17  20
ATOM     20  O   UNL     1      29.917  -7.650  -1.845  1.00  0.00    -0.504 OA
ATOM     21  H   UNL     1      29.848  -8.531  -2.342  1.00  0.00     0.293 HD
ENDBRANCH  17  20
ENDBRANCH   1  12
BRANCH   2  22
ATOM     22  O   UNL     1      34.191  -8.343   1.689  1.00  0.00    -0.502 OA
ATOM     23  H   UNL     1      33.909  -9.275   1.967  1.00  0.00     0.293 HD
ENDBRANCH   2  22
BRANCH   6  24
ATOM     24  O   UNL     1      34.474  -6.460   6.529  1.00  0.00    -0.507 OA
ATOM     25  H   UNL     1      35.476  -6.598   6.469  1.00  0.00     0.293 HD
ENDBRANCH   6  24
BRANCH   8  26
ATOM     26  O   UNL     1      32.268  -2.196   6.049  1.00  0.00    -0.508 OA
ATOM     27  H   UNL     1      31.664  -1.556   5.547  1.00  0.00     0.293 HD
ENDBRANCH   8  26
TORSDOF 6
ENDMDL
MODEL 4
REMARK VINA RESULT:    -5.025      2.047      7.506
REMARK INTER + INTRA:          -6.368
REMARK INTER:                  -6.036
REMARK INTRA:                  -0.332
REMARK UNBOUND:                -0.315
REMARK SMILES O=c1c(O)c(-c2ccc(O)c(O)c2)oc2cc(O)cc(O)c12
REMARK SMILES IDX 5 1 3 2 2 3 1 4 22 5 20 6 19 7 17 8 16 9 15 10 14 11 6 12
REMARK SMILES IDX 7 13 8 14 9 15 13 16 11 17 10 18 12 20 4 22 21 24 18 26
REMARK H PARENT 10 19 12 21 4 23 21 25 18 27
REMARK Flexibility Score: inf
ROOT
ATOM      1  C   UNL     1      32.947  -6.155   1.511  1.00  0.00     0.180 A 
ATOM      2  C   UNL     1      32.618  -4.999   2.246  1.00  0.00     0.208 A 
ATOM      3  C   UNL     1      33.002  -4.920   3.594  1.00  0.00     0.238 A 
ATOM      4  O   UNL     1      32.722  -3.886   4.258  1.00  0.00    -0.285 OA
ATOM      5  C   UNL     1      33.687  -6.000   4.187  1.00  0.00     0.111 A 
ATOM      6  C   UNL     1      34.105  -6.001   5.541  1.00  0.00     0.134 A 
ATOM      7  C   UNL     1      34.773  -7.119   6.060  1.00  0.00     0.093 A 
ATOM      8  C   UNL     1      35.031  -8.232   5.257  1.00  0.00     0.123 A 
ATOM      9  C   UNL     1      34.621  -8.237   3.921  1.00  0.00     0.094 A 
ATOM     10  C   UNL     1      33.955  -7.132   3.383  1.00  0.00     0.146 A 
ATOM     11  O   UNL     1      33.581  -7.159   2.109  1.00  0.00    -0.452 OA
ENDROOT
BRANCH   1  12
ATOM     12  C   UNL     1      32.594  -6.306   0.081  1.00  0.00     0.025 A 
ATOM     13  C   UNL     1      33.473  -5.895  -0.937  1.00  0.00     0.016 A 
ATOM     14  C   UNL     1      33.128  -6.070  -2.280  1.00  0.00     0.051 A 
ATOM     15  C   UNL     1      31.909  -6.667  -2.626  1.00  0.00     0.157 A 
ATOM     16  C   UNL     1      31.383  -6.923  -0.271  1.00  0.00     0.062 A 
ATOM     17  C   UNL     1      31.034  -7.098  -1.616  1.00  0.00     0.158 A 
BRANCH  15  18
ATOM     18  O   UNL     1      31.568  -6.836  -3.966  1.00  0.00    -0.504 OA
ATOM     19  H   UNL     1      31.107  -7.678  -4.295  1.00  0.00     0.293 HD
ENDBRANCH  15  18
BRANCH  17  20
ATOM     20  O   UNL     1      29.816  -7.703  -1.926  1.00  0.00    -0.504 OA
ATOM     21  H   UNL     1      29.763  -8.647  -2.290  1.00  0.00     0.293 HD
ENDBRANCH  17  20
ENDBRANCH   1  12
BRANCH   2  22
ATOM     22  O   UNL     1      31.895  -3.964   1.647  1.00  0.00    -0.502 OA
ATOM     23  H   UNL     1      31.001  -4.117   1.196  1.00  0.00     0.293 HD
ENDBRANCH   2  22
BRANCH   6  24
ATOM     24  O   UNL     1      33.862  -4.905   6.369  1.00  0.00    -0.507 OA
ATOM     25  H   UNL     1      32.923  -4.568   6.545  1.00  0.00     0.293 HD
ENDBRANCH   6  24
BRANCH   8  26
ATOM     26  O   UNL     1      35.696  -9.331   5.799  1.00  0.00    -0.508 OA
ATOM     27  H   UNL     1      36.469  -9.218   6.444  1.00  0.00     0.293 HD
ENDBRANCH   8  26
TORSDOF 6
ENDMDL
MODEL 5
REMARK VINA RESULT:    -4.995      1.320      2.884
REMARK INTER + INTRA:          -6.332
REMARK INTER:                  -6.005
REMARK INTRA:                  -0.327
REMARK UNBOUND:                -0.315
REMARK SMILES O=c1c(O)c(-c2ccc(O)c(O)c2)oc2cc(O)cc(O)c12
REMARK SMILES IDX 5 1 3 2 2 3 1 4 22 5 20 6 19 7 17 8 16 9 15 10 14 11 6 12
REMARK SMILES IDX 7 13 8 14 9 15 13 16 11 17 10 18 12 20 4 22 21 24 18 26
REMARK H PARENT 10 19 12 21 4 23 21 25 18 27
REMARK Flexibility Score: inf
ROOT
ATOM      1  C   UNL     1      32.473  -7.359  -1.024  1.00  0.00     0.180 A 
ATOM      2  C   UNL     1      31.718  -8.526  -1.248  1.00  0.00     0.208 A 
ATOM      3  C   UNL     1      31.544  -8.980  -2.564  1.00  0.00     0.238 A 
ATOM      4  O   UNL     1      30.879 -10.030  -2.776  1.00  0.00    -0.285 OA
ATOM      5  C   UNL     1      32.109  -8.252  -3.632  1.00  0.00     0.111 A 
ATOM      6  C   UNL     1      31.977  -8.639  -4.988  1.00  0.00     0.134 A 
ATOM      7  C   UNL     1      32.560  -7.855  -5.994  1.00  0.00     0.093 A 
ATOM      8  C   UNL     1      33.270  -6.697  -5.674  1.00  0.00     0.123 A 
ATOM      9  C   UNL     1      33.404  -6.309  -4.337  1.00  0.00     0.094 A 
ATOM     10  C   UNL     1      32.831  -7.077  -3.319  1.00  0.00     0.146 A 
ATOM     11  O   UNL     1      32.978  -6.691  -2.057  1.00  0.00    -0.452 OA
ENDROOT
BRANCH   1  12
ATOM     12  C   UNL     1      32.718  -6.828   0.337  1.00  0.00     0.025 A 
ATOM     13  C   UNL     1      33.766  -7.317   1.136  1.00  0.00     0.016 A 
ATOM     14  C   UNL     1      33.992  -6.784   2.408  1.00  0.00     0.051 A 
ATOM     15  C   UNL     1      33.185  -5.747   2.894  1.00  0.00     0.157 A 
ATOM     16  C   UNL     1      31.925  -5.775   0.820  1.00  0.00     0.062 A 
ATOM     17  C   UNL     1      32.149  -5.239   2.094  1.00  0.00     0.158 A 
BRANCH  15  18
ATOM     18  O   UNL     1      33.412  -5.219   4.164  1.00  0.00    -0.504 OA
ATOM     19  H   UNL     1      33.255  -4.239   4.367  1.00  0.00     0.293 HD
ENDBRANCH  15  18
BRANCH  17  20
ATOM     20  O   UNL     1      31.332  -4.202   2.545  1.00  0.00    -0.504 OA
ATOM     21  H   UNL     1      30.747  -3.666   1.914  1.00  0.00     0.293 HD
ENDBRANCH  17  20
ENDBRANCH   1  12
BRANCH   2  22
ATOM     22  O   UNL     1      31.128  -9.201  -0.175  1.00  0.00    -0.502 OA
ATOM     23  H   UNL     1      30.145  -9.108   0.049  1.00  0.00     0.293 HD
ENDBRANCH   2  22
BRANCH   6  24
ATOM     24  O   UNL     1      31.273  -9.791  -5.341  1.00  0.00    -0.507 OA
ATOM     25  H   UNL     1      30.671 -10.271  -4.682  1.00  0.00     0.293 HD
ENDBRANCH   6  24
BRANCH   8  26
ATOM     26  O   UNL     1      33.839  -5.935  -6.693  1.00  0.00    -0.508 OA
ATOM     27  H   UNL     1      34.052  -6.336  -7.598  1.00  0.00     0.293 HD
ENDBRANCH   8  26
TORSDOF 6
ENDMDL
MODEL 6
REMARK VINA RESULT:    -4.962      2.056      3.708
REMARK INTER + INTRA:          -6.292
REMARK INTER:                  -6.048
REMARK INTRA:                  -0.245
REMARK UNBOUND:                -0.315
REMARK SMILES O=c1c(O)c(-c2ccc(O)c(O)c2)oc2cc(O)cc(O)c12
REMARK SMILES IDX 5 1 3 2 2 3 1 4 22 5 20 6 19 7 17 8 16 9 15 10 14 11 6 12
REMARK SMILES IDX 7 13 8 14 9 15 13 16 11 17 10 18 12 20 4 22 21 24 18 26
REMARK H PARENT 10 19 12 21 4 23 21 25 18 27
REMARK Flexibility Score: inf
ROOT
ATOM      1  C   UNL     1      33.192  -5.158   0.794  1.00  0.00     0.180 A 
ATOM      2  C   UNL     1      31.901  -5.415   0.295  1.00  0.00     0.208 A 
ATOM      3  C   UNL     1      31.765  -5.931  -1.003  1.00  0.00     0.238 A 
ATOM      4  O   UNL     1      30.614  -6.174  -1.457  1.00  0.00    -0.285 OA
ATOM      5  C   UNL     1      32.916  -6.164  -1.784  1.00  0.00     0.111 A 
ATOM      6  C   UNL     1      32.866  -6.679  -3.103  1.00  0.00     0.134 A 
ATOM      7  C   UNL     1      34.056  -6.872  -3.818  1.00  0.00     0.093 A 
ATOM      8  C   UNL     1      35.291  -6.563  -3.245  1.00  0.00     0.123 A 
ATOM      9  C   UNL     1      35.347  -6.054  -1.944  1.00  0.00     0.094 A 
ATOM     10  C   UNL     1      34.173  -5.855  -1.213  1.00  0.00     0.146 A 
ATOM     11  O   UNL     1      34.253  -5.376   0.023  1.00  0.00    -0.452 OA
ENDROOT
BRANCH   1  12
ATOM     12  C   UNL     1      33.419  -4.632   2.160  1.00  0.00     0.025 A 
ATOM     13  C   UNL     1      33.784  -3.291   2.376  1.00  0.00     0.016 A 
ATOM     14  C   UNL     1      33.970  -2.812   3.676  1.00  0.00     0.051 A 
ATOM     15  C   UNL     1      33.781  -3.657   4.776  1.00  0.00     0.157 A 
ATOM     16  C   UNL     1      33.210  -5.470   3.267  1.00  0.00     0.062 A 
ATOM     17  C   UNL     1      33.396  -4.992   4.570  1.00  0.00     0.158 A 
BRANCH  15  18
ATOM     18  O   UNL     1      33.969  -3.176   6.070  1.00  0.00    -0.504 OA
ATOM     19  H   UNL     1      33.722  -2.227   6.325  1.00  0.00     0.293 HD
ENDBRANCH  15  18
BRANCH  17  20
ATOM     20  O   UNL     1      33.193  -5.859   5.644  1.00  0.00    -0.504 OA
ATOM     21  H   UNL     1      33.743  -5.800   6.493  1.00  0.00     0.293 HD
ENDBRANCH  17  20
ENDBRANCH   1  12
BRANCH   2  22
ATOM     22  O   UNL     1      30.774  -5.129   1.072  1.00  0.00    -0.502 OA
ATOM     23  H   UNL     1      30.842  -4.842   2.040  1.00  0.00     0.293 HD
ENDBRANCH   2  22
BRANCH   6  24
ATOM     24  O   UNL     1      31.648  -6.997  -3.703  1.00  0.00    -0.507 OA
ATOM     25  H   UNL     1      31.391  -7.954  -3.914  1.00  0.00     0.293 HD
ENDBRANCH   6  24
BRANCH   8  26
ATOM     26  O   UNL     1      36.459  -6.764  -3.979  1.00  0.00    -0.508 OA
ATOM     27  H   UNL     1      36.469  -7.339  -4.813  1.00  0.00     0.293 HD
ENDBRANCH   8  26
TORSDOF 6
ENDMDL
MODEL 7
REMARK VINA RESULT:    -4.915      2.823      5.240
REMARK INTER + INTRA:          -6.236
REMARK INTER:                  -6.001
REMARK INTRA:                  -0.234
REMARK UNBOUND:                -0.315
REMARK SMILES O=c1c(O)c(-c2ccc(O)c(O)c2)oc2cc(O)cc(O)c12
REMARK SMILES IDX 5 1 3 2 2 3 1 4 22 5 20 6 19 7 17 8 16 9 15 10 14 11 6 12
REMARK SMILES IDX 7 13 8 14 9 15 13 16 11 17 10 18 12 20 4 22 21 24 18 26
REMARK H PARENT 10 19 12 21 4 23 21 25 18 27
REMARK Flexibility Score: inf
ROOT
ATOM      1  C   UNL     1      33.069  -5.096   3.351  1.00  0.00     0.180 A 
ATOM      2  C   UNL     1      33.655  -6.344   3.633  1.00  0.00     0.208 A 
ATOM      3  C   UNL     1      33.572  -7.365   2.674  1.00  0.00     0.238 A 
ATOM      4  O   UNL     1      34.102  -8.484   2.911  1.00  0.00    -0.285 OA
ATOM      5  C   UNL     1      32.891  -7.128   1.461  1.00  0.00     0.111 A 
ATOM      6  C   UNL     1      32.759  -8.105   0.444  1.00  0.00     0.134 A 
ATOM      7  C   UNL     1      32.057  -7.795  -0.730  1.00  0.00     0.093 A 
ATOM      8  C   UNL     1      31.487  -6.533  -0.907  1.00  0.00     0.123 A 
ATOM      9  C   UNL     1      31.614  -5.564   0.094  1.00  0.00     0.094 A 
ATOM     10  C   UNL     1      32.310  -5.853   1.271  1.00  0.00     0.146 A 
ATOM     11  O   UNL     1      32.422  -4.914   2.203  1.00  0.00    -0.452 OA
ENDROOT
BRANCH   1  12
ATOM     12  C   UNL     1      33.130  -3.963   4.304  1.00  0.00     0.025 A 
ATOM     13  C   UNL     1      32.388  -3.970   5.498  1.00  0.00     0.016 A 
ATOM     14  C   UNL     1      32.481  -2.901   6.393  1.00  0.00     0.051 A 
ATOM     15  C   UNL     1      33.322  -1.817   6.115  1.00  0.00     0.157 A 
ATOM     16  C   UNL     1      33.988  -2.884   4.040  1.00  0.00     0.062 A 
ATOM     17  C   UNL     1      34.082  -1.810   4.933  1.00  0.00     0.158 A 
BRANCH  15  18
ATOM     18  O   UNL     1      33.410  -0.750   7.008  1.00  0.00    -0.504 OA
ATOM     19  H   UNL     1      34.122  -0.035   6.913  1.00  0.00     0.293 HD
ENDBRANCH  15  18
BRANCH  17  20
ATOM     20  O   UNL     1      34.936  -0.750   4.630  1.00  0.00    -0.504 OA
ATOM     21  H   UNL     1      34.661  -0.001   4.005  1.00  0.00     0.293 HD
ENDBRANCH  17  20
ENDBRANCH   1  12
BRANCH   2  22
ATOM     22  O   UNL     1      34.281  -6.568   4.863  1.00  0.00    -0.502 OA
ATOM     23  H   UNL     1      33.923  -6.188   5.730  1.00  0.00     0.293 HD
ENDBRANCH   2  22
BRANCH   6  24
ATOM     24  O   UNL     1      33.317  -9.375   0.591  1.00  0.00    -0.507 OA
ATOM     25  H   UNL     1      33.337 -10.040  -0.173  1.00  0.00     0.293 HD
ENDBRANCH   6  24
BRANCH   8  26
ATOM     26  O   UNL     1      30.794  -6.250  -2.083  1.00  0.00    -0.508 OA
ATOM     27  H   UNL     1      31.133  -5.564  -2.746  1.00  0.00     0.293 HD
ENDBRANCH   8  26
TORSDOF 6
ENDMDL
MODEL 8
REMARK VINA RESULT:    -4.914      1.784      3.527
REMARK INTER + INTRA:          -6.234
REMARK INTER:                  -5.910
REMARK INTRA:                  -0.324
REMARK UNBOUND:                -0.315
REMARK SMILES O=c1c(O)c(-c2ccc(O)c(O)c2)oc2cc(O)cc(O)c12
REMARK SMILES IDX 5 1 3 2 2 3 1 4 22 5 20 6 19 7 17 8 16 9 15 10 14 11 6 12
REMARK SMILES IDX 7 13 8 14 9 15 13 16 11 17 10 18 12 20 4 22 21 24 18 26
REMARK H PARENT 10 19 12 21 4 23 21 25 18 27
REMARK Flexibility Score: inf
ROOT
ATOM      1  C   UNL     1      33.362  -5.952  -1.529  1.00  0.00     0.180 A 
ATOM      2  C   UNL     1      32.800  -6.992  -2.293  1.00  0.00     0.208 A 
ATOM      3  C   UNL     1      32.918  -6.947  -3.691  1.00  0.00     0.238 A 
ATOM      4  O   UNL     1      32.428  -7.878  -4.386  1.00  0.00    -0.285 OA
ATOM      5  C   UNL     1      33.576  -5.858  -4.300  1.00  0.00     0.111 A 
ATOM      6  C   UNL     1      33.734  -5.734  -5.702  1.00  0.00     0.134 A 
ATOM      7  C   UNL     1      34.392  -4.614  -6.231  1.00  0.00     0.093 A 
ATOM      8  C   UNL     1      34.893  -3.619  -5.390  1.00  0.00     0.123 A 
ATOM      9  C   UNL     1      34.740  -3.735  -4.005  1.00  0.00     0.094 A 
ATOM     10  C   UNL     1      34.089  -4.844  -3.457  1.00  0.00     0.146 A 
ATOM     11  O   UNL     1      33.961  -4.933  -2.138  1.00  0.00    -0.452 OA
ENDROOT
BRANCH   1  12
ATOM     12  C   UNL     1      33.296  -5.938  -0.049  1.00  0.00     0.025 A 
ATOM     13  C   UNL     1      34.220  -6.655   0.732  1.00  0.00     0.016 A 
ATOM     14  C   UNL     1      34.151  -6.607   2.127  1.00  0.00     0.051 A 
ATOM     15  C   UNL     1      33.171  -5.834   2.761  1.00  0.00     0.157 A 
ATOM     16  C   UNL     1      32.328  -5.148   0.592  1.00  0.00     0.062 A 
ATOM     17  C   UNL     1      32.256  -5.099   1.989  1.00  0.00     0.158 A 
BRANCH  15  18
ATOM     18  O   UNL     1      33.104  -5.791   4.153  1.00  0.00    -0.504 OA
ATOM     19  H   UNL     1      33.616  -6.449   4.730  1.00  0.00     0.293 HD
ENDBRANCH  15  18
BRANCH  17  20
ATOM     20  O   UNL     1      31.272  -4.314   2.590  1.00  0.00    -0.504 OA
ATOM     21  H   UNL     1      30.691  -3.679   2.054  1.00  0.00     0.293 HD
ENDBRANCH  17  20
ENDBRANCH   1  12
BRANCH   2  22
ATOM     22  O   UNL     1      32.111  -8.035  -1.668  1.00  0.00    -0.502 OA
ATOM     23  H   UNL     1      32.539  -8.621  -0.962  1.00  0.00     0.293 HD
ENDBRANCH   2  22
BRANCH   6  24
ATOM     24  O   UNL     1      33.244  -6.711  -6.569  1.00  0.00    -0.507 OA
ATOM     25  H   UNL     1      33.790  -7.529  -6.813  1.00  0.00     0.293 HD
ENDBRANCH   6  24
BRANCH   8  26
ATOM     26  O   UNL     1      35.542  -2.516  -5.941  1.00  0.00    -0.508 OA
ATOM     27  H   UNL     1      36.510  -2.562  -6.234  1.00  0.00     0.293 HD
ENDBRANCH   8  26
TORSDOF 6
ENDMDL
MODEL 9
REMARK VINA RESULT:    -4.853      2.527      4.679
REMARK INTER + INTRA:          -6.160
REMARK INTER:                  -5.844
REMARK INTRA:                  -0.316
REMARK UNBOUND:                -0.315
REMARK SMILES O=c1c(O)c(-c2ccc(O)c(O)c2)oc2cc(O)cc(O)c12
REMARK SMILES IDX 5 1 3 2 2 3 1 4 22 5 20 6 19 7 17 8 16 9 15 10 14 11 6 12
REMARK SMILES IDX 7 13 8 14 9 15 13 16 11 17 10 18 12 20 4 22 21 24 18 26
REMARK H PARENT 10 19 12 21 4 23 21 25 18 27
REMARK Flexibility Score: inf
ROOT
ATOM      1  C   UNL     1      33.620  -4.817   2.357  1.00  0.00     0.180 A 
ATOM      2  C   UNL     1      32.234  -4.779   2.117  1.00  0.00     0.208 A 
ATOM      3  C   UNL     1      31.753  -5.164   0.856  1.00  0.00     0.238 A 
ATOM      4  O   UNL     1      30.512  -5.144   0.632  1.00  0.00    -0.285 OA
ATOM      5  C   UNL     1      32.663  -5.561  -0.146  1.00  0.00     0.111 A 
ATOM      6  C   UNL     1      32.261  -5.960  -1.444  1.00  0.00     0.134 A 
ATOM      7  C   UNL     1      33.229  -6.331  -2.388  1.00  0.00     0.093 A 
ATOM      8  C   UNL     1      34.587  -6.311  -2.062  1.00  0.00     0.123 A 
ATOM      9  C   UNL     1      34.990  -5.918  -0.782  1.00  0.00     0.094 A 
ATOM     10  C   UNL     1      34.041  -5.546   0.174  1.00  0.00     0.146 A 
ATOM     11  O   UNL     1      34.450  -5.182   1.384  1.00  0.00    -0.452 OA
ENDROOT
BRANCH   1  12
ATOM     12  C   UNL     1      34.203  -4.444   3.667  1.00  0.00     0.025 A 
ATOM     13  C   UNL     1      34.664  -3.140   3.919  1.00  0.00     0.016 A 
ATOM     14  C   UNL     1      35.189  -2.806   5.170  1.00  0.00     0.051 A 
ATOM     15  C   UNL     1      35.249  -3.763   6.190  1.00  0.00     0.157 A 
ATOM     16  C   UNL     1      34.247  -5.395   4.699  1.00  0.00     0.062 A 
ATOM     17  C   UNL     1      34.773  -5.063   5.954  1.00  0.00     0.158 A 
BRANCH  15  18
ATOM     18  O   UNL     1      35.775  -3.427   7.436  1.00  0.00    -0.504 OA
ATOM     19  H   UNL     1      35.177  -3.237   8.232  1.00  0.00     0.293 HD
ENDBRANCH  15  18
BRANCH  17  20
ATOM     20  O   UNL     1      34.812  -6.038   6.950  1.00  0.00    -0.504 OA
ATOM     21  H   UNL     1      34.925  -7.022   6.735  1.00  0.00     0.293 HD
ENDBRANCH  17  20
ENDBRANCH   1  12
BRANCH   2  22
ATOM     22  O   UNL     1      31.357  -4.334   3.110  1.00  0.00    -0.502 OA
ATOM     23  H   UNL     1      30.641  -3.641   2.931  1.00  0.00     0.293 HD
ENDBRANCH   2  22
BRANCH   6  24
ATOM     24  O   UNL     1      30.913  -5.989  -1.800  1.00  0.00    -0.507 OA
ATOM     25  H   UNL     1      30.555  -6.654  -2.477  1.00  0.00     0.293 HD
ENDBRANCH   6  24
BRANCH   8  26
ATOM     26  O   UNL     1      35.529  -6.684  -3.019  1.00  0.00    -0.508 OA
ATOM     27  H   UNL     1      35.569  -6.236  -3.926  1.00  0.00     0.293 HD
ENDBRANCH   8  26
TORSDOF 6
ENDMDL
