MODEL 1
REMARK VINA RESULT:    -6.913      0.000      0.000
REMARK INTER + INTRA:          -7.115
REMARK INTER:                  -7.115
REMARK INTRA:                   0.000
REMARK UNBOUND:                 0.000
REMARK SMILES CC1(C)CC[C@@]2(C)CC[C@]3(C)C(=CC[C@H]4[C@]5(C)CC[C@@H](O)C(C)(C)[C@@H]5CC[C@]43C)[C@H]2C1
REMARK SMILES IDX 1 1 2 2 4 3 5 4 6 5 8 6 9 7 10 8 12 9 13 10 14 11 15 12
REMARK SMILES IDX 28 13 27 14 26 15 25 16 16 17 18 18 19 19 20 20 22 21 23 22
REMARK SMILES IDX 24 23 17 24 29 25 30 26 31 27 11 28 7 29 3 30 21 31
REMARK H PARENT 21 32
REMARK Flexibility Score: inf
ROOT
ATOM      1  C   UNL     1     138.093 134.118 139.694  1.00  0.00     0.011 C 
ATOM      2  C   UNL     1     138.462 135.610 139.543  1.00  0.00    -0.035 C 
ATOM      3  C   UNL     1     139.751 135.745 138.676  1.00  0.00     0.007 C 
ATOM      4  C   UNL     1     139.427 135.975 137.193  1.00  0.00     0.008 C 
ATOM      5  C   UNL     1     138.684 137.330 136.944  1.00  0.00    -0.026 C 
ATOM      6  C   UNL     1     137.994 137.261 135.536  1.00  0.00     0.008 C 
ATOM      7  C   UNL     1     136.467 137.142 135.594  1.00  0.00     0.012 C 
ATOM      8  C   UNL     1     135.798 138.328 136.363  1.00  0.00    -0.006 C 
ATOM      9  C   UNL     1     136.450 138.450 137.739  1.00  0.00    -0.064 C 
ATOM     10  C   UNL     1     135.848 139.205 138.679  1.00  0.00    -0.027 C 
ATOM     11  C   UNL     1     134.613 140.006 138.384  1.00  0.00     0.032 C 
ATOM     12  C   UNL     1     133.564 139.226 137.531  1.00  0.00     0.006 C 
ATOM     13  C   UNL     1     134.209 138.113 136.563  1.00  0.00    -0.020 C 
ATOM     14  C   UNL     1     133.485 138.049 135.181  1.00  0.00     0.008 C 
ATOM     15  C   UNL     1     131.951 138.126 135.250  1.00  0.00     0.005 C 
ATOM     16  C   UNL     1     131.334 139.233 136.169  1.00  0.00     0.003 C 
ATOM     17  C   UNL     1     132.419 140.138 136.904  1.00  0.00    -0.025 C 
ATOM     18  C   UNL     1     131.742 141.049 137.991  1.00  0.00     0.010 C 
ATOM     19  C   UNL     1     130.693 140.366 138.856  1.00  0.00     0.033 C 
ATOM     20  C   UNL     1     129.566 139.812 137.980  1.00  0.00     0.120 C 
ATOM     21  C   UNL     1     130.095 138.700 137.028  1.00  0.00    -0.006 C 
ATOM     22  C   UNL     1     130.377 137.431 137.886  1.00  0.00     0.014 C 
ATOM     23  C   UNL     1     128.941 138.310 136.060  1.00  0.00     0.014 C 
ATOM     24  C   UNL     1     132.991 141.174 135.881  1.00  0.00     0.012 C 
ATOM     25  C   UNL     1     133.965 136.722 137.241  1.00  0.00     0.012 C 
ATOM     26  C   UNL     1     137.685 137.639 138.134  1.00  0.00     0.022 C 
ATOM     27  C   UNL     1     137.257 136.360 138.896  1.00  0.00     0.015 C 
ATOM     28  C   UNL     1     136.124 139.630 135.569  1.00  0.00     0.017 C 
ATOM     29  C   UNL     1     139.747 138.460 136.887  1.00  0.00     0.012 C 
ATOM     30  C   UNL     1     138.737 136.181 140.953  1.00  0.00     0.011 C 
ENDROOT
BRANCH  20  31
ATOM     31  O   UNL     1     128.974 140.854 137.241  1.00  0.00    -0.393 OA
ATOM     32  H   UNL     1     129.706 141.324 136.762  1.00  0.00     0.210 HD
ENDBRANCH  20  31
TORSDOF 1
ENDMDL
MODEL 2
REMARK VINA RESULT:    -6.895      7.281     10.001
REMARK INTER + INTRA:          -7.097
REMARK INTER:                  -7.097
REMARK INTRA:                   0.000
REMARK UNBOUND:                 0.000
REMARK SMILES CC1(C)CC[C@@]2(C)CC[C@]3(C)C(=CC[C@H]4[C@]5(C)CC[C@@H](O)C(C)(C)[C@@H]5CC[C@]43C)[C@H]2C1
REMARK SMILES IDX 1 1 2 2 4 3 5 4 6 5 8 6 9 7 10 8 12 9 13 10 14 11 15 12
REMARK SMILES IDX 28 13 27 14 26 15 25 16 16 17 18 18 19 19 20 20 22 21 23 22
REMARK SMILES IDX 24 23 17 24 29 25 30 26 31 27 11 28 7 29 3 30 21 31
REMARK H PARENT 21 32
REMARK Flexibility Score: inf
ROOT
ATOM      1  C   UNL     1     146.291 137.873 146.346  1.00  0.00     0.011 C 
ATOM      2  C   UNL     1     146.665 139.156 145.572  1.00  0.00    -0.035 C 
ATOM      3  C   UNL     1     147.965 138.910 144.749  1.00  0.00     0.007 C 
ATOM      4  C   UNL     1     147.662 138.477 143.307  1.00  0.00     0.008 C 
ATOM      5  C   UNL     1     146.925 139.589 142.489  1.00  0.00    -0.026 C 
ATOM      6  C   UNL     1     146.255 138.917 141.239  1.00  0.00     0.008 C 
ATOM      7  C   UNL     1     144.727 138.829 141.322  1.00  0.00     0.012 C 
ATOM      8  C   UNL     1     144.050 140.227 141.496  1.00  0.00    -0.006 C 
ATOM      9  C   UNL     1     144.683 140.933 142.693  1.00  0.00    -0.064 C 
ATOM     10  C   UNL     1     144.069 142.016 143.208  1.00  0.00    -0.027 C 
ATOM     11  C   UNL     1     142.840 142.607 142.582  1.00  0.00     0.032 C 
ATOM     12  C   UNL     1     141.801 141.531 142.134  1.00  0.00     0.006 C 
ATOM     13  C   UNL     1     142.458 140.112 141.748  1.00  0.00    -0.020 C 
ATOM     14  C   UNL     1     141.753 139.457 140.519  1.00  0.00     0.008 C 
ATOM     15  C   UNL     1     140.218 139.548 140.528  1.00  0.00     0.005 C 
ATOM     16  C   UNL     1     139.591 140.941 140.872  1.00  0.00     0.003 C 
ATOM     17  C   UNL     1     140.666 142.078 141.160  1.00  0.00    -0.025 C 
ATOM     18  C   UNL     1     139.976 143.366 141.739  1.00  0.00     0.010 C 
ATOM     19  C   UNL     1     138.914 143.118 142.800  1.00  0.00     0.033 C 
ATOM     20  C   UNL     1     137.798 142.235 142.233  1.00  0.00     0.120 C 
ATOM     21  C   UNL     1     138.338 140.824 141.860  1.00  0.00    -0.006 C 
ATOM     22  C   UNL     1     138.606 140.050 143.185  1.00  0.00     0.014 C 
ATOM     23  C   UNL     1     137.198 140.050 141.140  1.00  0.00     0.014 C 
ATOM     24  C   UNL     1     141.254 142.576 139.798  1.00  0.00     0.012 C 
ATOM     25  C   UNL     1     142.202 139.148 142.956  1.00  0.00     0.012 C 
ATOM     26  C   UNL     1     145.911 140.376 143.417  1.00  0.00     0.022 C 
ATOM     27  C   UNL     1     145.470 139.549 144.649  1.00  0.00     0.015 C 
ATOM     28  C   UNL     1     144.389 141.061 140.224  1.00  0.00     0.017 C 
ATOM     29  C   UNL     1     147.991 140.589 141.964  1.00  0.00     0.012 C 
ATOM     30  C   UNL     1     146.920 140.280 146.602  1.00  0.00     0.011 C 
ENDROOT
BRANCH  20  31
ATOM     31  O   UNL     1     137.218 142.855 141.109  1.00  0.00    -0.393 OA
ATOM     32  H   UNL     1     136.909 142.131 140.504  1.00  0.00     0.210 HD
ENDBRANCH  20  31
TORSDOF 1
ENDMDL
MODEL 3
REMARK VINA RESULT:    -6.690      7.734     12.695
REMARK INTER + INTRA:          -6.886
REMARK INTER:                  -6.886
REMARK INTRA:                   0.000
REMARK UNBOUND:                 0.000
REMARK SMILES CC1(C)CC[C@@]2(C)CC[C@]3(C)C(=CC[C@H]4[C@]5(C)CC[C@@H](O)C(C)(C)[C@@H]5CC[C@]43C)[C@H]2C1
REMARK SMILES IDX 1 1 2 2 4 3 5 4 6 5 8 6 9 7 10 8 12 9 13 10 14 11 15 12
REMARK SMILES IDX 28 13 27 14 26 15 25 16 16 17 18 18 19 19 20 20 22 21 23 22
REMARK SMILES IDX 24 23 17 24 29 25 30 26 31 27 11 28 7 29 3 30 21 31
REMARK H PARENT 21 32
REMARK Flexibility Score: inf
ROOT
ATOM      1  C   UNL     1     140.625 144.875 141.590  1.00  0.00     0.011 C 
ATOM      2  C   UNL     1     139.895 143.521 141.736  1.00  0.00    -0.035 C 
ATOM      3  C   UNL     1     139.180 143.166 140.397  1.00  0.00     0.007 C 
ATOM      4  C   UNL     1     140.046 142.273 139.498  1.00  0.00     0.008 C 
ATOM      5  C   UNL     1     140.327 140.871 140.137  1.00  0.00    -0.026 C 
ATOM      6  C   UNL     1     141.560 140.235 139.404  1.00  0.00     0.008 C 
ATOM      7  C   UNL     1     142.836 140.193 140.252  1.00  0.00     0.012 C 
ATOM      8  C   UNL     1     142.648 139.398 141.586  1.00  0.00    -0.006 C 
ATOM      9  C   UNL     1     141.443 139.968 142.331  1.00  0.00    -0.064 C 
ATOM     10  C   UNL     1     141.264 139.640 143.625  1.00  0.00    -0.027 C 
ATOM     11  C   UNL     1     142.155 138.657 144.327  1.00  0.00     0.032 C 
ATOM     12  C   UNL     1     143.669 138.857 144.000  1.00  0.00     0.006 C 
ATOM     13  C   UNL     1     143.942 139.497 142.548  1.00  0.00    -0.020 C 
ATOM     14  C   UNL     1     145.191 138.863 141.856  1.00  0.00     0.008 C 
ATOM     15  C   UNL     1     146.404 138.651 142.778  1.00  0.00     0.005 C 
ATOM     16  C   UNL     1     146.130 137.998 144.174  1.00  0.00     0.003 C 
ATOM     17  C   UNL     1     144.600 137.638 144.429  1.00  0.00    -0.025 C 
ATOM     18  C   UNL     1     144.365 137.227 145.927  1.00  0.00     0.010 C 
ATOM     19  C   UNL     1     145.064 138.096 146.961  1.00  0.00     0.033 C 
ATOM     20  C   UNL     1     146.579 138.077 146.730  1.00  0.00     0.120 C 
ATOM     21  C   UNL     1     146.941 138.709 145.355  1.00  0.00    -0.006 C 
ATOM     22  C   UNL     1     146.736 140.249 145.469  1.00  0.00     0.014 C 
ATOM     23  C   UNL     1     148.464 138.500 145.119  1.00  0.00     0.014 C 
ATOM     24  C   UNL     1     144.250 136.330 143.645  1.00  0.00     0.012 C 
ATOM     25  C   UNL     1     144.295 141.006 142.774  1.00  0.00     0.012 C 
ATOM     26  C   UNL     1     140.509 141.006 141.704  1.00  0.00     0.022 C 
ATOM     27  C   UNL     1     140.939 142.431 142.131  1.00  0.00     0.015 C 
ATOM     28  C   UNL     1     142.310 137.927 141.197  1.00  0.00     0.017 C 
ATOM     29  C   UNL     1     139.100 139.960 139.860  1.00  0.00     0.012 C 
ATOM     30  C   UNL     1     138.839 143.663 142.855  1.00  0.00     0.011 C 
ENDROOT
BRANCH  20  31
ATOM     31  O   UNL     1     147.060 136.756 146.809  1.00  0.00    -0.393 OA
ATOM     32  H   UNL     1     146.955 136.353 145.907  1.00  0.00     0.210 HD
ENDBRANCH  20  31
TORSDOF 1
ENDMDL
MODEL 4
REMARK VINA RESULT:    -6.667      7.419     12.574
REMARK INTER + INTRA:          -6.862
REMARK INTER:                  -6.862
REMARK INTRA:                   0.000
REMARK UNBOUND:                 0.000
REMARK SMILES CC1(C)CC[C@@]2(C)CC[C@]3(C)C(=CC[C@H]4[C@]5(C)CC[C@@H](O)C(C)(C)[C@@H]5CC[C@]43C)[C@H]2C1
REMARK SMILES IDX 1 1 2 2 4 3 5 4 6 5 8 6 9 7 10 8 12 9 13 10 14 11 15 12
REMARK SMILES IDX 28 13 27 14 26 15 25 16 16 17 18 18 19 19 20 20 22 21 23 22
REMARK SMILES IDX 24 23 17 24 29 25 30 26 31 27 11 28 7 29 3 30 21 31
REMARK H PARENT 21 32
REMARK Flexibility Score: inf
ROOT
ATOM      1  C   UNL     1     139.244 136.617 139.840  1.00  0.00     0.011 C 
ATOM      2  C   UNL     1     140.727 136.185 139.874  1.00  0.00    -0.035 C 
ATOM      3  C   UNL     1     141.591 137.222 139.094  1.00  0.00     0.007 C 
ATOM      4  C   UNL     1     142.184 138.293 140.020  1.00  0.00     0.008 C 
ATOM      5  C   UNL     1     143.191 137.698 141.060  1.00  0.00    -0.026 C 
ATOM      6  C   UNL     1     143.369 138.737 142.223  1.00  0.00     0.008 C 
ATOM      7  C   UNL     1     142.710 138.317 143.541  1.00  0.00     0.012 C 
ATOM      8  C   UNL     1     143.248 136.950 144.076  1.00  0.00    -0.006 C 
ATOM      9  C   UNL     1     143.115 135.904 142.972  1.00  0.00    -0.064 C 
ATOM     10  C   UNL     1     143.242 134.601 143.290  1.00  0.00    -0.027 C 
ATOM     11  C   UNL     1     143.608 134.154 144.676  1.00  0.00     0.032 C 
ATOM     12  C   UNL     1     142.851 134.937 145.795  1.00  0.00     0.006 C 
ATOM     13  C   UNL     1     142.436 136.434 145.374  1.00  0.00    -0.020 C 
ATOM     14  C   UNL     1     142.598 137.439 146.559  1.00  0.00     0.008 C 
ATOM     15  C   UNL     1     142.103 136.922 147.920  1.00  0.00     0.005 C 
ATOM     16  C   UNL     1     142.540 135.476 148.332  1.00  0.00     0.003 C 
ATOM     17  C   UNL     1     143.459 134.749 147.254  1.00  0.00    -0.025 C 
ATOM     18  C   UNL     1     143.647 133.231 147.614  1.00  0.00     0.010 C 
ATOM     19  C   UNL     1     142.388 132.506 148.069  1.00  0.00     0.033 C 
ATOM     20  C   UNL     1     141.808 133.186 149.313  1.00  0.00     0.120 C 
ATOM     21  C   UNL     1     141.348 134.638 148.991  1.00  0.00    -0.006 C 
ATOM     22  C   UNL     1     140.047 134.548 148.138  1.00  0.00     0.014 C 
ATOM     23  C   UNL     1     140.933 135.316 150.328  1.00  0.00     0.014 C 
ATOM     24  C   UNL     1     144.912 135.318 147.361  1.00  0.00     0.012 C 
ATOM     25  C   UNL     1     140.906 136.407 145.040  1.00  0.00     0.012 C 
ATOM     26  C   UNL     1     142.704 136.270 141.544  1.00  0.00     0.022 C 
ATOM     27  C   UNL     1     141.179 136.070 141.363  1.00  0.00     0.015 C 
ATOM     28  C   UNL     1     144.769 137.138 144.366  1.00  0.00     0.017 C 
ATOM     29  C   UNL     1     144.569 137.539 140.363  1.00  0.00     0.012 C 
ATOM     30  C   UNL     1     140.841 134.807 139.185  1.00  0.00     0.011 C 
ENDROOT
BRANCH  20  31
ATOM     31  O   UNL     1     142.762 133.189 150.349  1.00  0.00    -0.393 OA
ATOM     32  H   UNL     1     143.537 133.723 150.031  1.00  0.00     0.210 HD
ENDBRANCH  20  31
TORSDOF 1
ENDMDL
MODEL 5
REMARK VINA RESULT:    -6.549      8.347     11.355
REMARK INTER + INTRA:          -6.740
REMARK INTER:                  -6.740
REMARK INTRA:                   0.000
REMARK UNBOUND:                 0.000
REMARK SMILES CC1(C)CC[C@@]2(C)CC[C@]3(C)C(=CC[C@H]4[C@]5(C)CC[C@@H](O)C(C)(C)[C@@H]5CC[C@]43C)[C@H]2C1
REMARK SMILES IDX 1 1 2 2 4 3 5 4 6 5 8 6 9 7 10 8 12 9 13 10 14 11 15 12
REMARK SMILES IDX 28 13 27 14 26 15 25 16 16 17 18 18 19 19 20 20 22 21 23 22
REMARK SMILES IDX 24 23 17 24 29 25 30 26 31 27 11 28 7 29 3 30 21 31
REMARK H PARENT 21 32
REMARK Flexibility Score: inf
ROOT
ATOM      1  C   UNL     1     147.128 140.128 146.524  1.00  0.00     0.011 C 
ATOM      2  C   UNL     1     146.895 138.786 145.796  1.00  0.00    -0.035 C 
ATOM      3  C   UNL     1     146.220 137.773 146.771  1.00  0.00     0.007 C 
ATOM      4  C   UNL     1     144.691 137.777 146.639  1.00  0.00     0.008 C 
ATOM      5  C   UNL     1     144.208 137.294 145.230  1.00  0.00    -0.026 C 
ATOM      6  C   UNL     1     142.726 137.769 145.029  1.00  0.00     0.008 C 
ATOM      7  C   UNL     1     142.568 138.906 144.013  1.00  0.00     0.012 C 
ATOM      8  C   UNL     1     143.114 138.531 142.597  1.00  0.00    -0.006 C 
ATOM      9  C   UNL     1     144.554 138.042 142.740  1.00  0.00    -0.064 C 
ATOM     10  C   UNL     1     145.319 137.940 141.637  1.00  0.00    -0.027 C 
ATOM     11  C   UNL     1     144.771 138.196 140.263  1.00  0.00     0.032 C 
ATOM     12  C   UNL     1     143.848 139.454 140.194  1.00  0.00     0.006 C 
ATOM     13  C   UNL     1     143.095 139.785 141.578  1.00  0.00    -0.020 C 
ATOM     14  C   UNL     1     141.633 140.280 141.344  1.00  0.00     0.008 C 
ATOM     15  C   UNL     1     141.465 141.280 140.188  1.00  0.00     0.005 C 
ATOM     16  C   UNL     1     142.175 140.931 138.837  1.00  0.00     0.003 C 
ATOM     17  C   UNL     1     142.975 139.556 138.866  1.00  0.00    -0.025 C 
ATOM     18  C   UNL     1     143.859 139.396 137.577  1.00  0.00     0.010 C 
ATOM     19  C   UNL     1     144.619 140.642 137.146  1.00  0.00     0.033 C 
ATOM     20  C   UNL     1     143.640 141.788 136.872  1.00  0.00     0.120 C 
ATOM     21  C   UNL     1     142.885 142.200 138.170  1.00  0.00    -0.006 C 
ATOM     22  C   UNL     1     143.891 142.957 139.087  1.00  0.00     0.014 C 
ATOM     23  C   UNL     1     141.798 143.241 137.781  1.00  0.00     0.014 C 
ATOM     24  C   UNL     1     141.956 138.374 138.743  1.00  0.00     0.012 C 
ATOM     25  C   UNL     1     143.856 140.986 142.234  1.00  0.00     0.012 C 
ATOM     26  C   UNL     1     145.203 137.797 144.104  1.00  0.00     0.022 C 
ATOM     27  C   UNL     1     146.009 139.046 144.539  1.00  0.00     0.015 C 
ATOM     28  C   UNL     1     142.260 137.334 142.079  1.00  0.00     0.017 C 
ATOM     29  C   UNL     1     144.205 135.742 145.226  1.00  0.00     0.012 C 
ATOM     30  C   UNL     1     148.271 138.232 145.360  1.00  0.00     0.011 C 
ENDROOT
BRANCH  20  31
ATOM     31  O   UNL     1     142.727 141.413 135.868  1.00  0.00    -0.393 OA
ATOM     32  H   UNL     1     143.224 140.848 135.219  1.00  0.00     0.210 HD
ENDBRANCH  20  31
TORSDOF 1
ENDMDL
MODEL 6
REMARK VINA RESULT:    -6.430      6.969     11.257
REMARK INTER + INTRA:          -6.618
REMARK INTER:                  -6.618
REMARK INTRA:                   0.000
REMARK UNBOUND:                 0.000
REMARK SMILES CC1(C)CC[C@@]2(C)CC[C@]3(C)C(=CC[C@H]4[C@]5(C)CC[C@@H](O)C(C)(C)[C@@H]5CC[C@]43C)[C@H]2C1
REMARK SMILES IDX 1 1 2 2 4 3 5 4 6 5 8 6 9 7 10 8 12 9 13 10 14 11 15 12
REMARK SMILES IDX 28 13 27 14 26 15 25 16 16 17 18 18 19 19 20 20 22 21 23 22
REMARK SMILES IDX 24 23 17 24 29 25 30 26 31 27 11 28 7 29 3 30 21 31
REMARK H PARENT 21 32
REMARK Flexibility Score: inf
ROOT
ATOM      1  C   UNL     1     137.472 143.430 143.149  1.00  0.00     0.011 C 
ATOM      2  C   UNL     1     137.948 142.916 141.773  1.00  0.00    -0.035 C 
ATOM      3  C   UNL     1     138.456 144.114 140.914  1.00  0.00     0.007 C 
ATOM      4  C   UNL     1     139.973 144.312 141.040  1.00  0.00     0.008 C 
ATOM      5  C   UNL     1     140.786 143.098 140.477  1.00  0.00    -0.026 C 
ATOM      6  C   UNL     1     142.241 143.169 141.060  1.00  0.00     0.008 C 
ATOM      7  C   UNL     1     142.545 142.095 142.111  1.00  0.00     0.012 C 
ATOM      8  C   UNL     1     142.351 140.643 141.564  1.00  0.00    -0.006 C 
ATOM      9  C   UNL     1     140.951 140.527 140.966  1.00  0.00    -0.064 C 
ATOM     10  C   UNL     1     140.457 139.303 140.699  1.00  0.00    -0.027 C 
ATOM     11  C   UNL     1     141.277 138.058 140.879  1.00  0.00     0.032 C 
ATOM     12  C   UNL     1     142.108 138.055 142.201  1.00  0.00     0.006 C 
ATOM     13  C   UNL     1     142.513 139.525 142.719  1.00  0.00    -0.020 C 
ATOM     14  C   UNL     1     143.955 139.557 143.317  1.00  0.00     0.008 C 
ATOM     15  C   UNL     1     144.308 138.364 144.221  1.00  0.00     0.005 C 
ATOM     16  C   UNL     1     143.939 136.937 143.692  1.00  0.00     0.003 C 
ATOM     17  C   UNL     1     143.245 136.941 142.260  1.00  0.00    -0.025 C 
ATOM     18  C   UNL     1     142.680 135.517 141.909  1.00  0.00     0.010 C 
ATOM     19  C   UNL     1     141.954 134.805 143.040  1.00  0.00     0.033 C 
ATOM     20  C   UNL     1     142.891 134.625 144.239  1.00  0.00     0.120 C 
ATOM     21  C   UNL     1     143.312 136.003 144.829  1.00  0.00    -0.006 C 
ATOM     22  C   UNL     1     142.080 136.599 145.574  1.00  0.00     0.014 C 
ATOM     23  C   UNL     1     144.387 135.747 145.922  1.00  0.00     0.014 C 
ATOM     24  C   UNL     1     144.341 137.165 141.166  1.00  0.00     0.012 C 
ATOM     25  C   UNL     1     141.548 139.872 143.903  1.00  0.00     0.012 C 
ATOM     26  C   UNL     1     140.034 141.739 140.789  1.00  0.00     0.022 C 
ATOM     27  C   UNL     1     139.071 141.857 141.996  1.00  0.00     0.015 C 
ATOM     28  C   UNL     1     143.376 140.450 140.405  1.00  0.00     0.017 C 
ATOM     29  C   UNL     1     140.892 143.261 138.937  1.00  0.00     0.012 C 
ATOM     30  C   UNL     1     136.743 142.257 141.064  1.00  0.00     0.011 C 
ENDROOT
BRANCH  20  31
ATOM     31  O   UNL     1     144.026 133.885 143.856  1.00  0.00    -0.393 OA
ATOM     32  H   UNL     1     143.747 132.934 143.794  1.00  0.00     0.210 HD
ENDBRANCH  20  31
TORSDOF 1
ENDMDL
MODEL 7
REMARK VINA RESULT:    -6.424      7.270     10.274
REMARK INTER + INTRA:          -6.612
REMARK INTER:                  -6.612
REMARK INTRA:                   0.000
REMARK UNBOUND:                 0.000
REMARK SMILES CC1(C)CC[C@@]2(C)CC[C@]3(C)C(=CC[C@H]4[C@]5(C)CC[C@@H](O)C(C)(C)[C@@H]5CC[C@]43C)[C@H]2C1
REMARK SMILES IDX 1 1 2 2 4 3 5 4 6 5 8 6 9 7 10 8 12 9 13 10 14 11 15 12
REMARK SMILES IDX 28 13 27 14 26 15 25 16 16 17 18 18 19 19 20 20 22 21 23 22
REMARK SMILES IDX 24 23 17 24 29 25 30 26 31 27 11 28 7 29 3 30 21 31
REMARK H PARENT 21 32
REMARK Flexibility Score: inf
ROOT
ATOM      1  C   UNL     1     147.769 138.106 145.708  1.00  0.00     0.011 C 
ATOM      2  C   UNL     1     146.975 139.254 145.047  1.00  0.00    -0.035 C 
ATOM      3  C   UNL     1     147.843 139.918 143.935  1.00  0.00     0.007 C 
ATOM      4  C   UNL     1     147.564 139.318 142.550  1.00  0.00     0.008 C 
ATOM      5  C   UNL     1     146.099 139.581 142.065  1.00  0.00    -0.026 C 
ATOM      6  C   UNL     1     145.773 138.566 140.913  1.00  0.00     0.008 C 
ATOM      7  C   UNL     1     144.787 137.464 141.315  1.00  0.00     0.012 C 
ATOM      8  C   UNL     1     143.418 138.030 141.815  1.00  0.00    -0.006 C 
ATOM      9  C   UNL     1     143.683 139.041 142.928  1.00  0.00    -0.064 C 
ATOM     10  C   UNL     1     142.655 139.440 143.703  1.00  0.00    -0.027 C 
ATOM     11  C   UNL     1     141.245 138.998 143.442  1.00  0.00     0.032 C 
ATOM     12  C   UNL     1     141.131 137.480 143.093  1.00  0.00     0.006 C 
ATOM     13  C   UNL     1     142.447 136.874 142.390  1.00  0.00    -0.020 C 
ATOM     14  C   UNL     1     142.090 135.848 141.268  1.00  0.00     0.008 C 
ATOM     15  C   UNL     1     140.959 134.868 141.623  1.00  0.00     0.005 C 
ATOM     16  C   UNL     1     139.671 135.474 142.276  1.00  0.00     0.003 C 
ATOM     17  C   UNL     1     139.730 137.052 142.470  1.00  0.00    -0.025 C 
ATOM     18  C   UNL     1     138.527 137.552 143.350  1.00  0.00     0.010 C 
ATOM     19  C   UNL     1     138.216 136.704 144.574  1.00  0.00     0.033 C 
ATOM     20  C   UNL     1     137.889 135.268 144.152  1.00  0.00     0.120 C 
ATOM     21  C   UNL     1     139.122 134.587 143.488  1.00  0.00    -0.006 C 
ATOM     22  C   UNL     1     140.158 134.278 144.609  1.00  0.00     0.014 C 
ATOM     23  C   UNL     1     138.667 133.206 142.938  1.00  0.00     0.014 C 
ATOM     24  C   UNL     1     139.467 137.743 141.090  1.00  0.00     0.012 C 
ATOM     25  C   UNL     1     143.216 136.062 143.487  1.00  0.00     0.012 C 
ATOM     26  C   UNL     1     145.094 139.513 143.287  1.00  0.00     0.022 C 
ATOM     27  C   UNL     1     145.648 138.675 144.466  1.00  0.00     0.015 C 
ATOM     28  C   UNL     1     142.778 138.801 140.621  1.00  0.00     0.017 C 
ATOM     29  C   UNL     1     146.041 141.009 141.458  1.00  0.00     0.012 C 
ATOM     30  C   UNL     1     146.655 140.304 146.135  1.00  0.00     0.011 C 
ENDROOT
BRANCH  20  31
ATOM     31  O   UNL     1     136.789 135.262 143.274  1.00  0.00    -0.393 OA
ATOM     32  H   UNL     1     136.149 135.945 143.605  1.00  0.00     0.210 HD
ENDBRANCH  20  31
TORSDOF 1
ENDMDL
MODEL 8
REMARK VINA RESULT:    -6.388      7.027      9.861
REMARK INTER + INTRA:          -6.575
REMARK INTER:                  -6.575
REMARK INTRA:                   0.000
REMARK UNBOUND:                 0.000
REMARK SMILES CC1(C)CC[C@@]2(C)CC[C@]3(C)C(=CC[C@H]4[C@]5(C)CC[C@@H](O)C(C)(C)[C@@H]5CC[C@]43C)[C@H]2C1
REMARK SMILES IDX 1 1 2 2 4 3 5 4 6 5 8 6 9 7 10 8 12 9 13 10 14 11 15 12
REMARK SMILES IDX 28 13 27 14 26 15 25 16 16 17 18 18 19 19 20 20 22 21 23 22
REMARK SMILES IDX 24 23 17 24 29 25 30 26 31 27 11 28 7 29 3 30 21 31
REMARK H PARENT 21 32
REMARK Flexibility Score: inf
ROOT
ATOM      1  C   UNL     1     147.004 142.233 135.430  1.00  0.00     0.011 C 
ATOM      2  C   UNL     1     145.605 141.863 134.892  1.00  0.00    -0.035 C 
ATOM      3  C   UNL     1     145.752 140.958 133.631  1.00  0.00     0.007 C 
ATOM      4  C   UNL     1     145.693 139.464 133.982  1.00  0.00     0.008 C 
ATOM      5  C   UNL     1     144.305 139.039 134.566  1.00  0.00    -0.026 C 
ATOM      6  C   UNL     1     144.484 137.670 135.313  1.00  0.00     0.008 C 
ATOM      7  C   UNL     1     144.404 137.778 136.839  1.00  0.00     0.012 C 
ATOM      8  C   UNL     1     143.048 138.382 137.332  1.00  0.00    -0.006 C 
ATOM      9  C   UNL     1     142.817 139.712 136.618  1.00  0.00    -0.064 C 
ATOM     10  C   UNL     1     141.870 140.547 137.088  1.00  0.00    -0.027 C 
ATOM     11  C   UNL     1     140.971 140.167 138.229  1.00  0.00     0.032 C 
ATOM     12  C   UNL     1     141.727 139.456 139.397  1.00  0.00     0.006 C 
ATOM     13  C   UNL     1     143.035 138.645 138.926  1.00  0.00    -0.020 C 
ATOM     14  C   UNL     1     143.201 137.302 139.705  1.00  0.00     0.008 C 
ATOM     15  C   UNL     1     142.926 137.391 141.216  1.00  0.00     0.005 C 
ATOM     16  C   UNL     1     141.634 138.155 141.660  1.00  0.00     0.003 C 
ATOM     17  C   UNL     1     140.777 138.729 140.448  1.00  0.00    -0.025 C 
ATOM     18  C   UNL     1     139.646 139.688 140.968  1.00  0.00     0.010 C 
ATOM     19  C   UNL     1     140.066 140.664 142.057  1.00  0.00     0.033 C 
ATOM     20  C   UNL     1     140.594 139.901 143.276  1.00  0.00     0.120 C 
ATOM     21  C   UNL     1     141.885 139.107 142.921  1.00  0.00    -0.006 C 
ATOM     22  C   UNL     1     143.046 140.132 142.759  1.00  0.00     0.014 C 
ATOM     23  C   UNL     1     142.260 138.230 144.148  1.00  0.00     0.014 C 
ATOM     24  C   UNL     1     139.972 137.557 139.796  1.00  0.00     0.012 C 
ATOM     25  C   UNL     1     144.277 139.520 139.309  1.00  0.00     0.012 C 
ATOM     26  C   UNL     1     143.712 140.194 135.474  1.00  0.00     0.022 C 
ATOM     27  C   UNL     1     144.809 141.140 136.023  1.00  0.00     0.015 C 
ATOM     28  C   UNL     1     141.921 137.404 136.883  1.00  0.00     0.017 C 
ATOM     29  C   UNL     1     143.334 138.799 133.379  1.00  0.00     0.012 C 
ATOM     30  C   UNL     1     144.880 143.170 134.497  1.00  0.00     0.011 C 
ENDROOT
BRANCH  20  31
ATOM     31  O   UNL     1     139.600 139.033 143.767  1.00  0.00    -0.393 OA
ATOM     32  H   UNL     1     139.754 138.935 144.743  1.00  0.00     0.210 HD
ENDBRANCH  20  31
TORSDOF 1
ENDMDL
MODEL 9
REMARK VINA RESULT:    -6.367      8.106     10.824
REMARK INTER + INTRA:          -6.553
REMARK INTER:                  -6.553
REMARK INTRA:                   0.000
REMARK UNBOUND:                 0.000
REMARK SMILES CC1(C)CC[C@@]2(C)CC[C@]3(C)C(=CC[C@H]4[C@]5(C)CC[C@@H](O)C(C)(C)[C@@H]5CC[C@]43C)[C@H]2C1
REMARK SMILES IDX 1 1 2 2 4 3 5 4 6 5 8 6 9 7 10 8 12 9 13 10 14 11 15 12
REMARK SMILES IDX 28 13 27 14 26 15 25 16 16 17 18 18 19 19 20 20 22 21 23 22
REMARK SMILES IDX 24 23 17 24 29 25 30 26 31 27 11 28 7 29 3 30 21 31
REMARK H PARENT 21 32
REMARK Flexibility Score: inf
ROOT
ATOM      1  C   UNL     1     139.348 133.209 145.466  1.00  0.00     0.011 C 
ATOM      2  C   UNL     1     139.621 134.642 145.972  1.00  0.00    -0.035 C 
ATOM      3  C   UNL     1     140.382 134.581 147.331  1.00  0.00     0.007 C 
ATOM      4  C   UNL     1     141.903 134.669 147.145  1.00  0.00     0.008 C 
ATOM      5  C   UNL     1     142.357 136.041 146.542  1.00  0.00    -0.026 C 
ATOM      6  C   UNL     1     143.805 135.868 145.962  1.00  0.00     0.008 C 
ATOM      7  C   UNL     1     143.867 135.873 144.431  1.00  0.00     0.012 C 
ATOM      8  C   UNL     1     143.288 137.185 143.806  1.00  0.00    -0.006 C 
ATOM      9  C   UNL     1     141.881 137.409 144.356  1.00  0.00    -0.064 C 
ATOM     10  C   UNL     1     141.081 138.307 143.749  1.00  0.00    -0.027 C 
ATOM     11  C   UNL     1     141.564 139.162 142.614  1.00  0.00     0.032 C 
ATOM     12  C   UNL     1     142.420 138.374 141.572  1.00  0.00     0.006 C 
ATOM     13  C   UNL     1     143.206 137.115 142.194  1.00  0.00    -0.020 C 
ATOM     14  C   UNL     1     144.631 136.953 141.578  1.00  0.00     0.008 C 
ATOM     15  C   UNL     1     144.705 137.154 140.055  1.00  0.00     0.005 C 
ATOM     16  C   UNL     1     143.964 138.400 139.465  1.00  0.00     0.003 C 
ATOM     17  C   UNL     1     143.236 139.295 140.561  1.00  0.00    -0.025 C 
ATOM     18  C   UNL     1     142.313 140.371 139.882  1.00  0.00     0.010 C 
ATOM     19  C   UNL     1     141.477 139.870 138.714  1.00  0.00     0.033 C 
ATOM     20  C   UNL     1     142.385 139.309 137.615  1.00  0.00     0.120 C 
ATOM     21  C   UNL     1     143.166 138.061 138.121  1.00  0.00    -0.006 C 
ATOM     22  C   UNL     1     142.158 136.878 138.226  1.00  0.00     0.014 C 
ATOM     23  C   UNL     1     144.184 137.655 137.018  1.00  0.00     0.014 C 
ATOM     24  C   UNL     1     144.308 140.165 141.298  1.00  0.00     0.012 C 
ATOM     25  C   UNL     1     142.410 135.831 141.780  1.00  0.00     0.012 C 
ATOM     26  C   UNL     1     141.297 136.555 145.483  1.00  0.00     0.022 C 
ATOM     27  C   UNL     1     140.446 135.405 144.889  1.00  0.00     0.015 C 
ATOM     28  C   UNL     1     144.182 138.361 144.304  1.00  0.00     0.017 C 
ATOM     29  C   UNL     1     142.438 137.073 147.699  1.00  0.00     0.012 C 
ATOM     30  C   UNL     1     138.260 135.344 146.182  1.00  0.00     0.011 C 
ENDROOT
BRANCH  20  31
ATOM     31  O   UNL     1     143.278 140.305 137.174  1.00  0.00    -0.393 OA
ATOM     32  H   UNL     1     143.865 140.531 137.942  1.00  0.00     0.210 HD
ENDBRANCH  20  31
TORSDOF 1
ENDMDL
