MODEL 1
REMARK VINA RESULT:    -6.163      0.000      0.000
REMARK INTER + INTRA:         -12.481
REMARK INTER:                 -11.207
REMARK INTRA:                  -1.274
REMARK UNBOUND:                -1.274
REMARK SMILES CCCCCCCCCCCCCCCC(=O)[O-]
REMARK SMILES IDX 9 1 10 2 11 3 12 4 13 5 14 6 15 7 16 8 17 9 18 10 8 11 7 12
REMARK SMILES IDX 6 13 5 14 4 15 3 16 2 17 1 18
REMARK H PARENT
REMARK Flexibility Score: inf
ROOT
ATOM      1  C   UNL     1       4.604   7.775  15.681  1.00  0.00     0.000 C 
ENDROOT
BRANCH   1   2
ATOM      2  C   UNL     1       6.055   7.588  15.200  1.00  0.00     0.000 C 
BRANCH   2   3
ATOM      3  C   UNL     1       6.232   7.459  13.676  1.00  0.00     0.000 C 
BRANCH   3   4
ATOM      4  C   UNL     1       5.016   6.829  12.981  1.00  0.00     0.000 C 
BRANCH   4   5
ATOM      5  C   UNL     1       5.110   5.297  12.985  1.00  0.00     0.000 C 
BRANCH   5   6
ATOM      6  C   UNL     1       3.892   4.620  13.643  1.00  0.00     0.006 C 
BRANCH   6   7
ATOM      7  C   UNL     1       4.132   4.182  15.099  1.00  0.00     0.053 C 
BRANCH   7   8
ATOM      8  C   UNL     1       3.905   2.714  15.304  1.00  0.00     0.041 C 
ATOM      9  O   UNL     1       2.749   2.231  15.189  1.00  0.00    -0.550 OA
ATOM     10  O   UNL     1       4.966   1.887  15.654  1.00  0.00    -0.550 OA
ENDBRANCH   7   8
ENDBRANCH   6   7
ENDBRANCH   5   6
ENDBRANCH   4   5
ENDBRANCH   3   4
ENDBRANCH   2   3
ENDBRANCH   1   2
BRANCH   1  11
ATOM     11  C   UNL     1       4.483   8.751  16.863  1.00  0.00     0.000 C 
BRANCH  11  12
ATOM     12  C   UNL     1       3.023   9.099  17.204  1.00  0.00    -0.000 C 
BRANCH  12  13
ATOM     13  C   UNL     1       2.722   9.279  18.707  1.00  0.00    -0.000 C 
BRANCH  13  14
ATOM     14  C   UNL     1       2.165   8.031  19.416  1.00  0.00    -0.000 C 
BRANCH  14  15
ATOM     15  C   UNL     1       2.161   6.786  18.519  1.00  0.00    -0.000 C 
BRANCH  15  16
ATOM     16  C   UNL     1       2.341   5.509  19.352  1.00  0.00    -0.000 C 
BRANCH  16  17
ATOM     17  C   UNL     1       2.659   4.279  18.486  1.00  0.00    -0.003 C 
ATOM     18  C   UNL     1       3.147   3.087  19.309  1.00  0.00     0.004 C 
ENDBRANCH  16  17
ENDBRANCH  15  16
ENDBRANCH  14  15
ENDBRANCH  13  14
ENDBRANCH  12  13
ENDBRANCH  11  12
ENDBRANCH   1  11
TORSDOF 14
ENDMDL
MODEL 2
REMARK VINA RESULT:    -6.161      2.033      4.570
REMARK INTER + INTRA:         -12.477
REMARK INTER:                 -11.135
REMARK INTRA:                  -1.342
REMARK UNBOUND:                -1.274
REMARK SMILES CCCCCCCCCCCCCCCC(=O)[O-]
REMARK SMILES IDX 9 1 10 2 11 3 12 4 13 5 14 6 15 7 16 8 17 9 18 10 8 11 7 12
REMARK SMILES IDX 6 13 5 14 4 15 3 16 2 17 1 18
REMARK H PARENT
REMARK Flexibility Score: inf
ROOT
ATOM      1  C   UNL     1       5.120   5.502  12.875  1.00  0.00     0.000 C 
ENDROOT
BRANCH   1   2
ATOM      2  C   UNL     1       3.798   4.774  13.182  1.00  0.00     0.000 C 
BRANCH   2   3
ATOM      3  C   UNL     1       3.937   3.463  13.977  1.00  0.00     0.000 C 
BRANCH   3   4
ATOM      4  C   UNL     1       4.157   3.691  15.480  1.00  0.00     0.000 C 
BRANCH   4   5
ATOM      5  C   UNL     1       2.827   3.955  16.199  1.00  0.00     0.000 C 
BRANCH   5   6
ATOM      6  C   UNL     1       3.012   4.545  17.610  1.00  0.00     0.006 C 
BRANCH   6   7
ATOM      7  C   UNL     1       2.945   3.499  18.737  1.00  0.00     0.053 C 
BRANCH   7   8
ATOM      8  C   UNL     1       1.653   3.550  19.496  1.00  0.00     0.041 C 
ATOM      9  O   UNL     1       1.443   2.748  20.443  1.00  0.00    -0.550 OA
ATOM     10  O   UNL     1       0.669   4.463  19.136  1.00  0.00    -0.550 OA
ENDBRANCH   7   8
ENDBRANCH   6   7
ENDBRANCH   5   6
ENDBRANCH   4   5
ENDBRANCH   3   4
ENDBRANCH   2   3
ENDBRANCH   1   2
BRANCH   1  11
ATOM     11  C   UNL     1       5.010   7.030  13.009  1.00  0.00     0.000 C 
BRANCH  11  12
ATOM     12  C   UNL     1       6.179   7.646  13.799  1.00  0.00    -0.000 C 
BRANCH  12  13
ATOM     13  C   UNL     1       6.021   7.628  15.334  1.00  0.00    -0.000 C 
BRANCH  13  14
ATOM     14  C   UNL     1       4.579   7.448  15.841  1.00  0.00    -0.000 C 
BRANCH  14  15
ATOM     15  C   UNL     1       4.062   8.667  16.617  1.00  0.00    -0.000 C 
BRANCH  15  16
ATOM     16  C   UNL     1       2.891   8.279  17.532  1.00  0.00    -0.000 C 
BRANCH  16  17
ATOM     17  C   UNL     1       2.528   9.389  18.531  1.00  0.00    -0.003 C 
ATOM     18  C   UNL     1       2.250   8.853  19.935  1.00  0.00     0.004 C 
ENDBRANCH  16  17
ENDBRANCH  15  16
ENDBRANCH  14  15
ENDBRANCH  13  14
ENDBRANCH  12  13
ENDBRANCH  11  12
ENDBRANCH   1  11
TORSDOF 14
ENDMDL
MODEL 3
REMARK VINA RESULT:    -6.048      3.057      5.537
REMARK INTER + INTRA:         -12.271
REMARK INTER:                 -10.983
REMARK INTRA:                  -1.288
REMARK UNBOUND:                -1.274
REMARK SMILES CCCCCCCCCCCCCCCC(=O)[O-]
REMARK SMILES IDX 9 1 10 2 11 3 12 4 13 5 14 6 15 7 16 8 17 9 18 10 8 11 7 12
REMARK SMILES IDX 6 13 5 14 4 15 3 16 2 17 1 18
REMARK H PARENT
REMARK Flexibility Score: inf
ROOT
ATOM      1  C   UNL     1       4.862   5.442  13.813  1.00  0.00     0.000 C 
ENDROOT
BRANCH   1   2
ATOM      2  C   UNL     1       5.271   6.681  12.994  1.00  0.00     0.000 C 
BRANCH   2   3
ATOM      3  C   UNL     1       5.753   7.887  13.821  1.00  0.00     0.000 C 
BRANCH   3   4
ATOM      4  C   UNL     1       5.497   7.724  15.327  1.00  0.00     0.000 C 
BRANCH   4   5
ATOM      5  C   UNL     1       4.467   8.748  15.826  1.00  0.00     0.000 C 
BRANCH   5   6
ATOM      6  C   UNL     1       3.629   8.231  17.010  1.00  0.00     0.006 C 
BRANCH   6   7
ATOM      7  C   UNL     1       2.662   9.276  17.595  1.00  0.00     0.053 C 
BRANCH   7   8
ATOM      8  C   UNL     1       2.887   9.514  19.058  1.00  0.00     0.041 C 
ATOM      9  O   UNL     1       3.723  10.375  19.438  1.00  0.00    -0.550 OA
ATOM     10  O   UNL     1       2.195   8.764  20.001  1.00  0.00    -0.550 OA
ENDBRANCH   7   8
ENDBRANCH   6   7
ENDBRANCH   5   6
ENDBRANCH   4   5
ENDBRANCH   3   4
ENDBRANCH   2   3
ENDBRANCH   1   2
BRANCH   1  11
ATOM     11  C   UNL     1       4.052   4.423  12.996  1.00  0.00     0.000 C 
BRANCH  11  12
ATOM     12  C   UNL     1       4.497   2.969  13.244  1.00  0.00    -0.000 C 
BRANCH  12  13
ATOM     13  C   UNL     1       4.468   2.513  14.717  1.00  0.00    -0.000 C 
BRANCH  13  14
ATOM     14  C   UNL     1       3.074   2.487  15.368  1.00  0.00    -0.000 C 
BRANCH  14  15
ATOM     15  C   UNL     1       3.084   2.979  16.822  1.00  0.00    -0.000 C 
BRANCH  15  16
ATOM     16  C   UNL     1       3.079   4.514  16.882  1.00  0.00    -0.000 C 
BRANCH  16  17
ATOM     17  C   UNL     1       2.494   5.051  18.198  1.00  0.00    -0.003 C 
ATOM     18  C   UNL     1       2.708   4.099  19.374  1.00  0.00     0.004 C 
ENDBRANCH  16  17
ENDBRANCH  15  16
ENDBRANCH  14  15
ENDBRANCH  13  14
ENDBRANCH  12  13
ENDBRANCH  11  12
ENDBRANCH   1  11
TORSDOF 14
ENDMDL
MODEL 4
REMARK VINA RESULT:    -5.946      3.146      6.988
REMARK INTER + INTRA:         -12.086
REMARK INTER:                 -10.852
REMARK INTRA:                  -1.234
REMARK UNBOUND:                -1.274
REMARK SMILES CCCCCCCCCCCCCCCC(=O)[O-]
REMARK SMILES IDX 9 1 10 2 11 3 12 4 13 5 14 6 15 7 16 8 17 9 18 10 8 11 7 12
REMARK SMILES IDX 6 13 5 14 4 15 3 16 2 17 1 18
REMARK H PARENT
REMARK Flexibility Score: inf
ROOT
ATOM      1  C   UNL     1       3.587   2.292  16.501  1.00  0.00     0.000 C 
ENDROOT
BRANCH   1   2
ATOM      2  C   UNL     1       3.047   3.479  17.321  1.00  0.00     0.000 C 
BRANCH   2   3
ATOM      3  C   UNL     1       3.101   3.302  18.850  1.00  0.00     0.000 C 
BRANCH   3   4
ATOM      4  C   UNL     1       2.753   4.586  19.617  1.00  0.00     0.000 C 
BRANCH   4   5
ATOM      5  C   UNL     1       2.102   5.623  18.691  1.00  0.00     0.000 C 
BRANCH   5   6
ATOM      6  C   UNL     1       2.196   7.060  19.237  1.00  0.00     0.006 C 
BRANCH   6   7
ATOM      7  C   UNL     1       2.630   8.100  18.189  1.00  0.00     0.053 C 
BRANCH   7   8
ATOM      8  C   UNL     1       2.511   9.508  18.689  1.00  0.00     0.041 C 
ATOM      9  O   UNL     1       1.527  10.218  18.355  1.00  0.00    -0.550 OA
ATOM     10  O   UNL     1       3.503  10.047  19.500  1.00  0.00    -0.550 OA
ENDBRANCH   7   8
ENDBRANCH   6   7
ENDBRANCH   5   6
ENDBRANCH   4   5
ENDBRANCH   3   4
ENDBRANCH   2   3
ENDBRANCH   1   2
BRANCH   1  11
ATOM     11  C   UNL     1       2.995   2.221  15.084  1.00  0.00     0.000 C 
BRANCH  11  12
ATOM     12  C   UNL     1       4.049   1.896  14.011  1.00  0.00    -0.000 C 
BRANCH  12  13
ATOM     13  C   UNL     1       4.615   3.113  13.251  1.00  0.00    -0.000 C 
BRANCH  13  14
ATOM     14  C   UNL     1       3.851   4.432  13.466  1.00  0.00    -0.000 C 
BRANCH  14  15
ATOM     15  C   UNL     1       4.781   5.645  13.607  1.00  0.00    -0.000 C 
BRANCH  15  16
ATOM     16  C   UNL     1       4.822   6.140  15.060  1.00  0.00    -0.000 C 
BRANCH  16  17
ATOM     17  C   UNL     1       5.014   7.662  15.161  1.00  0.00    -0.003 C 
ATOM     18  C   UNL     1       5.586   8.272  13.882  1.00  0.00     0.004 C 
ENDBRANCH  16  17
ENDBRANCH  15  16
ENDBRANCH  14  15
ENDBRANCH  13  14
ENDBRANCH  12  13
ENDBRANCH  11  12
ENDBRANCH   1  11
TORSDOF 14
ENDMDL
MODEL 5
REMARK VINA RESULT:    -5.824      2.034      4.618
REMARK INTER + INTRA:         -11.865
REMARK INTER:                 -10.537
REMARK INTRA:                  -1.328
REMARK UNBOUND:                -1.274
REMARK SMILES CCCCCCCCCCCCCCCC(=O)[O-]
REMARK SMILES IDX 9 1 10 2 11 3 12 4 13 5 14 6 15 7 16 8 17 9 18 10 8 11 7 12
REMARK SMILES IDX 6 13 5 14 4 15 3 16 2 17 1 18
REMARK H PARENT
REMARK Flexibility Score: inf
ROOT
ATOM      1  C   UNL     1       2.543   5.082  19.369  1.00  0.00     0.000 C 
ENDROOT
BRANCH   1   2
ATOM      2  C   UNL     1       2.993   3.862  18.543  1.00  0.00     0.000 C 
BRANCH   2   3
ATOM      3  C   UNL     1       2.989   4.063  17.017  1.00  0.00     0.000 C 
BRANCH   3   4
ATOM      4  C   UNL     1       3.087   2.744  16.236  1.00  0.00     0.000 C 
BRANCH   4   5
ATOM      5  C   UNL     1       4.463   2.598  15.570  1.00  0.00     0.000 C 
BRANCH   5   6
ATOM      6  C   UNL     1       5.208   1.321  16.003  1.00  0.00     0.006 C 
BRANCH   6   7
ATOM      7  C   UNL     1       4.890   0.868  17.439  1.00  0.00     0.053 C 
BRANCH   7   8
ATOM      8  C   UNL     1       4.966  -0.620  17.604  1.00  0.00     0.041 C 
ATOM      9  O   UNL     1       4.266  -1.374  16.880  1.00  0.00    -0.550 OA
ATOM     10  O   UNL     1       5.787  -1.172  18.580  1.00  0.00    -0.550 OA
ENDBRANCH   7   8
ENDBRANCH   6   7
ENDBRANCH   5   6
ENDBRANCH   4   5
ENDBRANCH   3   4
ENDBRANCH   2   3
ENDBRANCH   1   2
BRANCH   1  11
ATOM     11  C   UNL     1       1.872   6.171  18.516  1.00  0.00     0.000 C 
BRANCH  11  12
ATOM     12  C   UNL     1       2.256   7.596  18.956  1.00  0.00    -0.000 C 
BRANCH  12  13
ATOM     13  C   UNL     1       2.881   8.480  17.857  1.00  0.00    -0.000 C 
BRANCH  13  14
ATOM     14  C   UNL     1       3.744   7.730  16.826  1.00  0.00    -0.000 C 
BRANCH  14  15
ATOM     15  C   UNL     1       4.436   8.670  15.830  1.00  0.00    -0.000 C 
BRANCH  15  16
ATOM     16  C   UNL     1       5.433   7.901  14.950  1.00  0.00    -0.000 C 
BRANCH  16  17
ATOM     17  C   UNL     1       5.028   6.433  14.744  1.00  0.00    -0.003 C 
ATOM     18  C   UNL     1       5.035   6.018  13.273  1.00  0.00     0.004 C 
ENDBRANCH  16  17
ENDBRANCH  15  16
ENDBRANCH  14  15
ENDBRANCH  13  14
ENDBRANCH  12  13
ENDBRANCH  11  12
ENDBRANCH   1  11
TORSDOF 14
ENDMDL
MODEL 6
REMARK VINA RESULT:    -5.821      1.232      2.207
REMARK INTER + INTRA:         -11.859
REMARK INTER:                 -10.439
REMARK INTRA:                  -1.420
REMARK UNBOUND:                -1.274
REMARK SMILES CCCCCCCCCCCCCCCC(=O)[O-]
REMARK SMILES IDX 9 1 10 2 11 3 12 4 13 5 14 6 15 7 16 8 17 9 18 10 8 11 7 12
REMARK SMILES IDX 6 13 5 14 4 15 3 16 2 17 1 18
REMARK H PARENT
REMARK Flexibility Score: inf
ROOT
ATOM      1  C   UNL     1       5.754   7.165  14.798  1.00  0.00     0.000 C 
ENDROOT
BRANCH   1   2
ATOM      2  C   UNL     1       5.508   6.434  13.465  1.00  0.00     0.000 C 
BRANCH   2   3
ATOM      3  C   UNL     1       4.507   5.266  13.531  1.00  0.00     0.000 C 
BRANCH   3   4
ATOM      4  C   UNL     1       4.150   4.860  14.968  1.00  0.00     0.000 C 
BRANCH   4   5
ATOM      5  C   UNL     1       3.167   3.681  14.981  1.00  0.00     0.000 C 
BRANCH   5   6
ATOM      6  C   UNL     1       3.806   2.359  14.514  1.00  0.00     0.006 C 
BRANCH   6   7
ATOM      7  C   UNL     1       5.013   1.916  15.360  1.00  0.00     0.053 C 
BRANCH   7   8
ATOM      8  C   UNL     1       4.651   0.888  16.389  1.00  0.00     0.041 C 
ATOM      9  O   UNL     1       5.251   0.860  17.495  1.00  0.00    -0.550 OA
ATOM     10  O   UNL     1       3.671  -0.058  16.115  1.00  0.00    -0.550 OA
ENDBRANCH   7   8
ENDBRANCH   6   7
ENDBRANCH   5   6
ENDBRANCH   4   5
ENDBRANCH   3   4
ENDBRANCH   2   3
ENDBRANCH   1   2
BRANCH   1  11
ATOM     11  C   UNL     1       4.902   8.435  14.954  1.00  0.00     0.000 C 
BRANCH  11  12
ATOM     12  C   UNL     1       4.525   8.727  16.418  1.00  0.00    -0.000 C 
BRANCH  12  13
ATOM     13  C   UNL     1       3.386   7.860  16.992  1.00  0.00    -0.000 C 
BRANCH  13  14
ATOM     14  C   UNL     1       2.679   8.443  18.229  1.00  0.00    -0.000 C 
BRANCH  14  15
ATOM     15  C   UNL     1       2.159   7.360  19.185  1.00  0.00    -0.000 C 
BRANCH  15  16
ATOM     16  C   UNL     1       2.244   5.970  18.538  1.00  0.00    -0.000 C 
BRANCH  16  17
ATOM     17  C   UNL     1       2.617   4.871  19.545  1.00  0.00    -0.003 C 
ATOM     18  C   UNL     1       2.981   3.549  18.871  1.00  0.00     0.004 C 
ENDBRANCH  16  17
ENDBRANCH  15  16
ENDBRANCH  14  15
ENDBRANCH  13  14
ENDBRANCH  12  13
ENDBRANCH  11  12
ENDBRANCH   1  11
TORSDOF 14
ENDMDL
MODEL 7
REMARK VINA RESULT:    -5.706      1.179      4.200
REMARK INTER + INTRA:         -11.649
REMARK INTER:                 -10.425
REMARK INTRA:                  -1.224
REMARK UNBOUND:                -1.274
REMARK SMILES CCCCCCCCCCCCCCCC(=O)[O-]
REMARK SMILES IDX 9 1 10 2 11 3 12 4 13 5 14 6 15 7 16 8 17 9 18 10 8 11 7 12
REMARK SMILES IDX 6 13 5 14 4 15 3 16 2 17 1 18
REMARK H PARENT
REMARK Flexibility Score: inf
ROOT
ATOM      1  C   UNL     1       2.399   5.614  19.551  1.00  0.00     0.000 C 
ENDROOT
BRANCH   1   2
ATOM      2  C   UNL     1       2.019   4.309  18.826  1.00  0.00     0.000 C 
BRANCH   2   3
ATOM      3  C   UNL     1       3.027   3.826  17.768  1.00  0.00     0.000 C 
BRANCH   3   4
ATOM      4  C   UNL     1       2.946   4.618  16.455  1.00  0.00     0.000 C 
BRANCH   4   5
ATOM      5  C   UNL     1       4.111   4.261  15.522  1.00  0.00     0.000 C 
BRANCH   5   6
ATOM      6  C   UNL     1       3.666   3.470  14.277  1.00  0.00     0.006 C 
BRANCH   6   7
ATOM      7  C   UNL     1       4.359   2.105  14.124  1.00  0.00     0.053 C 
BRANCH   7   8
ATOM      8  C   UNL     1       3.557   0.982  14.708  1.00  0.00     0.041 C 
ATOM      9  O   UNL     1       3.979  -0.202  14.637  1.00  0.00    -0.550 OA
ATOM     10  O   UNL     1       2.328   1.239  15.304  1.00  0.00    -0.550 OA
ENDBRANCH   7   8
ENDBRANCH   6   7
ENDBRANCH   5   6
ENDBRANCH   4   5
ENDBRANCH   3   4
ENDBRANCH   2   3
ENDBRANCH   1   2
BRANCH   1  11
ATOM     11  C   UNL     1       1.919   6.874  18.812  1.00  0.00     0.000 C 
BRANCH  11  12
ATOM     12  C   UNL     1       2.217   8.171  19.585  1.00  0.00    -0.000 C 
BRANCH  12  13
ATOM     13  C   UNL     1       2.781   9.330  18.738  1.00  0.00    -0.000 C 
BRANCH  13  14
ATOM     14  C   UNL     1       3.019   9.000  17.253  1.00  0.00    -0.000 C 
BRANCH  14  15
ATOM     15  C   UNL     1       4.489   8.691  16.938  1.00  0.00    -0.000 C 
BRANCH  15  16
ATOM     16  C   UNL     1       4.620   7.950  15.600  1.00  0.00    -0.000 C 
BRANCH  16  17
ATOM     17  C   UNL     1       6.069   7.543  15.289  1.00  0.00    -0.003 C 
ATOM     18  C   UNL     1       6.363   7.501  13.789  1.00  0.00     0.004 C 
ENDBRANCH  16  17
ENDBRANCH  15  16
ENDBRANCH  14  15
ENDBRANCH  13  14
ENDBRANCH  12  13
ENDBRANCH  11  12
ENDBRANCH   1  11
TORSDOF 14
ENDMDL
MODEL 8
REMARK VINA RESULT:    -5.669      2.483      5.150
REMARK INTER + INTRA:         -11.583
REMARK INTER:                 -10.543
REMARK INTRA:                  -1.039
REMARK UNBOUND:                -1.274
REMARK SMILES CCCCCCCCCCCCCCCC(=O)[O-]
REMARK SMILES IDX 9 1 10 2 11 3 12 4 13 5 14 6 15 7 16 8 17 9 18 10 8 11 7 12
REMARK SMILES IDX 6 13 5 14 4 15 3 16 2 17 1 18
REMARK H PARENT
REMARK Flexibility Score: inf
ROOT
ATOM      1  C   UNL     1       4.741   1.133  16.633  1.00  0.00     0.000 C 
ENDROOT
BRANCH   1   2
ATOM      2  C   UNL     1       5.056   1.405  15.150  1.00  0.00     0.000 C 
BRANCH   2   3
ATOM      3  C   UNL     1       3.881   1.949  14.317  1.00  0.00     0.000 C 
BRANCH   3   4
ATOM      4  C   UNL     1       4.186   3.302  13.659  1.00  0.00     0.000 C 
BRANCH   4   5
ATOM      5  C   UNL     1       3.505   4.451  14.416  1.00  0.00     0.000 C 
BRANCH   5   6
ATOM      6  C   UNL     1       4.501   5.508  14.928  1.00  0.00     0.006 C 
BRANCH   6   7
ATOM      7  C   UNL     1       5.158   6.340  13.812  1.00  0.00     0.053 C 
BRANCH   7   8
ATOM      8  C   UNL     1       5.615   7.686  14.289  1.00  0.00     0.041 C 
ATOM      9  O   UNL     1       4.952   8.308  15.160  1.00  0.00    -0.550 OA
ATOM     10  O   UNL     1       6.755   8.268  13.748  1.00  0.00    -0.550 OA
ENDBRANCH   7   8
ENDBRANCH   6   7
ENDBRANCH   5   6
ENDBRANCH   4   5
ENDBRANCH   3   4
ENDBRANCH   2   3
ENDBRANCH   1   2
BRANCH   1  11
ATOM     11  C   UNL     1       3.828   2.200  17.259  1.00  0.00     0.000 C 
BRANCH  11  12
ATOM     12  C   UNL     1       3.757   2.102  18.794  1.00  0.00    -0.000 C 
BRANCH  12  13
ATOM     13  C   UNL     1       3.000   3.248  19.495  1.00  0.00    -0.000 C 
BRANCH  13  14
ATOM     14  C   UNL     1       2.667   4.456  18.600  1.00  0.00    -0.000 C 
BRANCH  14  15
ATOM     15  C   UNL     1       2.241   5.694  19.401  1.00  0.00    -0.000 C 
BRANCH  15  16
ATOM     16  C   UNL     1       2.251   6.950  18.518  1.00  0.00    -0.000 C 
BRANCH  16  17
ATOM     17  C   UNL     1       2.245   8.250  19.338  1.00  0.00    -0.003 C 
ATOM     18  C   UNL     1       2.570   9.483  18.495  1.00  0.00     0.004 C 
ENDBRANCH  16  17
ENDBRANCH  15  16
ENDBRANCH  14  15
ENDBRANCH  13  14
ENDBRANCH  12  13
ENDBRANCH  11  12
ENDBRANCH   1  11
TORSDOF 14
ENDMDL
MODEL 9
REMARK VINA RESULT:    -5.659      1.737      5.062
REMARK INTER + INTRA:         -11.564
REMARK INTER:                 -10.589
REMARK INTRA:                  -0.975
REMARK UNBOUND:                -1.274
REMARK SMILES CCCCCCCCCCCCCCCC(=O)[O-]
REMARK SMILES IDX 9 1 10 2 11 3 12 4 13 5 14 6 15 7 16 8 17 9 18 10 8 11 7 12
REMARK SMILES IDX 6 13 5 14 4 15 3 16 2 17 1 18
REMARK H PARENT
REMARK Flexibility Score: inf
ROOT
ATOM      1  C   UNL     1       5.675   7.692  15.082  1.00  0.00     0.000 C 
ENDROOT
BRANCH   1   2
ATOM      2  C   UNL     1       4.532   8.482  15.747  1.00  0.00     0.000 C 
BRANCH   2   3
ATOM      3  C   UNL     1       3.802   7.748  16.887  1.00  0.00     0.000 C 
BRANCH   3   4
ATOM      4  C   UNL     1       2.988   8.692  17.784  1.00  0.00     0.000 C 
BRANCH   4   5
ATOM      5  C   UNL     1       2.216   7.907  18.855  1.00  0.00     0.000 C 
BRANCH   5   6
ATOM      6  C   UNL     1       2.064   6.413  18.513  1.00  0.00     0.006 C 
BRANCH   6   7
ATOM      7  C   UNL     1       2.572   5.465  19.615  1.00  0.00     0.053 C 
BRANCH   7   8
ATOM      8  C   UNL     1       2.304   4.024  19.304  1.00  0.00     0.041 C 
ATOM      9  O   UNL     1       1.146   3.551  19.443  1.00  0.00    -0.550 OA
ATOM     10  O   UNL     1       3.340   3.194  18.892  1.00  0.00    -0.550 OA
ENDBRANCH   7   8
ENDBRANCH   6   7
ENDBRANCH   5   6
ENDBRANCH   4   5
ENDBRANCH   3   4
ENDBRANCH   2   3
ENDBRANCH   1   2
BRANCH   1  11
ATOM     11  C   UNL     1       5.653   7.779  13.547  1.00  0.00     0.000 C 
BRANCH  11  12
ATOM     12  C   UNL     1       5.340   6.430  12.875  1.00  0.00    -0.000 C 
BRANCH  12  13
ATOM     13  C   UNL     1       4.544   5.431  13.740  1.00  0.00    -0.000 C 
BRANCH  13  14
ATOM     14  C   UNL     1       4.390   4.022  13.138  1.00  0.00    -0.000 C 
BRANCH  14  15
ATOM     15  C   UNL     1       4.319   2.921  14.206  1.00  0.00    -0.000 C 
BRANCH  15  16
ATOM     16  C   UNL     1       3.193   3.203  15.211  1.00  0.00    -0.000 C 
BRANCH  16  17
ATOM     17  C   UNL     1       2.612   1.918  15.822  1.00  0.00    -0.003 C 
ATOM     18  C   UNL     1       2.640   0.736  14.853  1.00  0.00     0.004 C 
ENDBRANCH  16  17
ENDBRANCH  15  16
ENDBRANCH  14  15
ENDBRANCH  13  14
ENDBRANCH  12  13
ENDBRANCH  11  12
ENDBRANCH   1  11
TORSDOF 14
ENDMDL
