MODEL 1
REMARK VINA RESULT:    -3.325      0.000      0.000
REMARK INTER + INTRA:          -4.049
REMARK INTER:                  -3.908
REMARK INTRA:                  -0.141
REMARK UNBOUND:                -0.141
REMARK SMILES O=C([O-])C=Cc1ccc(O)c(O)c1
REMARK SMILES IDX 6 1 13 2 7 3 11 4 8 5 9 6 5 7 4 8 2 9 1 10 3 11 12 12 10 14
REMARK H PARENT 12 13 10 15
REMARK Flexibility Score: inf
ROOT
ATOM      1  C   UNL     1       8.371  17.714  38.785  1.00  0.00    -0.022 A 
ATOM      2  C   UNL     1       8.639  18.220  37.503  1.00  0.00     0.058 A 
ATOM      3  C   UNL     1       8.502  16.330  39.011  1.00  0.00     0.012 A 
ATOM      4  C   UNL     1       9.005  17.365  36.456  1.00  0.00     0.157 A 
ATOM      5  C   UNL     1       8.867  15.475  37.967  1.00  0.00     0.051 A 
ATOM      6  C   UNL     1       9.117  15.986  36.688  1.00  0.00     0.157 A 
ENDROOT
BRANCH   1   7
ATOM      7  C   UNL     1       7.998  18.667  39.860  1.00  0.00     0.010 C 
ATOM      8  C   UNL     1       7.615  18.290  41.089  1.00  0.00     0.025 C 
BRANCH   8   9
ATOM      9  C   UNL     1       7.242  19.270  42.121  1.00  0.00     0.064 C 
ATOM     10  O   UNL     1       7.747  20.422  42.095  1.00  0.00    -0.545 OA
ATOM     11  O   UNL     1       6.336  18.945  43.125  1.00  0.00    -0.545 OA
ENDBRANCH   8   9
ENDBRANCH   1   7
BRANCH   4  12
ATOM     12  O   UNL     1       9.252  17.907  35.194  1.00  0.00    -0.504 OA
ATOM     13  H   UNL     1       9.723  17.383  34.466  1.00  0.00     0.293 HD
ENDBRANCH   4  12
BRANCH   6  14
ATOM     14  O   UNL     1       9.479  15.129  35.649  1.00  0.00    -0.504 OA
ATOM     15  H   UNL     1      10.195  15.380  34.979  1.00  0.00     0.293 HD
ENDBRANCH   6  14
TORSDOF 4
ENDMDL
MODEL 2
REMARK VINA RESULT:    -3.205      1.173      6.103
REMARK INTER + INTRA:          -3.908
REMARK INTER:                  -3.767
REMARK INTRA:                  -0.141
REMARK UNBOUND:                -0.141
REMARK SMILES O=C([O-])C=Cc1ccc(O)c(O)c1
REMARK SMILES IDX 6 1 13 2 7 3 11 4 8 5 9 6 5 7 4 8 2 9 1 10 3 11 12 12 10 14
REMARK H PARENT 12 13 10 15
REMARK Flexibility Score: inf
ROOT
ATOM      1  C   UNL     1       8.138  17.506  39.547  1.00  0.00    -0.022 A 
ATOM      2  C   UNL     1       8.144  16.792  40.755  1.00  0.00     0.058 A 
ATOM      3  C   UNL     1       7.725  18.853  39.555  1.00  0.00     0.012 A 
ATOM      4  C   UNL     1       7.723  17.394  41.947  1.00  0.00     0.157 A 
ATOM      5  C   UNL     1       7.305  19.456  40.743  1.00  0.00     0.051 A 
ATOM      6  C   UNL     1       7.300  18.732  41.942  1.00  0.00     0.157 A 
ENDROOT
BRANCH   1   7
ATOM      7  C   UNL     1       8.603  16.821  38.315  1.00  0.00     0.010 C 
ATOM      8  C   UNL     1       8.470  17.333  37.083  1.00  0.00     0.025 C 
BRANCH   8   9
ATOM      9  C   UNL     1       8.936  16.612  35.888  1.00  0.00     0.064 C 
ATOM     10  O   UNL     1       9.069  15.362  35.929  1.00  0.00    -0.545 OA
ATOM     11  O   UNL     1       9.231  17.291  34.710  1.00  0.00    -0.545 OA
ENDBRANCH   8   9
ENDBRANCH   1   7
BRANCH   4  12
ATOM     12  O   UNL     1       7.735  16.646  43.125  1.00  0.00    -0.504 OA
ATOM     13  H   UNL     1       8.326  16.889  43.911  1.00  0.00     0.293 HD
ENDBRANCH   4  12
BRANCH   6  14
ATOM     14  O   UNL     1       6.878  19.338  43.125  1.00  0.00    -0.504 OA
ATOM     15  H   UNL     1       6.040  19.035  43.606  1.00  0.00     0.293 HD
ENDBRANCH   6  14
TORSDOF 4
ENDMDL
MODEL 3
REMARK VINA RESULT:    -2.956      2.101      5.950
REMARK INTER + INTRA:          -3.616
REMARK INTER:                  -3.487
REMARK INTRA:                  -0.129
REMARK UNBOUND:                -0.141
REMARK SMILES O=C([O-])C=Cc1ccc(O)c(O)c1
REMARK SMILES IDX 6 1 13 2 7 3 11 4 8 5 9 6 5 7 4 8 2 9 1 10 3 11 12 12 10 14
REMARK H PARENT 12 13 10 15
REMARK Flexibility Score: inf
ROOT
ATOM      1  C   UNL     1       8.642  17.272  37.923  1.00  0.00    -0.022 A 
ATOM      2  C   UNL     1       8.904  16.081  38.619  1.00  0.00     0.058 A 
ATOM      3  C   UNL     1       8.101  18.366  38.627  1.00  0.00     0.012 A 
ATOM      4  C   UNL     1       8.611  15.967  39.983  1.00  0.00     0.157 A 
ATOM      5  C   UNL     1       7.809  18.255  39.989  1.00  0.00     0.051 A 
ATOM      6  C   UNL     1       8.059  17.059  40.672  1.00  0.00     0.157 A 
ENDROOT
BRANCH   1   7
ATOM      7  C   UNL     1       8.980  17.340  36.479  1.00  0.00     0.010 C 
ATOM      8  C   UNL     1       8.461  16.522  35.553  1.00  0.00     0.025 C 
BRANCH   8   9
ATOM      9  C   UNL     1       8.835  16.619  34.133  1.00  0.00     0.064 C 
ATOM     10  O   UNL     1       9.970  17.064  33.819  1.00  0.00    -0.545 OA
ATOM     11  O   UNL     1       7.956  16.223  33.131  1.00  0.00    -0.545 OA
ENDBRANCH   8   9
ENDBRANCH   1   7
BRANCH   4  12
ATOM     12  O   UNL     1       8.877  14.763  40.635  1.00  0.00    -0.504 OA
ATOM     13  H   UNL     1       8.682  13.865  40.207  1.00  0.00     0.293 HD
ENDBRANCH   4  12
BRANCH   6  14
ATOM     14  O   UNL     1       7.764  16.952  42.030  1.00  0.00    -0.504 OA
ATOM     15  H   UNL     1       8.263  17.493  42.725  1.00  0.00     0.293 HD
ENDBRANCH   6  14
TORSDOF 4
ENDMDL
MODEL 4
REMARK VINA RESULT:    -2.706      1.738      5.815
REMARK INTER + INTRA:          -3.322
REMARK INTER:                  -3.187
REMARK INTRA:                  -0.135
REMARK UNBOUND:                -0.141
REMARK SMILES O=C([O-])C=Cc1ccc(O)c(O)c1
REMARK SMILES IDX 6 1 13 2 7 3 11 4 8 5 9 6 5 7 4 8 2 9 1 10 3 11 12 12 10 14
REMARK H PARENT 12 13 10 15
REMARK Flexibility Score: inf
ROOT
ATOM      1  C   UNL     1       8.751  17.061  37.891  1.00  0.00    -0.022 A 
ATOM      2  C   UNL     1       8.203  18.141  38.603  1.00  0.00     0.058 A 
ATOM      3  C   UNL     1       8.969  15.843  38.564  1.00  0.00     0.012 A 
ATOM      4  C   UNL     1       7.901  18.023  39.965  1.00  0.00     0.157 A 
ATOM      5  C   UNL     1       8.667  15.723  39.924  1.00  0.00     0.051 A 
ATOM      6  C   UNL     1       8.136  16.809  40.630  1.00  0.00     0.157 A 
ENDROOT
BRANCH   1   7
ATOM      7  C   UNL     1       9.043  17.239  36.447  1.00  0.00     0.010 C 
ATOM      8  C   UNL     1       8.551  16.445  35.485  1.00  0.00     0.025 C 
BRANCH   8   9
ATOM      9  C   UNL     1       8.877  16.652  34.065  1.00  0.00     0.064 C 
ATOM     10  O   UNL     1       9.955  17.221  33.752  1.00  0.00    -0.545 OA
ATOM     11  O   UNL     1       8.014  16.225  33.061  1.00  0.00    -0.545 OA
ENDBRANCH   8   9
ENDBRANCH   1   7
BRANCH   4  12
ATOM     12  O   UNL     1       7.368  19.123  40.638  1.00  0.00    -0.504 OA
ATOM     13  H   UNL     1       7.647  19.363  41.582  1.00  0.00     0.293 HD
ENDBRANCH   4  12
BRANCH   6  14
ATOM     14  O   UNL     1       7.839  16.685  41.987  1.00  0.00    -0.504 OA
ATOM     15  H   UNL     1       6.930  16.937  42.356  1.00  0.00     0.293 HD
ENDBRANCH   6  14
TORSDOF 4
ENDMDL
MODEL 5
REMARK VINA RESULT:    -2.686      1.011      2.146
REMARK INTER + INTRA:          -3.299
REMARK INTER:                  -3.167
REMARK INTRA:                  -0.132
REMARK UNBOUND:                -0.141
REMARK SMILES O=C([O-])C=Cc1ccc(O)c(O)c1
REMARK SMILES IDX 6 1 13 2 7 3 11 4 8 5 9 6 5 7 4 8 2 9 1 10 3 11 12 12 10 14
REMARK H PARENT 12 13 10 15
REMARK Flexibility Score: inf
ROOT
ATOM      1  C   UNL     1       8.127  18.067  39.072  1.00  0.00    -0.022 A 
ATOM      2  C   UNL     1       8.481  16.741  39.368  1.00  0.00     0.058 A 
ATOM      3  C   UNL     1       8.119  18.485  37.726  1.00  0.00     0.012 A 
ATOM      4  C   UNL     1       8.846  15.851  38.350  1.00  0.00     0.157 A 
ATOM      5  C   UNL     1       8.484  17.598  36.709  1.00  0.00     0.051 A 
ATOM      6  C   UNL     1       8.850  16.282  37.014  1.00  0.00     0.157 A 
ENDROOT
BRANCH   1   7
ATOM      7  C   UNL     1       7.738  18.964  40.188  1.00  0.00     0.010 C 
ATOM      8  C   UNL     1       7.334  18.527  41.389  1.00  0.00     0.025 C 
BRANCH   8   9
ATOM      9  C   UNL     1       6.947  19.454  42.464  1.00  0.00     0.064 C 
ATOM     10  O   UNL     1       5.898  19.236  43.124  1.00  0.00    -0.545 OA
ATOM     11  O   UNL     1       7.724  20.568  42.765  1.00  0.00    -0.545 OA
ENDBRANCH   8   9
ENDBRANCH   1   7
BRANCH   4  12
ATOM     12  O   UNL     1       9.202  14.545  38.688  1.00  0.00    -0.504 OA
ATOM     13  H   UNL     1       9.213  13.797  38.005  1.00  0.00     0.293 HD
ENDBRANCH   4  12
BRANCH   6  14
ATOM     14  O   UNL     1       9.214  15.401  35.996  1.00  0.00    -0.504 OA
ATOM     15  H   UNL     1       9.152  14.398  36.115  1.00  0.00     0.293 HD
ENDBRANCH   6  14
TORSDOF 4
ENDMDL
MODEL 6
REMARK VINA RESULT:    -2.665      0.891      2.035
REMARK INTER + INTRA:          -3.273
REMARK INTER:                  -3.131
REMARK INTRA:                  -0.142
REMARK UNBOUND:                -0.141
REMARK SMILES O=C([O-])C=Cc1ccc(O)c(O)c1
REMARK SMILES IDX 6 1 13 2 7 3 11 4 8 5 9 6 5 7 4 8 2 9 1 10 3 11 12 12 10 14
REMARK H PARENT 12 13 10 15
REMARK Flexibility Score: inf
ROOT
ATOM      1  C   UNL     1       8.450  17.389  38.591  1.00  0.00    -0.022 A 
ATOM      2  C   UNL     1       8.390  16.050  38.172  1.00  0.00     0.058 A 
ATOM      3  C   UNL     1       8.771  18.383  37.646  1.00  0.00     0.012 A 
ATOM      4  C   UNL     1       8.668  15.699  36.846  1.00  0.00     0.157 A 
ATOM      5  C   UNL     1       9.048  18.035  36.321  1.00  0.00     0.051 A 
ATOM      6  C   UNL     1       9.000  16.696  35.915  1.00  0.00     0.157 A 
ENDROOT
BRANCH   1   7
ATOM      7  C   UNL     1       8.137  17.705  40.007  1.00  0.00     0.010 C 
ATOM      8  C   UNL     1       7.751  18.916  40.432  1.00  0.00     0.025 C 
BRANCH   8   9
ATOM      9  C   UNL     1       7.461  19.187  41.849  1.00  0.00     0.064 C 
ATOM     10  O   UNL     1       7.228  18.227  42.629  1.00  0.00    -0.545 OA
ATOM     11  O   UNL     1       7.444  20.487  42.342  1.00  0.00    -0.545 OA
ENDBRANCH   8   9
ENDBRANCH   1   7
BRANCH   4  12
ATOM     12  O   UNL     1       8.607  14.356  36.473  1.00  0.00    -0.504 OA
ATOM     13  H   UNL     1       8.478  14.071  35.510  1.00  0.00     0.293 HD
ENDBRANCH   4  12
BRANCH   6  14
ATOM     14  O   UNL     1       9.279  16.354  34.593  1.00  0.00    -0.504 OA
ATOM     15  H   UNL     1       8.957  16.922  33.819  1.00  0.00     0.293 HD
ENDBRANCH   6  14
TORSDOF 4
ENDMDL
MODEL 7
REMARK VINA RESULT:    -1.926     22.079     24.517
REMARK INTER + INTRA:          -2.405
REMARK INTER:                  -2.275
REMARK INTRA:                  -0.130
REMARK UNBOUND:                -0.141
REMARK SMILES O=C([O-])C=Cc1ccc(O)c(O)c1
REMARK SMILES IDX 6 1 13 2 7 3 11 4 8 5 9 6 5 7 4 8 2 9 1 10 3 11 12 12 10 14
REMARK H PARENT 12 13 10 15
REMARK Flexibility Score: inf
ROOT
ATOM      1  C   UNL     1      25.395   4.840  27.259  1.00  0.00    -0.022 A 
ATOM      2  C   UNL     1      24.640   5.817  27.928  1.00  0.00     0.058 A 
ATOM      3  C   UNL     1      26.125   3.905  28.020  1.00  0.00     0.012 A 
ATOM      4  C   UNL     1      24.630   5.883  29.327  1.00  0.00     0.157 A 
ATOM      5  C   UNL     1      26.116   3.970  29.416  1.00  0.00     0.051 A 
ATOM      6  C   UNL     1      25.373   4.957  30.075  1.00  0.00     0.157 A 
ENDROOT
BRANCH   1   7
ATOM      7  C   UNL     1      25.361   4.809  25.776  1.00  0.00     0.010 C 
ATOM      8  C   UNL     1      24.257   5.036  25.051  1.00  0.00     0.025 C 
BRANCH   8   9
ATOM      9  C   UNL     1      24.268   4.983  23.581  1.00  0.00     0.064 C 
ATOM     10  O   UNL     1      24.998   5.781  22.936  1.00  0.00    -0.545 OA
ATOM     11  O   UNL     1      23.487   4.063  22.889  1.00  0.00    -0.545 OA
ENDBRANCH   8   9
ENDBRANCH   1   7
BRANCH   4  12
ATOM     12  O   UNL     1      23.875   6.876  29.952  1.00  0.00    -0.504 OA
ATOM     13  H   UNL     1      23.142   6.657  30.616  1.00  0.00     0.293 HD
ENDBRANCH   4  12
BRANCH   6  14
ATOM     14  O   UNL     1      25.368   5.019  31.468  1.00  0.00    -0.504 OA
ATOM     15  H   UNL     1      25.424   4.182  32.036  1.00  0.00     0.293 HD
ENDBRANCH   6  14
TORSDOF 4
ENDMDL
MODEL 8
REMARK VINA RESULT:    -1.376     21.728     24.530
REMARK INTER + INTRA:          -1.759
REMARK INTER:                  -1.626
REMARK INTRA:                  -0.133
REMARK UNBOUND:                -0.141
REMARK SMILES O=C([O-])C=Cc1ccc(O)c(O)c1
REMARK SMILES IDX 6 1 13 2 7 3 11 4 8 5 9 6 5 7 4 8 2 9 1 10 3 11 12 12 10 14
REMARK H PARENT 12 13 10 15
REMARK Flexibility Score: inf
ROOT
ATOM      1  C   UNL     1      25.234   5.319  27.518  1.00  0.00    -0.022 A 
ATOM      2  C   UNL     1      25.778   4.478  28.503  1.00  0.00     0.058 A 
ATOM      3  C   UNL     1      24.499   6.451  27.921  1.00  0.00     0.012 A 
ATOM      4  C   UNL     1      25.575   4.741  29.863  1.00  0.00     0.157 A 
ATOM      5  C   UNL     1      24.296   6.715  29.278  1.00  0.00     0.051 A 
ATOM      6  C   UNL     1      24.829   5.864  30.253  1.00  0.00     0.157 A 
ENDROOT
BRANCH   1   7
ATOM      7  C   UNL     1      25.489   4.998  26.091  1.00  0.00     0.010 C 
ATOM      8  C   UNL     1      24.549   5.051  25.137  1.00  0.00     0.025 C 
BRANCH   8   9
ATOM      9  C   UNL     1      24.844   4.714  23.736  1.00  0.00     0.064 C 
ATOM     10  O   UNL     1      23.938   4.229  23.010  1.00  0.00    -0.545 OA
ATOM     11  O   UNL     1      26.109   4.924  23.198  1.00  0.00    -0.545 OA
ENDBRANCH   8   9
ENDBRANCH   1   7
BRANCH   4  12
ATOM     12  O   UNL     1      26.124   3.875  30.809  1.00  0.00    -0.504 OA
ATOM     13  H   UNL     1      26.132   2.871  30.678  1.00  0.00     0.293 HD
ENDBRANCH   4  12
BRANCH   6  14
ATOM     14  O   UNL     1      24.622   6.131  31.606  1.00  0.00    -0.504 OA
ATOM     15  H   UNL     1      23.937   6.811  31.914  1.00  0.00     0.293 HD
ENDBRANCH   6  14
TORSDOF 4
ENDMDL
MODEL 9
REMARK VINA RESULT:    -0.733      1.925      2.437
REMARK INTER + INTRA:          -1.003
REMARK INTER:                  -0.871
REMARK INTRA:                  -0.132
REMARK UNBOUND:                -0.141
REMARK SMILES O=C([O-])C=Cc1ccc(O)c(O)c1
REMARK SMILES IDX 6 1 13 2 7 3 11 4 8 5 9 6 5 7 4 8 2 9 1 10 3 11 12 12 10 14
REMARK H PARENT 12 13 10 15
REMARK Flexibility Score: inf
ROOT
ATOM      1  C   UNL     1       8.311  17.023  36.910  1.00  0.00    -0.022 A 
ATOM      2  C   UNL     1       9.406  17.235  36.058  1.00  0.00     0.058 A 
ATOM      3  C   UNL     1       7.123  16.490  36.371  1.00  0.00     0.012 A 
ATOM      4  C   UNL     1       9.318  16.949  34.690  1.00  0.00     0.157 A 
ATOM      5  C   UNL     1       7.033  16.203  35.007  1.00  0.00     0.051 A 
ATOM      6  C   UNL     1       8.125  16.433  34.161  1.00  0.00     0.157 A 
ENDROOT
BRANCH   1   7
ATOM      7  C   UNL     1       8.463  17.334  38.354  1.00  0.00     0.010 C 
ATOM      8  C   UNL     1       7.690  18.209  39.012  1.00  0.00     0.025 C 
BRANCH   8   9
ATOM      9  C   UNL     1       7.885  18.496  40.442  1.00  0.00     0.064 C 
ATOM     10  O   UNL     1       8.091  19.679  40.816  1.00  0.00    -0.545 OA
ATOM     11  O   UNL     1       7.843  17.479  41.390  1.00  0.00    -0.545 OA
ENDBRANCH   8   9
ENDBRANCH   1   7
BRANCH   4  12
ATOM     12  O   UNL     1      10.426  17.185  33.876  1.00  0.00    -0.504 OA
ATOM     13  H   UNL     1      10.674  18.116  33.562  1.00  0.00     0.293 HD
ENDBRANCH   4  12
BRANCH   6  14
ATOM     14  O   UNL     1       8.030  16.147  32.799  1.00  0.00    -0.504 OA
ATOM     15  H   UNL     1       8.765  15.653  32.308  1.00  0.00     0.293 HD
ENDBRANCH   6  14
TORSDOF 4
ENDMDL
