MODEL 1
REMARK VINA RESULT:    -3.270      0.000      0.000
REMARK INTER + INTRA:         -13.398
REMARK INTER:                  -8.241
REMARK INTRA:                  -5.156
REMARK UNBOUND:                -5.156
REMARK SMILES CCCCCCCCCCCCCCCCCCCCCCCCCCCC(=O)[O-]
REMARK SMILES IDX 15 1 16 2 17 3 18 4 19 5 20 6 21 7 22 8 23 9 24 10 25 11
REMARK SMILES IDX 26 12 27 13 28 14 29 15 30 16 14 17 13 18 12 19 11 20 10 21
REMARK SMILES IDX 9 22 8 23 7 24 6 25 5 26 4 27 3 28 2 29 1 30
REMARK H PARENT
REMARK Flexibility Score: inf
ROOT
ATOM      1  C   UNL     1      57.661  -0.758  93.039  1.00  0.00     0.000 C 
ENDROOT
BRANCH   1   2
ATOM      2  C   UNL     1      58.234   0.522  92.412  1.00  0.00     0.000 C 
BRANCH   2   3
ATOM      3  C   UNL     1      57.220   1.673  92.500  1.00  0.00     0.000 C 
BRANCH   3   4
ATOM      4  C   UNL     1      55.767   1.191  92.367  1.00  0.00     0.000 C 
BRANCH   4   5
ATOM      5  C   UNL     1      54.750   2.229  92.874  1.00  0.00     0.000 C 
BRANCH   5   6
ATOM      6  C   UNL     1      55.253   3.672  92.716  1.00  0.00     0.000 C 
BRANCH   6   7
ATOM      7  C   UNL     1      54.959   4.537  93.955  1.00  0.00     0.000 C 
BRANCH   7   8
ATOM      8  C   UNL     1      56.087   5.534  94.266  1.00  0.00     0.000 C 
BRANCH   8   9
ATOM      9  C   UNL     1      56.834   5.202  95.570  1.00  0.00     0.000 C 
BRANCH   9  10
ATOM     10  C   UNL     1      58.343   5.006  95.347  1.00  0.00     0.000 C 
BRANCH  10  11
ATOM     11  C   UNL     1      59.172   5.349  96.598  1.00  0.00     0.000 C 
BRANCH  11  12
ATOM     12  C   UNL     1      60.340   6.296  96.284  1.00  0.00     0.006 C 
BRANCH  12  13
ATOM     13  C   UNL     1      60.356   6.745  94.817  1.00  0.00     0.053 C 
BRANCH  13  14
ATOM     14  C   UNL     1      60.456   8.235  94.725  1.00  0.00     0.041 C 
ATOM     15  O   UNL     1      60.673   8.789  93.616  1.00  0.00    -0.550 OA
ATOM     16  O   UNL     1      60.278   9.016  95.862  1.00  0.00    -0.550 OA
ENDBRANCH  13  14
ENDBRANCH  12  13
ENDBRANCH  11  12
ENDBRANCH  10  11
ENDBRANCH   9  10
ENDBRANCH   8   9
ENDBRANCH   7   8
ENDBRANCH   6   7
ENDBRANCH   5   6
ENDBRANCH   4   5
ENDBRANCH   3   4
ENDBRANCH   2   3
ENDBRANCH   1   2
BRANCH   1  17
ATOM     17  C   UNL     1      58.741  -1.606  93.731  1.00  0.00     0.000 C 
BRANCH  17  18
ATOM     18  C   UNL     1      60.159  -1.074  93.466  1.00  0.00     0.000 C 
BRANCH  18  19
ATOM     19  C   UNL     1      61.018  -1.016  94.740  1.00  0.00     0.000 C 
BRANCH  19  20
ATOM     20  C   UNL     1      60.200  -0.673  95.994  1.00  0.00     0.000 C 
BRANCH  20  21
ATOM     21  C   UNL     1      60.825   0.506  96.756  1.00  0.00     0.000 C 
BRANCH  21  22
ATOM     22  C   UNL     1      59.818   1.654  96.985  1.00  0.00    -0.000 C 
BRANCH  22  23
ATOM     23  C   UNL     1      58.571   1.571  96.087  1.00  0.00    -0.000 C 
BRANCH  23  24
ATOM     24  C   UNL     1      57.259   1.696  96.875  1.00  0.00    -0.000 C 
BRANCH  24  25
ATOM     25  C   UNL     1      56.015   1.706  95.970  1.00  0.00    -0.000 C 
BRANCH  25  26
ATOM     26  C   UNL     1      54.695   1.460  96.732  1.00  0.00    -0.000 C 
BRANCH  26  27
ATOM     27  C   UNL     1      54.031   0.133  96.328  1.00  0.00    -0.000 C 
BRANCH  27  28
ATOM     28  C   UNL     1      54.985  -0.796  95.559  1.00  0.00    -0.000 C 
BRANCH  28  29
ATOM     29  C   UNL     1      55.362  -2.048  96.365  1.00  0.00    -0.003 C 
ATOM     30  C   UNL     1      56.767  -1.920  96.947  1.00  0.00     0.004 C 
ENDBRANCH  28  29
ENDBRANCH  27  28
ENDBRANCH  26  27
ENDBRANCH  25  26
ENDBRANCH  24  25
ENDBRANCH  23  24
ENDBRANCH  22  23
ENDBRANCH  21  22
ENDBRANCH  20  21
ENDBRANCH  19  20
ENDBRANCH  18  19
ENDBRANCH  17  18
ENDBRANCH   1  17
TORSDOF 26
ENDMDL
MODEL 2
REMARK VINA RESULT:    -3.174      3.770      7.719
REMARK INTER + INTRA:         -13.154
REMARK INTER:                  -8.571
REMARK INTRA:                  -4.583
REMARK UNBOUND:                -5.156
REMARK SMILES CCCCCCCCCCCCCCCCCCCCCCCCCCCC(=O)[O-]
REMARK SMILES IDX 15 1 16 2 17 3 18 4 19 5 20 6 21 7 22 8 23 9 24 10 25 11
REMARK SMILES IDX 26 12 27 13 28 14 29 15 30 16 14 17 13 18 12 19 11 20 10 21
REMARK SMILES IDX 9 22 8 23 7 24 6 25 5 26 4 27 3 28 2 29 1 30
REMARK H PARENT
REMARK Flexibility Score: inf
ROOT
ATOM      1  C   UNL     1      60.698  -0.251  95.018  1.00  0.00     0.000 C 
ENDROOT
BRANCH   1   2
ATOM      2  C   UNL     1      60.706  -0.146  96.551  1.00  0.00     0.000 C 
BRANCH   2   3
ATOM      3  C   UNL     1      59.994   1.134  97.014  1.00  0.00     0.000 C 
BRANCH   3   4
ATOM      4  C   UNL     1      58.808   1.509  96.112  1.00  0.00     0.000 C 
BRANCH   4   5
ATOM      5  C   UNL     1      57.459   1.448  96.853  1.00  0.00     0.000 C 
BRANCH   5   6
ATOM      6  C   UNL     1      56.535   0.351  96.304  1.00  0.00     0.000 C 
BRANCH   6   7
ATOM      7  C   UNL     1      57.088  -1.064  96.551  1.00  0.00     0.000 C 
BRANCH   7   8
ATOM      8  C   UNL     1      57.309  -1.852  95.251  1.00  0.00     0.000 C 
BRANCH   8   9
ATOM      9  C   UNL     1      56.218  -2.908  94.999  1.00  0.00     0.000 C 
BRANCH   9  10
ATOM     10  C   UNL     1      56.732  -4.094  94.165  1.00  0.00     0.000 C 
BRANCH  10  11
ATOM     11  C   UNL     1      56.977  -3.715  92.693  1.00  0.00     0.000 C 
BRANCH  11  12
ATOM     12  C   UNL     1      58.110  -4.536  92.059  1.00  0.00     0.006 C 
BRANCH  12  13
ATOM     13  C   UNL     1      57.888  -4.785  90.561  1.00  0.00     0.053 C 
BRANCH  13  14
ATOM     14  C   UNL     1      58.387  -3.626  89.756  1.00  0.00     0.041 C 
ATOM     15  O   UNL     1      57.622  -3.041  88.946  1.00  0.00    -0.550 OA
ATOM     16  O   UNL     1      59.690  -3.171  89.925  1.00  0.00    -0.550 OA
ENDBRANCH  13  14
ENDBRANCH  12  13
ENDBRANCH  11  12
ENDBRANCH  10  11
ENDBRANCH   9  10
ENDBRANCH   8   9
ENDBRANCH   7   8
ENDBRANCH   6   7
ENDBRANCH   5   6
ENDBRANCH   4   5
ENDBRANCH   3   4
ENDBRANCH   2   3
ENDBRANCH   1   2
BRANCH   1  17
ATOM     17  C   UNL     1      60.900  -1.694  94.527  1.00  0.00     0.000 C 
BRANCH  17  18
ATOM     18  C   UNL     1      60.331  -1.914  93.116  1.00  0.00     0.000 C 
BRANCH  18  19
ATOM     19  C   UNL     1      60.005  -0.596  92.395  1.00  0.00     0.000 C 
BRANCH  19  20
ATOM     20  C   UNL     1      58.531  -0.496  91.977  1.00  0.00     0.000 C 
BRANCH  20  21
ATOM     21  C   UNL     1      57.832   0.670  92.695  1.00  0.00     0.000 C 
BRANCH  21  22
ATOM     22  C   UNL     1      57.275   1.716  91.707  1.00  0.00    -0.000 C 
BRANCH  22  23
ATOM     23  C   UNL     1      56.013   2.436  92.214  1.00  0.00    -0.000 C 
BRANCH  23  24
ATOM     24  C   UNL     1      56.160   2.957  93.651  1.00  0.00    -0.000 C 
BRANCH  24  25
ATOM     25  C   UNL     1      57.028   4.223  93.744  1.00  0.00    -0.000 C 
BRANCH  25  26
ATOM     26  C   UNL     1      57.260   4.709  95.191  1.00  0.00    -0.000 C 
BRANCH  26  27
ATOM     27  C   UNL     1      58.392   5.748  95.279  1.00  0.00    -0.000 C 
BRANCH  27  28
ATOM     28  C   UNL     1      59.391   5.441  96.406  1.00  0.00    -0.000 C 
BRANCH  28  29
ATOM     29  C   UNL     1      60.756   6.107  96.179  1.00  0.00    -0.003 C 
ATOM     30  C   UNL     1      60.629   7.627  96.177  1.00  0.00     0.004 C 
ENDBRANCH  28  29
ENDBRANCH  27  28
ENDBRANCH  26  27
ENDBRANCH  25  26
ENDBRANCH  24  25
ENDBRANCH  23  24
ENDBRANCH  22  23
ENDBRANCH  21  22
ENDBRANCH  20  21
ENDBRANCH  19  20
ENDBRANCH  18  19
ENDBRANCH  17  18
ENDBRANCH   1  17
TORSDOF 26
ENDMDL
MODEL 3
REMARK VINA RESULT:    -3.158      3.197      7.777
REMARK INTER + INTRA:         -13.115
REMARK INTER:                  -8.119
REMARK INTRA:                  -4.996
REMARK UNBOUND:                -5.156
REMARK SMILES CCCCCCCCCCCCCCCCCCCCCCCCCCCC(=O)[O-]
REMARK SMILES IDX 15 1 16 2 17 3 18 4 19 5 20 6 21 7 22 8 23 9 24 10 25 11
REMARK SMILES IDX 26 12 27 13 28 14 29 15 30 16 14 17 13 18 12 19 11 20 10 21
REMARK SMILES IDX 9 22 8 23 7 24 6 25 5 26 4 27 3 28 2 29 1 30
REMARK H PARENT
REMARK Flexibility Score: inf
ROOT
ATOM      1  C   UNL     1      57.693   2.027  94.921  1.00  0.00     0.000 C 
ENDROOT
BRANCH   1   2
ATOM      2  C   UNL     1      58.014   1.768  96.401  1.00  0.00     0.000 C 
BRANCH   2   3
ATOM      3  C   UNL     1      59.463   1.286  96.568  1.00  0.00     0.000 C 
BRANCH   3   4
ATOM      4  C   UNL     1      59.628  -0.210  96.258  1.00  0.00     0.000 C 
BRANCH   4   5
ATOM      5  C   UNL     1      60.957  -0.524  95.549  1.00  0.00     0.000 C 
BRANCH   5   6
ATOM      6  C   UNL     1      60.751  -1.108  94.142  1.00  0.00     0.000 C 
BRANCH   6   7
ATOM      7  C   UNL     1      59.584  -0.441  93.393  1.00  0.00     0.000 C 
BRANCH   7   8
ATOM      8  C   UNL     1      58.592  -1.460  92.808  1.00  0.00     0.000 C 
BRANCH   8   9
ATOM      9  C   UNL     1      58.155  -2.523  93.831  1.00  0.00     0.000 C 
BRANCH   9  10
ATOM     10  C   UNL     1      56.826  -2.164  94.516  1.00  0.00     0.000 C 
BRANCH  10  11
ATOM     11  C   UNL     1      56.971  -2.022  96.042  1.00  0.00     0.000 C 
BRANCH  11  12
ATOM     12  C   UNL     1      55.789  -1.271  96.675  1.00  0.00     0.006 C 
BRANCH  12  13
ATOM     13  C   UNL     1      54.432  -1.759  96.149  1.00  0.00     0.053 C 
BRANCH  13  14
ATOM     14  C   UNL     1      53.592  -0.601  95.710  1.00  0.00     0.041 C 
ATOM     15  O   UNL     1      53.259  -0.481  94.502  1.00  0.00    -0.550 OA
ATOM     16  O   UNL     1      53.150   0.331  96.643  1.00  0.00    -0.550 OA
ENDBRANCH  13  14
ENDBRANCH  12  13
ENDBRANCH  11  12
ENDBRANCH  10  11
ENDBRANCH   9  10
ENDBRANCH   8   9
ENDBRANCH   7   8
ENDBRANCH   6   7
ENDBRANCH   5   6
ENDBRANCH   4   5
ENDBRANCH   3   4
ENDBRANCH   2   3
ENDBRANCH   1   2
BRANCH   1  17
ATOM     17  C   UNL     1      56.262   1.607  94.549  1.00  0.00     0.000 C 
BRANCH  17  18
ATOM     18  C   UNL     1      56.105   1.340  93.042  1.00  0.00     0.000 C 
BRANCH  18  19
ATOM     19  C   UNL     1      57.098   2.147  92.190  1.00  0.00     0.000 C 
BRANCH  19  20
ATOM     20  C   UNL     1      56.478   3.427  91.608  1.00  0.00     0.000 C 
BRANCH  20  21
ATOM     21  C   UNL     1      57.249   4.673  92.071  1.00  0.00     0.000 C 
BRANCH  21  22
ATOM     22  C   UNL     1      56.712   5.231  93.406  1.00  0.00    -0.000 C 
BRANCH  22  23
ATOM     23  C   UNL     1      57.817   5.650  94.390  1.00  0.00    -0.000 C 
BRANCH  23  24
ATOM     24  C   UNL     1      57.323   5.734  95.842  1.00  0.00    -0.000 C 
BRANCH  24  25
ATOM     25  C   UNL     1      58.454   5.561  96.871  1.00  0.00    -0.000 C 
BRANCH  25  26
ATOM     26  C   UNL     1      59.864   5.774  96.282  1.00  0.00    -0.000 C 
BRANCH  26  27
ATOM     27  C   UNL     1      60.422   7.171  96.604  1.00  0.00    -0.000 C 
BRANCH  27  28
ATOM     28  C   UNL     1      60.679   8.011  95.342  1.00  0.00    -0.000 C 
BRANCH  28  29
ATOM     29  C   UNL     1      61.111   7.153  94.143  1.00  0.00    -0.003 C 
ATOM     30  C   UNL     1      60.510   7.686  92.846  1.00  0.00     0.004 C 
ENDBRANCH  28  29
ENDBRANCH  27  28
ENDBRANCH  26  27
ENDBRANCH  25  26
ENDBRANCH  24  25
ENDBRANCH  23  24
ENDBRANCH  22  23
ENDBRANCH  21  22
ENDBRANCH  20  21
ENDBRANCH  19  20
ENDBRANCH  18  19
ENDBRANCH  17  18
ENDBRANCH   1  17
TORSDOF 26
ENDMDL
MODEL 4
REMARK VINA RESULT:    -3.016      2.777      7.342
REMARK INTER + INTRA:         -12.758
REMARK INTER:                  -7.983
REMARK INTRA:                  -4.774
REMARK UNBOUND:                -5.156
REMARK SMILES CCCCCCCCCCCCCCCCCCCCCCCCCCCC(=O)[O-]
REMARK SMILES IDX 15 1 16 2 17 3 18 4 19 5 20 6 21 7 22 8 23 9 24 10 25 11
REMARK SMILES IDX 26 12 27 13 28 14 29 15 30 16 14 17 13 18 12 19 11 20 10 21
REMARK SMILES IDX 9 22 8 23 7 24 6 25 5 26 4 27 3 28 2 29 1 30
REMARK H PARENT
REMARK Flexibility Score: inf
ROOT
ATOM      1  C   UNL     1      56.666   2.862  96.125  1.00  0.00     0.000 C 
ENDROOT
BRANCH   1   2
ATOM      2  C   UNL     1      57.919   1.973  96.115  1.00  0.00     0.000 C 
BRANCH   2   3
ATOM      3  C   UNL     1      57.565   0.528  96.500  1.00  0.00     0.000 C 
BRANCH   3   4
ATOM      4  C   UNL     1      58.645  -0.477  96.072  1.00  0.00     0.000 C 
BRANCH   4   5
ATOM      5  C   UNL     1      59.970   0.205  95.687  1.00  0.00     0.000 C 
BRANCH   5   6
ATOM      6  C   UNL     1      60.989  -0.780  95.092  1.00  0.00     0.000 C 
BRANCH   6   7
ATOM      7  C   UNL     1      60.326  -1.851  94.208  1.00  0.00     0.000 C 
BRANCH   7   8
ATOM      8  C   UNL     1      60.506  -1.578  92.706  1.00  0.00     0.000 C 
BRANCH   8   9
ATOM      9  C   UNL     1      59.465  -0.590  92.150  1.00  0.00     0.000 C 
BRANCH   9  10
ATOM     10  C   UNL     1      58.035  -1.152  92.209  1.00  0.00     0.000 C 
BRANCH  10  11
ATOM     11  C   UNL     1      57.040  -0.164  92.844  1.00  0.00     0.000 C 
BRANCH  11  12
ATOM     12  C   UNL     1      57.343   1.295  92.467  1.00  0.00     0.006 C 
BRANCH  12  13
ATOM     13  C   UNL     1      56.304   1.880  91.502  1.00  0.00     0.053 C 
BRANCH  13  14
ATOM     14  C   UNL     1      56.917   2.129  90.159  1.00  0.00     0.041 C 
ATOM     15  O   UNL     1      56.688   3.204  89.547  1.00  0.00    -0.550 OA
ATOM     16  O   UNL     1      57.769   1.184  89.598  1.00  0.00    -0.550 OA
ENDBRANCH  13  14
ENDBRANCH  12  13
ENDBRANCH  11  12
ENDBRANCH  10  11
ENDBRANCH   9  10
ENDBRANCH   8   9
ENDBRANCH   7   8
ENDBRANCH   6   7
ENDBRANCH   5   6
ENDBRANCH   4   5
ENDBRANCH   3   4
ENDBRANCH   2   3
ENDBRANCH   1   2
BRANCH   1  17
ATOM     17  C   UNL     1      57.007   4.357  96.238  1.00  0.00     0.000 C 
BRANCH  17  18
ATOM     18  C   UNL     1      58.472   4.650  95.870  1.00  0.00     0.000 C 
BRANCH  18  19
ATOM     19  C   UNL     1      59.005   5.931  96.533  1.00  0.00     0.000 C 
BRANCH  19  20
ATOM     20  C   UNL     1      60.518   6.112  96.344  1.00  0.00     0.000 C 
BRANCH  20  21
ATOM     21  C   UNL     1      60.821   7.311  95.432  1.00  0.00     0.000 C 
BRANCH  21  22
ATOM     22  C   UNL     1      60.870   6.915  93.941  1.00  0.00    -0.000 C 
BRANCH  22  23
ATOM     23  C   UNL     1      60.476   8.054  92.985  1.00  0.00    -0.000 C 
BRANCH  23  24
ATOM     24  C   UNL     1      59.352   8.940  93.542  1.00  0.00    -0.000 C 
BRANCH  24  25
ATOM     25  C   UNL     1      58.171   9.094  92.569  1.00  0.00    -0.000 C 
BRANCH  25  26
ATOM     26  C   UNL     1      56.800   8.779  93.205  1.00  0.00    -0.000 C 
BRANCH  26  27
ATOM     27  C   UNL     1      56.796   7.421  93.930  1.00  0.00    -0.000 C 
BRANCH  27  28
ATOM     28  C   UNL     1      55.636   6.516  93.485  1.00  0.00    -0.000 C 
BRANCH  28  29
ATOM     29  C   UNL     1      56.122   5.247  92.770  1.00  0.00    -0.003 C 
ATOM     30  C   UNL     1      57.576   5.390  92.330  1.00  0.00     0.004 C 
ENDBRANCH  28  29
ENDBRANCH  27  28
ENDBRANCH  26  27
ENDBRANCH  25  26
ENDBRANCH  24  25
ENDBRANCH  23  24
ENDBRANCH  22  23
ENDBRANCH  21  22
ENDBRANCH  20  21
ENDBRANCH  19  20
ENDBRANCH  18  19
ENDBRANCH  17  18
ENDBRANCH   1  17
TORSDOF 26
ENDMDL
MODEL 5
REMARK VINA RESULT:    -3.006      3.739      7.898
REMARK INTER + INTRA:         -12.733
REMARK INTER:                  -8.406
REMARK INTRA:                  -4.326
REMARK UNBOUND:                -5.156
REMARK SMILES CCCCCCCCCCCCCCCCCCCCCCCCCCCC(=O)[O-]
REMARK SMILES IDX 15 1 16 2 17 3 18 4 19 5 20 6 21 7 22 8 23 9 24 10 25 11
REMARK SMILES IDX 26 12 27 13 28 14 29 15 30 16 14 17 13 18 12 19 11 20 10 21
REMARK SMILES IDX 9 22 8 23 7 24 6 25 5 26 4 27 3 28 2 29 1 30
REMARK H PARENT
REMARK Flexibility Score: inf
ROOT
ATOM      1  C   UNL     1      57.457   3.236  95.679  1.00  0.00     0.000 C 
ENDROOT
BRANCH   1   2
ATOM      2  C   UNL     1      57.929   1.798  95.418  1.00  0.00     0.000 C 
BRANCH   2   3
ATOM      3  C   UNL     1      58.876   1.325  96.531  1.00  0.00     0.000 C 
BRANCH   3   4
ATOM      4  C   UNL     1      59.307  -0.140  96.357  1.00  0.00     0.000 C 
BRANCH   4   5
ATOM      5  C   UNL     1      60.805  -0.283  96.037  1.00  0.00     0.000 C 
BRANCH   5   6
ATOM      6  C   UNL     1      61.058  -1.035  94.720  1.00  0.00     0.000 C 
BRANCH   6   7
ATOM      7  C   UNL     1      60.252  -0.452  93.545  1.00  0.00     0.000 C 
BRANCH   7   8
ATOM      8  C   UNL     1      59.940  -1.496  92.462  1.00  0.00     0.000 C 
BRANCH   8   9
ATOM      9  C   UNL     1      59.837  -2.926  93.022  1.00  0.00     0.000 C 
BRANCH   9  10
ATOM     10  C   UNL     1      58.390  -3.317  93.366  1.00  0.00     0.000 C 
BRANCH  10  11
ATOM     11  C   UNL     1      57.369  -2.266  92.893  1.00  0.00     0.000 C 
BRANCH  11  12
ATOM     12  C   UNL     1      56.625  -1.604  94.063  1.00  0.00     0.006 C 
BRANCH  12  13
ATOM     13  C   UNL     1      56.866  -2.326  95.396  1.00  0.00     0.053 C 
BRANCH  13  14
ATOM     14  C   UNL     1      55.637  -3.065  95.822  1.00  0.00     0.041 C 
ATOM     15  O   UNL     1      55.596  -4.321  95.751  1.00  0.00    -0.550 OA
ATOM     16  O   UNL     1      54.545  -2.368  96.327  1.00  0.00    -0.550 OA
ENDBRANCH  13  14
ENDBRANCH  12  13
ENDBRANCH  11  12
ENDBRANCH  10  11
ENDBRANCH   9  10
ENDBRANCH   8   9
ENDBRANCH   7   8
ENDBRANCH   6   7
ENDBRANCH   5   6
ENDBRANCH   4   5
ENDBRANCH   3   4
ENDBRANCH   2   3
ENDBRANCH   1   2
BRANCH   1  17
ATOM     17  C   UNL     1      58.534   4.092  96.366  1.00  0.00     0.000 C 
BRANCH  17  18
ATOM     18  C   UNL     1      57.985   5.447  96.843  1.00  0.00     0.000 C 
BRANCH  18  19
ATOM     19  C   UNL     1      59.038   6.566  96.785  1.00  0.00     0.000 C 
BRANCH  19  20
ATOM     20  C   UNL     1      60.414   6.065  96.323  1.00  0.00     0.000 C 
BRANCH  20  21
ATOM     21  C   UNL     1      60.990   6.969  95.222  1.00  0.00     0.000 C 
BRANCH  21  22
ATOM     22  C   UNL     1      59.961   8.004  94.718  1.00  0.00    -0.000 C 
BRANCH  22  23
ATOM     23  C   UNL     1      59.759   7.982  93.193  1.00  0.00    -0.000 C 
BRANCH  23  24
ATOM     24  C   UNL     1      58.887   6.807  92.723  1.00  0.00    -0.000 C 
BRANCH  24  25
ATOM     25  C   UNL     1      57.510   6.771  93.408  1.00  0.00    -0.000 C 
BRANCH  25  26
ATOM     26  C   UNL     1      56.660   5.542  93.022  1.00  0.00    -0.000 C 
BRANCH  26  27
ATOM     27  C   UNL     1      57.281   4.751  91.857  1.00  0.00    -0.000 C 
BRANCH  27  28
ATOM     28  C   UNL     1      56.357   3.636  91.340  1.00  0.00    -0.000 C 
BRANCH  28  29
ATOM     29  C   UNL     1      56.392   2.384  92.230  1.00  0.00    -0.003 C 
ATOM     30  C   UNL     1      57.395   1.364  91.699  1.00  0.00     0.004 C 
ENDBRANCH  28  29
ENDBRANCH  27  28
ENDBRANCH  26  27
ENDBRANCH  25  26
ENDBRANCH  24  25
ENDBRANCH  23  24
ENDBRANCH  22  23
ENDBRANCH  21  22
ENDBRANCH  20  21
ENDBRANCH  19  20
ENDBRANCH  18  19
ENDBRANCH  17  18
ENDBRANCH   1  17
TORSDOF 26
ENDMDL
MODEL 6
REMARK VINA RESULT:    -2.989      4.222      7.556
REMARK INTER + INTRA:         -12.689
REMARK INTER:                  -7.390
REMARK INTRA:                  -5.298
REMARK UNBOUND:                -5.156
REMARK SMILES CCCCCCCCCCCCCCCCCCCCCCCCCCCC(=O)[O-]
REMARK SMILES IDX 15 1 16 2 17 3 18 4 19 5 20 6 21 7 22 8 23 9 24 10 25 11
REMARK SMILES IDX 26 12 27 13 28 14 29 15 30 16 14 17 13 18 12 19 11 20 10 21
REMARK SMILES IDX 9 22 8 23 7 24 6 25 5 26 4 27 3 28 2 29 1 30
REMARK H PARENT
REMARK Flexibility Score: inf
ROOT
ATOM      1  C   UNL     1      60.375  -0.758  93.846  1.00  0.00     0.000 C 
ENDROOT
BRANCH   1   2
ATOM      2  C   UNL     1      61.005  -0.988  95.228  1.00  0.00     0.000 C 
BRANCH   2   3
ATOM      3  C   UNL     1      60.070  -0.496  96.343  1.00  0.00     0.000 C 
BRANCH   3   4
ATOM      4  C   UNL     1      60.408   0.928  96.812  1.00  0.00     0.000 C 
BRANCH   4   5
ATOM      5  C   UNL     1      59.180   1.855  96.823  1.00  0.00     0.000 C 
BRANCH   5   6
ATOM      6  C   UNL     1      58.261   1.630  95.613  1.00  0.00     0.000 C 
BRANCH   6   7
ATOM      7  C   UNL     1      56.771   1.765  95.972  1.00  0.00     0.000 C 
BRANCH   7   8
ATOM      8  C   UNL     1      56.311   0.725  97.006  1.00  0.00     0.000 C 
BRANCH   8   9
ATOM      9  C   UNL     1      55.639  -0.501  96.362  1.00  0.00     0.000 C 
BRANCH   9  10
ATOM     10  C   UNL     1      56.536  -1.750  96.404  1.00  0.00     0.000 C 
BRANCH  10  11
ATOM     11  C   UNL     1      57.080  -2.130  95.016  1.00  0.00     0.000 C 
BRANCH  11  12
ATOM     12  C   UNL     1      56.368  -3.356  94.423  1.00  0.00     0.006 C 
BRANCH  12  13
ATOM     13  C   UNL     1      55.835  -4.305  95.505  1.00  0.00     0.053 C 
BRANCH  13  14
ATOM     14  C   UNL     1      54.359  -4.498  95.353  1.00  0.00     0.041 C 
ATOM     15  O   UNL     1      53.595  -4.348  96.342  1.00  0.00    -0.550 OA
ATOM     16  O   UNL     1      53.822  -4.813  94.110  1.00  0.00    -0.550 OA
ENDBRANCH  13  14
ENDBRANCH  12  13
ENDBRANCH  11  12
ENDBRANCH  10  11
ENDBRANCH   9  10
ENDBRANCH   8   9
ENDBRANCH   7   8
ENDBRANCH   6   7
ENDBRANCH   5   6
ENDBRANCH   4   5
ENDBRANCH   3   4
ENDBRANCH   2   3
ENDBRANCH   1   2
BRANCH   1  17
ATOM     17  C   UNL     1      60.738  -1.866  92.844  1.00  0.00     0.000 C 
BRANCH  17  18
ATOM     18  C   UNL     1      60.166  -3.234  93.253  1.00  0.00     0.000 C 
BRANCH  18  19
ATOM     19  C   UNL     1      59.255  -3.842  92.174  1.00  0.00     0.000 C 
BRANCH  19  20
ATOM     20  C   UNL     1      58.943  -2.860  91.035  1.00  0.00     0.000 C 
BRANCH  20  21
ATOM     21  C   UNL     1      57.450  -2.500  91.009  1.00  0.00     0.000 C 
BRANCH  21  22
ATOM     22  C   UNL     1      57.183  -1.160  90.292  1.00  0.00    -0.000 C 
BRANCH  22  23
ATOM     23  C   UNL     1      57.984   0.020  90.869  1.00  0.00    -0.000 C 
BRANCH  23  24
ATOM     24  C   UNL     1      57.583   0.366  92.311  1.00  0.00    -0.000 C 
BRANCH  24  25
ATOM     25  C   UNL     1      56.078   0.647  92.463  1.00  0.00    -0.000 C 
BRANCH  25  26
ATOM     26  C   UNL     1      55.682   2.099  92.120  1.00  0.00    -0.000 C 
BRANCH  26  27
ATOM     27  C   UNL     1      56.792   3.102  92.478  1.00  0.00    -0.000 C 
BRANCH  27  28
ATOM     28  C   UNL     1      56.266   4.307  93.274  1.00  0.00    -0.000 C 
BRANCH  28  29
ATOM     29  C   UNL     1      57.364   5.340  93.570  1.00  0.00    -0.003 C 
ATOM     30  C   UNL     1      57.838   5.235  95.017  1.00  0.00     0.004 C 
ENDBRANCH  28  29
ENDBRANCH  27  28
ENDBRANCH  26  27
ENDBRANCH  25  26
ENDBRANCH  24  25
ENDBRANCH  23  24
ENDBRANCH  22  23
ENDBRANCH  21  22
ENDBRANCH  20  21
ENDBRANCH  19  20
ENDBRANCH  18  19
ENDBRANCH  17  18
ENDBRANCH   1  17
TORSDOF 26
ENDMDL
MODEL 7
REMARK VINA RESULT:    -2.967      3.471      7.719
REMARK INTER + INTRA:         -12.633
REMARK INTER:                  -8.021
REMARK INTRA:                  -4.612
REMARK UNBOUND:                -5.156
REMARK SMILES CCCCCCCCCCCCCCCCCCCCCCCCCCCC(=O)[O-]
REMARK SMILES IDX 15 1 16 2 17 3 18 4 19 5 20 6 21 7 22 8 23 9 24 10 25 11
REMARK SMILES IDX 26 12 27 13 28 14 29 15 30 16 14 17 13 18 12 19 11 20 10 21
REMARK SMILES IDX 9 22 8 23 7 24 6 25 5 26 4 27 3 28 2 29 1 30
REMARK H PARENT
REMARK Flexibility Score: inf
ROOT
ATOM      1  C   UNL     1      58.573  -0.044  91.865  1.00  0.00     0.000 C 
ENDROOT
BRANCH   1   2
ATOM      2  C   UNL     1      58.022  -1.309  92.541  1.00  0.00     0.000 C 
BRANCH   2   3
ATOM      3  C   UNL     1      59.164  -2.262  92.927  1.00  0.00     0.000 C 
BRANCH   3   4
ATOM      4  C   UNL     1      60.473  -1.519  93.237  1.00  0.00     0.000 C 
BRANCH   4   5
ATOM      5  C   UNL     1      60.711  -1.346  94.747  1.00  0.00     0.000 C 
BRANCH   5   6
ATOM      6  C   UNL     1      60.414   0.082  95.231  1.00  0.00     0.000 C 
BRANCH   6   7
ATOM      7  C   UNL     1      59.313   0.124  96.305  1.00  0.00     0.000 C 
BRANCH   7   8
ATOM      8  C   UNL     1      58.368  -1.086  96.234  1.00  0.00     0.000 C 
BRANCH   8   9
ATOM      9  C   UNL     1      56.936  -0.753  96.690  1.00  0.00     0.000 C 
BRANCH   9  10
ATOM     10  C   UNL     1      56.007  -1.978  96.643  1.00  0.00     0.000 C 
BRANCH  10  11
ATOM     11  C   UNL     1      56.128  -2.758  95.321  1.00  0.00     0.000 C 
BRANCH  11  12
ATOM     12  C   UNL     1      54.819  -2.752  94.516  1.00  0.00     0.006 C 
BRANCH  12  13
ATOM     13  C   UNL     1      54.481  -1.365  93.953  1.00  0.00     0.053 C 
BRANCH  13  14
ATOM     14  C   UNL     1      54.381  -1.415  92.461  1.00  0.00     0.041 C 
ATOM     15  O   UNL     1      54.729  -2.451  91.837  1.00  0.00    -0.550 OA
ATOM     16  O   UNL     1      53.873  -0.326  91.761  1.00  0.00    -0.550 OA
ENDBRANCH  13  14
ENDBRANCH  12  13
ENDBRANCH  11  12
ENDBRANCH  10  11
ENDBRANCH   9  10
ENDBRANCH   8   9
ENDBRANCH   7   8
ENDBRANCH   6   7
ENDBRANCH   5   6
ENDBRANCH   4   5
ENDBRANCH   3   4
ENDBRANCH   2   3
ENDBRANCH   1   2
BRANCH   1  17
ATOM     17  C   UNL     1      57.707   1.196  92.145  1.00  0.00     0.000 C 
BRANCH  17  18
ATOM     18  C   UNL     1      57.069   1.158  93.544  1.00  0.00     0.000 C 
BRANCH  18  19
ATOM     19  C   UNL     1      56.610   2.544  94.025  1.00  0.00     0.000 C 
BRANCH  19  20
ATOM     20  C   UNL     1      56.859   2.766  95.524  1.00  0.00     0.000 C 
BRANCH  20  21
ATOM     21  C   UNL     1      58.118   3.617  95.755  1.00  0.00     0.000 C 
BRANCH  21  22
ATOM     22  C   UNL     1      58.054   4.408  97.078  1.00  0.00    -0.000 C 
BRANCH  22  23
ATOM     23  C   UNL     1      58.751   5.778  97.013  1.00  0.00    -0.000 C 
BRANCH  23  24
ATOM     24  C   UNL     1      60.200   5.688  96.513  1.00  0.00    -0.000 C 
BRANCH  24  25
ATOM     25  C   UNL     1      60.815   7.064  96.202  1.00  0.00    -0.000 C 
BRANCH  25  26
ATOM     26  C   UNL     1      60.008   8.246  96.780  1.00  0.00    -0.000 C 
BRANCH  26  27
ATOM     27  C   UNL     1      59.583   9.245  95.691  1.00  0.00    -0.000 C 
BRANCH  27  28
ATOM     28  C   UNL     1      59.521   8.606  94.294  1.00  0.00    -0.000 C 
BRANCH  28  29
ATOM     29  C   UNL     1      58.150   7.984  93.992  1.00  0.00    -0.003 C 
ATOM     30  C   UNL     1      58.303   6.596  93.377  1.00  0.00     0.004 C 
ENDBRANCH  28  29
ENDBRANCH  27  28
ENDBRANCH  26  27
ENDBRANCH  25  26
ENDBRANCH  24  25
ENDBRANCH  23  24
ENDBRANCH  22  23
ENDBRANCH  21  22
ENDBRANCH  20  21
ENDBRANCH  19  20
ENDBRANCH  18  19
ENDBRANCH  17  18
ENDBRANCH   1  17
TORSDOF 26
ENDMDL
MODEL 8
REMARK VINA RESULT:    -2.901      1.918      3.245
REMARK INTER + INTRA:         -12.468
REMARK INTER:                  -7.964
REMARK INTRA:                  -4.504
REMARK UNBOUND:                -5.156
REMARK SMILES CCCCCCCCCCCCCCCCCCCCCCCCCCCC(=O)[O-]
REMARK SMILES IDX 15 1 16 2 17 3 18 4 19 5 20 6 21 7 22 8 23 9 24 10 25 11
REMARK SMILES IDX 26 12 27 13 28 14 29 15 30 16 14 17 13 18 12 19 11 20 10 21
REMARK SMILES IDX 9 22 8 23 7 24 6 25 5 26 4 27 3 28 2 29 1 30
REMARK H PARENT
REMARK Flexibility Score: inf
ROOT
ATOM      1  C   UNL     1      57.240  -1.719  90.036  1.00  0.00     0.000 C 
ENDROOT
BRANCH   1   2
ATOM      2  C   UNL     1      58.509  -0.959  90.451  1.00  0.00     0.000 C 
BRANCH   2   3
ATOM      3  C   UNL     1      58.211   0.009  91.607  1.00  0.00     0.000 C 
BRANCH   3   4
ATOM      4  C   UNL     1      57.123  -0.521  92.553  1.00  0.00     0.000 C 
BRANCH   4   5
ATOM      5  C   UNL     1      56.261   0.605  93.153  1.00  0.00     0.000 C 
BRANCH   5   6
ATOM      6  C   UNL     1      56.996   1.954  93.191  1.00  0.00     0.000 C 
BRANCH   6   7
ATOM      7  C   UNL     1      56.515   2.854  94.342  1.00  0.00     0.000 C 
BRANCH   7   8
ATOM      8  C   UNL     1      56.823   4.341  94.103  1.00  0.00     0.000 C 
BRANCH   8   9
ATOM      9  C   UNL     1      57.248   5.078  95.385  1.00  0.00     0.000 C 
BRANCH   9  10
ATOM     10  C   UNL     1      58.520   4.479  96.009  1.00  0.00     0.000 C 
BRANCH  10  11
ATOM     11  C   UNL     1      59.250   5.475  96.927  1.00  0.00     0.000 C 
BRANCH  11  12
ATOM     12  C   UNL     1      60.322   6.283  96.180  1.00  0.00     0.006 C 
BRANCH  12  13
ATOM     13  C   UNL     1      60.290   7.775  96.537  1.00  0.00     0.053 C 
BRANCH  13  14
ATOM     14  C   UNL     1      59.737   8.575  95.399  1.00  0.00     0.041 C 
ATOM     15  O   UNL     1      59.871   9.826  95.381  1.00  0.00    -0.550 OA
ATOM     16  O   UNL     1      59.101   7.934  94.343  1.00  0.00    -0.550 OA
ENDBRANCH  13  14
ENDBRANCH  12  13
ENDBRANCH  11  12
ENDBRANCH  10  11
ENDBRANCH   9  10
ENDBRANCH   8   9
ENDBRANCH   7   8
ENDBRANCH   6   7
ENDBRANCH   5   6
ENDBRANCH   4   5
ENDBRANCH   3   4
ENDBRANCH   2   3
ENDBRANCH   1   2
BRANCH   1  17
ATOM     17  C   UNL     1      57.537  -3.163  89.601  1.00  0.00     0.000 C 
BRANCH  17  18
ATOM     18  C   UNL     1      58.770  -3.745  90.312  1.00  0.00     0.000 C 
BRANCH  18  19
ATOM     19  C   UNL     1      58.399  -4.644  91.503  1.00  0.00     0.000 C 
BRANCH  19  20
ATOM     20  C   UNL     1      59.420  -4.565  92.648  1.00  0.00     0.000 C 
BRANCH  20  21
ATOM     21  C   UNL     1      59.358  -3.199  93.350  1.00  0.00     0.000 C 
BRANCH  21  22
ATOM     22  C   UNL     1      60.759  -2.663  93.711  1.00  0.00    -0.000 C 
BRANCH  22  23
ATOM     23  C   UNL     1      60.816  -1.132  93.857  1.00  0.00    -0.000 C 
BRANCH  23  24
ATOM     24  C   UNL     1      60.579  -0.660  95.299  1.00  0.00    -0.000 C 
BRANCH  24  25
ATOM     25  C   UNL     1      59.612   0.533  95.389  1.00  0.00    -0.000 C 
BRANCH  25  26
ATOM     26  C   UNL     1      58.359   0.249  96.244  1.00  0.00    -0.000 C 
BRANCH  26  27
ATOM     27  C   UNL     1      58.003  -1.248  96.273  1.00  0.00    -0.000 C 
BRANCH  27  28
ATOM     28  C   UNL     1      56.513  -1.497  96.552  1.00  0.00    -0.000 C 
BRANCH  28  29
ATOM     29  C   UNL     1      55.733  -0.194  96.786  1.00  0.00    -0.003 C 
ATOM     30  C   UNL     1      54.386  -0.227  96.069  1.00  0.00     0.004 C 
ENDBRANCH  28  29
ENDBRANCH  27  28
ENDBRANCH  26  27
ENDBRANCH  25  26
ENDBRANCH  24  25
ENDBRANCH  23  24
ENDBRANCH  22  23
ENDBRANCH  21  22
ENDBRANCH  20  21
ENDBRANCH  19  20
ENDBRANCH  18  19
ENDBRANCH  17  18
ENDBRANCH   1  17
TORSDOF 26
ENDMDL
MODEL 9
REMARK VINA RESULT:    -2.900      1.470      4.313
REMARK INTER + INTRA:         -12.463
REMARK INTER:                  -7.663
REMARK INTRA:                  -4.800
REMARK UNBOUND:                -5.156
REMARK SMILES CCCCCCCCCCCCCCCCCCCCCCCCCCCC(=O)[O-]
REMARK SMILES IDX 15 1 16 2 17 3 18 4 19 5 20 6 21 7 22 8 23 9 24 10 25 11
REMARK SMILES IDX 26 12 27 13 28 14 29 15 30 16 14 17 13 18 12 19 11 20 10 21
REMARK SMILES IDX 9 22 8 23 7 24 6 25 5 26 4 27 3 28 2 29 1 30
REMARK H PARENT
REMARK Flexibility Score: inf
ROOT
ATOM      1  C   UNL     1      59.585   0.595  95.758  1.00  0.00     0.000 C 
ENDROOT
BRANCH   1   2
ATOM      2  C   UNL     1      58.210   0.463  96.431  1.00  0.00     0.000 C 
BRANCH   2   3
ATOM      3  C   UNL     1      57.575  -0.899  96.111  1.00  0.00     0.000 C 
BRANCH   3   4
ATOM      4  C   UNL     1      56.106  -0.984  96.555  1.00  0.00     0.000 C 
BRANCH   4   5
ATOM      5  C   UNL     1      55.488   0.400  96.826  1.00  0.00     0.000 C 
BRANCH   5   6
ATOM      6  C   UNL     1      54.620   0.896  95.659  1.00  0.00     0.000 C 
BRANCH   6   7
ATOM      7  C   UNL     1      54.750   2.412  95.431  1.00  0.00     0.000 C 
BRANCH   7   8
ATOM      8  C   UNL     1      55.589   3.107  96.516  1.00  0.00     0.000 C 
BRANCH   8   9
ATOM      9  C   UNL     1      56.844   3.795  95.951  1.00  0.00     0.000 C 
BRANCH   9  10
ATOM     10  C   UNL     1      57.672   4.492  97.044  1.00  0.00     0.000 C 
BRANCH  10  11
ATOM     11  C   UNL     1      59.178   4.206  96.913  1.00  0.00     0.000 C 
BRANCH  11  12
ATOM     12  C   UNL     1      60.000   5.485  96.692  1.00  0.00     0.006 C 
BRANCH  12  13
ATOM     13  C   UNL     1      59.120   6.699  96.364  1.00  0.00     0.053 C 
BRANCH  13  14
ATOM     14  C   UNL     1      59.576   7.349  95.094  1.00  0.00     0.041 C 
ATOM     15  O   UNL     1      59.835   6.648  94.082  1.00  0.00    -0.550 OA
ATOM     16  O   UNL     1      59.683   8.733  95.021  1.00  0.00    -0.550 OA
ENDBRANCH  13  14
ENDBRANCH  12  13
ENDBRANCH  11  12
ENDBRANCH  10  11
ENDBRANCH   9  10
ENDBRANCH   8   9
ENDBRANCH   7   8
ENDBRANCH   6   7
ENDBRANCH   5   6
ENDBRANCH   4   5
ENDBRANCH   3   4
ENDBRANCH   2   3
ENDBRANCH   1   2
BRANCH   1  17
ATOM     17  C   UNL     1      60.563  -0.506  96.203  1.00  0.00     0.000 C 
BRANCH  17  18
ATOM     18  C   UNL     1      61.124  -1.302  95.013  1.00  0.00     0.000 C 
BRANCH  18  19
ATOM     19  C   UNL     1      60.512  -0.873  93.670  1.00  0.00     0.000 C 
BRANCH  19  20
ATOM     20  C   UNL     1      60.219  -2.063  92.743  1.00  0.00     0.000 C 
BRANCH  20  21
ATOM     21  C   UNL     1      59.015  -2.873  93.247  1.00  0.00     0.000 C 
BRANCH  21  22
ATOM     22  C   UNL     1      58.118  -3.368  92.093  1.00  0.00    -0.000 C 
BRANCH  22  23
ATOM     23  C   UNL     1      56.664  -2.874  92.183  1.00  0.00    -0.000 C 
BRANCH  23  24
ATOM     24  C   UNL     1      56.464  -1.490  91.548  1.00  0.00    -0.000 C 
BRANCH  24  25
ATOM     25  C   UNL     1      56.273  -0.374  92.589  1.00  0.00    -0.000 C 
BRANCH  25  26
ATOM     26  C   UNL     1      57.502   0.549  92.738  1.00  0.00    -0.000 C 
BRANCH  26  27
ATOM     27  C   UNL     1      57.110   2.037  92.748  1.00  0.00    -0.000 C 
BRANCH  27  28
ATOM     28  C   UNL     1      56.844   2.588  91.338  1.00  0.00    -0.000 C 
BRANCH  28  29
ATOM     29  C   UNL     1      56.174   3.970  91.364  1.00  0.00    -0.003 C 
ATOM     30  C   UNL     1      56.813   4.868  92.420  1.00  0.00     0.004 C 
ENDBRANCH  28  29
ENDBRANCH  27  28
ENDBRANCH  26  27
ENDBRANCH  25  26
ENDBRANCH  24  25
ENDBRANCH  23  24
ENDBRANCH  22  23
ENDBRANCH  21  22
ENDBRANCH  20  21
ENDBRANCH  19  20
ENDBRANCH  18  19
ENDBRANCH  17  18
ENDBRANCH   1  17
TORSDOF 26
ENDMDL
