MODEL 1
REMARK VINA RESULT:    -4.461      0.000      0.000
REMARK INTER + INTRA:         -10.238
REMARK INTER:                  -8.112
REMARK INTRA:                  -2.126
REMARK UNBOUND:                -2.126
REMARK SMILES CCCCCCCCCCCCCCCC(=O)[O-]
REMARK SMILES IDX 9 1 10 2 11 3 12 4 13 5 14 6 15 7 16 8 17 9 18 10 8 11 7 12
REMARK SMILES IDX 6 13 5 14 4 15 3 16 2 17 1 18
REMARK H PARENT
REMARK Flexibility Score: inf
ROOT
ATOM      1  C   UNL     1       1.123 -22.134  -7.922  1.00  0.00     0.000 C 
ENDROOT
BRANCH   1   2
ATOM      2  C   UNL     1       0.865 -22.508  -6.452  1.00  0.00     0.000 C 
BRANCH   2   3
ATOM      3  C   UNL     1       0.112 -21.406  -5.689  1.00  0.00     0.000 C 
BRANCH   3   4
ATOM      4  C   UNL     1       0.823 -20.998  -4.387  1.00  0.00     0.000 C 
BRANCH   4   5
ATOM      5  C   UNL     1       0.220 -19.738  -3.743  1.00  0.00     0.000 C 
BRANCH   5   6
ATOM      6  C   UNL     1       1.247 -18.696  -3.262  1.00  0.00     0.006 C 
BRANCH   6   7
ATOM      7  C   UNL     1       2.435 -19.324  -2.523  1.00  0.00     0.053 C 
BRANCH   7   8
ATOM      8  C   UNL     1       3.302 -18.259  -1.927  1.00  0.00     0.041 C 
ATOM      9  O   UNL     1       2.782 -17.241  -1.401  1.00  0.00    -0.550 OA
ATOM     10  O   UNL     1       4.686 -18.367  -1.999  1.00  0.00    -0.550 OA
ENDBRANCH   7   8
ENDBRANCH   6   7
ENDBRANCH   5   6
ENDBRANCH   4   5
ENDBRANCH   3   4
ENDBRANCH   2   3
ENDBRANCH   1   2
BRANCH   1  11
ATOM     11  C   UNL     1       1.511 -20.658  -8.097  1.00  0.00     0.000 C 
BRANCH  11  12
ATOM     12  C   UNL     1       2.995 -20.394  -7.799  1.00  0.00    -0.000 C 
BRANCH  12  13
ATOM     13  C   UNL     1       3.158 -19.292  -6.746  1.00  0.00    -0.000 C 
BRANCH  13  14
ATOM     14  C   UNL     1       4.157 -19.709  -5.660  1.00  0.00    -0.000 C 
BRANCH  14  15
ATOM     15  C   UNL     1       4.206 -21.238  -5.517  1.00  0.00    -0.000 C 
BRANCH  15  16
ATOM     16  C   UNL     1       5.637 -21.794  -5.590  1.00  0.00    -0.000 C 
BRANCH  16  17
ATOM     17  C   UNL     1       6.051 -22.177  -7.019  1.00  0.00    -0.003 C 
ATOM     18  C   UNL     1       7.194 -21.296  -7.514  1.00  0.00     0.004 C 
ENDBRANCH  16  17
ENDBRANCH  15  16
ENDBRANCH  14  15
ENDBRANCH  13  14
ENDBRANCH  12  13
ENDBRANCH  11  12
ENDBRANCH   1  11
TORSDOF 14
ENDMDL
MODEL 2
REMARK VINA RESULT:    -4.360      3.058      4.861
REMARK INTER + INTRA:         -10.054
REMARK INTER:                  -7.842
REMARK INTRA:                  -2.212
REMARK UNBOUND:                -2.126
REMARK SMILES CCCCCCCCCCCCCCCC(=O)[O-]
REMARK SMILES IDX 9 1 10 2 11 3 12 4 13 5 14 6 15 7 16 8 17 9 18 10 8 11 7 12
REMARK SMILES IDX 6 13 5 14 4 15 3 16 2 17 1 18
REMARK H PARENT
REMARK Flexibility Score: inf
ROOT
ATOM      1  C   UNL     1       3.778 -19.065  -3.221  1.00  0.00     0.000 C 
ENDROOT
BRANCH   1   2
ATOM      2  C   UNL     1       2.507 -18.978  -2.359  1.00  0.00     0.000 C 
BRANCH   2   3
ATOM      3  C   UNL     1       1.661 -20.260  -2.426  1.00  0.00     0.000 C 
BRANCH   3   4
ATOM      4  C   UNL     1       0.412 -20.098  -3.310  1.00  0.00     0.000 C 
BRANCH   4   5
ATOM      5  C   UNL     1       0.489 -20.913  -4.613  1.00  0.00     0.000 C 
BRANCH   5   6
ATOM      6  C   UNL     1       1.304 -20.258  -5.744  1.00  0.00     0.006 C 
BRANCH   6   7
ATOM      7  C   UNL     1       2.141 -21.269  -6.539  1.00  0.00     0.053 C 
BRANCH   7   8
ATOM      8  C   UNL     1       1.363 -21.785  -7.710  1.00  0.00     0.041 C 
ATOM      9  O   UNL     1       0.694 -22.846  -7.606  1.00  0.00    -0.550 OA
ATOM     10  O   UNL     1       1.418 -21.121  -8.929  1.00  0.00    -0.550 OA
ENDBRANCH   7   8
ENDBRANCH   6   7
ENDBRANCH   5   6
ENDBRANCH   4   5
ENDBRANCH   3   4
ENDBRANCH   2   3
ENDBRANCH   1   2
BRANCH   1  11
ATOM     11  C   UNL     1       4.250 -20.513  -3.432  1.00  0.00     0.000 C 
BRANCH  11  12
ATOM     12  C   UNL     1       5.767 -20.675  -3.255  1.00  0.00    -0.000 C 
BRANCH  12  13
ATOM     13  C   UNL     1       6.436 -21.072  -4.577  1.00  0.00    -0.000 C 
BRANCH  13  14
ATOM     14  C   UNL     1       5.510 -21.958  -5.419  1.00  0.00    -0.000 C 
BRANCH  14  15
ATOM     15  C   UNL     1       5.752 -21.735  -6.920  1.00  0.00    -0.000 C 
BRANCH  15  16
ATOM     16  C   UNL     1       6.276 -20.323  -7.231  1.00  0.00    -0.000 C 
BRANCH  16  17
ATOM     17  C   UNL     1       5.193 -19.407  -7.820  1.00  0.00    -0.003 C 
ATOM     18  C   UNL     1       4.619 -18.480  -6.753  1.00  0.00     0.004 C 
ENDBRANCH  16  17
ENDBRANCH  15  16
ENDBRANCH  14  15
ENDBRANCH  13  14
ENDBRANCH  12  13
ENDBRANCH  11  12
ENDBRANCH   1  11
TORSDOF 14
ENDMDL
MODEL 3
REMARK VINA RESULT:    -4.252      1.992      3.510
REMARK INTER + INTRA:          -9.858
REMARK INTER:                  -7.824
REMARK INTRA:                  -2.034
REMARK UNBOUND:                -2.126
REMARK SMILES CCCCCCCCCCCCCCCC(=O)[O-]
REMARK SMILES IDX 9 1 10 2 11 3 12 4 13 5 14 6 15 7 16 8 17 9 18 10 8 11 7 12
REMARK SMILES IDX 6 13 5 14 4 15 3 16 2 17 1 18
REMARK H PARENT
REMARK Flexibility Score: inf
ROOT
ATOM      1  C   UNL     1       0.873 -20.322  -4.526  1.00  0.00     0.000 C 
ENDROOT
BRANCH   1   2
ATOM      2  C   UNL     1       0.582 -20.482  -3.023  1.00  0.00     0.000 C 
BRANCH   2   3
ATOM      3  C   UNL     1       1.844 -20.322  -2.160  1.00  0.00     0.000 C 
BRANCH   3   4
ATOM      4  C   UNL     1       3.123 -20.193  -3.004  1.00  0.00     0.000 C 
BRANCH   4   5
ATOM      5  C   UNL     1       3.968 -18.963  -2.629  1.00  0.00     0.000 C 
BRANCH   5   6
ATOM      6  C   UNL     1       3.203 -17.845  -1.894  1.00  0.00     0.006 C 
BRANCH   6   7
ATOM      7  C   UNL     1       3.271 -16.496  -2.623  1.00  0.00     0.053 C 
BRANCH   7   8
ATOM      8  C   UNL     1       1.893 -16.009  -2.947  1.00  0.00     0.041 C 
ATOM      9  O   UNL     1       1.642 -14.775  -2.946  1.00  0.00    -0.550 OA
ATOM     10  O   UNL     1       0.875 -16.918  -3.201  1.00  0.00    -0.550 OA
ENDBRANCH   7   8
ENDBRANCH   6   7
ENDBRANCH   5   6
ENDBRANCH   4   5
ENDBRANCH   3   4
ENDBRANCH   2   3
ENDBRANCH   1   2
BRANCH   1  11
ATOM     11  C   UNL     1       0.175 -21.394  -5.379  1.00  0.00     0.000 C 
BRANCH  11  12
ATOM     12  C   UNL     1       1.146 -22.138  -6.309  1.00  0.00    -0.000 C 
BRANCH  12  13
ATOM     13  C   UNL     1       0.923 -21.736  -7.772  1.00  0.00    -0.000 C 
BRANCH  13  14
ATOM     14  C   UNL     1       2.037 -20.805  -8.264  1.00  0.00    -0.000 C 
BRANCH  14  15
ATOM     15  C   UNL     1       3.301 -20.957  -7.402  1.00  0.00    -0.000 C 
BRANCH  15  16
ATOM     16  C   UNL     1       4.142 -19.671  -7.355  1.00  0.00    -0.000 C 
BRANCH  16  17
ATOM     17  C   UNL     1       3.550 -18.611  -6.414  1.00  0.00    -0.003 C 
ATOM     18  C   UNL     1       4.588 -17.551  -6.060  1.00  0.00     0.004 C 
ENDBRANCH  16  17
ENDBRANCH  15  16
ENDBRANCH  14  15
ENDBRANCH  13  14
ENDBRANCH  12  13
ENDBRANCH  11  12
ENDBRANCH   1  11
TORSDOF 14
ENDMDL
MODEL 4
REMARK VINA RESULT:    -4.248      1.563      2.575
REMARK INTER + INTRA:          -9.850
REMARK INTER:                  -7.422
REMARK INTRA:                  -2.429
REMARK UNBOUND:                -2.126
REMARK SMILES CCCCCCCCCCCCCCCC(=O)[O-]
REMARK SMILES IDX 9 1 10 2 11 3 12 4 13 5 14 6 15 7 16 8 17 9 18 10 8 11 7 12
REMARK SMILES IDX 6 13 5 14 4 15 3 16 2 17 1 18
REMARK H PARENT
REMARK Flexibility Score: inf
ROOT
ATOM      1  C   UNL     1       2.928 -20.297  -7.773  1.00  0.00     0.000 C 
ENDROOT
BRANCH   1   2
ATOM      2  C   UNL     1       1.609 -20.816  -8.372  1.00  0.00     0.000 C 
BRANCH   2   3
ATOM      3  C   UNL     1       1.138 -22.123  -7.713  1.00  0.00     0.000 C 
BRANCH   3   4
ATOM      4  C   UNL     1      -0.020 -21.902  -6.725  1.00  0.00     0.000 C 
BRANCH   4   5
ATOM      5  C   UNL     1       0.453 -21.755  -5.268  1.00  0.00     0.000 C 
BRANCH   5   6
ATOM      6  C   UNL     1       0.630 -20.304  -4.783  1.00  0.00     0.006 C 
BRANCH   6   7
ATOM      7  C   UNL     1       0.790 -20.198  -3.261  1.00  0.00     0.053 C 
BRANCH   7   8
ATOM      8  C   UNL     1       1.652 -19.026  -2.907  1.00  0.00     0.041 C 
ATOM      9  O   UNL     1       1.364 -17.877  -3.333  1.00  0.00    -0.550 OA
ATOM     10  O   UNL     1       2.801 -19.212  -2.148  1.00  0.00    -0.550 OA
ENDBRANCH   7   8
ENDBRANCH   6   7
ENDBRANCH   5   6
ENDBRANCH   4   5
ENDBRANCH   3   4
ENDBRANCH   2   3
ENDBRANCH   1   2
BRANCH   1  11
ATOM     11  C   UNL     1       3.722 -21.397  -7.051  1.00  0.00     0.000 C 
BRANCH  11  12
ATOM     12  C   UNL     1       4.239 -20.951  -5.675  1.00  0.00    -0.000 C 
BRANCH  12  13
ATOM     13  C   UNL     1       4.163 -19.427  -5.527  1.00  0.00    -0.000 C 
BRANCH  13  14
ATOM     14  C   UNL     1       5.461 -18.865  -4.935  1.00  0.00    -0.000 C 
BRANCH  14  15
ATOM     15  C   UNL     1       6.516 -18.649  -6.031  1.00  0.00    -0.000 C 
BRANCH  15  16
ATOM     16  C   UNL     1       5.914 -18.093  -7.331  1.00  0.00    -0.000 C 
BRANCH  16  17
ATOM     17  C   UNL     1       6.336 -18.896  -8.570  1.00  0.00    -0.003 C 
ATOM     18  C   UNL     1       7.095 -20.158  -8.174  1.00  0.00     0.004 C 
ENDBRANCH  16  17
ENDBRANCH  15  16
ENDBRANCH  14  15
ENDBRANCH  13  14
ENDBRANCH  12  13
ENDBRANCH  11  12
ENDBRANCH   1  11
TORSDOF 14
ENDMDL
MODEL 5
REMARK VINA RESULT:    -4.226      1.393      1.922
REMARK INTER + INTRA:          -9.812
REMARK INTER:                  -7.553
REMARK INTRA:                  -2.258
REMARK UNBOUND:                -2.126
REMARK SMILES CCCCCCCCCCCCCCCC(=O)[O-]
REMARK SMILES IDX 9 1 10 2 11 3 12 4 13 5 14 6 15 7 16 8 17 9 18 10 8 11 7 12
REMARK SMILES IDX 6 13 5 14 4 15 3 16 2 17 1 18
REMARK H PARENT
REMARK Flexibility Score: inf
ROOT
ATOM      1  C   UNL     1       1.100 -22.081  -6.320  1.00  0.00     0.000 C 
ENDROOT
BRANCH   1   2
ATOM      2  C   UNL     1       0.110 -21.503  -5.293  1.00  0.00     0.000 C 
BRANCH   2   3
ATOM      3  C   UNL     1       0.784 -20.534  -4.308  1.00  0.00     0.000 C 
BRANCH   3   4
ATOM      4  C   UNL     1       1.148 -19.189  -4.959  1.00  0.00     0.000 C 
BRANCH   4   5
ATOM      5  C   UNL     1       2.055 -18.319  -4.072  1.00  0.00     0.000 C 
BRANCH   5   6
ATOM      6  C   UNL     1       2.363 -18.904  -2.681  1.00  0.00     0.006 C 
BRANCH   6   7
ATOM      7  C   UNL     1       3.518 -18.185  -1.972  1.00  0.00     0.053 C 
BRANCH   7   8
ATOM      8  C   UNL     1       3.206 -16.730  -1.809  1.00  0.00     0.041 C 
ATOM      9  O   UNL     1       2.229 -16.368  -1.102  1.00  0.00    -0.550 OA
ATOM     10  O   UNL     1       3.962 -15.776  -2.479  1.00  0.00    -0.550 OA
ENDBRANCH   7   8
ENDBRANCH   6   7
ENDBRANCH   5   6
ENDBRANCH   4   5
ENDBRANCH   3   4
ENDBRANCH   2   3
ENDBRANCH   1   2
BRANCH   1  11
ATOM     11  C   UNL     1       0.820 -21.592  -7.750  1.00  0.00     0.000 C 
BRANCH  11  12
ATOM     12  C   UNL     1       2.018 -20.860  -8.374  1.00  0.00    -0.000 C 
BRANCH  12  13
ATOM     13  C   UNL     1       3.282 -21.054  -7.528  1.00  0.00    -0.000 C 
BRANCH  13  14
ATOM     14  C   UNL     1       4.013 -19.723  -7.316  1.00  0.00    -0.000 C 
BRANCH  14  15
ATOM     15  C   UNL     1       4.945 -19.797  -6.096  1.00  0.00    -0.000 C 
BRANCH  15  16
ATOM     16  C   UNL     1       4.475 -20.823  -5.054  1.00  0.00    -0.000 C 
BRANCH  16  17
ATOM     17  C   UNL     1       5.585 -21.215  -4.066  1.00  0.00    -0.003 C 
ATOM     18  C   UNL     1       6.964 -20.910  -4.641  1.00  0.00     0.004 C 
ENDBRANCH  16  17
ENDBRANCH  15  16
ENDBRANCH  14  15
ENDBRANCH  13  14
ENDBRANCH  12  13
ENDBRANCH  11  12
ENDBRANCH   1  11
TORSDOF 14
ENDMDL
MODEL 6
REMARK VINA RESULT:    -4.192      2.263      4.911
REMARK INTER + INTRA:          -9.748
REMARK INTER:                  -7.818
REMARK INTRA:                  -1.931
REMARK UNBOUND:                -2.126
REMARK SMILES CCCCCCCCCCCCCCCC(=O)[O-]
REMARK SMILES IDX 9 1 10 2 11 3 12 4 13 5 14 6 15 7 16 8 17 9 18 10 8 11 7 12
REMARK SMILES IDX 6 13 5 14 4 15 3 16 2 17 1 18
REMARK H PARENT
REMARK Flexibility Score: inf
ROOT
ATOM      1  C   UNL     1       0.359 -21.745  -5.142  1.00  0.00     0.000 C 
ENDROOT
BRANCH   1   2
ATOM      2  C   UNL     1      -0.022 -21.984  -6.613  1.00  0.00     0.000 C 
BRANCH   2   3
ATOM      3  C   UNL     1       1.206 -22.226  -7.507  1.00  0.00     0.000 C 
BRANCH   3   4
ATOM      4  C   UNL     1       1.602 -20.979  -8.316  1.00  0.00     0.000 C 
BRANCH   4   5
ATOM      5  C   UNL     1       2.987 -20.430  -7.934  1.00  0.00     0.000 C 
BRANCH   5   6
ATOM      6  C   UNL     1       3.608 -21.050  -6.668  1.00  0.00     0.006 C 
BRANCH   6   7
ATOM      7  C   UNL     1       5.086 -21.420  -6.847  1.00  0.00     0.053 C 
BRANCH   7   8
ATOM      8  C   UNL     1       5.900 -20.196  -7.131  1.00  0.00     0.041 C 
ATOM      9  O   UNL     1       6.619 -20.141  -8.162  1.00  0.00    -0.550 OA
ATOM     10  O   UNL     1       5.903 -19.138  -6.231  1.00  0.00    -0.550 OA
ENDBRANCH   7   8
ENDBRANCH   6   7
ENDBRANCH   5   6
ENDBRANCH   4   5
ENDBRANCH   3   4
ENDBRANCH   2   3
ENDBRANCH   1   2
BRANCH   1  11
ATOM     11  C   UNL     1       0.647 -20.267  -4.838  1.00  0.00     0.000 C 
BRANCH  11  12
ATOM     12  C   UNL     1       0.262 -19.868  -3.405  1.00  0.00    -0.000 C 
BRANCH  12  13
ATOM     13  C   UNL     1       1.136 -20.597  -2.378  1.00  0.00    -0.000 C 
BRANCH  13  14
ATOM     14  C   UNL     1       2.614 -20.227  -2.550  1.00  0.00    -0.000 C 
BRANCH  14  15
ATOM     15  C   UNL     1       2.826 -18.715  -2.374  1.00  0.00    -0.000 C 
BRANCH  15  16
ATOM     16  C   UNL     1       3.611 -18.089  -3.538  1.00  0.00    -0.000 C 
BRANCH  16  17
ATOM     17  C   UNL     1       2.787 -17.054  -4.319  1.00  0.00    -0.003 C 
ATOM     18  C   UNL     1       2.685 -17.433  -5.793  1.00  0.00     0.004 C 
ENDBRANCH  16  17
ENDBRANCH  15  16
ENDBRANCH  14  15
ENDBRANCH  13  14
ENDBRANCH  12  13
ENDBRANCH  11  12
ENDBRANCH   1  11
TORSDOF 14
ENDMDL
MODEL 7
REMARK VINA RESULT:    -4.181      2.771      5.176
REMARK INTER + INTRA:          -9.729
REMARK INTER:                  -7.816
REMARK INTRA:                  -1.913
REMARK UNBOUND:                -2.126
REMARK SMILES CCCCCCCCCCCCCCCC(=O)[O-]
REMARK SMILES IDX 9 1 10 2 11 3 12 4 13 5 14 6 15 7 16 8 17 9 18 10 8 11 7 12
REMARK SMILES IDX 6 13 5 14 4 15 3 16 2 17 1 18
REMARK H PARENT
REMARK Flexibility Score: inf
ROOT
ATOM      1  C   UNL     1       0.439 -22.626  -6.527  1.00  0.00     0.000 C 
ENDROOT
BRANCH   1   2
ATOM      2  C   UNL     1       1.204 -22.241  -7.805  1.00  0.00     0.000 C 
BRANCH   2   3
ATOM      3  C   UNL     1       1.390 -20.722  -7.945  1.00  0.00     0.000 C 
BRANCH   3   4
ATOM      4  C   UNL     1       2.867 -20.299  -7.869  1.00  0.00     0.000 C 
BRANCH   4   5
ATOM      5  C   UNL     1       3.728 -21.270  -7.041  1.00  0.00     0.000 C 
BRANCH   5   6
ATOM      6  C   UNL     1       5.241 -20.985  -7.066  1.00  0.00     0.006 C 
BRANCH   6   7
ATOM      7  C   UNL     1       6.090 -22.262  -7.032  1.00  0.00     0.053 C 
BRANCH   7   8
ATOM      8  C   UNL     1       7.449 -22.001  -7.602  1.00  0.00     0.041 C 
ATOM      9  O   UNL     1       7.946 -22.796  -8.443  1.00  0.00    -0.550 OA
ATOM     10  O   UNL     1       8.188 -20.908  -7.168  1.00  0.00    -0.550 OA
ENDBRANCH   7   8
ENDBRANCH   6   7
ENDBRANCH   5   6
ENDBRANCH   4   5
ENDBRANCH   3   4
ENDBRANCH   2   3
ENDBRANCH   1   2
BRANCH   1  11
ATOM     11  C   UNL     1      -0.038 -21.399  -5.733  1.00  0.00     0.000 C 
BRANCH  11  12
ATOM     12  C   UNL     1       0.694 -21.237  -4.392  1.00  0.00    -0.000 C 
BRANCH  12  13
ATOM     13  C   UNL     1       0.485 -19.830  -3.818  1.00  0.00    -0.000 C 
BRANCH  13  14
ATOM     14  C   UNL     1       1.253 -18.782  -4.631  1.00  0.00    -0.000 C 
BRANCH  14  15
ATOM     15  C   UNL     1       2.767 -18.906  -4.396  1.00  0.00    -0.000 C 
BRANCH  15  16
ATOM     16  C   UNL     1       3.127 -19.013  -2.905  1.00  0.00    -0.000 C 
BRANCH  16  17
ATOM     17  C   UNL     1       4.581 -19.449  -2.677  1.00  0.00    -0.003 C 
ATOM     18  C   UNL     1       4.861 -20.795  -3.339  1.00  0.00     0.004 C 
ENDBRANCH  16  17
ENDBRANCH  15  16
ENDBRANCH  14  15
ENDBRANCH  13  14
ENDBRANCH  12  13
ENDBRANCH  11  12
ENDBRANCH   1  11
TORSDOF 14
ENDMDL
MODEL 8
REMARK VINA RESULT:    -4.127      1.855      2.995
REMARK INTER + INTRA:          -9.631
REMARK INTER:                  -7.399
REMARK INTRA:                  -2.233
REMARK UNBOUND:                -2.126
REMARK SMILES CCCCCCCCCCCCCCCC(=O)[O-]
REMARK SMILES IDX 9 1 10 2 11 3 12 4 13 5 14 6 15 7 16 8 17 9 18 10 8 11 7 12
REMARK SMILES IDX 6 13 5 14 4 15 3 16 2 17 1 18
REMARK H PARENT
REMARK Flexibility Score: inf
ROOT
ATOM      1  C   UNL     1       0.470 -22.006  -5.272  1.00  0.00     0.000 C 
ENDROOT
BRANCH   1   2
ATOM      2  C   UNL     1       0.470 -20.587  -4.678  1.00  0.00     0.000 C 
BRANCH   2   3
ATOM      3  C   UNL     1       0.651 -20.588  -3.151  1.00  0.00     0.000 C 
BRANCH   3   4
ATOM      4  C   UNL     1       1.816 -19.694  -2.695  1.00  0.00     0.000 C 
BRANCH   4   5
ATOM      5  C   UNL     1       2.454 -18.902  -3.850  1.00  0.00     0.000 C 
BRANCH   5   6
ATOM      6  C   UNL     1       3.986 -19.016  -3.950  1.00  0.00     0.006 C 
BRANCH   6   7
ATOM      7  C   UNL     1       4.506 -20.416  -3.600  1.00  0.00     0.053 C 
BRANCH   7   8
ATOM      8  C   UNL     1       6.001 -20.452  -3.672  1.00  0.00     0.041 C 
ATOM      9  O   UNL     1       6.589 -21.474  -4.112  1.00  0.00    -0.550 OA
ATOM     10  O   UNL     1       6.746 -19.375  -3.208  1.00  0.00    -0.550 OA
ENDBRANCH   7   8
ENDBRANCH   6   7
ENDBRANCH   5   6
ENDBRANCH   4   5
ENDBRANCH   3   4
ENDBRANCH   2   3
ENDBRANCH   1   2
BRANCH   1  11
ATOM     11  C   UNL     1       0.013 -22.032  -6.740  1.00  0.00     0.000 C 
BRANCH  11  12
ATOM     12  C   UNL     1       1.183 -22.186  -7.723  1.00  0.00    -0.000 C 
BRANCH  12  13
ATOM     13  C   UNL     1       1.533 -20.843  -8.377  1.00  0.00    -0.000 C 
BRANCH  13  14
ATOM     14  C   UNL     1       2.632 -20.117  -7.592  1.00  0.00    -0.000 C 
BRANCH  14  15
ATOM     15  C   UNL     1       3.664 -21.114  -7.042  1.00  0.00    -0.000 C 
BRANCH  15  16
ATOM     16  C   UNL     1       5.112 -20.674  -7.309  1.00  0.00    -0.000 C 
BRANCH  16  17
ATOM     17  C   UNL     1       5.230 -19.170  -7.597  1.00  0.00    -0.003 C 
ATOM     18  C   UNL     1       6.442 -18.570  -6.891  1.00  0.00     0.004 C 
ENDBRANCH  16  17
ENDBRANCH  15  16
ENDBRANCH  14  15
ENDBRANCH  13  14
ENDBRANCH  12  13
ENDBRANCH  11  12
ENDBRANCH   1  11
TORSDOF 14
ENDMDL
MODEL 9
REMARK VINA RESULT:    -4.084     11.240     13.916
REMARK INTER + INTRA:          -9.553
REMARK INTER:                  -7.191
REMARK INTRA:                  -2.361
REMARK UNBOUND:                -2.126
REMARK SMILES CCCCCCCCCCCCCCCC(=O)[O-]
REMARK SMILES IDX 9 1 10 2 11 3 12 4 13 5 14 6 15 7 16 8 17 9 18 10 8 11 7 12
REMARK SMILES IDX 6 13 5 14 4 15 3 16 2 17 1 18
REMARK H PARENT
REMARK Flexibility Score: inf
ROOT
ATOM      1  C   UNL     1      -5.108 -27.977  -3.730  1.00  0.00     0.000 C 
ENDROOT
BRANCH   1   2
ATOM      2  C   UNL     1      -5.483 -26.735  -2.902  1.00  0.00     0.000 C 
BRANCH   2   3
ATOM      3  C   UNL     1      -6.149 -27.098  -1.565  1.00  0.00     0.000 C 
BRANCH   3   4
ATOM      4  C   UNL     1      -7.508 -26.403  -1.375  1.00  0.00     0.000 C 
BRANCH   4   5
ATOM      5  C   UNL     1      -8.232 -26.126  -2.704  1.00  0.00     0.000 C 
BRANCH   5   6
ATOM      6  C   UNL     1      -8.568 -24.646  -2.968  1.00  0.00     0.006 C 
BRANCH   6   7
ATOM      7  C   UNL     1      -9.226 -23.960  -1.763  1.00  0.00     0.053 C 
BRANCH   7   8
ATOM      8  C   UNL     1      -8.387 -22.812  -1.294  1.00  0.00     0.041 C 
ATOM      9  O   UNL     1      -8.834 -22.013  -0.431  1.00  0.00    -0.550 OA
ATOM     10  O   UNL     1      -7.131 -22.596  -1.848  1.00  0.00    -0.550 OA
ENDBRANCH   7   8
ENDBRANCH   6   7
ENDBRANCH   5   6
ENDBRANCH   4   5
ENDBRANCH   3   4
ENDBRANCH   2   3
ENDBRANCH   1   2
BRANCH   1  11
ATOM     11  C   UNL     1      -5.876 -29.233  -3.289  1.00  0.00     0.000 C 
BRANCH  11  12
ATOM     12  C   UNL     1      -7.084 -29.537  -4.188  1.00  0.00    -0.000 C 
BRANCH  12  13
ATOM     13  C   UNL     1      -8.113 -30.402  -3.451  1.00  0.00    -0.000 C 
BRANCH  13  14
ATOM     14  C   UNL     1      -7.895 -30.348  -1.934  1.00  0.00    -0.000 C 
BRANCH  14  15
ATOM     15  C   UNL     1      -9.114 -29.739  -1.225  1.00  0.00    -0.000 C 
BRANCH  15  16
ATOM     16  C   UNL     1     -10.329 -29.595  -2.155  1.00  0.00    -0.000 C 
BRANCH  16  17
ATOM     17  C   UNL     1     -11.073 -28.266  -1.957  1.00  0.00    -0.003 C 
ATOM     18  C   UNL     1     -10.874 -27.732  -0.542  1.00  0.00     0.004 C 
ENDBRANCH  16  17
ENDBRANCH  15  16
ENDBRANCH  14  15
ENDBRANCH  13  14
ENDBRANCH  12  13
ENDBRANCH  11  12
ENDBRANCH   1  11
TORSDOF 14
ENDMDL
