MODEL 1
REMARK VINA RESULT:    -7.310      0.000      0.000
REMARK INTER + INTRA:         -15.823
REMARK INTER:                 -12.865
REMARK INTRA:                  -2.958
REMARK UNBOUND:                -2.958
REMARK SMILES COc1cc(-c2[o+]c3cc(O)cc(O[C@@H]4O[C@@H](CO)[C@@H](O)[C@H](O)[C@H]4O)c3cc2O[C@@H]2O[C@H](CO)[C@@H](O)[C@@H](O)[C@@H]2O)ccc1O
REMARK SMILES IDX 6 1 28 2 27 3 26 4 13 5 12 6 10 7 9 8 8 9 7 10 5 11 3 12
REMARK SMILES IDX 43 13 4 14 42 15 41 16 2 17 1 18 44 19 29 21 30 22 39 23
REMARK SMILES IDX 31 24 37 25 32 26 35 27 40 28 38 30 33 32 34 33 36 35 14 37
REMARK SMILES IDX 15 38 24 39 16 40 22 41 17 42 20 43 25 44 23 46 18 48 19 49
REMARK SMILES IDX 21 51 11 53
REMARK H PARENT 44 20 40 29 38 31 34 34 36 36 25 45 23 47 19 50 21 52 11 54
REMARK Flexibility Score: inf
ROOT
ATOM      1  C   UNL     1      -0.568 -18.187  29.812  1.00  0.00     0.402 A 
ATOM      2  C   UNL     1      -0.262 -18.313  28.442  1.00  0.00     0.229 A 
ATOM      3  C   UNL     1      -0.119 -19.610  27.918  1.00  0.00     0.079 A 
ATOM      4  C   UNL     1      -0.264 -20.726  28.751  1.00  0.00     0.126 A 
ATOM      5  C   UNL     1      -0.117 -22.040  28.264  1.00  0.00     0.143 A 
ATOM      6  C   UNL     1      -0.281 -23.122  29.151  1.00  0.00     0.094 A 
ATOM      7  C   UNL     1      -0.570 -22.898  30.502  1.00  0.00     0.128 A 
ATOM      8  C   UNL     1      -0.696 -21.590  30.981  1.00  0.00     0.162 A 
ATOM      9  C   UNL     1      -0.548 -20.505  30.114  1.00  0.00     0.368 A 
ATOM     10  O   UNL     1      -0.682 -19.268  30.580  1.00  0.00    -0.202 OA
ENDROOT
BRANCH   1  11
ATOM     11  C   UNL     1      -0.773 -16.869  30.434  1.00  0.00     0.087 A 
ATOM     12  C   UNL     1      -2.078 -14.823  30.681  1.00  0.00     0.161 A 
ATOM     13  C   UNL     1      -1.170 -14.371  31.650  1.00  0.00     0.157 A 
ATOM     14  C   UNL     1      -1.880 -16.083  30.082  1.00  0.00     0.068 A 
ATOM     15  C   UNL     1      -0.081 -15.172  32.020  1.00  0.00     0.051 A 
ATOM     16  C   UNL     1       0.112 -16.418  31.421  1.00  0.00     0.022 A 
BRANCH  12  17
ATOM     17  O   UNL     1      -3.162 -13.997  30.342  1.00  0.00    -0.493 OA
ATOM     18  C   UNL     1      -4.500 -14.203  30.783  1.00  0.00     0.278 C 
ENDBRANCH  12  17
BRANCH  13  19
ATOM     19  O   UNL     1      -1.358 -13.123  32.242  1.00  0.00    -0.504 OA
ATOM     20  H   UNL     1      -1.990 -12.436  31.846  1.00  0.00     0.293 HD
ENDBRANCH  13  19
ENDBRANCH   1  11
BRANCH   2  21
ATOM     21  O   UNL     1      -0.093 -17.150  27.662  1.00  0.00    -0.452 OA
BRANCH  21  22
ATOM     22  C   UNL     1       0.514 -17.077  26.362  1.00  0.00     0.339 C 
ATOM     23  C   UNL     1      -0.532 -17.004  25.224  1.00  0.00     0.214 C 
ATOM     24  O   UNL     1       1.448 -16.004  26.305  1.00  0.00    -0.332 OA
ATOM     25  C   UNL     1      -1.240 -15.639  25.215  1.00  0.00     0.180 C 
ATOM     26  C   UNL     1       0.865 -14.705  26.287  1.00  0.00     0.179 C 
ATOM     27  C   UNL     1      -0.189 -14.520  25.170  1.00  0.00     0.177 C 
BRANCH  23  28
ATOM     28  O   UNL     1      -1.454 -18.060  25.299  1.00  0.00    -0.384 OA
ATOM     29  H   UNL     1      -0.945 -18.905  25.412  1.00  0.00     0.211 HD
ENDBRANCH  23  28
BRANCH  25  30
ATOM     30  O   UNL     1      -2.083 -15.536  24.097  1.00  0.00    -0.387 OA
ATOM     31  H   UNL     1      -1.524 -15.218  23.340  1.00  0.00     0.211 HD
ENDBRANCH  25  30
BRANCH  26  32
ATOM     32  C   UNL     1       0.370 -14.265  27.681  1.00  0.00     0.191 C 
BRANCH  32  33
ATOM     33  O   UNL     1       1.309 -14.598  28.669  1.00  0.00    -0.394 OA
ATOM     34  H   UNL     1       2.197 -14.314  28.327  1.00  0.00     0.210 HD
ENDBRANCH  32  33
ENDBRANCH  26  32
BRANCH  27  35
ATOM     35  O   UNL     1       0.467 -14.520  23.926  1.00  0.00    -0.387 OA
ATOM     36  H   UNL     1       1.366 -14.125  24.067  1.00  0.00     0.211 HD
ENDBRANCH  27  35
ENDBRANCH  21  22
ENDBRANCH   2  21
BRANCH   5  37
ATOM     37  O   UNL     1       0.197 -22.229  26.908  1.00  0.00    -0.461 OA
BRANCH  37  38
ATOM     38  C   UNL     1       1.496 -22.531  26.389  1.00  0.00     0.339 C 
ATOM     39  C   UNL     1       1.406 -23.706  25.395  1.00  0.00     0.214 C 
ATOM     40  O   UNL     1       2.099 -21.390  25.792  1.00  0.00    -0.332 OA
ATOM     41  C   UNL     1       0.697 -23.271  24.090  1.00  0.00     0.180 C 
ATOM     42  C   UNL     1       1.327 -20.909  24.702  1.00  0.00     0.179 C 
ATOM     43  C   UNL     1       1.290 -21.949  23.562  1.00  0.00     0.177 C 
BRANCH  39  44
ATOM     44  O   UNL     1       2.702 -24.170  25.113  1.00  0.00    -0.384 OA
ATOM     45  H   UNL     1       3.095 -23.532  24.460  1.00  0.00     0.211 HD
ENDBRANCH  39  44
BRANCH  41  46
ATOM     46  O   UNL     1      -0.680 -23.103  24.320  1.00  0.00    -0.387 OA
ATOM     47  H   UNL     1      -0.801 -22.184  24.677  1.00  0.00     0.211 HD
ENDBRANCH  41  46
BRANCH  42  48
ATOM     48  C   UNL     1       1.917 -19.579  24.222  1.00  0.00     0.191 C 
BRANCH  48  49
ATOM     49  O   UNL     1       1.522 -19.345  22.897  1.00  0.00    -0.394 OA
ATOM     50  H   UNL     1       0.530 -19.305  22.907  1.00  0.00     0.210 HD
ENDBRANCH  48  49
ENDBRANCH  42  48
BRANCH  43  51
ATOM     51  O   UNL     1       2.589 -22.167  23.070  1.00  0.00    -0.387 OA
ATOM     52  H   UNL     1       2.695 -23.148  22.956  1.00  0.00     0.211 HD
ENDBRANCH  43  51
ENDBRANCH  37  38
ENDBRANCH   5  37
BRANCH   7  53
ATOM     53  O   UNL     1      -0.736 -23.986  31.357  1.00  0.00    -0.507 OA
ATOM     54  H   UNL     1      -1.174 -23.884  32.265  1.00  0.00     0.293 HD
ENDBRANCH   7  53
TORSDOF 18
ENDMDL
MODEL 2
REMARK VINA RESULT:    -7.178      2.104      9.587
REMARK INTER + INTRA:         -15.591
REMARK INTER:                 -13.074
REMARK INTRA:                  -2.518
REMARK UNBOUND:                -2.958
REMARK SMILES COc1cc(-c2[o+]c3cc(O)cc(O[C@@H]4O[C@@H](CO)[C@@H](O)[C@H](O)[C@H]4O)c3cc2O[C@@H]2O[C@H](CO)[C@@H](O)[C@@H](O)[C@@H]2O)ccc1O
REMARK SMILES IDX 6 1 28 2 27 3 26 4 13 5 12 6 10 7 9 8 8 9 7 10 5 11 3 12
REMARK SMILES IDX 43 13 4 14 42 15 41 16 2 17 1 18 44 19 29 21 30 22 39 23
REMARK SMILES IDX 31 24 37 25 32 26 35 27 40 28 38 30 33 32 34 33 36 35 14 37
REMARK SMILES IDX 15 38 24 39 16 40 22 41 17 42 20 43 25 44 23 46 18 48 19 49
REMARK SMILES IDX 21 51 11 53
REMARK H PARENT 44 20 40 29 38 31 34 34 36 36 25 45 23 47 19 50 21 52 11 54
REMARK Flexibility Score: inf
ROOT
ATOM      1  C   UNL     1      -0.220 -16.688  25.698  1.00  0.00     0.402 A 
ATOM      2  C   UNL     1      -0.934 -16.800  26.908  1.00  0.00     0.229 A 
ATOM      3  C   UNL     1      -1.365 -15.614  27.528  1.00  0.00     0.079 A 
ATOM      4  C   UNL     1      -1.070 -14.371  26.952  1.00  0.00     0.126 A 
ATOM      5  C   UNL     1      -1.477 -13.161  27.549  1.00  0.00     0.143 A 
ATOM      6  C   UNL     1      -1.155 -11.944  26.918  1.00  0.00     0.094 A 
ATOM      7  C   UNL     1      -0.429 -11.931  25.722  1.00  0.00     0.128 A 
ATOM      8  C   UNL     1      -0.013 -13.136  25.146  1.00  0.00     0.162 A 
ATOM      9  C   UNL     1      -0.333 -14.354  25.751  1.00  0.00     0.368 A 
ATOM     10  O   UNL     1       0.058 -15.491  25.187  1.00  0.00    -0.202 OA
ENDROOT
BRANCH   1  11
ATOM     11  C   UNL     1       0.235 -17.880  24.963  1.00  0.00     0.087 A 
ATOM     12  C   UNL     1       1.862 -19.665  24.621  1.00  0.00     0.161 A 
ATOM     13  C   UNL     1       1.075 -20.169  23.575  1.00  0.00     0.157 A 
ATOM     14  C   UNL     1       1.429 -18.522  25.322  1.00  0.00     0.068 A 
ATOM     15  C   UNL     1      -0.132 -19.543  23.239  1.00  0.00     0.051 A 
ATOM     16  C   UNL     1      -0.555 -18.408  23.935  1.00  0.00     0.022 A 
BRANCH  12  17
ATOM     17  O   UNL     1       3.061 -20.324  24.936  1.00  0.00    -0.493 OA
ATOM     18  C   UNL     1       3.182 -21.353  25.912  1.00  0.00     0.278 C 
ENDBRANCH  12  17
BRANCH  13  19
ATOM     19  O   UNL     1       1.500 -21.297  22.875  1.00  0.00    -0.504 OA
ATOM     20  H   UNL     1       2.219 -21.241  22.162  1.00  0.00     0.293 HD
ENDBRANCH  13  19
ENDBRANCH   1  11
BRANCH   2  21
ATOM     21  O   UNL     1      -1.168 -18.078  27.457  1.00  0.00    -0.452 OA
BRANCH  21  22
ATOM     22  C   UNL     1      -0.325 -18.772  28.391  1.00  0.00     0.339 C 
ATOM     23  C   UNL     1      -1.023 -19.016  29.750  1.00  0.00     0.214 C 
ATOM     24  O   UNL     1       0.172 -19.975  27.816  1.00  0.00    -0.332 OA
ATOM     25  C   UNL     1      -2.128 -20.078  29.617  1.00  0.00     0.180 C 
ATOM     26  C   UNL     1      -0.794 -21.010  27.667  1.00  0.00     0.179 C 
ATOM     27  C   UNL     1      -1.543 -21.345  28.979  1.00  0.00     0.177 C 
BRANCH  23  28
ATOM     28  O   UNL     1      -1.521 -17.823  30.299  1.00  0.00    -0.384 OA
ATOM     29  H   UNL     1      -1.447 -17.113  29.609  1.00  0.00     0.211 HD
ENDBRANCH  23  28
BRANCH  25  30
ATOM     30  O   UNL     1      -2.657 -20.389  30.880  1.00  0.00    -0.387 OA
ATOM     31  H   UNL     1      -3.205 -21.211  30.770  1.00  0.00     0.211 HD
ENDBRANCH  25  30
BRANCH  26  32
ATOM     32  C   UNL     1      -1.732 -20.768  26.466  1.00  0.00     0.191 C 
BRANCH  32  33
ATOM     33  O   UNL     1      -1.489 -21.704  25.450  1.00  0.00    -0.394 OA
ATOM     34  H   UNL     1      -2.245 -21.633  24.810  1.00  0.00     0.210 HD
ENDBRANCH  32  33
ENDBRANCH  26  32
BRANCH  27  35
ATOM     35  O   UNL     1      -0.644 -21.965  29.866  1.00  0.00    -0.387 OA
ATOM     36  H   UNL     1      -1.164 -22.619  30.402  1.00  0.00     0.211 HD
ENDBRANCH  27  35
ENDBRANCH  21  22
ENDBRANCH   2  21
BRANCH   5  37
ATOM     37  O   UNL     1      -2.184 -13.208  28.762  1.00  0.00    -0.461 OA
BRANCH  37  38
ATOM     38  C   UNL     1      -3.245 -12.326  29.141  1.00  0.00     0.339 C 
ATOM     39  C   UNL     1      -4.608 -12.997  28.877  1.00  0.00     0.214 C 
ATOM     40  O   UNL     1      -3.122 -11.913  30.496  1.00  0.00    -0.332 OA
ATOM     41  C   UNL     1      -4.856 -14.152  29.877  1.00  0.00     0.180 C 
ATOM     42  C   UNL     1      -3.179 -13.022  31.382  1.00  0.00     0.179 C 
ATOM     43  C   UNL     1      -4.568 -13.694  31.321  1.00  0.00     0.177 C 
BRANCH  39  44
ATOM     44  O   UNL     1      -5.623 -12.033  28.986  1.00  0.00    -0.384 OA
ATOM     45  H   UNL     1      -5.382 -11.452  29.756  1.00  0.00     0.211 HD
ENDBRANCH  39  44
BRANCH  41  46
ATOM     46  O   UNL     1      -4.034 -15.249  29.564  1.00  0.00    -0.387 OA
ATOM     47  H   UNL     1      -3.116 -14.891  29.434  1.00  0.00     0.211 HD
ENDBRANCH  41  46
BRANCH  42  48
ATOM     48  C   UNL     1      -2.853 -12.545  32.800  1.00  0.00     0.191 C 
BRANCH  48  49
ATOM     49  O   UNL     1      -3.428 -11.283  33.012  1.00  0.00    -0.394 OA
ATOM     50  H   UNL     1      -2.708 -10.711  33.387  1.00  0.00     0.210 HD
ENDBRANCH  48  49
ENDBRANCH  42  48
BRANCH  43  51
ATOM     51  O   UNL     1      -5.556 -12.789  31.747  1.00  0.00    -0.387 OA
ATOM     52  H   UNL     1      -5.316 -12.512  32.670  1.00  0.00     0.211 HD
ENDBRANCH  43  51
ENDBRANCH  37  38
ENDBRANCH   5  37
BRANCH   7  53
ATOM     53  O   UNL     1      -0.131 -10.714  25.113  1.00  0.00    -0.507 OA
ATOM     54  H   UNL     1      -0.860 -10.067  24.837  1.00  0.00     0.293 HD
ENDBRANCH   7  53
TORSDOF 18
ENDMDL
MODEL 3
REMARK VINA RESULT:    -6.920      2.456      8.557
REMARK INTER + INTRA:         -15.138
REMARK INTER:                 -12.855
REMARK INTRA:                  -2.283
REMARK UNBOUND:                -2.958
REMARK SMILES COc1cc(-c2[o+]c3cc(O)cc(O[C@@H]4O[C@@H](CO)[C@@H](O)[C@H](O)[C@H]4O)c3cc2O[C@@H]2O[C@H](CO)[C@@H](O)[C@@H](O)[C@@H]2O)ccc1O
REMARK SMILES IDX 6 1 28 2 27 3 26 4 13 5 12 6 10 7 9 8 8 9 7 10 5 11 3 12
REMARK SMILES IDX 43 13 4 14 42 15 41 16 2 17 1 18 44 19 29 21 30 22 39 23
REMARK SMILES IDX 31 24 37 25 32 26 35 27 40 28 38 30 33 32 34 33 36 35 14 37
REMARK SMILES IDX 15 38 24 39 16 40 22 41 17 42 20 43 25 44 23 46 18 48 19 49
REMARK SMILES IDX 21 51 11 53
REMARK H PARENT 44 20 40 29 38 31 34 34 36 36 25 45 23 47 19 50 21 52 11 54
REMARK Flexibility Score: inf
ROOT
ATOM      1  C   UNL     1       0.174 -17.997  30.413  1.00  0.00     0.402 A 
ATOM      2  C   UNL     1      -0.823 -17.724  29.455  1.00  0.00     0.229 A 
ATOM      3  C   UNL     1      -1.525 -16.510  29.565  1.00  0.00     0.079 A 
ATOM      4  C   UNL     1      -1.237 -15.624  30.610  1.00  0.00     0.126 A 
ATOM      5  C   UNL     1      -1.926 -14.403  30.759  1.00  0.00     0.143 A 
ATOM      6  C   UNL     1      -1.587 -13.551  31.828  1.00  0.00     0.094 A 
ATOM      7  C   UNL     1      -0.590 -13.914  32.741  1.00  0.00     0.128 A 
ATOM      8  C   UNL     1       0.076 -15.136  32.596  1.00  0.00     0.162 A 
ATOM      9  C   UNL     1      -0.239 -15.989  31.536  1.00  0.00     0.368 A 
ATOM     10  O   UNL     1       0.410 -17.141  31.404  1.00  0.00    -0.202 OA
ENDROOT
BRANCH   1  11
ATOM     11  C   UNL     1       0.982 -19.225  30.350  1.00  0.00     0.087 A 
ATOM     12  C   UNL     1       1.331 -21.565  30.946  1.00  0.00     0.161 A 
ATOM     13  C   UNL     1       2.516 -21.570  30.195  1.00  0.00     0.157 A 
ATOM     14  C   UNL     1       0.559 -20.388  31.010  1.00  0.00     0.068 A 
ATOM     15  C   UNL     1       2.920 -20.415  29.512  1.00  0.00     0.051 A 
ATOM     16  C   UNL     1       2.153 -19.251  29.582  1.00  0.00     0.022 A 
BRANCH  12  17
ATOM     17  O   UNL     1       0.953 -22.743  31.610  1.00  0.00    -0.493 OA
ATOM     18  C   UNL     1      -0.394 -23.122  31.872  1.00  0.00     0.278 C 
ENDBRANCH  12  17
BRANCH  13  19
ATOM     19  O   UNL     1       3.287 -22.730  30.132  1.00  0.00    -0.504 OA
ATOM     20  H   UNL     1       3.132 -23.507  30.765  1.00  0.00     0.293 HD
ENDBRANCH  13  19
ENDBRANCH   1  11
BRANCH   2  21
ATOM     21  O   UNL     1      -1.091 -18.673  28.446  1.00  0.00    -0.452 OA
BRANCH  21  22
ATOM     22  C   UNL     1      -1.688 -18.411  27.166  1.00  0.00     0.339 C 
ATOM     23  C   UNL     1      -0.659 -17.911  26.125  1.00  0.00     0.214 C 
ATOM     24  O   UNL     1      -2.409 -19.549  26.708  1.00  0.00    -0.332 OA
ATOM     25  C   UNL     1       0.288 -19.046  25.700  1.00  0.00     0.180 C 
ATOM     26  C   UNL     1      -1.598 -20.642  26.290  1.00  0.00     0.179 C 
ATOM     27  C   UNL     1      -0.539 -20.251  25.232  1.00  0.00     0.177 C 
BRANCH  23  28
ATOM     28  O   UNL     1       0.054 -16.796  26.595  1.00  0.00    -0.384 OA
ATOM     29  H   UNL     1      -0.575 -16.222  27.106  1.00  0.00     0.211 HD
ENDBRANCH  23  28
BRANCH  25  30
ATOM     30  O   UNL     1       1.124 -18.616  24.657  1.00  0.00    -0.387 OA
ATOM     31  H   UNL     1       1.384 -19.425  24.142  1.00  0.00     0.211 HD
ENDBRANCH  25  30
BRANCH  26  32
ATOM     32  C   UNL     1      -1.016 -21.430  27.482  1.00  0.00     0.191 C 
BRANCH  32  33
ATOM     33  O   UNL     1      -1.972 -21.570  28.499  1.00  0.00    -0.394 OA
ATOM     34  H   UNL     1      -2.312 -22.502  28.445  1.00  0.00     0.210 HD
ENDBRANCH  32  33
ENDBRANCH  26  32
BRANCH  27  35
ATOM     35  O   UNL     1      -1.197 -19.949  24.025  1.00  0.00    -0.387 OA
ATOM     36  H   UNL     1      -0.673 -20.365  23.292  1.00  0.00     0.211 HD
ENDBRANCH  27  35
ENDBRANCH  21  22
ENDBRANCH   2  21
BRANCH   5  37
ATOM     37  O   UNL     1      -2.937 -14.080  29.840  1.00  0.00    -0.461 OA
BRANCH  37  38
ATOM     38  C   UNL     1      -3.806 -12.945  29.923  1.00  0.00     0.339 C 
ATOM     39  C   UNL     1      -4.628 -12.815  28.625  1.00  0.00     0.214 C 
ATOM     40  O   UNL     1      -4.647 -13.014  31.068  1.00  0.00    -0.332 OA
ATOM     41  C   UNL     1      -5.681 -13.944  28.524  1.00  0.00     0.180 C 
ATOM     42  C   UNL     1      -5.481 -14.162  31.027  1.00  0.00     0.179 C 
ATOM     43  C   UNL     1      -6.468 -14.074  29.844  1.00  0.00     0.177 C 
BRANCH  39  44
ATOM     44  O   UNL     1      -5.258 -11.559  28.605  1.00  0.00    -0.384 OA
ATOM     45  H   UNL     1      -4.568 -10.891  28.861  1.00  0.00     0.211 HD
ENDBRANCH  39  44
BRANCH  41  46
ATOM     46  O   UNL     1      -5.052 -15.168  28.236  1.00  0.00    -0.387 OA
ATOM     47  H   UNL     1      -4.763 -15.125  27.286  1.00  0.00     0.211 HD
ENDBRANCH  41  46
BRANCH  42  48
ATOM     48  C   UNL     1      -6.222 -14.287  32.362  1.00  0.00     0.191 C 
BRANCH  48  49
ATOM     49  O   UNL     1      -6.343 -13.019  32.949  1.00  0.00    -0.394 OA
ATOM     50  H   UNL     1      -6.965 -13.127  33.715  1.00  0.00     0.210 HD
ENDBRANCH  48  49
ENDBRANCH  42  48
BRANCH  43  51
ATOM     51  O   UNL     1      -7.318 -12.967  30.010  1.00  0.00    -0.387 OA
ATOM     52  H   UNL     1      -8.247 -13.292  29.873  1.00  0.00     0.211 HD
ENDBRANCH  43  51
ENDBRANCH  37  38
ENDBRANCH   5  37
BRANCH   7  53
ATOM     53  O   UNL     1      -0.268 -13.049  33.784  1.00  0.00    -0.507 OA
ATOM     54  H   UNL     1       0.549 -12.451  33.744  1.00  0.00     0.293 HD
ENDBRANCH   7  53
TORSDOF 18
ENDMDL
MODEL 4
REMARK VINA RESULT:    -6.905      1.582      2.421
REMARK INTER + INTRA:         -15.111
REMARK INTER:                 -12.257
REMARK INTRA:                  -2.854
REMARK UNBOUND:                -2.958
REMARK SMILES COc1cc(-c2[o+]c3cc(O)cc(O[C@@H]4O[C@@H](CO)[C@@H](O)[C@H](O)[C@H]4O)c3cc2O[C@@H]2O[C@H](CO)[C@@H](O)[C@@H](O)[C@@H]2O)ccc1O
REMARK SMILES IDX 6 1 28 2 27 3 26 4 13 5 12 6 10 7 9 8 8 9 7 10 5 11 3 12
REMARK SMILES IDX 43 13 4 14 42 15 41 16 2 17 1 18 44 19 29 21 30 22 39 23
REMARK SMILES IDX 31 24 37 25 32 26 35 27 40 28 38 30 33 32 34 33 36 35 14 37
REMARK SMILES IDX 15 38 24 39 16 40 22 41 17 42 20 43 25 44 23 46 18 48 19 49
REMARK SMILES IDX 21 51 11 53
REMARK H PARENT 44 20 40 29 38 31 34 34 36 36 25 45 23 47 19 50 21 52 11 54
REMARK Flexibility Score: inf
ROOT
ATOM      1  C   UNL     1      -0.415 -16.910  30.171  1.00  0.00     0.402 A 
ATOM      2  C   UNL     1      -0.242 -17.065  28.782  1.00  0.00     0.229 A 
ATOM      3  C   UNL     1       0.189 -18.317  28.310  1.00  0.00     0.079 A 
ATOM      4  C   UNL     1       0.448 -19.358  29.211  1.00  0.00     0.126 A 
ATOM      5  C   UNL     1       0.892 -20.623  28.777  1.00  0.00     0.143 A 
ATOM      6  C   UNL     1       1.129 -21.630  29.731  1.00  0.00     0.094 A 
ATOM      7  C   UNL     1       0.942 -21.378  31.095  1.00  0.00     0.128 A 
ATOM      8  C   UNL     1       0.519 -20.114  31.519  1.00  0.00     0.162 A 
ATOM      9  C   UNL     1       0.268 -19.105  30.586  1.00  0.00     0.368 A 
ATOM     10  O   UNL     1      -0.144 -17.913  31.002  1.00  0.00    -0.202 OA
ENDROOT
BRANCH   1  11
ATOM     11  C   UNL     1      -0.901 -15.644  30.746  1.00  0.00     0.087 A 
ATOM     12  C   UNL     1      -2.677 -14.001  31.056  1.00  0.00     0.161 A 
ATOM     13  C   UNL     1      -1.824 -13.246  31.874  1.00  0.00     0.157 A 
ATOM     14  C   UNL     1      -2.212 -15.210  30.501  1.00  0.00     0.068 A 
ATOM     15  C   UNL     1      -0.525 -13.698  32.141  1.00  0.00     0.051 A 
ATOM     16  C   UNL     1      -0.068 -14.895  31.587  1.00  0.00     0.022 A 
BRANCH  12  17
ATOM     17  O   UNL     1      -3.975 -13.522  30.818  1.00  0.00    -0.493 OA
ATOM     18  C   UNL     1      -5.148 -14.327  30.846  1.00  0.00     0.278 C 
ENDBRANCH  12  17
BRANCH  13  19
ATOM     19  O   UNL     1      -2.277 -12.047  32.422  1.00  0.00    -0.504 OA
ATOM     20  H   UNL     1      -3.226 -11.944  32.766  1.00  0.00     0.293 HD
ENDBRANCH  13  19
ENDBRANCH   1  11
BRANCH   2  21
ATOM     21  O   UNL     1      -0.484 -15.968  27.927  1.00  0.00    -0.452 OA
BRANCH  21  22
ATOM     22  C   UNL     1       0.419 -14.885  27.655  1.00  0.00     0.339 C 
ATOM     23  C   UNL     1       1.022 -14.961  26.232  1.00  0.00     0.214 C 
ATOM     24  O   UNL     1      -0.210 -13.634  27.908  1.00  0.00    -0.332 OA
ATOM     25  C   UNL     1      -0.039 -14.638  25.167  1.00  0.00     0.180 C 
ATOM     26  C   UNL     1      -1.204 -13.262  26.958  1.00  0.00     0.179 C 
ATOM     27  C   UNL     1      -0.697 -13.290  25.496  1.00  0.00     0.177 C 
BRANCH  23  28
ATOM     28  O   UNL     1       1.628 -16.205  25.992  1.00  0.00    -0.384 OA
ATOM     29  H   UNL     1       2.607 -16.099  26.120  1.00  0.00     0.211 HD
ENDBRANCH  23  28
BRANCH  25  30
ATOM     30  O   UNL     1       0.551 -14.574  23.895  1.00  0.00    -0.387 OA
ATOM     31  H   UNL     1       0.355 -15.436  23.441  1.00  0.00     0.211 HD
ENDBRANCH  25  30
BRANCH  26  32
ATOM     32  C   UNL     1      -2.529 -14.026  27.165  1.00  0.00     0.191 C 
BRANCH  32  33
ATOM     33  O   UNL     1      -3.486 -13.202  27.776  1.00  0.00    -0.394 OA
ATOM     34  H   UNL     1      -3.210 -13.100  28.725  1.00  0.00     0.210 HD
ENDBRANCH  32  33
ENDBRANCH  26  32
BRANCH  27  35
ATOM     35  O   UNL     1       0.226 -12.243  25.318  1.00  0.00    -0.387 OA
ATOM     36  H   UNL     1      -0.255 -11.499  24.872  1.00  0.00     0.211 HD
ENDBRANCH  27  35
ENDBRANCH  21  22
ENDBRANCH   2  21
BRANCH   5  37
ATOM     37  O   UNL     1       1.092 -20.836  27.403  1.00  0.00    -0.461 OA
BRANCH  37  38
ATOM     38  C   UNL     1       0.282 -21.663  26.562  1.00  0.00     0.339 C 
ATOM     39  C   UNL     1      -0.648 -20.788  25.698  1.00  0.00     0.214 C 
ATOM     40  O   UNL     1       1.075 -22.529  25.760  1.00  0.00    -0.332 OA
ATOM     41  C   UNL     1       0.159 -20.027  24.618  1.00  0.00     0.180 C 
ATOM     42  C   UNL     1       1.934 -21.794  24.901  1.00  0.00     0.179 C 
ATOM     43  C   UNL     1       1.112 -20.985  23.875  1.00  0.00     0.177 C 
BRANCH  39  44
ATOM     44  O   UNL     1      -1.618 -21.604  25.095  1.00  0.00    -0.384 OA
ATOM     45  H   UNL     1      -1.886 -21.152  24.252  1.00  0.00     0.211 HD
ENDBRANCH  39  44
BRANCH  41  46
ATOM     46  O   UNL     1       0.907 -18.994  25.211  1.00  0.00    -0.387 OA
ATOM     47  H   UNL     1       1.404 -18.543  24.479  1.00  0.00     0.211 HD
ENDBRANCH  41  46
BRANCH  42  48
ATOM     48  C   UNL     1       2.892 -22.765  24.204  1.00  0.00     0.191 C 
BRANCH  48  49
ATOM     49  O   UNL     1       3.220 -22.266  22.935  1.00  0.00    -0.394 OA
ATOM     50  H   UNL     1       2.626 -21.485  22.783  1.00  0.00     0.210 HD
ENDBRANCH  48  49
ENDBRANCH  42  48
BRANCH  43  51
ATOM     51  O   UNL     1       0.375 -21.858  23.055  1.00  0.00    -0.387 OA
ATOM     52  H   UNL     1       0.510 -22.774  23.416  1.00  0.00     0.211 HD
ENDBRANCH  43  51
ENDBRANCH  37  38
ENDBRANCH   5  37
BRANCH   7  53
ATOM     53  O   UNL     1       1.175 -22.395  32.019  1.00  0.00    -0.507 OA
ATOM     54  H   UNL     1       1.284 -22.199  33.008  1.00  0.00     0.293 HD
ENDBRANCH   7  53
TORSDOF 18
ENDMDL
MODEL 5
REMARK VINA RESULT:    -6.845      1.877      7.340
REMARK INTER + INTRA:         -15.005
REMARK INTER:                 -11.852
REMARK INTRA:                  -3.154
REMARK UNBOUND:                -2.958
REMARK SMILES COc1cc(-c2[o+]c3cc(O)cc(O[C@@H]4O[C@@H](CO)[C@@H](O)[C@H](O)[C@H]4O)c3cc2O[C@@H]2O[C@H](CO)[C@@H](O)[C@@H](O)[C@@H]2O)ccc1O
REMARK SMILES IDX 6 1 28 2 27 3 26 4 13 5 12 6 10 7 9 8 8 9 7 10 5 11 3 12
REMARK SMILES IDX 43 13 4 14 42 15 41 16 2 17 1 18 44 19 29 21 30 22 39 23
REMARK SMILES IDX 31 24 37 25 32 26 35 27 40 28 38 30 33 32 34 33 36 35 14 37
REMARK SMILES IDX 15 38 24 39 16 40 22 41 17 42 20 43 25 44 23 46 18 48 19 49
REMARK SMILES IDX 21 51 11 53
REMARK H PARENT 44 20 40 29 38 31 34 34 36 36 25 45 23 47 19 50 21 52 11 54
REMARK Flexibility Score: inf
ROOT
ATOM      1  C   UNL     1      -0.010 -20.212  29.596  1.00  0.00     0.402 A 
ATOM      2  C   UNL     1       0.308 -19.599  28.368  1.00  0.00     0.229 A 
ATOM      3  C   UNL     1       0.636 -18.232  28.381  1.00  0.00     0.079 A 
ATOM      4  C   UNL     1       0.625 -17.518  29.586  1.00  0.00     0.126 A 
ATOM      5  C   UNL     1       0.937 -16.144  29.639  1.00  0.00     0.143 A 
ATOM      6  C   UNL     1       0.915 -15.484  30.882  1.00  0.00     0.094 A 
ATOM      7  C   UNL     1       0.572 -16.174  32.050  1.00  0.00     0.128 A 
ATOM      8  C   UNL     1       0.245 -17.533  31.987  1.00  0.00     0.162 A 
ATOM      9  C   UNL     1       0.273 -18.208  30.764  1.00  0.00     0.368 A 
ATOM     10  O   UNL     1      -0.028 -19.501  30.720  1.00  0.00    -0.202 OA
ENDROOT
BRANCH   1  11
ATOM     11  C   UNL     1      -0.327 -21.647  29.677  1.00  0.00     0.087 A 
ATOM     12  C   UNL     1       0.375 -23.955  30.042  1.00  0.00     0.161 A 
ATOM     13  C   UNL     1      -0.950 -24.377  29.859  1.00  0.00     0.157 A 
ATOM     14  C   UNL     1       0.680 -22.582  29.960  1.00  0.00     0.068 A 
ATOM     15  C   UNL     1      -1.958 -23.438  29.606  1.00  0.00     0.051 A 
ATOM     16  C   UNL     1      -1.650 -22.079  29.523  1.00  0.00     0.022 A 
BRANCH  12  17
ATOM     17  O   UNL     1       1.358 -24.923  30.303  1.00  0.00    -0.493 OA
ATOM     18  C   UNL     1       2.262 -25.434  29.330  1.00  0.00     0.278 C 
ENDBRANCH  12  17
BRANCH  13  19
ATOM     19  O   UNL     1      -1.257 -25.735  29.934  1.00  0.00    -0.504 OA
ATOM     20  H   UNL     1      -0.573 -26.449  29.709  1.00  0.00     0.293 HD
ENDBRANCH  13  19
ENDBRANCH   1  11
BRANCH   2  21
ATOM     21  O   UNL     1       0.266 -20.363  27.182  1.00  0.00    -0.452 OA
BRANCH  21  22
ATOM     22  C   UNL     1       1.392 -20.756  26.381  1.00  0.00     0.339 C 
ATOM     23  C   UNL     1       1.166 -22.109  25.666  1.00  0.00     0.214 C 
ATOM     24  O   UNL     1       1.747 -19.719  25.473  1.00  0.00    -0.332 OA
ATOM     25  C   UNL     1       0.131 -21.968  24.538  1.00  0.00     0.180 C 
ATOM     26  C   UNL     1       0.836 -19.532  24.395  1.00  0.00     0.179 C 
ATOM     27  C   UNL     1       0.551 -20.828  23.600  1.00  0.00     0.177 C 
BRANCH  23  28
ATOM     28  O   UNL     1       0.804 -23.120  26.572  1.00  0.00    -0.384 OA
ATOM     29  H   UNL     1       1.587 -23.718  26.693  1.00  0.00     0.211 HD
ENDBRANCH  23  28
BRANCH  25  30
ATOM     30  O   UNL     1       0.038 -23.165  23.810  1.00  0.00    -0.387 OA
ATOM     31  H   UNL     1      -0.204 -22.920  22.878  1.00  0.00     0.211 HD
ENDBRANCH  25  30
BRANCH  26  32
ATOM     32  C   UNL     1      -0.441 -18.781  24.829  1.00  0.00     0.191 C 
BRANCH  32  33
ATOM     33  O   UNL     1      -1.281 -18.556  23.729  1.00  0.00    -0.394 OA
ATOM     34  H   UNL     1      -1.797 -17.731  23.928  1.00  0.00     0.210 HD
ENDBRANCH  32  33
ENDBRANCH  26  32
BRANCH  27  35
ATOM     35  O   UNL     1       1.712 -21.187  22.890  1.00  0.00    -0.387 OA
ATOM     36  H   UNL     1       1.434 -21.413  21.965  1.00  0.00     0.211 HD
ENDBRANCH  27  35
ENDBRANCH  21  22
ENDBRANCH   2  21
BRANCH   5  37
ATOM     37  O   UNL     1       1.253 -15.476  28.445  1.00  0.00    -0.461 OA
BRANCH  37  38
ATOM     38  C   UNL     1       0.702 -14.226  28.020  1.00  0.00     0.339 C 
ATOM     39  C   UNL     1       1.679 -13.516  27.062  1.00  0.00     0.214 C 
ATOM     40  O   UNL     1      -0.579 -14.396  27.424  1.00  0.00    -0.332 OA
ATOM     41  C   UNL     1       1.747 -14.249  25.700  1.00  0.00     0.180 C 
ATOM     42  C   UNL     1      -0.507 -15.221  26.271  1.00  0.00     0.179 C 
ATOM     43  C   UNL     1       0.329 -14.540  25.168  1.00  0.00     0.177 C 
BRANCH  39  44
ATOM     44  O   UNL     1       1.260 -12.188  26.878  1.00  0.00    -0.384 OA
ATOM     45  H   UNL     1       2.073 -11.661  26.658  1.00  0.00     0.211 HD
ENDBRANCH  39  44
BRANCH  41  46
ATOM     46  O   UNL     1       2.450 -15.459  25.837  1.00  0.00    -0.387 OA
ATOM     47  H   UNL     1       2.169 -16.042  25.082  1.00  0.00     0.211 HD
ENDBRANCH  41  46
BRANCH  42  48
ATOM     48  C   UNL     1      -1.929 -15.524  25.786  1.00  0.00     0.191 C 
BRANCH  48  49
ATOM     49  O   UNL     1      -1.927 -15.649  24.389  1.00  0.00    -0.394 OA
ATOM     50  H   UNL     1      -1.194 -15.065  24.060  1.00  0.00     0.210 HD
ENDBRANCH  48  49
ENDBRANCH  42  48
BRANCH  43  51
ATOM     51  O   UNL     1      -0.290 -13.344  24.766  1.00  0.00    -0.387 OA
ATOM     52  H   UNL     1      -1.246 -13.410  25.031  1.00  0.00     0.211 HD
ENDBRANCH  43  51
ENDBRANCH  37  38
ENDBRANCH   5  37
BRANCH   7  53
ATOM     53  O   UNL     1       0.566 -15.499  33.269  1.00  0.00    -0.507 OA
ATOM     54  H   UNL     1      -0.215 -14.916  33.548  1.00  0.00     0.293 HD
ENDBRANCH   7  53
TORSDOF 18
ENDMDL
MODEL 6
REMARK VINA RESULT:    -6.840      1.505      1.861
REMARK INTER + INTRA:         -14.997
REMARK INTER:                 -11.733
REMARK INTRA:                  -3.264
REMARK UNBOUND:                -2.958
REMARK SMILES COc1cc(-c2[o+]c3cc(O)cc(O[C@@H]4O[C@@H](CO)[C@@H](O)[C@H](O)[C@H]4O)c3cc2O[C@@H]2O[C@H](CO)[C@@H](O)[C@@H](O)[C@@H]2O)ccc1O
REMARK SMILES IDX 6 1 28 2 27 3 26 4 13 5 12 6 10 7 9 8 8 9 7 10 5 11 3 12
REMARK SMILES IDX 43 13 4 14 42 15 41 16 2 17 1 18 44 19 29 21 30 22 39 23
REMARK SMILES IDX 31 24 37 25 32 26 35 27 40 28 38 30 33 32 34 33 36 35 14 37
REMARK SMILES IDX 15 38 24 39 16 40 22 41 17 42 20 43 25 44 23 46 18 48 19 49
REMARK SMILES IDX 21 51 11 53
REMARK H PARENT 44 20 40 29 38 31 34 34 36 36 25 45 23 47 19 50 21 52 11 54
REMARK Flexibility Score: inf
ROOT
ATOM      1  C   UNL     1      -1.276 -17.255  29.533  1.00  0.00     0.402 A 
ATOM      2  C   UNL     1      -0.870 -17.279  28.184  1.00  0.00     0.229 A 
ATOM      3  C   UNL     1      -0.824 -18.525  27.534  1.00  0.00     0.079 A 
ATOM      4  C   UNL     1      -1.159 -19.694  28.229  1.00  0.00     0.126 A 
ATOM      5  C   UNL     1      -1.115 -20.962  27.616  1.00  0.00     0.143 A 
ATOM      6  C   UNL     1      -1.470 -22.099  28.366  1.00  0.00     0.094 A 
ATOM      7  C   UNL     1      -1.848 -21.978  29.708  1.00  0.00     0.128 A 
ATOM      8  C   UNL     1      -1.872 -20.718  30.315  1.00  0.00     0.162 A 
ATOM      9  C   UNL     1      -1.533 -19.577  29.584  1.00  0.00     0.368 A 
ATOM     10  O   UNL     1      -1.571 -18.385  30.169  1.00  0.00    -0.202 OA
ENDROOT
BRANCH   1  11
ATOM     11  C   UNL     1      -1.389 -15.989  30.277  1.00  0.00     0.087 A 
ATOM     12  C   UNL     1      -2.693 -14.047  30.967  1.00  0.00     0.161 A 
ATOM     13  C   UNL     1      -1.602 -13.595  31.724  1.00  0.00     0.157 A 
ATOM     14  C   UNL     1      -2.584 -15.255  30.251  1.00  0.00     0.068 A 
ATOM     15  C   UNL     1      -0.420 -14.346  31.771  1.00  0.00     0.051 A 
ATOM     16  C   UNL     1      -0.316 -15.541  31.057  1.00  0.00     0.022 A 
BRANCH  12  17
ATOM     17  O   UNL     1      -3.865 -13.273  30.950  1.00  0.00    -0.493 OA
ATOM     18  C   UNL     1      -5.012 -13.532  31.751  1.00  0.00     0.278 C 
ENDBRANCH  12  17
BRANCH  13  19
ATOM     19  O   UNL     1      -1.702 -12.397  32.430  1.00  0.00    -0.504 OA
ATOM     20  H   UNL     1      -0.913 -11.767  32.525  1.00  0.00     0.293 HD
ENDBRANCH  13  19
ENDBRANCH   1  11
BRANCH   2  21
ATOM     21  O   UNL     1      -0.510 -16.072  27.548  1.00  0.00    -0.452 OA
BRANCH  21  22
ATOM     22  C   UNL     1      -0.546 -15.809  26.136  1.00  0.00     0.339 C 
ATOM     23  C   UNL     1      -1.521 -14.663  25.774  1.00  0.00     0.214 C 
ATOM     24  O   UNL     1       0.766 -15.579  25.636  1.00  0.00    -0.332 OA
ATOM     25  C   UNL     1      -0.970 -13.305  26.238  1.00  0.00     0.180 C 
ATOM     26  C   UNL     1       1.342 -14.335  26.020  1.00  0.00     0.179 C 
ATOM     27  C   UNL     1       0.450 -13.115  25.686  1.00  0.00     0.177 C 
BRANCH  23  28
ATOM     28  O   UNL     1      -2.808 -14.896  26.285  1.00  0.00    -0.384 OA
ATOM     29  H   UNL     1      -3.072 -14.107  26.826  1.00  0.00     0.211 HD
ENDBRANCH  23  28
BRANCH  25  30
ATOM     30  O   UNL     1      -1.794 -12.263  25.782  1.00  0.00    -0.387 OA
ATOM     31  H   UNL     1      -2.679 -12.664  25.575  1.00  0.00     0.211 HD
ENDBRANCH  25  30
BRANCH  26  32
ATOM     32  C   UNL     1       1.848 -14.348  27.478  1.00  0.00     0.191 C 
BRANCH  32  33
ATOM     33  O   UNL     1       2.431 -15.585  27.790  1.00  0.00    -0.394 OA
ATOM     34  H   UNL     1       1.686 -16.234  27.892  1.00  0.00     0.210 HD
ENDBRANCH  32  33
ENDBRANCH  26  32
BRANCH  27  35
ATOM     35  O   UNL     1       0.410 -12.954  24.289  1.00  0.00    -0.387 OA
ATOM     36  H   UNL     1      -0.440 -13.355  23.971  1.00  0.00     0.211 HD
ENDBRANCH  27  35
ENDBRANCH  21  22
ENDBRANCH   2  21
BRANCH   5  37
ATOM     37  O   UNL     1      -0.709 -21.051  26.274  1.00  0.00    -0.461 OA
BRANCH  37  38
ATOM     38  C   UNL     1       0.459 -21.729  25.802  1.00  0.00     0.339 C 
ATOM     39  C   UNL     1       0.343 -21.986  24.286  1.00  0.00     0.214 C 
ATOM     40  O   UNL     1       1.644 -21.009  26.118  1.00  0.00    -0.332 OA
ATOM     41  C   UNL     1       0.467 -20.664  23.491  1.00  0.00     0.180 C 
ATOM     42  C   UNL     1       1.647 -19.726  25.511  1.00  0.00     0.179 C 
ATOM     43  C   UNL     1       1.686 -19.852  23.974  1.00  0.00     0.177 C 
BRANCH  39  44
ATOM     44  O   UNL     1       1.348 -22.886  23.894  1.00  0.00    -0.384 OA
ATOM     45  H   UNL     1       1.394 -23.584  24.600  1.00  0.00     0.211 HD
ENDBRANCH  39  44
BRANCH  41  46
ATOM     46  O   UNL     1      -0.697 -19.893  23.649  1.00  0.00    -0.387 OA
ATOM     47  H   UNL     1      -0.959 -19.961  24.606  1.00  0.00     0.211 HD
ENDBRANCH  41  46
BRANCH  42  48
ATOM     48  C   UNL     1       2.846 -18.929  26.036  1.00  0.00     0.191 C 
BRANCH  48  49
ATOM     49  O   UNL     1       2.662 -17.568  25.749  1.00  0.00    -0.394 OA
ATOM     50  H   UNL     1       3.005 -17.071  26.537  1.00  0.00     0.210 HD
ENDBRANCH  48  49
ENDBRANCH  42  48
BRANCH  43  51
ATOM     51  O   UNL     1       2.877 -20.486  23.576  1.00  0.00    -0.387 OA
ATOM     52  H   UNL     1       2.876 -21.388  23.992  1.00  0.00     0.211 HD
ENDBRANCH  43  51
ENDBRANCH  37  38
ENDBRANCH   5  37
BRANCH   7  53
ATOM     53  O   UNL     1      -2.203 -23.118  30.427  1.00  0.00    -0.507 OA
ATOM     54  H   UNL     1      -2.540 -23.060  31.381  1.00  0.00     0.293 HD
ENDBRANCH   7  53
TORSDOF 18
ENDMDL
MODEL 7
REMARK VINA RESULT:    -6.808      2.421      8.113
REMARK INTER + INTRA:         -14.940
REMARK INTER:                 -12.240
REMARK INTRA:                  -2.700
REMARK UNBOUND:                -2.958
REMARK SMILES COc1cc(-c2[o+]c3cc(O)cc(O[C@@H]4O[C@@H](CO)[C@@H](O)[C@H](O)[C@H]4O)c3cc2O[C@@H]2O[C@H](CO)[C@@H](O)[C@@H](O)[C@@H]2O)ccc1O
REMARK SMILES IDX 6 1 28 2 27 3 26 4 13 5 12 6 10 7 9 8 8 9 7 10 5 11 3 12
REMARK SMILES IDX 43 13 4 14 42 15 41 16 2 17 1 18 44 19 29 21 30 22 39 23
REMARK SMILES IDX 31 24 37 25 32 26 35 27 40 28 38 30 33 32 34 33 36 35 14 37
REMARK SMILES IDX 15 38 24 39 16 40 22 41 17 42 20 43 25 44 23 46 18 48 19 49
REMARK SMILES IDX 21 51 11 53
REMARK H PARENT 44 20 40 29 38 31 34 34 36 36 25 45 23 47 19 50 21 52 11 54
REMARK Flexibility Score: inf
ROOT
ATOM      1  C   UNL     1       0.694 -18.632  31.056  1.00  0.00     0.402 A 
ATOM      2  C   UNL     1       0.177 -18.135  29.843  1.00  0.00     0.229 A 
ATOM      3  C   UNL     1      -0.222 -16.787  29.803  1.00  0.00     0.079 A 
ATOM      4  C   UNL     1      -0.116 -15.987  30.948  1.00  0.00     0.126 A 
ATOM      5  C   UNL     1      -0.516 -14.636  30.950  1.00  0.00     0.143 A 
ATOM      6  C   UNL     1      -0.378 -13.882  32.131  1.00  0.00     0.094 A 
ATOM      7  C   UNL     1       0.134 -14.467  33.295  1.00  0.00     0.128 A 
ATOM      8  C   UNL     1       0.511 -15.814  33.290  1.00  0.00     0.162 A 
ATOM      9  C   UNL     1       0.392 -16.575  32.124  1.00  0.00     0.368 A 
ATOM     10  O   UNL     1       0.765 -17.850  32.130  1.00  0.00    -0.202 OA
ENDROOT
BRANCH   1  11
ATOM     11  C   UNL     1       1.171 -20.020  31.174  1.00  0.00     0.087 A 
ATOM     12  C   UNL     1       0.728 -22.387  31.561  1.00  0.00     0.161 A 
ATOM     13  C   UNL     1       2.088 -22.665  31.366  1.00  0.00     0.157 A 
ATOM     14  C   UNL     1       0.271 -21.058  31.453  1.00  0.00     0.068 A 
ATOM     15  C   UNL     1       2.980 -21.628  31.059  1.00  0.00     0.051 A 
ATOM     16  C   UNL     1       2.523 -20.313  30.956  1.00  0.00     0.022 A 
BRANCH  12  17
ATOM     17  O   UNL     1      -0.138 -23.452  31.858  1.00  0.00    -0.493 OA
ATOM     18  C   UNL     1      -1.553 -23.335  31.955  1.00  0.00     0.278 C 
ENDBRANCH  12  17
BRANCH  13  19
ATOM     19  O   UNL     1       2.547 -23.976  31.478  1.00  0.00    -0.504 OA
ATOM     20  H   UNL     1       3.123 -24.274  32.257  1.00  0.00     0.293 HD
ENDBRANCH  13  19
ENDBRANCH   1  11
BRANCH   2  21
ATOM     21  O   UNL     1       0.061 -18.999  28.735  1.00  0.00    -0.452 OA
BRANCH  21  22
ATOM     22  C   UNL     1      -1.136 -19.656  28.288  1.00  0.00     0.339 C 
ATOM     23  C   UNL     1      -1.665 -19.078  26.953  1.00  0.00     0.214 C 
ATOM     24  O   UNL     1      -0.941 -21.064  28.226  1.00  0.00    -0.332 OA
ATOM     25  C   UNL     1      -0.747 -19.470  25.783  1.00  0.00     0.180 C 
ATOM     26  C   UNL     1      -0.105 -21.505  27.161  1.00  0.00     0.179 C 
ATOM     27  C   UNL     1      -0.557 -20.994  25.773  1.00  0.00     0.177 C 
BRANCH  23  28
ATOM     28  O   UNL     1      -1.841 -17.687  27.024  1.00  0.00    -0.384 OA
ATOM     29  H   UNL     1      -0.990 -17.255  26.748  1.00  0.00     0.211 HD
ENDBRANCH  23  28
BRANCH  25  30
ATOM     30  O   UNL     1      -1.311 -19.059  24.564  1.00  0.00    -0.387 OA
ATOM     31  H   UNL     1      -0.965 -18.146  24.379  1.00  0.00     0.211 HD
ENDBRANCH  25  30
BRANCH  26  32
ATOM     32  C   UNL     1       1.392 -21.262  27.451  1.00  0.00     0.191 C 
BRANCH  32  33
ATOM     33  O   UNL     1       2.136 -21.278  26.262  1.00  0.00    -0.394 OA
ATOM     34  H   UNL     1       2.186 -22.226  25.970  1.00  0.00     0.210 HD
ENDBRANCH  32  33
ENDBRANCH  26  32
BRANCH  27  35
ATOM     35  O   UNL     1      -1.763 -21.631  25.427  1.00  0.00    -0.387 OA
ATOM     36  H   UNL     1      -2.154 -21.128  24.667  1.00  0.00     0.211 HD
ENDBRANCH  27  35
ENDBRANCH  21  22
ENDBRANCH   2  21
BRANCH   5  37
ATOM     37  O   UNL     1      -1.048 -14.086  29.772  1.00  0.00    -0.461 OA
BRANCH  37  38
ATOM     38  C   UNL     1      -1.904 -12.941  29.701  1.00  0.00     0.339 C 
ATOM     39  C   UNL     1      -2.186 -12.584  28.228  1.00  0.00     0.214 C 
ATOM     40  O   UNL     1      -3.109 -13.144  30.428  1.00  0.00    -0.332 OA
ATOM     41  C   UNL     1      -3.106 -13.641  27.571  1.00  0.00     0.180 C 
ATOM     42  C   UNL     1      -3.849 -14.237  29.905  1.00  0.00     0.179 C 
ATOM     43  C   UNL     1      -4.326 -13.933  28.469  1.00  0.00     0.177 C 
BRANCH  39  44
ATOM     44  O   UNL     1      -2.784 -11.315  28.170  1.00  0.00    -0.384 OA
ATOM     45  H   UNL     1      -2.084 -10.686  27.849  1.00  0.00     0.211 HD
ENDBRANCH  39  44
BRANCH  41  46
ATOM     46  O   UNL     1      -2.395 -14.833  27.352  1.00  0.00    -0.387 OA
ATOM     47  H   UNL     1      -2.776 -15.249  26.534  1.00  0.00     0.211 HD
ENDBRANCH  41  46
BRANCH  42  48
ATOM     48  C   UNL     1      -5.032 -14.529  30.834  1.00  0.00     0.191 C 
BRANCH  48  49
ATOM     49  O   UNL     1      -6.122 -14.976  30.075  1.00  0.00    -0.394 OA
ATOM     50  H   UNL     1      -6.936 -14.655  30.544  1.00  0.00     0.210 HD
ENDBRANCH  48  49
ENDBRANCH  42  48
BRANCH  43  51
ATOM     51  O   UNL     1      -5.195 -12.828  28.477  1.00  0.00    -0.387 OA
ATOM     52  H   UNL     1      -6.119 -13.187  28.413  1.00  0.00     0.211 HD
ENDBRANCH  43  51
ENDBRANCH  37  38
ENDBRANCH   5  37
BRANCH   7  53
ATOM     53  O   UNL     1       0.268 -13.698  34.448  1.00  0.00    -0.507 OA
ATOM     54  H   UNL     1      -0.526 -13.490  35.043  1.00  0.00     0.293 HD
ENDBRANCH   7  53
TORSDOF 18
ENDMDL
MODEL 8
REMARK VINA RESULT:    -6.749      2.111      7.519
REMARK INTER + INTRA:         -14.836
REMARK INTER:                 -11.898
REMARK INTRA:                  -2.938
REMARK UNBOUND:                -2.958
REMARK SMILES COc1cc(-c2[o+]c3cc(O)cc(O[C@@H]4O[C@@H](CO)[C@@H](O)[C@H](O)[C@H]4O)c3cc2O[C@@H]2O[C@H](CO)[C@@H](O)[C@@H](O)[C@@H]2O)ccc1O
REMARK SMILES IDX 6 1 28 2 27 3 26 4 13 5 12 6 10 7 9 8 8 9 7 10 5 11 3 12
REMARK SMILES IDX 43 13 4 14 42 15 41 16 2 17 1 18 44 19 29 21 30 22 39 23
REMARK SMILES IDX 31 24 37 25 32 26 35 27 40 28 38 30 33 32 34 33 36 35 14 37
REMARK SMILES IDX 15 38 24 39 16 40 22 41 17 42 20 43 25 44 23 46 18 48 19 49
REMARK SMILES IDX 21 51 11 53
REMARK H PARENT 44 20 40 29 38 31 34 34 36 36 25 45 23 47 19 50 21 52 11 54
REMARK Flexibility Score: inf
ROOT
ATOM      1  C   UNL     1       0.167 -19.184  29.817  1.00  0.00     0.402 A 
ATOM      2  C   UNL     1       0.079 -18.385  28.660  1.00  0.00     0.229 A 
ATOM      3  C   UNL     1       0.112 -16.988  28.823  1.00  0.00     0.079 A 
ATOM      4  C   UNL     1       0.215 -16.432  30.104  1.00  0.00     0.126 A 
ATOM      5  C   UNL     1       0.241 -15.037  30.308  1.00  0.00     0.143 A 
ATOM      6  C   UNL     1       0.352 -14.539  31.620  1.00  0.00     0.094 A 
ATOM      7  C   UNL     1       0.419 -15.412  32.711  1.00  0.00     0.128 A 
ATOM      8  C   UNL     1       0.374 -16.795  32.502  1.00  0.00     0.162 A 
ATOM      9  C   UNL     1       0.276 -17.308  31.206  1.00  0.00     0.368 A 
ATOM     10  O   UNL     1       0.246 -18.623  31.021  1.00  0.00    -0.202 OA
ENDROOT
BRANCH   1  11
ATOM     11  C   UNL     1       0.178 -20.654  29.734  1.00  0.00     0.087 A 
ATOM     12  C   UNL     1      -0.868 -22.810  30.191  1.00  0.00     0.161 A 
ATOM     13  C   UNL     1       0.195 -23.454  29.542  1.00  0.00     0.157 A 
ATOM     14  C   UNL     1      -0.877 -21.403  30.275  1.00  0.00     0.068 A 
ATOM     15  C   UNL     1       1.233 -22.700  28.976  1.00  0.00     0.051 A 
ATOM     16  C   UNL     1       1.221 -21.307  29.065  1.00  0.00     0.022 A 
BRANCH  12  17
ATOM     17  O   UNL     1      -1.895 -23.597  30.738  1.00  0.00    -0.493 OA
ATOM     18  C   UNL     1      -2.025 -23.901  32.122  1.00  0.00     0.278 C 
ENDBRANCH  12  17
BRANCH  13  19
ATOM     19  O   UNL     1       0.213 -24.845  29.460  1.00  0.00    -0.504 OA
ATOM     20  H   UNL     1      -0.643 -25.390  29.471  1.00  0.00     0.293 HD
ENDBRANCH  13  19
ENDBRANCH   1  11
BRANCH   2  21
ATOM     21  O   UNL     1      -0.059 -19.004  27.400  1.00  0.00    -0.452 OA
BRANCH  21  22
ATOM     22  C   UNL     1      -0.512 -18.379  26.188  1.00  0.00     0.339 C 
ATOM     23  C   UNL     1       0.627 -18.190  25.159  1.00  0.00     0.214 C 
ATOM     24  O   UNL     1      -1.619 -19.088  25.644  1.00  0.00    -0.332 OA
ATOM     25  C   UNL     1       1.059 -19.540  24.563  1.00  0.00     0.180 C 
ATOM     26  C   UNL     1      -1.296 -20.349  25.067  1.00  0.00     0.179 C 
ATOM     27  C   UNL     1      -0.172 -20.269  24.006  1.00  0.00     0.177 C 
BRANCH  23  28
ATOM     28  O   UNL     1       1.718 -17.501  25.713  1.00  0.00    -0.384 OA
ATOM     29  H   UNL     1       2.067 -18.038  26.472  1.00  0.00     0.211 HD
ENDBRANCH  23  28
BRANCH  25  30
ATOM     30  O   UNL     1       1.993 -19.342  23.534  1.00  0.00    -0.387 OA
ATOM     31  H   UNL     1       1.838 -18.429  23.174  1.00  0.00     0.211 HD
ENDBRANCH  25  30
BRANCH  26  32
ATOM     32  C   UNL     1      -1.061 -21.439  26.133  1.00  0.00     0.191 C 
BRANCH  32  33
ATOM     33  O   UNL     1      -2.071 -21.408  27.106  1.00  0.00    -0.394 OA
ATOM     34  H   UNL     1      -1.649 -21.083  27.945  1.00  0.00     0.210 HD
ENDBRANCH  32  33
ENDBRANCH  26  32
BRANCH  27  35
ATOM     35  O   UNL     1      -0.665 -19.593  22.875  1.00  0.00    -0.387 OA
ATOM     36  H   UNL     1      -1.506 -19.141  23.146  1.00  0.00     0.211 HD
ENDBRANCH  27  35
ENDBRANCH  21  22
ENDBRANCH   2  21
BRANCH   5  37
ATOM     37  O   UNL     1       0.147 -14.188  29.193  1.00  0.00    -0.461 OA
BRANCH  37  38
ATOM     38  C   UNL     1      -0.960 -13.334  28.888  1.00  0.00     0.339 C 
ATOM     39  C   UNL     1      -0.451 -11.999  28.307  1.00  0.00     0.214 C 
ATOM     40  O   UNL     1      -1.882 -13.967  28.010  1.00  0.00    -0.332 OA
ATOM     41  C   UNL     1       0.123 -12.201  26.884  1.00  0.00     0.180 C 
ATOM     42  C   UNL     1      -1.272 -14.297  26.772  1.00  0.00     0.179 C 
ATOM     43  C   UNL     1      -0.853 -13.020  26.014  1.00  0.00     0.177 C 
BRANCH  39  44
ATOM     44  O   UNL     1      -1.511 -11.078  28.277  1.00  0.00    -0.384 OA
ATOM     45  H   UNL     1      -2.303 -11.567  27.927  1.00  0.00     0.211 HD
ENDBRANCH  39  44
BRANCH  41  46
ATOM     46  O   UNL     1       1.358 -12.869  26.951  1.00  0.00    -0.387 OA
ATOM     47  H   UNL     1       1.522 -13.076  27.910  1.00  0.00     0.211 HD
ENDBRANCH  41  46
BRANCH  42  48
ATOM     48  C   UNL     1      -2.248 -15.140  25.944  1.00  0.00     0.191 C 
BRANCH  48  49
ATOM     49  O   UNL     1      -1.912 -15.043  24.586  1.00  0.00    -0.394 OA
ATOM     50  H   UNL     1      -1.680 -14.091  24.426  1.00  0.00     0.210 HD
ENDBRANCH  48  49
ENDBRANCH  42  48
BRANCH  43  51
ATOM     51  O   UNL     1      -1.989 -12.250  25.709  1.00  0.00    -0.387 OA
ATOM     52  H   UNL     1      -2.038 -12.189  24.718  1.00  0.00     0.211 HD
ENDBRANCH  43  51
ENDBRANCH  37  38
ENDBRANCH   5  37
BRANCH   7  53
ATOM     53  O   UNL     1       0.537 -14.894  33.999  1.00  0.00    -0.507 OA
ATOM     54  H   UNL     1       1.209 -15.264  34.661  1.00  0.00     0.293 HD
ENDBRANCH   7  53
TORSDOF 18
ENDMDL
MODEL 9
REMARK VINA RESULT:    -6.681      2.634      8.438
REMARK INTER + INTRA:         -14.716
REMARK INTER:                 -11.966
REMARK INTRA:                  -2.751
REMARK UNBOUND:                -2.958
REMARK SMILES COc1cc(-c2[o+]c3cc(O)cc(O[C@@H]4O[C@@H](CO)[C@@H](O)[C@H](O)[C@H]4O)c3cc2O[C@@H]2O[C@H](CO)[C@@H](O)[C@@H](O)[C@@H]2O)ccc1O
REMARK SMILES IDX 6 1 28 2 27 3 26 4 13 5 12 6 10 7 9 8 8 9 7 10 5 11 3 12
REMARK SMILES IDX 43 13 4 14 42 15 41 16 2 17 1 18 44 19 29 21 30 22 39 23
REMARK SMILES IDX 31 24 37 25 32 26 35 27 40 28 38 30 33 32 34 33 36 35 14 37
REMARK SMILES IDX 15 38 24 39 16 40 22 41 17 42 20 43 25 44 23 46 18 48 19 49
REMARK SMILES IDX 21 51 11 53
REMARK H PARENT 44 20 40 29 38 31 34 34 36 36 25 45 23 47 19 50 21 52 11 54
REMARK Flexibility Score: inf
ROOT
ATOM      1  C   UNL     1       0.607 -18.009  31.099  1.00  0.00     0.402 A 
ATOM      2  C   UNL     1      -0.298 -17.374  30.227  1.00  0.00     0.229 A 
ATOM      3  C   UNL     1      -0.757 -16.092  30.576  1.00  0.00     0.079 A 
ATOM      4  C   UNL     1      -0.329 -15.492  31.767  1.00  0.00     0.126 A 
ATOM      5  C   UNL     1      -0.775 -14.213  32.157  1.00  0.00     0.143 A 
ATOM      6  C   UNL     1      -0.303 -13.660  33.362  1.00  0.00     0.094 A 
ATOM      7  C   UNL     1       0.586 -14.374  34.174  1.00  0.00     0.128 A 
ATOM      8  C   UNL     1       1.010 -15.650  33.789  1.00  0.00     0.162 A 
ATOM      9  C   UNL     1       0.561 -16.211  32.591  1.00  0.00     0.368 A 
ATOM     10  O   UNL     1       0.981 -17.419  32.232  1.00  0.00    -0.202 OA
ENDROOT
BRANCH   1  11
ATOM     11  C   UNL     1       1.168 -19.335  30.791  1.00  0.00     0.087 A 
ATOM     12  C   UNL     1       1.084 -21.766  30.976  1.00  0.00     0.161 A 
ATOM     13  C   UNL     1       2.228 -21.858  30.169  1.00  0.00     0.157 A 
ATOM     14  C   UNL     1       0.550 -20.497  31.276  1.00  0.00     0.068 A 
ATOM     15  C   UNL     1       2.824 -20.697  29.662  1.00  0.00     0.051 A 
ATOM     16  C   UNL     1       2.293 -19.441  29.964  1.00  0.00     0.022 A 
BRANCH  12  17
ATOM     17  O   UNL     1       0.508 -22.952  31.460  1.00  0.00    -0.493 OA
ATOM     18  C   UNL     1      -0.869 -23.101  31.789  1.00  0.00     0.278 C 
ENDBRANCH  12  17
BRANCH  13  19
ATOM     19  O   UNL     1       2.764 -23.110  29.873  1.00  0.00    -0.504 OA
ATOM     20  H   UNL     1       2.485 -23.627  29.046  1.00  0.00     0.293 HD
ENDBRANCH  13  19
ENDBRANCH   1  11
BRANCH   2  21
ATOM     21  O   UNL     1      -0.721 -18.045  29.060  1.00  0.00    -0.452 OA
BRANCH  21  22
ATOM     22  C   UNL     1      -1.400 -17.459  27.938  1.00  0.00     0.339 C 
ATOM     23  C   UNL     1      -0.420 -16.919  26.869  1.00  0.00     0.214 C 
ATOM     24  O   UNL     1      -2.344 -18.373  27.392  1.00  0.00    -0.332 OA
ATOM     25  C   UNL     1       0.275 -18.073  26.128  1.00  0.00     0.180 C 
ATOM     26  C   UNL     1      -1.774 -19.468  26.684  1.00  0.00     0.179 C 
ATOM     27  C   UNL     1      -0.785 -19.035  25.575  1.00  0.00     0.177 C 
BRANCH  23  28
ATOM     28  O   UNL     1       0.513 -16.028  27.425  1.00  0.00    -0.384 OA
ATOM     29  H   UNL     1       1.204 -15.839  26.737  1.00  0.00     0.211 HD
ENDBRANCH  23  28
BRANCH  25  30
ATOM     30  O   UNL     1       1.054 -17.574  25.072  1.00  0.00    -0.387 OA
ATOM     31  H   UNL     1       1.460 -16.724  25.387  1.00  0.00     0.211 HD
ENDBRANCH  25  30
BRANCH  26  32
ATOM     32  C   UNL     1      -1.205 -20.547  27.630  1.00  0.00     0.191 C 
BRANCH  32  33
ATOM     33  O   UNL     1      -2.028 -20.704  28.755  1.00  0.00    -0.394 OA
ATOM     34  H   UNL     1      -2.665 -19.941  28.751  1.00  0.00     0.210 HD
ENDBRANCH  32  33
ENDBRANCH  26  32
BRANCH  27  35
ATOM     35  O   UNL     1      -1.510 -18.416  24.540  1.00  0.00    -0.387 OA
ATOM     36  H   UNL     1      -2.195 -19.064  24.231  1.00  0.00     0.211 HD
ENDBRANCH  27  35
ENDBRANCH  21  22
ENDBRANCH   2  21
BRANCH   5  37
ATOM     37  O   UNL     1      -1.686 -13.533  31.331  1.00  0.00    -0.461 OA
BRANCH  37  38
ATOM     38  C   UNL     1      -3.091 -13.406  31.570  1.00  0.00     0.339 C 
ATOM     39  C   UNL     1      -3.480 -11.916  31.647  1.00  0.00     0.214 C 
ATOM     40  O   UNL     1      -3.853 -14.093  30.585  1.00  0.00    -0.332 OA
ATOM     41  C   UNL     1      -3.390 -11.250  30.253  1.00  0.00     0.180 C 
ATOM     42  C   UNL     1      -3.612 -13.568  29.288  1.00  0.00     0.179 C 
ATOM     43  C   UNL     1      -4.108 -12.109  29.192  1.00  0.00     0.177 C 
BRANCH  39  44
ATOM     44  O   UNL     1      -4.786 -11.809  32.154  1.00  0.00    -0.384 OA
ATOM     45  H   UNL     1      -4.778 -11.056  32.803  1.00  0.00     0.211 HD
ENDBRANCH  39  44
BRANCH  41  46
ATOM     46  O   UNL     1      -2.044 -11.083  29.883  1.00  0.00    -0.387 OA
ATOM     47  H   UNL     1      -1.941 -11.491  28.983  1.00  0.00     0.211 HD
ENDBRANCH  41  46
BRANCH  42  48
ATOM     48  C   UNL     1      -4.305 -14.460  28.252  1.00  0.00     0.191 C 
BRANCH  48  49
ATOM     49  O   UNL     1      -5.511 -14.941  28.783  1.00  0.00    -0.394 OA
ATOM     50  H   UNL     1      -5.281 -15.368  29.649  1.00  0.00     0.210 HD
ENDBRANCH  48  49
ENDBRANCH  42  48
BRANCH  43  51
ATOM     51  O   UNL     1      -5.499 -12.062  29.392  1.00  0.00    -0.387 OA
ATOM     52  H   UNL     1      -5.909 -11.841  28.515  1.00  0.00     0.211 HD
ENDBRANCH  43  51
ENDBRANCH  37  38
ENDBRANCH   5  37
BRANCH   7  53
ATOM     53  O   UNL     1       1.045 -13.801  35.358  1.00  0.00    -0.507 OA
ATOM     54  H   UNL     1       0.471 -13.776  36.193  1.00  0.00     0.293 HD
ENDBRANCH   7  53
TORSDOF 18
ENDMDL
