MODEL 1
REMARK VINA RESULT:     0.000      0.000      0.000
REMARK INTER + INTRA:          -3.687
REMARK INTER:                   0.000
REMARK INTRA:                  -3.687
REMARK UNBOUND:                -3.687
REMARK SMILES CCCCCCCCC=CCCCCCCCC(=O)[O-]
REMARK SMILES IDX 10 1 9 2 11 3 12 4 13 5 14 6 15 7 16 8 17 9 18 10 19 11
REMARK SMILES IDX 20 12 8 13 7 14 6 15 5 16 4 17 3 18 2 19 1 20
REMARK H PARENT
REMARK Flexibility Score: inf
ROOT
ATOM      1  C   UNL     1     177.890 194.205 193.723  1.00  0.00    -0.031 C 
ATOM      2  C   UNL     1     178.419 195.365 193.306  1.00  0.00    -0.031 C 
ENDROOT
BRANCH   1   3
ATOM      3  C   UNL     1     177.703 193.042 192.786  1.00  0.00     0.027 C 
BRANCH   3   4
ATOM      4  C   UNL     1     176.449 192.218 193.119  1.00  0.00     0.004 C 
BRANCH   4   5
ATOM      5  C   UNL     1     175.840 192.611 194.473  1.00  0.00     0.000 C 
BRANCH   5   6
ATOM      6  C   UNL     1     174.401 193.118 194.301  1.00  0.00     0.000 C 
BRANCH   6   7
ATOM      7  C   UNL     1     174.285 194.648 194.426  1.00  0.00     0.000 C 
BRANCH   7   8
ATOM      8  C   UNL     1     173.780 195.370 193.160  1.00  0.00     0.006 C 
BRANCH   8   9
ATOM      9  C   UNL     1     174.884 196.018 192.310  1.00  0.00     0.053 C 
BRANCH   9  10
ATOM     10  C   UNL     1     175.242 195.179 191.121  1.00  0.00     0.041 C 
ATOM     11  O   UNL     1     176.262 195.455 190.436  1.00  0.00    -0.550 OA
ATOM     12  O   UNL     1     174.469 194.073 190.791  1.00  0.00    -0.550 OA
ENDBRANCH   9  10
ENDBRANCH   8   9
ENDBRANCH   7   8
ENDBRANCH   6   7
ENDBRANCH   5   6
ENDBRANCH   4   5
ENDBRANCH   3   4
ENDBRANCH   1   3
BRANCH   2  13
ATOM     13  C   UNL     1     178.595 196.530 194.240  1.00  0.00     0.027 C 
BRANCH  13  14
ATOM     14  C   UNL     1     177.316 196.797 195.044  1.00  0.00     0.004 C 
BRANCH  14  15
ATOM     15  C   UNL     1     177.548 196.554 196.543  1.00  0.00     0.000 C 
BRANCH  15  16
ATOM     16  C   UNL     1     176.711 195.374 197.080  1.00  0.00     0.000 C 
BRANCH  16  17
ATOM     17  C   UNL     1     177.550 194.134 197.432  1.00  0.00    -0.000 C 
BRANCH  17  18
ATOM     18  C   UNL     1     179.063 194.386 197.327  1.00  0.00    -0.000 C 
BRANCH  18  19
ATOM     19  C   UNL     1     179.811 193.219 196.665  1.00  0.00    -0.003 C 
ATOM     20  C   UNL     1     178.934 191.980 196.489  1.00  0.00     0.004 C 
ENDBRANCH  18  19
ENDBRANCH  17  18
ENDBRANCH  16  17
ENDBRANCH  15  16
ENDBRANCH  14  15
ENDBRANCH  13  14
ENDBRANCH   2  13
TORSDOF 15
ENDMDL
MODEL 2
REMARK VINA RESULT:     0.006      7.118      9.382
REMARK INTER + INTRA:          -3.677
REMARK INTER:                   0.000
REMARK INTRA:                  -3.677
REMARK UNBOUND:                -3.687
REMARK SMILES CCCCCCCCC=CCCCCCCCC(=O)[O-]
REMARK SMILES IDX 10 1 9 2 11 3 12 4 13 5 14 6 15 7 16 8 17 9 18 10 19 11
REMARK SMILES IDX 20 12 8 13 7 14 6 15 5 16 4 17 3 18 2 19 1 20
REMARK H PARENT
REMARK Flexibility Score: inf
ROOT
ATOM      1  C   UNL     1     170.150 188.239 191.317  1.00  0.00    -0.031 C 
ATOM      2  C   UNL     1     169.163 188.921 190.717  1.00  0.00    -0.031 C 
ENDROOT
BRANCH   1   3
ATOM      3  C   UNL     1     170.177 186.735 191.329  1.00  0.00     0.027 C 
BRANCH   3   4
ATOM      4  C   UNL     1     171.601 186.173 191.207  1.00  0.00     0.004 C 
BRANCH   4   5
ATOM      5  C   UNL     1     172.671 187.262 191.378  1.00  0.00     0.000 C 
BRANCH   5   6
ATOM      6  C   UNL     1     173.551 187.369 190.125  1.00  0.00     0.000 C 
BRANCH   6   7
ATOM      7  C   UNL     1     173.226 188.606 189.267  1.00  0.00     0.000 C 
BRANCH   7   8
ATOM      8  C   UNL     1     172.725 188.300 187.841  1.00  0.00     0.006 C 
BRANCH   8   9
ATOM      9  C   UNL     1     171.198 188.342 187.678  1.00  0.00     0.053 C 
BRANCH   9  10
ATOM     10  C   UNL     1     170.593 186.971 187.697  1.00  0.00     0.041 C 
ATOM     11  O   UNL     1     171.332 185.953 187.641  1.00  0.00    -0.550 OA
ATOM     12  O   UNL     1     169.217 186.818 187.812  1.00  0.00    -0.550 OA
ENDBRANCH   9  10
ENDBRANCH   8   9
ENDBRANCH   7   8
ENDBRANCH   6   7
ENDBRANCH   5   6
ENDBRANCH   4   5
ENDBRANCH   3   4
ENDBRANCH   1   3
BRANCH   2  13
ATOM     13  C   UNL     1     169.131 190.424 190.715  1.00  0.00     0.027 C 
BRANCH  13  14
ATOM     14  C   UNL     1     170.456 191.007 190.207  1.00  0.00     0.004 C 
BRANCH  14  15
ATOM     15  C   UNL     1     171.152 191.826 191.304  1.00  0.00     0.000 C 
BRANCH  15  16
ATOM     16  C   UNL     1     172.494 191.198 191.739  1.00  0.00     0.000 C 
BRANCH  16  17
ATOM     17  C   UNL     1     172.442 190.534 193.125  1.00  0.00    -0.000 C 
BRANCH  17  18
ATOM     18  C   UNL     1     171.164 190.880 193.907  1.00  0.00    -0.000 C 
BRANCH  18  19
ATOM     19  C   UNL     1     170.560 189.661 194.619  1.00  0.00    -0.003 C 
ATOM     20  C   UNL     1     171.551 188.505 194.752  1.00  0.00     0.004 C 
ENDBRANCH  18  19
ENDBRANCH  17  18
ENDBRANCH  16  17
ENDBRANCH  15  16
ENDBRANCH  14  15
ENDBRANCH  13  14
ENDBRANCH   2  13
TORSDOF 15
ENDMDL
MODEL 3
REMARK VINA RESULT:     0.010      3.312      6.086
REMARK INTER + INTRA:          -3.669
REMARK INTER:                   0.000
REMARK INTRA:                  -3.669
REMARK UNBOUND:                -3.687
REMARK SMILES CCCCCCCCC=CCCCCCCCC(=O)[O-]
REMARK SMILES IDX 10 1 9 2 11 3 12 4 13 5 14 6 15 7 16 8 17 9 18 10 19 11
REMARK SMILES IDX 20 12 8 13 7 14 6 15 5 16 4 17 3 18 2 19 1 20
REMARK H PARENT
REMARK Flexibility Score: inf
ROOT
ATOM      1  C   UNL     1     177.958 194.888 196.343  1.00  0.00    -0.031 C 
ATOM      2  C   UNL     1     178.005 194.759 195.009  1.00  0.00    -0.031 C 
ENDROOT
BRANCH   1   3
ATOM      3  C   UNL     1     178.271 196.194 197.022  1.00  0.00     0.027 C 
BRANCH   3   4
ATOM      4  C   UNL     1     178.357 196.054 198.550  1.00  0.00     0.004 C 
BRANCH   4   5
ATOM      5  C   UNL     1     178.221 194.594 199.007  1.00  0.00     0.000 C 
BRANCH   5   6
ATOM      6  C   UNL     1     179.550 194.069 199.568  1.00  0.00     0.000 C 
BRANCH   6   7
ATOM      7  C   UNL     1     179.968 192.719 198.955  1.00  0.00     0.000 C 
BRANCH   7   8
ATOM      8  C   UNL     1     180.796 192.819 197.659  1.00  0.00     0.006 C 
BRANCH   8   9
ATOM      9  C   UNL     1     181.583 194.130 197.502  1.00  0.00     0.053 C 
BRANCH   9  10
ATOM     10  C   UNL     1     181.584 194.618 196.086  1.00  0.00     0.041 C 
ATOM     11  O   UNL     1     181.501 193.798 195.134  1.00  0.00    -0.550 OA
ATOM     12  O   UNL     1     181.641 195.980 195.820  1.00  0.00    -0.550 OA
ENDBRANCH   9  10
ENDBRANCH   8   9
ENDBRANCH   7   8
ENDBRANCH   6   7
ENDBRANCH   5   6
ENDBRANCH   4   5
ENDBRANCH   3   4
ENDBRANCH   1   3
BRANCH   2  13
ATOM     13  C   UNL     1     177.704 193.450 194.333  1.00  0.00     0.027 C 
BRANCH  13  14
ATOM     14  C   UNL     1     178.266 192.269 195.133  1.00  0.00     0.004 C 
BRANCH  14  15
ATOM     15  C   UNL     1     177.138 191.355 195.632  1.00  0.00     0.000 C 
BRANCH  15  16
ATOM     16  C   UNL     1     177.007 191.374 197.170  1.00  0.00     0.000 C 
BRANCH  16  17
ATOM     17  C   UNL     1     175.777 192.147 197.674  1.00  0.00    -0.000 C 
BRANCH  17  18
ATOM     18  C   UNL     1     174.792 192.504 196.547  1.00  0.00    -0.000 C 
BRANCH  18  19
ATOM     19  C   UNL     1     174.424 193.995 196.537  1.00  0.00    -0.003 C 
ATOM     20  C   UNL     1     174.619 194.660 197.900  1.00  0.00     0.004 C 
ENDBRANCH  18  19
ENDBRANCH  17  18
ENDBRANCH  16  17
ENDBRANCH  15  16
ENDBRANCH  14  15
ENDBRANCH  13  14
ENDBRANCH   2  13
TORSDOF 15
ENDMDL
MODEL 4
REMARK VINA RESULT:     0.011      6.130      8.681
REMARK INTER + INTRA:          -3.666
REMARK INTER:                   0.000
REMARK INTRA:                  -3.666
REMARK UNBOUND:                -3.687
REMARK SMILES CCCCCCCCC=CCCCCCCCC(=O)[O-]
REMARK SMILES IDX 10 1 9 2 11 3 12 4 13 5 14 6 15 7 16 8 17 9 18 10 19 11
REMARK SMILES IDX 20 12 8 13 7 14 6 15 5 16 4 17 3 18 2 19 1 20
REMARK H PARENT
REMARK Flexibility Score: inf
ROOT
ATOM      1  C   UNL     1     176.818 187.662 193.248  1.00  0.00    -0.031 C 
ATOM      2  C   UNL     1     176.253 187.643 192.031  1.00  0.00    -0.031 C 
ENDROOT
BRANCH   1   3
ATOM      3  C   UNL     1     176.132 187.063 194.446  1.00  0.00     0.027 C 
BRANCH   3   4
ATOM      4  C   UNL     1     174.828 187.794 194.800  1.00  0.00     0.004 C 
BRANCH   4   5
ATOM      5  C   UNL     1     173.600 186.879 194.679  1.00  0.00     0.000 C 
BRANCH   5   6
ATOM      6  C   UNL     1     172.841 187.150 193.372  1.00  0.00     0.000 C 
BRANCH   6   7
ATOM      7  C   UNL     1     172.885 185.960 192.396  1.00  0.00     0.000 C 
BRANCH   7   8
ATOM      8  C   UNL     1     173.574 184.693 192.941  1.00  0.00     0.006 C 
BRANCH   8   9
ATOM      9  C   UNL     1     174.861 184.297 192.199  1.00  0.00     0.053 C 
BRANCH   9  10
ATOM     10  C   UNL     1     174.648 184.195 190.720  1.00  0.00     0.041 C 
ATOM     11  O   UNL     1     175.318 184.915 189.933  1.00  0.00    -0.550 OA
ATOM     12  O   UNL     1     173.734 183.282 190.210  1.00  0.00    -0.550 OA
ENDBRANCH   9  10
ENDBRANCH   8   9
ENDBRANCH   7   8
ENDBRANCH   6   7
ENDBRANCH   5   6
ENDBRANCH   4   5
ENDBRANCH   3   4
ENDBRANCH   1   3
BRANCH   2  13
ATOM     13  C   UNL     1     176.933 188.252 190.837  1.00  0.00     0.027 C 
BRANCH  13  14
ATOM     14  C   UNL     1     175.911 188.826 189.848  1.00  0.00     0.004 C 
BRANCH  14  15
ATOM     15  C   UNL     1     174.492 188.342 190.181  1.00  0.00     0.000 C 
BRANCH  15  16
ATOM     16  C   UNL     1     173.496 189.512 190.328  1.00  0.00     0.000 C 
BRANCH  16  17
ATOM     17  C   UNL     1     174.086 190.737 191.046  1.00  0.00    -0.000 C 
BRANCH  17  18
ATOM     18  C   UNL     1     173.994 190.635 192.577  1.00  0.00    -0.000 C 
BRANCH  18  19
ATOM     19  C   UNL     1     175.276 191.108 193.278  1.00  0.00    -0.003 C 
ATOM     20  C   UNL     1     176.327 191.629 192.297  1.00  0.00     0.004 C 
ENDBRANCH  18  19
ENDBRANCH  17  18
ENDBRANCH  16  17
ENDBRANCH  15  16
ENDBRANCH  14  15
ENDBRANCH  13  14
ENDBRANCH   2  13
TORSDOF 15
ENDMDL
MODEL 5
REMARK VINA RESULT:     0.018      4.589      6.721
REMARK INTER + INTRA:          -3.653
REMARK INTER:                   0.000
REMARK INTRA:                  -3.653
REMARK UNBOUND:                -3.687
REMARK SMILES CCCCCCCCC=CCCCCCCCC(=O)[O-]
REMARK SMILES IDX 10 1 9 2 11 3 12 4 13 5 14 6 15 7 16 8 17 9 18 10 19 11
REMARK SMILES IDX 20 12 8 13 7 14 6 15 5 16 4 17 3 18 2 19 1 20
REMARK H PARENT
REMARK Flexibility Score: inf
ROOT
ATOM      1  C   UNL     1     176.238 191.026 198.580  1.00  0.00    -0.031 C 
ATOM      2  C   UNL     1     176.953 191.921 199.278  1.00  0.00    -0.031 C 
ENDROOT
BRANCH   1   3
ATOM      3  C   UNL     1     175.681 191.348 197.220  1.00  0.00     0.027 C 
BRANCH   3   4
ATOM      4  C   UNL     1     175.947 192.804 196.809  1.00  0.00     0.004 C 
BRANCH   4   5
ATOM      5  C   UNL     1     177.140 192.928 195.850  1.00  0.00     0.000 C 
BRANCH   5   6
ATOM      6  C   UNL     1     178.091 194.048 196.299  1.00  0.00     0.000 C 
BRANCH   6   7
ATOM      7  C   UNL     1     177.371 195.172 197.067  1.00  0.00     0.000 C 
BRANCH   7   8
ATOM      8  C   UNL     1     178.008 195.550 198.420  1.00  0.00     0.006 C 
BRANCH   8   9
ATOM      9  C   UNL     1     177.025 195.584 199.601  1.00  0.00     0.053 C 
BRANCH   9  10
ATOM     10  C   UNL     1     177.713 195.347 200.910  1.00  0.00     0.041 C 
ATOM     11  O   UNL     1     177.062 194.912 201.897  1.00  0.00    -0.550 OA
ATOM     12  O   UNL     1     179.078 195.574 201.031  1.00  0.00    -0.550 OA
ENDBRANCH   9  10
ENDBRANCH   8   9
ENDBRANCH   7   8
ENDBRANCH   6   7
ENDBRANCH   5   6
ENDBRANCH   4   5
ENDBRANCH   3   4
ENDBRANCH   1   3
BRANCH   2  13
ATOM     13  C   UNL     1     177.498 191.602 200.642  1.00  0.00     0.027 C 
BRANCH  13  14
ATOM     14  C   UNL     1     179.016 191.818 200.699  1.00  0.00     0.004 C 
BRANCH  14  15
ATOM     15  C   UNL     1     179.535 192.415 199.383  1.00  0.00     0.000 C 
BRANCH  15  16
ATOM     16  C   UNL     1     180.515 191.467 198.657  1.00  0.00     0.000 C 
BRANCH  16  17
ATOM     17  C   UNL     1     180.017 191.005 197.278  1.00  0.00    -0.000 C 
BRANCH  17  18
ATOM     18  C   UNL     1     179.355 189.618 197.315  1.00  0.00    -0.000 C 
BRANCH  18  19
ATOM     19  C   UNL     1     179.783 188.792 198.537  1.00  0.00    -0.003 C 
ATOM     20  C   UNL     1     178.594 188.236 199.320  1.00  0.00     0.004 C 
ENDBRANCH  18  19
ENDBRANCH  17  18
ENDBRANCH  16  17
ENDBRANCH  15  16
ENDBRANCH  14  15
ENDBRANCH  13  14
ENDBRANCH   2  13
TORSDOF 15
ENDMDL
MODEL 6
REMARK VINA RESULT:     0.019      5.597      7.499
REMARK INTER + INTRA:          -3.652
REMARK INTER:                   0.000
REMARK INTRA:                  -3.652
REMARK UNBOUND:                -3.687
REMARK SMILES CCCCCCCCC=CCCCCCCCC(=O)[O-]
REMARK SMILES IDX 10 1 9 2 11 3 12 4 13 5 14 6 15 7 16 8 17 9 18 10 19 11
REMARK SMILES IDX 20 12 8 13 7 14 6 15 5 16 4 17 3 18 2 19 1 20
REMARK H PARENT
REMARK Flexibility Score: inf
ROOT
ATOM      1  C   UNL     1     174.354 189.573 197.558  1.00  0.00    -0.031 C 
ATOM      2  C   UNL     1     173.291 190.163 196.990  1.00  0.00    -0.031 C 
ENDROOT
BRANCH   1   3
ATOM      3  C   UNL     1     175.746 189.768 197.019  1.00  0.00     0.027 C 
BRANCH   3   4
ATOM      4  C   UNL     1     176.779 189.992 198.133  1.00  0.00     0.004 C 
BRANCH   4   5
ATOM      5  C   UNL     1     176.122 190.131 199.514  1.00  0.00     0.000 C 
BRANCH   5   6
ATOM      6  C   UNL     1     176.217 191.577 200.023  1.00  0.00     0.000 C 
BRANCH   6   7
ATOM      7  C   UNL     1     174.840 192.244 200.197  1.00  0.00     0.000 C 
BRANCH   7   8
ATOM      8  C   UNL     1     174.392 193.133 199.019  1.00  0.00     0.006 C 
BRANCH   8   9
ATOM      9  C   UNL     1     175.523 193.541 198.061  1.00  0.00     0.053 C 
BRANCH   9  10
ATOM     10  C   UNL     1     175.114 193.416 196.625  1.00  0.00     0.041 C 
ATOM     11  O   UNL     1     175.960 193.084 195.753  1.00  0.00    -0.550 OA
ATOM     12  O   UNL     1     173.793 193.633 196.256  1.00  0.00    -0.550 OA
ENDBRANCH   9  10
ENDBRANCH   8   9
ENDBRANCH   7   8
ENDBRANCH   6   7
ENDBRANCH   5   6
ENDBRANCH   4   5
ENDBRANCH   3   4
ENDBRANCH   1   3
BRANCH   2  13
ATOM     13  C   UNL     1     171.900 189.958 197.522  1.00  0.00     0.027 C 
BRANCH  13  14
ATOM     14  C   UNL     1     171.752 190.546 198.930  1.00  0.00     0.004 C 
BRANCH  14  15
ATOM     15  C   UNL     1     171.524 189.437 199.968  1.00  0.00     0.000 C 
BRANCH  15  16
ATOM     16  C   UNL     1     172.720 189.285 200.933  1.00  0.00     0.000 C 
BRANCH  16  17
ATOM     17  C   UNL     1     173.433 187.927 200.819  1.00  0.00    -0.000 C 
BRANCH  17  18
ATOM     18  C   UNL     1     172.779 186.992 199.788  1.00  0.00    -0.000 C 
BRANCH  18  19
ATOM     19  C   UNL     1     173.811 186.256 198.921  1.00  0.00    -0.003 C 
ATOM     20  C   UNL     1     175.246 186.470 199.403  1.00  0.00     0.004 C 
ENDBRANCH  18  19
ENDBRANCH  17  18
ENDBRANCH  16  17
ENDBRANCH  15  16
ENDBRANCH  14  15
ENDBRANCH  13  14
ENDBRANCH   2  13
TORSDOF 15
ENDMDL
MODEL 7
REMARK VINA RESULT:     0.024      6.676      9.152
REMARK INTER + INTRA:          -3.642
REMARK INTER:                   0.000
REMARK INTRA:                  -3.642
REMARK UNBOUND:                -3.687
REMARK SMILES CCCCCCCCC=CCCCCCCCC(=O)[O-]
REMARK SMILES IDX 10 1 9 2 11 3 12 4 13 5 14 6 15 7 16 8 17 9 18 10 19 11
REMARK SMILES IDX 20 12 8 13 7 14 6 15 5 16 4 17 3 18 2 19 1 20
REMARK H PARENT
REMARK Flexibility Score: inf
ROOT
ATOM      1  C   UNL     1     174.590 188.071 196.769  1.00  0.00    -0.031 C 
ATOM      2  C   UNL     1     175.772 188.035 197.402  1.00  0.00    -0.031 C 
ENDROOT
BRANCH   1   3
ATOM      3  C   UNL     1     174.157 186.967 195.842  1.00  0.00     0.027 C 
BRANCH   3   4
ATOM      4  C   UNL     1     175.278 186.533 194.885  1.00  0.00     0.004 C 
BRANCH   4   5
ATOM      5  C   UNL     1     175.753 185.099 195.162  1.00  0.00     0.000 C 
BRANCH   5   6
ATOM      6  C   UNL     1     177.235 185.081 195.566  1.00  0.00     0.000 C 
BRANCH   6   7
ATOM      7  C   UNL     1     177.448 184.732 197.050  1.00  0.00     0.000 C 
BRANCH   7   8
ATOM      8  C   UNL     1     176.257 184.032 197.734  1.00  0.00     0.006 C 
BRANCH   8   9
ATOM      9  C   UNL     1     175.749 184.732 199.005  1.00  0.00     0.053 C 
BRANCH   9  10
ATOM     10  C   UNL     1     174.276 184.997 198.950  1.00  0.00     0.041 C 
ATOM     11  O   UNL     1     173.771 185.913 199.652  1.00  0.00    -0.550 OA
ATOM     12  O   UNL     1     173.467 184.257 198.097  1.00  0.00    -0.550 OA
ENDBRANCH   9  10
ENDBRANCH   8   9
ENDBRANCH   7   8
ENDBRANCH   6   7
ENDBRANCH   5   6
ENDBRANCH   4   5
ENDBRANCH   3   4
ENDBRANCH   1   3
BRANCH   2  13
ATOM     13  C   UNL     1     176.209 189.144 198.318  1.00  0.00     0.027 C 
BRANCH  13  14
ATOM     14  C   UNL     1     177.700 189.455 198.143  1.00  0.00     0.004 C 
BRANCH  14  15
ATOM     15  C   UNL     1     178.429 188.287 197.463  1.00  0.00     0.000 C 
BRANCH  15  16
ATOM     16  C   UNL     1     179.224 188.739 196.219  1.00  0.00     0.000 C 
BRANCH  16  17
ATOM     17  C   UNL     1     178.492 188.478 194.892  1.00  0.00    -0.000 C 
BRANCH  17  18
ATOM     18  C   UNL     1     178.044 189.771 194.192  1.00  0.00    -0.000 C 
BRANCH  18  19
ATOM     19  C   UNL     1     176.523 189.977 194.248  1.00  0.00    -0.003 C 
ATOM     20  C   UNL     1     176.118 191.140 195.154  1.00  0.00     0.004 C 
ENDBRANCH  18  19
ENDBRANCH  17  18
ENDBRANCH  16  17
ENDBRANCH  15  16
ENDBRANCH  14  15
ENDBRANCH  13  14
ENDBRANCH   2  13
TORSDOF 15
ENDMDL
MODEL 8
REMARK VINA RESULT:     0.027      6.347      8.546
REMARK INTER + INTRA:          -3.637
REMARK INTER:                   0.000
REMARK INTRA:                  -3.637
REMARK UNBOUND:                -3.687
REMARK SMILES CCCCCCCCC=CCCCCCCCC(=O)[O-]
REMARK SMILES IDX 10 1 9 2 11 3 12 4 13 5 14 6 15 7 16 8 17 9 18 10 19 11
REMARK SMILES IDX 20 12 8 13 7 14 6 15 5 16 4 17 3 18 2 19 1 20
REMARK H PARENT
REMARK Flexibility Score: inf
ROOT
ATOM      1  C   UNL     1     178.224 188.472 195.520  1.00  0.00    -0.031 C 
ATOM      2  C   UNL     1     179.439 188.807 195.980  1.00  0.00    -0.031 C 
ENDROOT
BRANCH   1   3
ATOM      3  C   UNL     1     177.661 189.079 194.263  1.00  0.00     0.027 C 
BRANCH   3   4
ATOM      4  C   UNL     1     177.155 188.016 193.276  1.00  0.00     0.004 C 
BRANCH   4   5
ATOM      5  C   UNL     1     177.106 186.616 193.906  1.00  0.00     0.000 C 
BRANCH   5   6
ATOM      6  C   UNL     1     177.962 185.624 193.105  1.00  0.00     0.000 C 
BRANCH   6   7
ATOM      7  C   UNL     1     179.369 185.429 193.701  1.00  0.00     0.000 C 
BRANCH   7   8
ATOM      8  C   UNL     1     180.531 185.882 192.795  1.00  0.00     0.006 C 
BRANCH   8   9
ATOM      9  C   UNL     1     181.228 187.175 193.249  1.00  0.00     0.053 C 
BRANCH   9  10
ATOM     10  C   UNL     1     180.786 188.362 192.449  1.00  0.00     0.041 C 
ATOM     11  O   UNL     1     180.149 188.199 191.375  1.00  0.00    -0.550 OA
ATOM     12  O   UNL     1     181.047 189.647 192.908  1.00  0.00    -0.550 OA
ENDBRANCH   9  10
ENDBRANCH   8   9
ENDBRANCH   7   8
ENDBRANCH   6   7
ENDBRANCH   5   6
ENDBRANCH   4   5
ENDBRANCH   3   4
ENDBRANCH   1   3
BRANCH   2  13
ATOM     13  C   UNL     1     179.996 188.209 197.242  1.00  0.00     0.027 C 
BRANCH  13  14
ATOM     14  C   UNL     1     180.285 186.713 197.068  1.00  0.00     0.004 C 
BRANCH  14  15
ATOM     15  C   UNL     1     179.382 185.869 197.979  1.00  0.00     0.000 C 
BRANCH  15  16
ATOM     16  C   UNL     1     178.314 185.089 197.183  1.00  0.00     0.000 C 
BRANCH  16  17
ATOM     17  C   UNL     1     176.875 185.547 197.473  1.00  0.00    -0.000 C 
BRANCH  17  18
ATOM     18  C   UNL     1     176.804 186.672 198.519  1.00  0.00    -0.000 C 
BRANCH  18  19
ATOM     19  C   UNL     1     175.803 187.772 198.135  1.00  0.00    -0.003 C 
ATOM     20  C   UNL     1     174.959 187.402 196.915  1.00  0.00     0.004 C 
ENDBRANCH  18  19
ENDBRANCH  17  18
ENDBRANCH  16  17
ENDBRANCH  15  16
ENDBRANCH  14  15
ENDBRANCH  13  14
ENDBRANCH   2  13
TORSDOF 15
ENDMDL
MODEL 9
REMARK VINA RESULT:     0.040      3.706      6.728
REMARK INTER + INTRA:          -3.612
REMARK INTER:                   0.000
REMARK INTRA:                  -3.612
REMARK UNBOUND:                -3.687
REMARK SMILES CCCCCCCCC=CCCCCCCCC(=O)[O-]
REMARK SMILES IDX 10 1 9 2 11 3 12 4 13 5 14 6 15 7 16 8 17 9 18 10 19 11
REMARK SMILES IDX 20 12 8 13 7 14 6 15 5 16 4 17 3 18 2 19 1 20
REMARK H PARENT
REMARK Flexibility Score: inf
ROOT
ATOM      1  C   UNL     1     175.497 197.470 198.709  1.00  0.00    -0.031 C 
ATOM      2  C   UNL     1     175.508 196.345 199.439  1.00  0.00    -0.031 C 
ENDROOT
BRANCH   1   3
ATOM      3  C   UNL     1     176.766 198.209 198.378  1.00  0.00     0.027 C 
BRANCH   3   4
ATOM      4  C   UNL     1     178.023 197.428 198.792  1.00  0.00     0.004 C 
BRANCH   4   5
ATOM      5  C   UNL     1     178.897 197.053 197.586  1.00  0.00     0.000 C 
BRANCH   5   6
ATOM      6  C   UNL     1     179.814 195.868 197.921  1.00  0.00     0.000 C 
BRANCH   6   7
ATOM      7  C   UNL     1     179.387 195.122 199.199  1.00  0.00     0.000 C 
BRANCH   7   8
ATOM      8  C   UNL     1     179.804 193.638 199.259  1.00  0.00     0.006 C 
BRANCH   8   9
ATOM      9  C   UNL     1     180.242 193.043 197.911  1.00  0.00     0.053 C 
BRANCH   9  10
ATOM     10  C   UNL     1     179.651 191.686 197.679  1.00  0.00     0.041 C 
ATOM     11  O   UNL     1     179.227 191.368 196.537  1.00  0.00    -0.550 OA
ATOM     12  O   UNL     1     179.601 190.762 198.715  1.00  0.00    -0.550 OA
ENDBRANCH   9  10
ENDBRANCH   8   9
ENDBRANCH   7   8
ENDBRANCH   6   7
ENDBRANCH   5   6
ENDBRANCH   4   5
ENDBRANCH   3   4
ENDBRANCH   1   3
BRANCH   2  13
ATOM     13  C   UNL     1     174.238 195.615 199.780  1.00  0.00     0.027 C 
BRANCH  13  14
ATOM     14  C   UNL     1     174.456 194.097 199.789  1.00  0.00     0.004 C 
BRANCH  14  15
ATOM     15  C   UNL     1     175.953 193.755 199.763  1.00  0.00     0.000 C 
BRANCH  15  16
ATOM     16  C   UNL     1     176.280 192.637 198.751  1.00  0.00     0.000 C 
BRANCH  16  17
ATOM     17  C   UNL     1     175.911 192.991 197.301  1.00  0.00    -0.000 C 
BRANCH  17  18
ATOM     18  C   UNL     1     176.844 194.047 196.687  1.00  0.00    -0.000 C 
BRANCH  18  19
ATOM     19  C   UNL     1     176.079 195.138 195.924  1.00  0.00    -0.003 C 
ATOM     20  C   UNL     1     174.562 194.993 196.050  1.00  0.00     0.004 C 
ENDBRANCH  18  19
ENDBRANCH  17  18
ENDBRANCH  16  17
ENDBRANCH  15  16
ENDBRANCH  14  15
ENDBRANCH  13  14
ENDBRANCH   2  13
TORSDOF 15
ENDMDL
