MODEL 1
REMARK VINA RESULT:    -4.630      0.000      0.000
REMARK INTER + INTRA:         -11.169
REMARK INTER:                  -8.961
REMARK INTRA:                  -2.208
REMARK UNBOUND:                -2.208
REMARK SMILES CCCCCCCCCCCCCCCCCC(=O)[O-]
REMARK SMILES IDX 10 1 11 2 12 3 13 4 14 5 15 6 16 7 17 8 18 9 19 10 20 11
REMARK SMILES IDX 9 12 8 13 7 14 6 15 5 16 4 17 3 18 2 19 1 20
REMARK H PARENT
REMARK Flexibility Score: inf
ROOT
ATOM      1  C   UNL     1      25.142   8.231  14.031  1.00  0.00     0.000 C 
ENDROOT
BRANCH   1   2
ATOM      2  C   UNL     1      23.709   8.013  14.532  1.00  0.00     0.000 C 
BRANCH   2   3
ATOM      3  C   UNL     1      22.857   7.306  13.468  1.00  0.00     0.000 C 
BRANCH   3   4
ATOM      4  C   UNL     1      22.870   5.777  13.619  1.00  0.00     0.000 C 
BRANCH   4   5
ATOM      5  C   UNL     1      23.370   5.321  14.997  1.00  0.00     0.000 C 
BRANCH   5   6
ATOM      6  C   UNL     1      24.009   3.927  14.917  1.00  0.00     0.000 C 
BRANCH   6   7
ATOM      7  C   UNL     1      24.909   3.752  13.679  1.00  0.00     0.006 C 
BRANCH   7   8
ATOM      8  C   UNL     1      25.960   2.639  13.811  1.00  0.00     0.053 C 
BRANCH   8   9
ATOM      9  C   UNL     1      26.818   2.525  12.588  1.00  0.00     0.041 C 
ATOM     10  O   UNL     1      28.000   2.103  12.681  1.00  0.00    -0.550 OA
ATOM     11  O   UNL     1      26.323   2.921  11.352  1.00  0.00    -0.550 OA
ENDBRANCH   8   9
ENDBRANCH   7   8
ENDBRANCH   6   7
ENDBRANCH   5   6
ENDBRANCH   4   5
ENDBRANCH   3   4
ENDBRANCH   2   3
ENDBRANCH   1   2
BRANCH   1  12
ATOM     12  C   UNL     1      26.154   8.076  15.177  1.00  0.00     0.000 C 
BRANCH  12  13
ATOM     13  C   UNL     1      26.972   6.779  15.073  1.00  0.00    -0.000 C 
BRANCH  13  14
ATOM     14  C   UNL     1      27.425   6.478  13.636  1.00  0.00    -0.000 C 
BRANCH  14  15
ATOM     15  C   UNL     1      28.588   7.388  13.225  1.00  0.00    -0.000 C 
BRANCH  15  16
ATOM     16  C   UNL     1      28.378   7.944  11.808  1.00  0.00    -0.000 C 
BRANCH  16  17
ATOM     17  C   UNL     1      28.445   9.478  11.760  1.00  0.00    -0.000 C 
BRANCH  17  18
ATOM     18  C   UNL     1      27.071  10.137  11.970  1.00  0.00    -0.000 C 
BRANCH  18  19
ATOM     19  C   UNL     1      27.103  11.234  13.047  1.00  0.00    -0.003 C 
ATOM     20  C   UNL     1      25.849  12.109  13.036  1.00  0.00     0.004 C 
ENDBRANCH  18  19
ENDBRANCH  17  18
ENDBRANCH  16  17
ENDBRANCH  15  16
ENDBRANCH  14  15
ENDBRANCH  13  14
ENDBRANCH  12  13
ENDBRANCH   1  12
TORSDOF 16
ENDMDL
MODEL 2
REMARK VINA RESULT:    -4.472      5.766      8.503
REMARK INTER + INTRA:         -10.862
REMARK INTER:                  -9.542
REMARK INTRA:                  -1.320
REMARK UNBOUND:                -2.208
REMARK SMILES CCCCCCCCCCCCCCCCCC(=O)[O-]
REMARK SMILES IDX 10 1 11 2 12 3 13 4 14 5 15 6 16 7 17 8 18 9 19 10 20 11
REMARK SMILES IDX 9 12 8 13 7 14 6 15 5 16 4 17 3 18 2 19 1 20
REMARK H PARENT
REMARK Flexibility Score: inf
ROOT
ATOM      1  C   UNL     1      20.370  11.307  16.593  1.00  0.00     0.000 C 
ENDROOT
BRANCH   1   2
ATOM      2  C   UNL     1      21.267  11.848  15.473  1.00  0.00     0.000 C 
BRANCH   2   3
ATOM      3  C   UNL     1      21.616  10.742  14.465  1.00  0.00     0.000 C 
BRANCH   3   4
ATOM      4  C   UNL     1      20.594  10.641  13.321  1.00  0.00     0.000 C 
BRANCH   4   5
ATOM      5  C   UNL     1      20.153  12.015  12.797  1.00  0.00     0.000 C 
BRANCH   5   6
ATOM      6  C   UNL     1      19.367  11.875  11.484  1.00  0.00     0.000 C 
BRANCH   6   7
ATOM      7  C   UNL     1      18.825  10.451  11.261  1.00  0.00     0.006 C 
BRANCH   7   8
ATOM      8  C   UNL     1      18.345  10.173   9.827  1.00  0.00     0.053 C 
BRANCH   8   9
ATOM      9  C   UNL     1      16.855  10.039   9.748  1.00  0.00     0.041 C 
ATOM     10  O   UNL     1      16.337   8.969   9.331  1.00  0.00    -0.550 OA
ATOM     11  O   UNL     1      16.040  11.107  10.099  1.00  0.00    -0.550 OA
ENDBRANCH   8   9
ENDBRANCH   7   8
ENDBRANCH   6   7
ENDBRANCH   5   6
ENDBRANCH   4   5
ENDBRANCH   3   4
ENDBRANCH   2   3
ENDBRANCH   1   2
BRANCH   1  12
ATOM     12  C   UNL     1      21.200  10.938  17.832  1.00  0.00     0.000 C 
BRANCH  12  13
ATOM     13  C   UNL     1      21.478   9.430  17.931  1.00  0.00    -0.000 C 
BRANCH  13  14
ATOM     14  C   UNL     1      22.876   9.121  18.492  1.00  0.00    -0.000 C 
BRANCH  14  15
ATOM     15  C   UNL     1      23.775   8.506  17.414  1.00  0.00    -0.000 C 
BRANCH  15  16
ATOM     16  C   UNL     1      22.971   7.580  16.488  1.00  0.00    -0.000 C 
BRANCH  16  17
ATOM     17  C   UNL     1      23.602   7.444  15.094  1.00  0.00    -0.000 C 
BRANCH  17  18
ATOM     18  C   UNL     1      23.249   6.112  14.411  1.00  0.00    -0.000 C 
BRANCH  18  19
ATOM     19  C   UNL     1      23.622   4.893  15.270  1.00  0.00    -0.003 C 
ATOM     20  C   UNL     1      24.385   3.827  14.482  1.00  0.00     0.004 C 
ENDBRANCH  18  19
ENDBRANCH  17  18
ENDBRANCH  16  17
ENDBRANCH  15  16
ENDBRANCH  14  15
ENDBRANCH  13  14
ENDBRANCH  12  13
ENDBRANCH   1  12
TORSDOF 16
ENDMDL
MODEL 3
REMARK VINA RESULT:    -4.470      3.024      4.922
REMARK INTER + INTRA:         -10.859
REMARK INTER:                  -9.074
REMARK INTRA:                  -1.784
REMARK UNBOUND:                -2.208
REMARK SMILES CCCCCCCCCCCCCCCCCC(=O)[O-]
REMARK SMILES IDX 10 1 11 2 12 3 13 4 14 5 15 6 16 7 17 8 18 9 19 10 20 11
REMARK SMILES IDX 9 12 8 13 7 14 6 15 5 16 4 17 3 18 2 19 1 20
REMARK H PARENT
REMARK Flexibility Score: inf
ROOT
ATOM      1  C   UNL     1      23.833   9.178  15.123  1.00  0.00     0.000 C 
ENDROOT
BRANCH   1   2
ATOM      2  C   UNL     1      24.249   7.886  14.408  1.00  0.00     0.000 C 
BRANCH   2   3
ATOM      3  C   UNL     1      23.108   7.353  13.529  1.00  0.00     0.000 C 
BRANCH   3   4
ATOM      4  C   UNL     1      22.933   5.831  13.645  1.00  0.00     0.000 C 
BRANCH   4   5
ATOM      5  C   UNL     1      23.340   5.291  15.024  1.00  0.00     0.000 C 
BRANCH   5   6
ATOM      6  C   UNL     1      24.055   3.938  14.894  1.00  0.00     0.000 C 
BRANCH   6   7
ATOM      7  C   UNL     1      24.647   3.706  13.491  1.00  0.00     0.006 C 
BRANCH   7   8
ATOM      8  C   UNL     1      26.180   3.798  13.426  1.00  0.00     0.053 C 
BRANCH   8   9
ATOM      9  C   UNL     1      26.749   2.946  12.334  1.00  0.00     0.041 C 
ATOM     10  O   UNL     1      27.488   3.457  11.451  1.00  0.00    -0.550 OA
ATOM     11  O   UNL     1      26.435   1.594  12.270  1.00  0.00    -0.550 OA
ENDBRANCH   8   9
ENDBRANCH   7   8
ENDBRANCH   6   7
ENDBRANCH   5   6
ENDBRANCH   4   5
ENDBRANCH   3   4
ENDBRANCH   2   3
ENDBRANCH   1   2
BRANCH   1  12
ATOM     12  C   UNL     1      23.820   8.983  16.647  1.00  0.00     0.000 C 
BRANCH  12  13
ATOM     13  C   UNL     1      22.631   8.132  17.124  1.00  0.00    -0.000 C 
BRANCH  13  14
ATOM     14  C   UNL     1      21.714   8.889  18.098  1.00  0.00    -0.000 C 
BRANCH  14  15
ATOM     15  C   UNL     1      21.968  10.399  18.028  1.00  0.00    -0.000 C 
BRANCH  15  16
ATOM     16  C   UNL     1      20.691  11.154  17.627  1.00  0.00    -0.000 C 
BRANCH  16  17
ATOM     17  C   UNL     1      20.827  11.866  16.272  1.00  0.00    -0.000 C 
BRANCH  17  18
ATOM     18  C   UNL     1      20.705  10.901  15.081  1.00  0.00    -0.000 C 
BRANCH  18  19
ATOM     19  C   UNL     1      21.265  11.498  13.780  1.00  0.00    -0.003 C 
ATOM     20  C   UNL     1      20.214  12.273  12.986  1.00  0.00     0.004 C 
ENDBRANCH  18  19
ENDBRANCH  17  18
ENDBRANCH  16  17
ENDBRANCH  15  16
ENDBRANCH  14  15
ENDBRANCH  13  14
ENDBRANCH  12  13
ENDBRANCH   1  12
TORSDOF 16
ENDMDL
MODEL 4
REMARK VINA RESULT:    -4.439      9.219     11.389
REMARK INTER + INTRA:         -10.799
REMARK INTER:                  -8.706
REMARK INTRA:                  -2.094
REMARK UNBOUND:                -2.208
REMARK SMILES CCCCCCCCCCCCCCCCCC(=O)[O-]
REMARK SMILES IDX 10 1 11 2 12 3 13 4 14 5 15 6 16 7 17 8 18 9 19 10 20 11
REMARK SMILES IDX 9 12 8 13 7 14 6 15 5 16 4 17 3 18 2 19 1 20
REMARK H PARENT
REMARK Flexibility Score: inf
ROOT
ATOM      1  C   UNL     1      18.193   7.994   3.075  1.00  0.00     0.000 C 
ENDROOT
BRANCH   1   2
ATOM      2  C   UNL     1      17.216   7.320   4.047  1.00  0.00     0.000 C 
BRANCH   2   3
ATOM      3  C   UNL     1      17.394   7.865   5.472  1.00  0.00     0.000 C 
BRANCH   3   4
ATOM      4  C   UNL     1      17.015   6.838   6.550  1.00  0.00     0.000 C 
BRANCH   4   5
ATOM      5  C   UNL     1      16.042   7.406   7.594  1.00  0.00     0.000 C 
BRANCH   5   6
ATOM      6  C   UNL     1      15.541   8.797   7.177  1.00  0.00     0.000 C 
BRANCH   6   7
ATOM      7  C   UNL     1      15.853   9.884   8.223  1.00  0.00     0.006 C 
BRANCH   7   8
ATOM      8  C   UNL     1      16.669   9.389   9.428  1.00  0.00     0.053 C 
BRANCH   8   9
ATOM      9  C   UNL     1      18.098   9.832   9.361  1.00  0.00     0.041 C 
ATOM     10  O   UNL     1      18.483  10.832  10.022  1.00  0.00    -0.550 OA
ATOM     11  O   UNL     1      18.997   9.163   8.540  1.00  0.00    -0.550 OA
ENDBRANCH   8   9
ENDBRANCH   7   8
ENDBRANCH   6   7
ENDBRANCH   5   6
ENDBRANCH   4   5
ENDBRANCH   3   4
ENDBRANCH   2   3
ENDBRANCH   1   2
BRANCH   1  12
ATOM     12  C   UNL     1      19.200   6.978   2.515  1.00  0.00     0.000 C 
BRANCH  12  13
ATOM     13  C   UNL     1      20.457   6.846   3.391  1.00  0.00    -0.000 C 
BRANCH  13  14
ATOM     14  C   UNL     1      20.808   5.383   3.706  1.00  0.00    -0.000 C 
BRANCH  14  15
ATOM     15  C   UNL     1      20.208   4.952   5.049  1.00  0.00    -0.000 C 
BRANCH  15  16
ATOM     16  C   UNL     1      20.510   5.987   6.144  1.00  0.00    -0.000 C 
BRANCH  16  17
ATOM     17  C   UNL     1      21.426   5.431   7.246  1.00  0.00    -0.000 C 
BRANCH  17  18
ATOM     18  C   UNL     1      22.834   6.048   7.211  1.00  0.00    -0.000 C 
BRANCH  18  19
ATOM     19  C   UNL     1      23.901   5.054   6.724  1.00  0.00    -0.003 C 
ATOM     20  C   UNL     1      24.458   5.415   5.346  1.00  0.00     0.004 C 
ENDBRANCH  18  19
ENDBRANCH  17  18
ENDBRANCH  16  17
ENDBRANCH  15  16
ENDBRANCH  14  15
ENDBRANCH  13  14
ENDBRANCH  12  13
ENDBRANCH   1  12
TORSDOF 16
ENDMDL
MODEL 5
REMARK VINA RESULT:    -4.426      1.009      2.579
REMARK INTER + INTRA:         -10.774
REMARK INTER:                  -8.437
REMARK INTRA:                  -2.337
REMARK UNBOUND:                -2.208
REMARK SMILES CCCCCCCCCCCCCCCCCC(=O)[O-]
REMARK SMILES IDX 10 1 11 2 12 3 13 4 14 5 15 6 16 7 17 8 18 9 19 10 20 11
REMARK SMILES IDX 9 12 8 13 7 14 6 15 5 16 4 17 3 18 2 19 1 20
REMARK H PARENT
REMARK Flexibility Score: inf
ROOT
ATOM      1  C   UNL     1      23.775   9.244  15.518  1.00  0.00     0.000 C 
ENDROOT
BRANCH   1   2
ATOM      2  C   UNL     1      23.728   7.710  15.505  1.00  0.00     0.000 C 
BRANCH   2   3
ATOM      3  C   UNL     1      23.507   7.180  14.080  1.00  0.00     0.000 C 
BRANCH   3   4
ATOM      4  C   UNL     1      22.982   5.736  14.060  1.00  0.00     0.000 C 
BRANCH   4   5
ATOM      5  C   UNL     1      23.450   4.919  15.273  1.00  0.00     0.000 C 
BRANCH   5   6
ATOM      6  C   UNL     1      24.167   3.636  14.827  1.00  0.00     0.000 C 
BRANCH   6   7
ATOM      7  C   UNL     1      24.767   3.747  13.413  1.00  0.00     0.006 C 
BRANCH   7   8
ATOM      8  C   UNL     1      26.295   3.590  13.358  1.00  0.00     0.053 C 
BRANCH   8   9
ATOM      9  C   UNL     1      26.706   2.283  12.752  1.00  0.00     0.041 C 
ATOM     10  O   UNL     1      27.849   1.808  12.984  1.00  0.00    -0.550 OA
ATOM     11  O   UNL     1      25.841   1.608  11.901  1.00  0.00    -0.550 OA
ENDBRANCH   8   9
ENDBRANCH   7   8
ENDBRANCH   6   7
ENDBRANCH   5   6
ENDBRANCH   4   5
ENDBRANCH   3   4
ENDBRANCH   2   3
ENDBRANCH   1   2
BRANCH   1  12
ATOM     12  C   UNL     1      25.226   9.749  15.486  1.00  0.00     0.000 C 
BRANCH  12  13
ATOM     13  C   UNL     1      25.516  10.638  14.267  1.00  0.00    -0.000 C 
BRANCH  13  14
ATOM     14  C   UNL     1      26.959  11.168  14.250  1.00  0.00    -0.000 C 
BRANCH  14  15
ATOM     15  C   UNL     1      27.605  10.956  12.876  1.00  0.00    -0.000 C 
BRANCH  15  16
ATOM     16  C   UNL     1      27.031   9.710  12.184  1.00  0.00    -0.000 C 
BRANCH  16  17
ATOM     17  C   UNL     1      28.127   8.761  11.674  1.00  0.00    -0.000 C 
BRANCH  17  18
ATOM     18  C   UNL     1      28.407   7.602  12.646  1.00  0.00    -0.000 C 
BRANCH  18  19
ATOM     19  C   UNL     1      27.167   7.207  13.464  1.00  0.00    -0.003 C 
ATOM     20  C   UNL     1      27.492   6.934  14.933  1.00  0.00     0.004 C 
ENDBRANCH  18  19
ENDBRANCH  17  18
ENDBRANCH  16  17
ENDBRANCH  15  16
ENDBRANCH  14  15
ENDBRANCH  13  14
ENDBRANCH  12  13
ENDBRANCH   1  12
TORSDOF 16
ENDMDL
MODEL 6
REMARK VINA RESULT:    -4.366      3.443      5.175
REMARK INTER + INTRA:         -10.657
REMARK INTER:                  -9.456
REMARK INTRA:                  -1.201
REMARK UNBOUND:                -2.208
REMARK SMILES CCCCCCCCCCCCCCCCCC(=O)[O-]
REMARK SMILES IDX 10 1 11 2 12 3 13 4 14 5 15 6 16 7 17 8 18 9 19 10 20 11
REMARK SMILES IDX 9 12 8 13 7 14 6 15 5 16 4 17 3 18 2 19 1 20
REMARK H PARENT
REMARK Flexibility Score: inf
ROOT
ATOM      1  C   UNL     1      23.777   8.549  17.058  1.00  0.00     0.000 C 
ENDROOT
BRANCH   1   2
ATOM      2  C   UNL     1      23.114   7.391  16.302  1.00  0.00     0.000 C 
BRANCH   2   3
ATOM      3  C   UNL     1      23.334   7.525  14.788  1.00  0.00     0.000 C 
BRANCH   3   4
ATOM      4  C   UNL     1      23.451   6.164  14.084  1.00  0.00     0.000 C 
BRANCH   4   5
ATOM      5  C   UNL     1      24.673   5.359  14.548  1.00  0.00     0.000 C 
BRANCH   5   6
ATOM      6  C   UNL     1      24.406   3.849  14.446  1.00  0.00     0.000 C 
BRANCH   6   7
ATOM      7  C   UNL     1      25.108   3.199  13.239  1.00  0.00     0.006 C 
BRANCH   7   8
ATOM      8  C   UNL     1      26.376   2.405  13.594  1.00  0.00     0.053 C 
BRANCH   8   9
ATOM      9  C   UNL     1      27.608   3.017  13.002  1.00  0.00     0.041 C 
ATOM     10  O   UNL     1      28.497   2.285  12.493  1.00  0.00    -0.550 OA
ATOM     11  O   UNL     1      27.791   4.394  13.044  1.00  0.00    -0.550 OA
ENDBRANCH   8   9
ENDBRANCH   7   8
ENDBRANCH   6   7
ENDBRANCH   5   6
ENDBRANCH   4   5
ENDBRANCH   3   4
ENDBRANCH   2   3
ENDBRANCH   1   2
BRANCH   1  12
ATOM     12  C   UNL     1      23.025   8.856  18.362  1.00  0.00     0.000 C 
BRANCH  12  13
ATOM     13  C   UNL     1      21.540   9.175  18.128  1.00  0.00    -0.000 C 
BRANCH  13  14
ATOM     14  C   UNL     1      21.314  10.609  17.623  1.00  0.00    -0.000 C 
BRANCH  14  15
ATOM     15  C   UNL     1      20.588  10.607  16.273  1.00  0.00    -0.000 C 
BRANCH  15  16
ATOM     16  C   UNL     1      21.450  11.267  15.185  1.00  0.00    -0.000 C 
BRANCH  16  17
ATOM     17  C   UNL     1      21.066  10.810  13.769  1.00  0.00    -0.000 C 
BRANCH  17  18
ATOM     18  C   UNL     1      20.534  11.962  12.900  1.00  0.00    -0.000 C 
BRANCH  18  19
ATOM     19  C   UNL     1      19.541  11.481  11.829  1.00  0.00    -0.003 C 
ATOM     20  C   UNL     1      19.055  12.614  10.924  1.00  0.00     0.004 C 
ENDBRANCH  18  19
ENDBRANCH  17  18
ENDBRANCH  16  17
ENDBRANCH  15  16
ENDBRANCH  14  15
ENDBRANCH  13  14
ENDBRANCH  12  13
ENDBRANCH   1  12
TORSDOF 16
ENDMDL
MODEL 7
REMARK VINA RESULT:    -4.328      1.443      2.187
REMARK INTER + INTRA:         -10.585
REMARK INTER:                  -8.293
REMARK INTRA:                  -2.292
REMARK UNBOUND:                -2.208
REMARK SMILES CCCCCCCCCCCCCCCCCC(=O)[O-]
REMARK SMILES IDX 10 1 11 2 12 3 13 4 14 5 15 6 16 7 17 8 18 9 19 10 20 11
REMARK SMILES IDX 9 12 8 13 7 14 6 15 5 16 4 17 3 18 2 19 1 20
REMARK H PARENT
REMARK Flexibility Score: inf
ROOT
ATOM      1  C   UNL     1      25.048   8.673  17.877  1.00  0.00     0.000 C 
ENDROOT
BRANCH   1   2
ATOM      2  C   UNL     1      24.104   8.842  16.680  1.00  0.00     0.000 C 
BRANCH   2   3
ATOM      3  C   UNL     1      23.158   7.639  16.552  1.00  0.00     0.000 C 
BRANCH   3   4
ATOM      4  C   UNL     1      23.283   6.930  15.194  1.00  0.00     0.000 C 
BRANCH   4   5
ATOM      5  C   UNL     1      23.585   5.430  15.334  1.00  0.00     0.000 C 
BRANCH   5   6
ATOM      6  C   UNL     1      23.895   4.803  13.967  1.00  0.00     0.000 C 
BRANCH   6   7
ATOM      7  C   UNL     1      24.796   3.558  14.070  1.00  0.00     0.006 C 
BRANCH   7   8
ATOM      8  C   UNL     1      26.115   3.663  13.290  1.00  0.00     0.053 C 
BRANCH   8   9
ATOM      9  C   UNL     1      26.499   2.363  12.653  1.00  0.00     0.041 C 
ATOM     10  O   UNL     1      25.704   1.783  11.868  1.00  0.00    -0.550 OA
ATOM     11  O   UNL     1      27.720   1.774  12.956  1.00  0.00    -0.550 OA
ENDBRANCH   8   9
ENDBRANCH   7   8
ENDBRANCH   6   7
ENDBRANCH   5   6
ENDBRANCH   4   5
ENDBRANCH   3   4
ENDBRANCH   2   3
ENDBRANCH   1   2
BRANCH   1  12
ATOM     12  C   UNL     1      26.207   7.724  17.532  1.00  0.00     0.000 C 
BRANCH  12  13
ATOM     13  C   UNL     1      26.860   8.055  16.180  1.00  0.00    -0.000 C 
BRANCH  13  14
ATOM     14  C   UNL     1      26.920   6.841  15.239  1.00  0.00    -0.000 C 
BRANCH  14  15
ATOM     15  C   UNL     1      26.962   7.286  13.773  1.00  0.00    -0.000 C 
BRANCH  15  16
ATOM     16  C   UNL     1      26.292   8.657  13.594  1.00  0.00    -0.000 C 
BRANCH  16  17
ATOM     17  C   UNL     1      26.813   9.414  12.363  1.00  0.00    -0.000 C 
BRANCH  17  18
ATOM     18  C   UNL     1      28.153   8.858  11.850  1.00  0.00    -0.000 C 
BRANCH  18  19
ATOM     19  C   UNL     1      29.299   9.874  11.978  1.00  0.00    -0.003 C 
ATOM     20  C   UNL     1      28.812  11.266  12.380  1.00  0.00     0.004 C 
ENDBRANCH  18  19
ENDBRANCH  17  18
ENDBRANCH  16  17
ENDBRANCH  15  16
ENDBRANCH  14  15
ENDBRANCH  13  14
ENDBRANCH  12  13
ENDBRANCH   1  12
TORSDOF 16
ENDMDL
MODEL 8
REMARK VINA RESULT:    -4.328      9.487     11.750
REMARK INTER + INTRA:         -10.584
REMARK INTER:                  -9.057
REMARK INTRA:                  -1.527
REMARK UNBOUND:                -2.208
REMARK SMILES CCCCCCCCCCCCCCCCCC(=O)[O-]
REMARK SMILES IDX 10 1 11 2 12 3 13 4 14 5 15 6 16 7 17 8 18 9 19 10 20 11
REMARK SMILES IDX 9 12 8 13 7 14 6 15 5 16 4 17 3 18 2 19 1 20
REMARK H PARENT
REMARK Flexibility Score: inf
ROOT
ATOM      1  C   UNL     1      18.131   7.844   5.123  1.00  0.00     0.000 C 
ENDROOT
BRANCH   1   2
ATOM      2  C   UNL     1      17.873   6.761   6.179  1.00  0.00     0.000 C 
BRANCH   2   3
ATOM      3  C   UNL     1      16.716   7.162   7.106  1.00  0.00     0.000 C 
BRANCH   3   4
ATOM      4  C   UNL     1      16.630   8.682   7.322  1.00  0.00     0.000 C 
BRANCH   4   5
ATOM      5  C   UNL     1      16.987   9.098   8.756  1.00  0.00     0.000 C 
BRANCH   5   6
ATOM      6  C   UNL     1      18.479   9.443   8.872  1.00  0.00     0.000 C 
BRANCH   6   7
ATOM      7  C   UNL     1      18.753  10.588   9.866  1.00  0.00     0.006 C 
BRANCH   7   8
ATOM      8  C   UNL     1      17.493  11.178  10.517  1.00  0.00     0.053 C 
BRANCH   8   9
ATOM      9  C   UNL     1      17.556  12.670  10.618  1.00  0.00     0.041 C 
ATOM     10  O   UNL     1      16.507  13.359  10.508  1.00  0.00    -0.550 OA
ATOM     11  O   UNL     1      18.779  13.305  10.799  1.00  0.00    -0.550 OA
ENDBRANCH   8   9
ENDBRANCH   7   8
ENDBRANCH   6   7
ENDBRANCH   5   6
ENDBRANCH   4   5
ENDBRANCH   3   4
ENDBRANCH   2   3
ENDBRANCH   1   2
BRANCH   1  12
ATOM     12  C   UNL     1      17.751   7.346   3.721  1.00  0.00     0.000 C 
BRANCH  12  13
ATOM     13  C   UNL     1      18.809   7.695   2.662  1.00  0.00    -0.000 C 
BRANCH  13  14
ATOM     14  C   UNL     1      20.151   6.986   2.909  1.00  0.00    -0.000 C 
BRANCH  14  15
ATOM     15  C   UNL     1      19.992   5.464   2.821  1.00  0.00    -0.000 C 
BRANCH  15  16
ATOM     16  C   UNL     1      20.536   4.780   4.085  1.00  0.00    -0.000 C 
BRANCH  16  17
ATOM     17  C   UNL     1      21.320   5.745   4.988  1.00  0.00    -0.000 C 
BRANCH  17  18
ATOM     18  C   UNL     1      21.996   5.031   6.171  1.00  0.00    -0.000 C 
BRANCH  18  19
ATOM     19  C   UNL     1      23.323   5.692   6.576  1.00  0.00    -0.003 C 
ATOM     20  C   UNL     1      24.467   5.356   5.619  1.00  0.00     0.004 C 
ENDBRANCH  18  19
ENDBRANCH  17  18
ENDBRANCH  16  17
ENDBRANCH  15  16
ENDBRANCH  14  15
ENDBRANCH  13  14
ENDBRANCH  12  13
ENDBRANCH   1  12
TORSDOF 16
ENDMDL
MODEL 9
REMARK VINA RESULT:    -4.160      5.148      7.031
REMARK INTER + INTRA:         -10.258
REMARK INTER:                  -9.282
REMARK INTRA:                  -0.976
REMARK UNBOUND:                -2.208
REMARK SMILES CCCCCCCCCCCCCCCCCC(=O)[O-]
REMARK SMILES IDX 10 1 11 2 12 3 13 4 14 5 15 6 16 7 17 8 18 9 19 10 20 11
REMARK SMILES IDX 9 12 8 13 7 14 6 15 5 16 4 17 3 18 2 19 1 20
REMARK H PARENT
REMARK Flexibility Score: inf
ROOT
ATOM      1  C   UNL     1      23.033   8.680  17.660  1.00  0.00     0.000 C 
ENDROOT
BRANCH   1   2
ATOM      2  C   UNL     1      23.180   7.565  16.617  1.00  0.00     0.000 C 
BRANCH   2   3
ATOM      3  C   UNL     1      23.368   8.150  15.209  1.00  0.00     0.000 C 
BRANCH   3   4
ATOM      4  C   UNL     1      23.792   7.092  14.179  1.00  0.00     0.000 C 
BRANCH   4   5
ATOM      5  C   UNL     1      22.895   5.846  14.206  1.00  0.00     0.000 C 
BRANCH   5   6
ATOM      6  C   UNL     1      23.669   4.623  14.721  1.00  0.00     0.000 C 
BRANCH   6   7
ATOM      7  C   UNL     1      25.066   4.490  14.087  1.00  0.00     0.006 C 
BRANCH   7   8
ATOM      8  C   UNL     1      25.316   3.149  13.378  1.00  0.00     0.053 C 
BRANCH   8   9
ATOM      9  C   UNL     1      26.740   3.000  12.939  1.00  0.00     0.041 C 
ATOM     10  O   UNL     1      27.162   1.889  12.523  1.00  0.00    -0.550 OA
ATOM     11  O   UNL     1      27.611   4.080  13.022  1.00  0.00    -0.550 OA
ENDBRANCH   8   9
ENDBRANCH   7   8
ENDBRANCH   6   7
ENDBRANCH   5   6
ENDBRANCH   4   5
ENDBRANCH   3   4
ENDBRANCH   2   3
ENDBRANCH   1   2
BRANCH   1  12
ATOM     12  C   UNL     1      21.576   8.802  18.132  1.00  0.00     0.000 C 
BRANCH  12  13
ATOM     13  C   UNL     1      21.081  10.258  18.152  1.00  0.00    -0.000 C 
BRANCH  13  14
ATOM     14  C   UNL     1      20.968  10.864  16.745  1.00  0.00    -0.000 C 
BRANCH  14  15
ATOM     15  C   UNL     1      19.917  11.980  16.711  1.00  0.00    -0.000 C 
BRANCH  15  16
ATOM     16  C   UNL     1      20.196  13.030  17.798  1.00  0.00    -0.000 C 
BRANCH  16  17
ATOM     17  C   UNL     1      19.001  13.234  18.742  1.00  0.00    -0.000 C 
BRANCH  17  18
ATOM     18  C   UNL     1      17.651  12.961  18.057  1.00  0.00    -0.000 C 
BRANCH  18  19
ATOM     19  C   UNL     1      16.560  13.954  18.490  1.00  0.00    -0.003 C 
ATOM     20  C   UNL     1      17.129  15.310  18.911  1.00  0.00     0.004 C 
ENDBRANCH  18  19
ENDBRANCH  17  18
ENDBRANCH  16  17
ENDBRANCH  15  16
ENDBRANCH  14  15
ENDBRANCH  13  14
ENDBRANCH  12  13
ENDBRANCH   1  12
TORSDOF 16
ENDMDL
