MODEL 1
REMARK VINA RESULT:    -5.061      0.000      0.000
REMARK INTER + INTRA:          -5.570
REMARK INTER:                  -5.505
REMARK INTRA:                  -0.065
REMARK UNBOUND:                -0.065
REMARK SMILES COc1cc2ccc(=O)oc2cc1O
REMARK SMILES IDX 3 1 13 2 12 3 11 4 5 5 4 6 6 7 7 8 8 9 9 10 10 11 2 12 1 13
REMARK SMILES IDX 14 14
REMARK H PARENT 14 15
REMARK Flexibility Score: inf
ROOT
ATOM      1  C   UNL     1       8.610  -5.927  -5.429  1.00  0.00     0.161 A 
ATOM      2  C   UNL     1       9.820  -5.565  -6.057  1.00  0.00     0.161 A 
ATOM      3  C   UNL     1      10.265  -6.264  -7.184  1.00  0.00     0.098 A 
ATOM      4  C   UNL     1       9.518  -7.326  -7.699  1.00  0.00     0.142 A 
ATOM      5  C   UNL     1       8.306  -7.696  -7.078  1.00  0.00     0.022 A 
ATOM      6  C   UNL     1       7.856  -6.999  -5.949  1.00  0.00     0.062 A 
ATOM      7  C   UNL     1       7.580  -8.763  -7.618  1.00  0.00     0.019 A 
ATOM      8  C   UNL     1       8.070  -9.426  -8.742  1.00  0.00     0.094 A 
ATOM      9  C   UNL     1       9.280  -9.003  -9.305  1.00  0.00     0.336 A 
ATOM     10  O   UNL     1       9.738  -9.588 -10.320  1.00  0.00    -0.246 OA
ATOM     11  O   UNL     1       9.950  -7.985  -8.772  1.00  0.00    -0.423 OA
ENDROOT
BRANCH   1  12
ATOM     12  O   UNL     1       8.193  -5.204  -4.299  1.00  0.00    -0.493 OA
ATOM     13  C   UNL     1       8.419  -5.609  -2.953  1.00  0.00     0.278 C 
ENDBRANCH   1  12
BRANCH   2  14
ATOM     14  O   UNL     1      10.594  -4.511  -5.572  1.00  0.00    -0.504 OA
ATOM     15  H   UNL     1      10.216  -3.804  -4.952  1.00  0.00     0.293 HD
ENDBRANCH   2  14
TORSDOF 2
ENDMDL
MODEL 2
REMARK VINA RESULT:    -5.029      0.915      0.943
REMARK INTER + INTRA:          -5.534
REMARK INTER:                  -5.555
REMARK INTRA:                   0.021
REMARK UNBOUND:                -0.065
REMARK SMILES COc1cc2ccc(=O)oc2cc1O
REMARK SMILES IDX 3 1 13 2 12 3 11 4 5 5 4 6 6 7 7 8 8 9 9 10 10 11 2 12 1 13
REMARK SMILES IDX 14 14
REMARK H PARENT 14 15
REMARK Flexibility Score: inf
ROOT
ATOM      1  C   UNL     1       8.528  -5.985  -6.011  1.00  0.00     0.161 A 
ATOM      2  C   UNL     1       9.836  -5.609  -6.380  1.00  0.00     0.161 A 
ATOM      3  C   UNL     1      10.407  -6.108  -7.555  1.00  0.00     0.098 A 
ATOM      4  C   UNL     1       9.690  -6.984  -8.374  1.00  0.00     0.142 A 
ATOM      5  C   UNL     1       8.381  -7.367  -8.013  1.00  0.00     0.022 A 
ATOM      6  C   UNL     1       7.805  -6.869  -6.837  1.00  0.00     0.062 A 
ATOM      7  C   UNL     1       7.689  -8.244  -8.854  1.00  0.00     0.019 A 
ATOM      8  C   UNL     1       8.306  -8.713 -10.013  1.00  0.00     0.094 A 
ATOM      9  C   UNL     1       9.607  -8.290 -10.307  1.00  0.00     0.336 A 
ATOM     10  O   UNL     1      10.181  -8.700 -11.349  1.00  0.00    -0.246 OA
ATOM     11  O   UNL     1      10.243  -7.454  -9.490  1.00  0.00    -0.423 OA
ENDROOT
BRANCH   1  12
ATOM     12  O   UNL     1       7.985  -5.465  -4.824  1.00  0.00    -0.493 OA
ATOM     13  C   UNL     1       8.307  -5.929  -3.518  1.00  0.00     0.278 C 
ENDBRANCH   1  12
BRANCH   2  14
ATOM     14  O   UNL     1      10.583  -4.737  -5.588  1.00  0.00    -0.504 OA
ATOM     15  H   UNL     1      10.528  -4.743  -4.576  1.00  0.00     0.293 HD
ENDBRANCH   2  14
TORSDOF 2
ENDMDL
MODEL 3
REMARK VINA RESULT:    -5.009      1.980      2.954
REMARK INTER + INTRA:          -5.513
REMARK INTER:                  -5.469
REMARK INTRA:                  -0.045
REMARK UNBOUND:                -0.065
REMARK SMILES COc1cc2ccc(=O)oc2cc1O
REMARK SMILES IDX 3 1 13 2 12 3 11 4 5 5 4 6 6 7 7 8 8 9 9 10 10 11 2 12 1 13
REMARK SMILES IDX 14 14
REMARK H PARENT 14 15
REMARK Flexibility Score: inf
ROOT
ATOM      1  C   UNL     1       8.004  -7.665  -6.098  1.00  0.00     0.161 A 
ATOM      2  C   UNL     1       8.317  -6.296  -5.981  1.00  0.00     0.161 A 
ATOM      3  C   UNL     1       9.315  -5.730  -6.781  1.00  0.00     0.098 A 
ATOM      4  C   UNL     1      10.013  -6.515  -7.701  1.00  0.00     0.142 A 
ATOM      5  C   UNL     1       9.709  -7.887  -7.825  1.00  0.00     0.022 A 
ATOM      6  C   UNL     1       8.709  -8.458  -7.027  1.00  0.00     0.062 A 
ATOM      7  C   UNL     1      10.425  -8.646  -8.757  1.00  0.00     0.019 A 
ATOM      8  C   UNL     1      11.411  -8.033  -9.528  1.00  0.00     0.094 A 
ATOM      9  C   UNL     1      11.659  -6.667  -9.350  1.00  0.00     0.336 A 
ATOM     10  O   UNL     1      12.544  -6.094 -10.037  1.00  0.00    -0.246 OA
ATOM     11  O   UNL     1      10.962  -5.968  -8.458  1.00  0.00    -0.423 OA
ENDROOT
BRANCH   1  12
ATOM     12  O   UNL     1       6.996  -8.201  -5.279  1.00  0.00    -0.493 OA
ATOM     13  C   UNL     1       6.257  -9.381  -5.576  1.00  0.00     0.278 C 
ENDBRANCH   1  12
BRANCH   2  14
ATOM     14  O   UNL     1       7.642  -5.479  -5.073  1.00  0.00    -0.504 OA
ATOM     15  H   UNL     1       7.156  -4.638  -5.361  1.00  0.00     0.293 HD
ENDBRANCH   2  14
TORSDOF 2
ENDMDL
MODEL 4
REMARK VINA RESULT:    -4.947      2.679      3.290
REMARK INTER + INTRA:          -5.446
REMARK INTER:                  -5.400
REMARK INTRA:                  -0.046
REMARK UNBOUND:                -0.065
REMARK SMILES COc1cc2ccc(=O)oc2cc1O
REMARK SMILES IDX 3 1 13 2 12 3 11 4 5 5 4 6 6 7 7 8 8 9 9 10 10 11 2 12 1 13
REMARK SMILES IDX 14 14
REMARK H PARENT 14 15
REMARK Flexibility Score: inf
ROOT
ATOM      1  C   UNL     1       8.110  -6.721  -6.694  1.00  0.00     0.161 A 
ATOM      2  C   UNL     1       8.328  -8.026  -7.181  1.00  0.00     0.161 A 
ATOM      3  C   UNL     1       8.405  -8.261  -8.558  1.00  0.00     0.098 A 
ATOM      4  C   UNL     1       8.266  -7.207  -9.463  1.00  0.00     0.142 A 
ATOM      5  C   UNL     1       8.047  -5.897  -8.987  1.00  0.00     0.022 A 
ATOM      6  C   UNL     1       7.970  -5.657  -7.609  1.00  0.00     0.062 A 
ATOM      7  C   UNL     1       7.914  -4.863  -9.919  1.00  0.00     0.019 A 
ATOM      8  C   UNL     1       7.997  -5.152 -11.281  1.00  0.00     0.094 A 
ATOM      9  C   UNL     1       8.216  -6.476 -11.680  1.00  0.00     0.336 A 
ATOM     10  O   UNL     1       8.296  -6.757 -12.904  1.00  0.00    -0.246 OA
ATOM     11  O   UNL     1       8.340  -7.440 -10.772  1.00  0.00    -0.423 OA
ENDROOT
BRANCH   1  12
ATOM     12  O   UNL     1       8.038  -6.521  -5.305  1.00  0.00    -0.493 OA
ATOM     13  C   UNL     1       8.411  -5.317  -4.643  1.00  0.00     0.278 C 
ENDBRANCH   1  12
BRANCH   2  14
ATOM     14  O   UNL     1       8.471  -9.104  -6.307  1.00  0.00    -0.504 OA
ATOM     15  H   UNL     1       9.259  -9.187  -5.676  1.00  0.00     0.293 HD
ENDBRANCH   2  14
TORSDOF 2
ENDMDL
MODEL 5
REMARK VINA RESULT:    -4.865      3.060      3.642
REMARK INTER + INTRA:          -5.356
REMARK INTER:                  -5.321
REMARK INTRA:                  -0.036
REMARK UNBOUND:                -0.065
REMARK SMILES COc1cc2ccc(=O)oc2cc1O
REMARK SMILES IDX 3 1 13 2 12 3 11 4 5 5 4 6 6 7 7 8 8 9 9 10 10 11 2 12 1 13
REMARK SMILES IDX 14 14
REMARK H PARENT 14 15
REMARK Flexibility Score: inf
ROOT
ATOM      1  C   UNL     1       7.951  -7.469  -7.088  1.00  0.00     0.161 A 
ATOM      2  C   UNL     1       7.762  -6.090  -6.862  1.00  0.00     0.161 A 
ATOM      3  C   UNL     1       7.725  -5.198  -7.939  1.00  0.00     0.098 A 
ATOM      4  C   UNL     1       7.877  -5.663  -9.248  1.00  0.00     0.142 A 
ATOM      5  C   UNL     1       8.067  -7.040  -9.485  1.00  0.00     0.022 A 
ATOM      6  C   UNL     1       8.104  -7.937  -8.409  1.00  0.00     0.062 A 
ATOM      7  C   UNL     1       8.215  -7.474 -10.806  1.00  0.00     0.019 A 
ATOM      8  C   UNL     1       8.171  -6.542 -11.843  1.00  0.00     0.094 A 
ATOM      9  C   UNL     1       7.979  -5.191 -11.532  1.00  0.00     0.336 A 
ATOM     10  O   UNL     1       7.936  -4.335 -12.453  1.00  0.00    -0.246 OA
ATOM     11  O   UNL     1       7.841  -4.805 -10.266  1.00  0.00    -0.423 OA
ENDROOT
BRANCH   1  12
ATOM     12  O   UNL     1       7.983  -8.337  -5.984  1.00  0.00    -0.493 OA
ATOM     13  C   UNL     1       6.832  -8.917  -5.380  1.00  0.00     0.278 C 
ENDBRANCH   1  12
BRANCH   2  14
ATOM     14  O   UNL     1       7.608  -5.588  -5.570  1.00  0.00    -0.504 OA
ATOM     15  H   UNL     1       6.787  -5.065  -5.288  1.00  0.00     0.293 HD
ENDBRANCH   2  14
TORSDOF 2
ENDMDL
MODEL 6
REMARK VINA RESULT:    -4.800      2.351      2.902
REMARK INTER + INTRA:          -5.285
REMARK INTER:                  -5.236
REMARK INTRA:                  -0.049
REMARK UNBOUND:                -0.065
REMARK SMILES COc1cc2ccc(=O)oc2cc1O
REMARK SMILES IDX 3 1 13 2 12 3 11 4 5 5 4 6 6 7 7 8 8 9 9 10 10 11 2 12 1 13
REMARK SMILES IDX 14 14
REMARK H PARENT 14 15
REMARK Flexibility Score: inf
ROOT
ATOM      1  C   UNL     1       8.168  -5.956  -7.059  1.00  0.00     0.161 A 
ATOM      2  C   UNL     1       7.515  -5.442  -8.198  1.00  0.00     0.161 A 
ATOM      3  C   UNL     1       8.014  -5.711  -9.477  1.00  0.00     0.098 A 
ATOM      4  C   UNL     1       9.163  -6.489  -9.639  1.00  0.00     0.142 A 
ATOM      5  C   UNL     1       9.824  -7.007  -8.506  1.00  0.00     0.022 A 
ATOM      6  C   UNL     1       9.328  -6.741  -7.223  1.00  0.00     0.062 A 
ATOM      7  C   UNL     1      10.972  -7.782  -8.702  1.00  0.00     0.019 A 
ATOM      8  C   UNL     1      11.426  -8.019  -9.998  1.00  0.00     0.094 A 
ATOM      9  C   UNL     1      10.719  -7.473 -11.075  1.00  0.00     0.336 A 
ATOM     10  O   UNL     1      11.112  -7.675 -12.253  1.00  0.00    -0.246 OA
ATOM     11  O   UNL     1       9.630  -6.739 -10.861  1.00  0.00    -0.423 OA
ENDROOT
BRANCH   1  12
ATOM     12  O   UNL     1       7.641  -5.667  -5.789  1.00  0.00    -0.493 OA
ATOM     13  C   UNL     1       8.419  -5.292  -4.658  1.00  0.00     0.278 C 
ENDBRANCH   1  12
BRANCH   2  14
ATOM     14  O   UNL     1       6.366  -4.662  -8.076  1.00  0.00    -0.504 OA
ATOM     15  H   UNL     1       6.400  -3.690  -7.790  1.00  0.00     0.293 HD
ENDBRANCH   2  14
TORSDOF 2
ENDMDL
MODEL 7
REMARK VINA RESULT:    -4.770      2.862      5.120
REMARK INTER + INTRA:          -5.253
REMARK INTER:                  -5.188
REMARK INTRA:                  -0.065
REMARK UNBOUND:                -0.065
REMARK SMILES COc1cc2ccc(=O)oc2cc1O
REMARK SMILES IDX 3 1 13 2 12 3 11 4 5 5 4 6 6 7 7 8 8 9 9 10 10 11 2 12 1 13
REMARK SMILES IDX 14 14
REMARK H PARENT 14 15
REMARK Flexibility Score: inf
ROOT
ATOM      1  C   UNL     1       8.442  -5.780 -10.396  1.00  0.00     0.161 A 
ATOM      2  C   UNL     1       8.212  -7.158 -10.581  1.00  0.00     0.161 A 
ATOM      3  C   UNL     1       7.966  -7.985  -9.480  1.00  0.00     0.098 A 
ATOM      4  C   UNL     1       7.948  -7.456  -8.187  1.00  0.00     0.142 A 
ATOM      5  C   UNL     1       8.178  -6.078  -7.991  1.00  0.00     0.022 A 
ATOM      6  C   UNL     1       8.424  -5.246  -9.091  1.00  0.00     0.062 A 
ATOM      7  C   UNL     1       8.152  -5.578  -6.685  1.00  0.00     0.019 A 
ATOM      8  C   UNL     1       7.904  -6.447  -5.623  1.00  0.00     0.094 A 
ATOM      9  C   UNL     1       7.685  -7.802  -5.894  1.00  0.00     0.336 A 
ATOM     10  O   UNL     1       7.458  -8.603  -4.950  1.00  0.00    -0.246 OA
ATOM     11  O   UNL     1       7.714  -8.252  -7.146  1.00  0.00    -0.423 OA
ENDROOT
BRANCH   1  12
ATOM     12  O   UNL     1       8.686  -4.978 -11.523  1.00  0.00    -0.493 OA
ATOM     13  C   UNL     1       7.706  -4.169 -12.165  1.00  0.00     0.278 C 
ENDBRANCH   1  12
BRANCH   2  14
ATOM     14  O   UNL     1       8.223  -7.724 -11.856  1.00  0.00    -0.504 OA
ATOM     15  H   UNL     1       7.880  -8.661 -12.034  1.00  0.00     0.293 HD
ENDBRANCH   2  14
TORSDOF 2
ENDMDL
MODEL 8
REMARK VINA RESULT:    -4.714      2.730      5.439
REMARK INTER + INTRA:          -5.192
REMARK INTER:                  -5.128
REMARK INTRA:                  -0.064
REMARK UNBOUND:                -0.065
REMARK SMILES COc1cc2ccc(=O)oc2cc1O
REMARK SMILES IDX 3 1 13 2 12 3 11 4 5 5 4 6 6 7 7 8 8 9 9 10 10 11 2 12 1 13
REMARK SMILES IDX 14 14
REMARK H PARENT 14 15
REMARK Flexibility Score: inf
ROOT
ATOM      1  C   UNL     1       8.034  -7.112 -11.060  1.00  0.00     0.161 A 
ATOM      2  C   UNL     1       8.054  -5.710 -10.921  1.00  0.00     0.161 A 
ATOM      3  C   UNL     1       8.066  -5.128  -9.649  1.00  0.00     0.098 A 
ATOM      4  C   UNL     1       8.056  -5.929  -8.504  1.00  0.00     0.142 A 
ATOM      5  C   UNL     1       8.036  -7.334  -8.632  1.00  0.00     0.022 A 
ATOM      6  C   UNL     1       8.024  -7.921  -9.904  1.00  0.00     0.062 A 
ATOM      7  C   UNL     1       8.028  -8.108  -7.467  1.00  0.00     0.019 A 
ATOM      8  C   UNL     1       8.039  -7.477  -6.224  1.00  0.00     0.094 A 
ATOM      9  C   UNL     1       8.059  -6.078  -6.175  1.00  0.00     0.336 A 
ATOM     10  O   UNL     1       8.070  -5.489  -5.063  1.00  0.00    -0.246 OA
ATOM     11  O   UNL     1       8.067  -5.365  -7.298  1.00  0.00    -0.423 OA
ENDROOT
BRANCH   1  12
ATOM     12  O   UNL     1       8.023  -7.664 -12.352  1.00  0.00    -0.493 OA
ATOM     13  C   UNL     1       9.141  -8.289 -12.973  1.00  0.00     0.278 C 
ENDBRANCH   1  12
BRANCH   2  14
ATOM     14  O   UNL     1       8.063  -4.877 -12.039  1.00  0.00    -0.504 OA
ATOM     15  H   UNL     1       8.215  -5.232 -12.977  1.00  0.00     0.293 HD
ENDBRANCH   2  14
TORSDOF 2
ENDMDL
MODEL 9
REMARK VINA RESULT:    -4.696      1.961      2.963
REMARK INTER + INTRA:          -5.172
REMARK INTER:                  -5.108
REMARK INTRA:                  -0.064
REMARK UNBOUND:                -0.065
REMARK SMILES COc1cc2ccc(=O)oc2cc1O
REMARK SMILES IDX 3 1 13 2 12 3 11 4 5 5 4 6 6 7 7 8 8 9 9 10 10 11 2 12 1 13
REMARK SMILES IDX 14 14
REMARK H PARENT 14 15
REMARK Flexibility Score: inf
ROOT
ATOM      1  C   UNL     1       8.563  -6.459  -6.612  1.00  0.00     0.161 A 
ATOM      2  C   UNL     1       8.103  -7.760  -6.901  1.00  0.00     0.161 A 
ATOM      3  C   UNL     1       8.742  -8.534  -7.876  1.00  0.00     0.098 A 
ATOM      4  C   UNL     1       9.840  -8.026  -8.573  1.00  0.00     0.142 A 
ATOM      5  C   UNL     1      10.308  -6.725  -8.292  1.00  0.00     0.022 A 
ATOM      6  C   UNL     1       9.672  -5.947  -7.317  1.00  0.00     0.062 A 
ATOM      7  C   UNL     1      11.411  -6.246  -9.007  1.00  0.00     0.019 A 
ATOM      8  C   UNL     1      12.010  -7.058  -9.969  1.00  0.00     0.094 A 
ATOM      9  C   UNL     1      11.491  -8.338 -10.194  1.00  0.00     0.336 A 
ATOM     10  O   UNL     1      12.019  -9.087 -11.057  1.00  0.00    -0.246 OA
ATOM     11  O   UNL     1      10.442  -8.770  -9.499  1.00  0.00    -0.423 OA
ENDROOT
BRANCH   1  12
ATOM     12  O   UNL     1       7.897  -5.710  -5.628  1.00  0.00    -0.493 OA
ATOM     13  C   UNL     1       8.406  -5.461  -4.322  1.00  0.00     0.278 C 
ENDBRANCH   1  12
BRANCH   2  14
ATOM     14  O   UNL     1       7.009  -8.302  -6.226  1.00  0.00    -0.504 OA
ATOM     15  H   UNL     1       6.268  -8.798  -6.708  1.00  0.00     0.293 HD
ENDBRANCH   2  14
TORSDOF 2
ENDMDL
