MODEL 1
REMARK VINA RESULT:    -3.193      0.000      0.000
REMARK INTER + INTRA:          -9.106
REMARK INTER:                  -6.180
REMARK INTRA:                  -2.926
REMARK UNBOUND:                -2.926
REMARK SMILES CCCCCCCCCCCCCCCCCC(=O)[O-]
REMARK SMILES IDX 10 1 11 2 12 3 13 4 14 5 15 6 16 7 17 8 18 9 19 10 20 11
REMARK SMILES IDX 9 12 8 13 7 14 6 15 5 16 4 17 3 18 2 19 1 20
REMARK H PARENT
REMARK Flexibility Score: inf
ROOT
ATOM      1  C   UNL     1      41.408  34.171  46.364  1.00  0.00     0.000 C 
ENDROOT
BRANCH   1   2
ATOM      2  C   UNL     1      42.454  34.623  45.328  1.00  0.00     0.000 C 
BRANCH   2   3
ATOM      3  C   UNL     1      43.501  33.539  45.023  1.00  0.00     0.000 C 
BRANCH   3   4
ATOM      4  C   UNL     1      44.642  33.501  46.055  1.00  0.00     0.000 C 
BRANCH   4   5
ATOM      5  C   UNL     1      44.720  32.217  46.902  1.00  0.00     0.000 C 
BRANCH   5   6
ATOM      6  C   UNL     1      45.585  32.381  48.164  1.00  0.00     0.000 C 
BRANCH   6   7
ATOM      7  C   UNL     1      45.030  31.590  49.367  1.00  0.00     0.006 C 
BRANCH   7   8
ATOM      8  C   UNL     1      45.956  30.455  49.837  1.00  0.00     0.053 C 
BRANCH   8   9
ATOM      9  C   UNL     1      45.442  29.103  49.448  1.00  0.00     0.041 C 
ATOM     10  O   UNL     1      45.761  28.087  50.120  1.00  0.00    -0.550 OA
ATOM     11  O   UNL     1      44.641  28.962  48.322  1.00  0.00    -0.550 OA
ENDBRANCH   8   9
ENDBRANCH   7   8
ENDBRANCH   6   7
ENDBRANCH   5   6
ENDBRANCH   4   5
ENDBRANCH   3   4
ENDBRANCH   2   3
ENDBRANCH   1   2
BRANCH   1  12
ATOM     12  C   UNL     1      40.858  35.286  47.276  1.00  0.00     0.000 C 
BRANCH  12  13
ATOM     13  C   UNL     1      41.176  35.125  48.774  1.00  0.00    -0.000 C 
BRANCH  13  14
ATOM     14  C   UNL     1      42.426  34.267  49.029  1.00  0.00    -0.000 C 
BRANCH  14  15
ATOM     15  C   UNL     1      43.220  34.737  50.260  1.00  0.00    -0.000 C 
BRANCH  15  16
ATOM     16  C   UNL     1      43.986  36.044  50.005  1.00  0.00    -0.000 C 
BRANCH  16  17
ATOM     17  C   UNL     1      45.032  35.860  48.895  1.00  0.00    -0.000 C 
BRANCH  17  18
ATOM     18  C   UNL     1      44.683  36.639  47.617  1.00  0.00    -0.000 C 
BRANCH  18  19
ATOM     19  C   UNL     1      43.586  37.690  47.845  1.00  0.00    -0.003 C 
ATOM     20  C   UNL     1      43.084  38.256  46.520  1.00  0.00     0.004 C 
ENDBRANCH  18  19
ENDBRANCH  17  18
ENDBRANCH  16  17
ENDBRANCH  15  16
ENDBRANCH  14  15
ENDBRANCH  13  14
ENDBRANCH  12  13
ENDBRANCH   1  12
TORSDOF 16
ENDMDL
MODEL 2
REMARK VINA RESULT:    -3.064      1.638      3.618
REMARK INTER + INTRA:          -8.855
REMARK INTER:                  -6.546
REMARK INTRA:                  -2.309
REMARK UNBOUND:                -2.926
REMARK SMILES CCCCCCCCCCCCCCCCCC(=O)[O-]
REMARK SMILES IDX 10 1 11 2 12 3 13 4 14 5 15 6 16 7 17 8 18 9 19 10 20 11
REMARK SMILES IDX 9 12 8 13 7 14 6 15 5 16 4 17 3 18 2 19 1 20
REMARK H PARENT
REMARK Flexibility Score: inf
ROOT
ATOM      1  C   UNL     1      43.508  34.325  50.180  1.00  0.00     0.000 C 
ENDROOT
BRANCH   1   2
ATOM      2  C   UNL     1      43.769  33.007  49.428  1.00  0.00     0.000 C 
BRANCH   2   3
ATOM      3  C   UNL     1      45.260  32.631  49.379  1.00  0.00     0.000 C 
BRANCH   3   4
ATOM      4  C   UNL     1      45.491  31.142  49.067  1.00  0.00     0.000 C 
BRANCH   4   5
ATOM      5  C   UNL     1      45.693  30.807  47.577  1.00  0.00     0.000 C 
BRANCH   5   6
ATOM      6  C   UNL     1      45.311  29.357  47.230  1.00  0.00     0.000 C 
BRANCH   6   7
ATOM      7  C   UNL     1      44.716  28.599  48.435  1.00  0.00     0.006 C 
BRANCH   7   8
ATOM      8  C   UNL     1      45.311  27.194  48.632  1.00  0.00     0.053 C 
BRANCH   8   9
ATOM      9  C   UNL     1      46.354  27.162  49.706  1.00  0.00     0.041 C 
ATOM     10  O   UNL     1      46.253  26.350  50.663  1.00  0.00    -0.550 OA
ATOM     11  O   UNL     1      47.418  28.054  49.667  1.00  0.00    -0.550 OA
ENDBRANCH   8   9
ENDBRANCH   7   8
ENDBRANCH   6   7
ENDBRANCH   5   6
ENDBRANCH   4   5
ENDBRANCH   3   4
ENDBRANCH   2   3
ENDBRANCH   1   2
BRANCH   1  12
ATOM     12  C   UNL     1      42.688  35.376  49.405  1.00  0.00     0.000 C 
BRANCH  12  13
ATOM     13  C   UNL     1      41.486  34.822  48.618  1.00  0.00    -0.000 C 
BRANCH  13  14
ATOM     14  C   UNL     1      40.830  35.876  47.711  1.00  0.00    -0.000 C 
BRANCH  14  15
ATOM     15  C   UNL     1      40.684  35.393  46.258  1.00  0.00    -0.000 C 
BRANCH  15  16
ATOM     16  C   UNL     1      41.276  33.992  46.039  1.00  0.00    -0.000 C 
BRANCH  16  17
ATOM     17  C   UNL     1      42.559  34.063  45.197  1.00  0.00    -0.000 C 
BRANCH  17  18
ATOM     18  C   UNL     1      43.739  33.328  45.851  1.00  0.00    -0.000 C 
BRANCH  18  19
ATOM     19  C   UNL     1      44.965  34.234  46.049  1.00  0.00    -0.003 C 
ATOM     20  C   UNL     1      44.546  35.686  46.257  1.00  0.00     0.004 C 
ENDBRANCH  18  19
ENDBRANCH  17  18
ENDBRANCH  16  17
ENDBRANCH  15  16
ENDBRANCH  14  15
ENDBRANCH  13  14
ENDBRANCH  12  13
ENDBRANCH   1  12
TORSDOF 16
ENDMDL
MODEL 3
REMARK VINA RESULT:    -2.972      2.754      6.490
REMARK INTER + INTRA:          -8.678
REMARK INTER:                  -6.282
REMARK INTRA:                  -2.396
REMARK UNBOUND:                -2.926
REMARK SMILES CCCCCCCCCCCCCCCCCC(=O)[O-]
REMARK SMILES IDX 10 1 11 2 12 3 13 4 14 5 15 6 16 7 17 8 18 9 19 10 20 11
REMARK SMILES IDX 9 12 8 13 7 14 6 15 5 16 4 17 3 18 2 19 1 20
REMARK H PARENT
REMARK Flexibility Score: inf
ROOT
ATOM      1  C   UNL     1      46.647  31.619  47.399  1.00  0.00     0.000 C 
ENDROOT
BRANCH   1   2
ATOM      2  C   UNL     1      45.366  32.418  47.702  1.00  0.00     0.000 C 
BRANCH   2   3
ATOM      3  C   UNL     1      45.328  32.965  49.139  1.00  0.00     0.000 C 
BRANCH   3   4
ATOM      4  C   UNL     1      43.906  33.011  49.725  1.00  0.00     0.000 C 
BRANCH   4   5
ATOM      5  C   UNL     1      43.492  34.361  50.340  1.00  0.00     0.000 C 
BRANCH   5   6
ATOM      6  C   UNL     1      42.538  35.164  49.438  1.00  0.00     0.000 C 
BRANCH   6   7
ATOM      7  C   UNL     1      42.010  34.333  48.250  1.00  0.00     0.006 C 
BRANCH   7   8
ATOM      8  C   UNL     1      42.056  35.082  46.907  1.00  0.00     0.053 C 
BRANCH   8   9
ATOM      9  C   UNL     1      42.069  34.150  45.736  1.00  0.00     0.041 C 
ATOM     10  O   UNL     1      40.991  33.837  45.163  1.00  0.00    -0.550 OA
ATOM     11  O   UNL     1      43.266  33.597  45.300  1.00  0.00    -0.550 OA
ENDBRANCH   8   9
ENDBRANCH   7   8
ENDBRANCH   6   7
ENDBRANCH   5   6
ENDBRANCH   4   5
ENDBRANCH   3   4
ENDBRANCH   2   3
ENDBRANCH   1   2
BRANCH   1  12
ATOM     12  C   UNL     1      46.434  30.123  47.090  1.00  0.00     0.000 C 
BRANCH  12  13
ATOM     13  C   UNL     1      45.077  29.548  47.534  1.00  0.00    -0.000 C 
BRANCH  13  14
ATOM     14  C   UNL     1      45.195  28.613  48.750  1.00  0.00    -0.000 C 
BRANCH  14  15
ATOM     15  C   UNL     1      45.419  29.381  50.063  1.00  0.00    -0.000 C 
BRANCH  15  16
ATOM     16  C   UNL     1      46.571  28.801  50.897  1.00  0.00    -0.000 C 
BRANCH  16  17
ATOM     17  C   UNL     1      47.909  29.448  50.508  1.00  0.00    -0.000 C 
BRANCH  17  18
ATOM     18  C   UNL     1      47.989  30.930  50.907  1.00  0.00    -0.000 C 
BRANCH  18  19
ATOM     19  C   UNL     1      49.143  31.669  50.213  1.00  0.00    -0.003 C 
ATOM     20  C   UNL     1      48.862  33.166  50.124  1.00  0.00     0.004 C 
ENDBRANCH  18  19
ENDBRANCH  17  18
ENDBRANCH  16  17
ENDBRANCH  15  16
ENDBRANCH  14  15
ENDBRANCH  13  14
ENDBRANCH  12  13
ENDBRANCH   1  12
TORSDOF 16
ENDMDL
MODEL 4
REMARK VINA RESULT:    -2.937      1.432      3.346
REMARK INTER + INTRA:          -8.611
REMARK INTER:                  -5.820
REMARK INTRA:                  -2.791
REMARK UNBOUND:                -2.926
REMARK SMILES CCCCCCCCCCCCCCCCCC(=O)[O-]
REMARK SMILES IDX 10 1 11 2 12 3 13 4 14 5 15 6 16 7 17 8 18 9 19 10 20 11
REMARK SMILES IDX 9 12 8 13 7 14 6 15 5 16 4 17 3 18 2 19 1 20
REMARK H PARENT
REMARK Flexibility Score: inf
ROOT
ATOM      1  C   UNL     1      41.129  35.340  48.610  1.00  0.00     0.000 C 
ENDROOT
BRANCH   1   2
ATOM      2  C   UNL     1      42.638  35.526  48.848  1.00  0.00     0.000 C 
BRANCH   2   3
ATOM      3  C   UNL     1      43.060  35.211  50.293  1.00  0.00     0.000 C 
BRANCH   3   4
ATOM      4  C   UNL     1      43.853  33.897  50.412  1.00  0.00     0.000 C 
BRANCH   4   5
ATOM      5  C   UNL     1      43.900  33.041  49.133  1.00  0.00     0.000 C 
BRANCH   5   6
ATOM      6  C   UNL     1      44.778  31.785  49.282  1.00  0.00     0.000 C 
BRANCH   6   7
ATOM      7  C   UNL     1      45.456  31.378  47.958  1.00  0.00     0.006 C 
BRANCH   7   8
ATOM      8  C   UNL     1      45.107  29.951  47.501  1.00  0.00     0.053 C 
BRANCH   8   9
ATOM      9  C   UNL     1      45.360  28.933  48.570  1.00  0.00     0.041 C 
ATOM     10  O   UNL     1      46.486  28.869  49.130  1.00  0.00    -0.550 OA
ATOM     11  O   UNL     1      44.363  28.033  48.922  1.00  0.00    -0.550 OA
ENDBRANCH   8   9
ENDBRANCH   7   8
ENDBRANCH   6   7
ENDBRANCH   5   6
ENDBRANCH   4   5
ENDBRANCH   3   4
ENDBRANCH   2   3
ENDBRANCH   1   2
BRANCH   1  12
ATOM     12  C   UNL     1      40.728  34.967  47.168  1.00  0.00     0.000 C 
BRANCH  12  13
ATOM     13  C   UNL     1      41.845  35.113  46.118  1.00  0.00    -0.000 C 
BRANCH  13  14
ATOM     14  C   UNL     1      42.303  33.762  45.544  1.00  0.00    -0.000 C 
BRANCH  14  15
ATOM     15  C   UNL     1      43.834  33.614  45.535  1.00  0.00    -0.000 C 
BRANCH  15  16
ATOM     16  C   UNL     1      44.557  34.959  45.708  1.00  0.00    -0.000 C 
BRANCH  16  17
ATOM     17  C   UNL     1      45.836  34.790  46.543  1.00  0.00    -0.000 C 
BRANCH  17  18
ATOM     18  C   UNL     1      45.948  35.828  47.671  1.00  0.00    -0.000 C 
BRANCH  18  19
ATOM     19  C   UNL     1      47.271  35.721  48.444  1.00  0.00    -0.003 C 
ATOM     20  C   UNL     1      47.461  34.319  49.015  1.00  0.00     0.004 C 
ENDBRANCH  18  19
ENDBRANCH  17  18
ENDBRANCH  16  17
ENDBRANCH  15  16
ENDBRANCH  14  15
ENDBRANCH  13  14
ENDBRANCH  12  13
ENDBRANCH   1  12
TORSDOF 16
ENDMDL
MODEL 5
REMARK VINA RESULT:    -2.881      2.989      7.090
REMARK INTER + INTRA:          -8.502
REMARK INTER:                  -6.088
REMARK INTRA:                  -2.414
REMARK UNBOUND:                -2.926
REMARK SMILES CCCCCCCCCCCCCCCCCC(=O)[O-]
REMARK SMILES IDX 10 1 11 2 12 3 13 4 14 5 15 6 16 7 17 8 18 9 19 10 20 11
REMARK SMILES IDX 9 12 8 13 7 14 6 15 5 16 4 17 3 18 2 19 1 20
REMARK H PARENT
REMARK Flexibility Score: inf
ROOT
ATOM      1  C   UNL     1      48.267  32.148  50.446  1.00  0.00     0.000 C 
ENDROOT
BRANCH   1   2
ATOM      2  C   UNL     1      48.117  33.250  49.381  1.00  0.00     0.000 C 
BRANCH   2   3
ATOM      3  C   UNL     1      46.651  33.512  48.994  1.00  0.00     0.000 C 
BRANCH   3   4
ATOM      4  C   UNL     1      45.706  32.376  49.423  1.00  0.00     0.000 C 
BRANCH   4   5
ATOM      5  C   UNL     1      44.205  32.664  49.235  1.00  0.00     0.000 C 
BRANCH   5   6
ATOM      6  C   UNL     1      43.721  33.876  50.051  1.00  0.00     0.000 C 
BRANCH   6   7
ATOM      7  C   UNL     1      43.232  35.033  49.155  1.00  0.00     0.006 C 
BRANCH   7   8
ATOM      8  C   UNL     1      41.714  35.019  48.906  1.00  0.00     0.053 C 
BRANCH   8   9
ATOM      9  C   UNL     1      41.373  34.735  47.476  1.00  0.00     0.041 C 
ATOM     10  O   UNL     1      42.155  34.053  46.762  1.00  0.00    -0.550 OA
ATOM     11  O   UNL     1      40.211  35.255  46.922  1.00  0.00    -0.550 OA
ENDBRANCH   8   9
ENDBRANCH   7   8
ENDBRANCH   6   7
ENDBRANCH   5   6
ENDBRANCH   4   5
ENDBRANCH   3   4
ENDBRANCH   2   3
ENDBRANCH   1   2
BRANCH   1  12
ATOM     12  C   UNL     1      49.208  30.986  50.066  1.00  0.00     0.000 C 
BRANCH  12  13
ATOM     13  C   UNL     1      48.591  29.580  50.175  1.00  0.00    -0.000 C 
BRANCH  13  14
ATOM     14  C   UNL     1      47.227  29.580  50.884  1.00  0.00    -0.000 C 
BRANCH  14  15
ATOM     15  C   UNL     1      46.360  28.371  50.494  1.00  0.00    -0.000 C 
BRANCH  15  16
ATOM     16  C   UNL     1      45.100  28.776  49.714  1.00  0.00    -0.000 C 
BRANCH  16  17
ATOM     17  C   UNL     1      45.192  28.322  48.249  1.00  0.00    -0.000 C 
BRANCH  17  18
ATOM     18  C   UNL     1      45.382  29.496  47.276  1.00  0.00    -0.000 C 
BRANCH  18  19
ATOM     19  C   UNL     1      46.690  29.397  46.477  1.00  0.00    -0.003 C 
ATOM     20  C   UNL     1      47.577  30.614  46.724  1.00  0.00     0.004 C 
ENDBRANCH  18  19
ENDBRANCH  17  18
ENDBRANCH  16  17
ENDBRANCH  15  16
ENDBRANCH  14  15
ENDBRANCH  13  14
ENDBRANCH  12  13
ENDBRANCH   1  12
TORSDOF 16
ENDMDL
MODEL 6
REMARK VINA RESULT:    -2.878      2.127      4.001
REMARK INTER + INTRA:          -8.497
REMARK INTER:                  -5.965
REMARK INTRA:                  -2.532
REMARK UNBOUND:                -2.926
REMARK SMILES CCCCCCCCCCCCCCCCCC(=O)[O-]
REMARK SMILES IDX 10 1 11 2 12 3 13 4 14 5 15 6 16 7 17 8 18 9 19 10 20 11
REMARK SMILES IDX 9 12 8 13 7 14 6 15 5 16 4 17 3 18 2 19 1 20
REMARK H PARENT
REMARK Flexibility Score: inf
ROOT
ATOM      1  C   UNL     1      44.628  31.859  48.906  1.00  0.00     0.000 C 
ENDROOT
BRANCH   1   2
ATOM      2  C   UNL     1      45.184  31.440  47.532  1.00  0.00     0.000 C 
BRANCH   2   3
ATOM      3  C   UNL     1      45.453  29.929  47.431  1.00  0.00     0.000 C 
BRANCH   3   4
ATOM      4  C   UNL     1      44.995  29.155  48.680  1.00  0.00     0.000 C 
BRANCH   4   5
ATOM      5  C   UNL     1      46.117  28.442  49.458  1.00  0.00     0.000 C 
BRANCH   5   6
ATOM      6  C   UNL     1      46.493  29.162  50.764  1.00  0.00     0.000 C 
BRANCH   6   7
ATOM      7  C   UNL     1      47.908  29.776  50.713  1.00  0.00     0.006 C 
BRANCH   7   8
ATOM      8  C   UNL     1      47.909  31.304  50.536  1.00  0.00     0.053 C 
BRANCH   8   9
ATOM      9  C   UNL     1      48.369  31.719  49.173  1.00  0.00     0.041 C 
ATOM     10  O   UNL     1      48.812  30.861  48.365  1.00  0.00    -0.550 OA
ATOM     11  O   UNL     1      48.341  33.059  48.809  1.00  0.00    -0.550 OA
ENDBRANCH   8   9
ENDBRANCH   7   8
ENDBRANCH   6   7
ENDBRANCH   5   6
ENDBRANCH   4   5
ENDBRANCH   3   4
ENDBRANCH   2   3
ENDBRANCH   1   2
BRANCH   1  12
ATOM     12  C   UNL     1      44.722  33.365  49.225  1.00  0.00     0.000 C 
BRANCH  12  13
ATOM     13  C   UNL     1      43.641  33.903  50.179  1.00  0.00    -0.000 C 
BRANCH  13  14
ATOM     14  C   UNL     1      43.516  35.435  50.137  1.00  0.00    -0.000 C 
BRANCH  14  15
ATOM     15  C   UNL     1      44.232  36.050  48.923  1.00  0.00    -0.000 C 
BRANCH  15  16
ATOM     16  C   UNL     1      43.393  37.136  48.232  1.00  0.00    -0.000 C 
BRANCH  16  17
ATOM     17  C   UNL     1      42.672  36.572  46.998  1.00  0.00    -0.000 C 
BRANCH  17  18
ATOM     18  C   UNL     1      41.325  35.920  47.346  1.00  0.00    -0.000 C 
BRANCH  18  19
ATOM     19  C   UNL     1      41.327  34.400  47.122  1.00  0.00    -0.003 C 
ATOM     20  C   UNL     1      42.529  33.970  46.287  1.00  0.00     0.004 C 
ENDBRANCH  18  19
ENDBRANCH  17  18
ENDBRANCH  16  17
ENDBRANCH  15  16
ENDBRANCH  14  15
ENDBRANCH  13  14
ENDBRANCH  12  13
ENDBRANCH   1  12
TORSDOF 16
ENDMDL
MODEL 7
REMARK VINA RESULT:    -2.835      3.406      6.998
REMARK INTER + INTRA:          -8.414
REMARK INTER:                  -6.270
REMARK INTRA:                  -2.143
REMARK UNBOUND:                -2.926
REMARK SMILES CCCCCCCCCCCCCCCCCC(=O)[O-]
REMARK SMILES IDX 10 1 11 2 12 3 13 4 14 5 15 6 16 7 17 8 18 9 19 10 20 11
REMARK SMILES IDX 9 12 8 13 7 14 6 15 5 16 4 17 3 18 2 19 1 20
REMARK H PARENT
REMARK Flexibility Score: inf
ROOT
ATOM      1  C   UNL     1      44.726  28.428  48.316  1.00  0.00     0.000 C 
ENDROOT
BRANCH   1   2
ATOM      2  C   UNL     1      45.488  29.159  47.195  1.00  0.00     0.000 C 
BRANCH   2   3
ATOM      3  C   UNL     1      45.126  30.650  47.099  1.00  0.00     0.000 C 
BRANCH   3   4
ATOM      4  C   UNL     1      45.896  31.520  48.109  1.00  0.00     0.000 C 
BRANCH   4   5
ATOM      5  C   UNL     1      45.072  32.011  49.314  1.00  0.00     0.000 C 
BRANCH   5   6
ATOM      6  C   UNL     1      44.898  33.540  49.340  1.00  0.00     0.000 C 
BRANCH   6   7
ATOM      7  C   UNL     1      43.479  33.965  49.769  1.00  0.00     0.006 C 
BRANCH   7   8
ATOM      8  C   UNL     1      42.493  34.093  48.594  1.00  0.00     0.053 C 
BRANCH   8   9
ATOM      9  C   UNL     1      42.075  35.510  48.353  1.00  0.00     0.041 C 
ATOM     10  O   UNL     1      42.894  36.451  48.527  1.00  0.00    -0.550 OA
ATOM     11  O   UNL     1      40.770  35.793  47.970  1.00  0.00    -0.550 OA
ENDBRANCH   8   9
ENDBRANCH   7   8
ENDBRANCH   6   7
ENDBRANCH   5   6
ENDBRANCH   4   5
ENDBRANCH   3   4
ENDBRANCH   2   3
ENDBRANCH   1   2
BRANCH   1  12
ATOM     12  C   UNL     1      45.422  27.174  48.880  1.00  0.00     0.000 C 
BRANCH  12  13
ATOM     13  C   UNL     1      46.555  27.448  49.885  1.00  0.00    -0.000 C 
BRANCH  13  14
ATOM     14  C   UNL     1      46.209  28.566  50.883  1.00  0.00    -0.000 C 
BRANCH  14  15
ATOM     15  C   UNL     1      47.294  29.654  50.947  1.00  0.00    -0.000 C 
BRANCH  15  16
ATOM     16  C   UNL     1      48.455  29.388  49.976  1.00  0.00    -0.000 C 
BRANCH  16  17
ATOM     17  C   UNL     1      49.377  30.612  49.875  1.00  0.00    -0.000 C 
BRANCH  17  18
ATOM     18  C   UNL     1      48.692  31.909  50.332  1.00  0.00    -0.000 C 
BRANCH  18  19
ATOM     19  C   UNL     1      49.597  32.776  51.221  1.00  0.00    -0.003 C 
ATOM     20  C   UNL     1      50.090  31.991  52.433  1.00  0.00     0.004 C 
ENDBRANCH  18  19
ENDBRANCH  17  18
ENDBRANCH  16  17
ENDBRANCH  15  16
ENDBRANCH  14  15
ENDBRANCH  13  14
ENDBRANCH  12  13
ENDBRANCH   1  12
TORSDOF 16
ENDMDL
MODEL 8
REMARK VINA RESULT:    -2.834      3.255      7.119
REMARK INTER + INTRA:          -8.410
REMARK INTER:                  -5.303
REMARK INTRA:                  -3.107
REMARK UNBOUND:                -2.926
REMARK SMILES CCCCCCCCCCCCCCCCCC(=O)[O-]
REMARK SMILES IDX 10 1 11 2 12 3 13 4 14 5 15 6 16 7 17 8 18 9 19 10 20 11
REMARK SMILES IDX 9 12 8 13 7 14 6 15 5 16 4 17 3 18 2 19 1 20
REMARK H PARENT
REMARK Flexibility Score: inf
ROOT
ATOM      1  C   UNL     1      45.469  29.908  49.709  1.00  0.00     0.000 C 
ENDROOT
BRANCH   1   2
ATOM      2  C   UNL     1      45.015  29.045  48.518  1.00  0.00     0.000 C 
BRANCH   2   3
ATOM      3  C   UNL     1      45.216  29.743  47.162  1.00  0.00     0.000 C 
BRANCH   3   4
ATOM      4  C   UNL     1      45.607  31.225  47.304  1.00  0.00     0.000 C 
BRANCH   4   5
ATOM      5  C   UNL     1      44.662  32.223  46.609  1.00  0.00     0.000 C 
BRANCH   5   6
ATOM      6  C   UNL     1      44.366  33.466  47.466  1.00  0.00     0.000 C 
BRANCH   6   7
ATOM      7  C   UNL     1      44.720  33.257  48.953  1.00  0.00     0.006 C 
BRANCH   7   8
ATOM      8  C   UNL     1      43.594  33.664  49.918  1.00  0.00     0.053 C 
BRANCH   8   9
ATOM      9  C   UNL     1      43.039  35.019  49.606  1.00  0.00     0.041 C 
ATOM     10  O   UNL     1      43.745  36.048  49.778  1.00  0.00    -0.550 OA
ATOM     11  O   UNL     1      41.730  35.148  49.159  1.00  0.00    -0.550 OA
ENDBRANCH   8   9
ENDBRANCH   7   8
ENDBRANCH   6   7
ENDBRANCH   5   6
ENDBRANCH   4   5
ENDBRANCH   3   4
ENDBRANCH   2   3
ENDBRANCH   1   2
BRANCH   1  12
ATOM     12  C   UNL     1      46.495  29.246  50.651  1.00  0.00     0.000 C 
BRANCH  12  13
ATOM     13  C   UNL     1      47.748  30.088  50.952  1.00  0.00    -0.000 C 
BRANCH  13  14
ATOM     14  C   UNL     1      47.680  31.497  50.341  1.00  0.00    -0.000 C 
BRANCH  14  15
ATOM     15  C   UNL     1      48.710  31.701  49.217  1.00  0.00    -0.000 C 
BRANCH  15  16
ATOM     16  C   UNL     1      49.366  30.385  48.772  1.00  0.00    -0.000 C 
BRANCH  16  17
ATOM     17  C   UNL     1      49.078  30.103  47.289  1.00  0.00    -0.000 C 
BRANCH  17  18
ATOM     18  C   UNL     1      48.687  28.639  47.030  1.00  0.00    -0.000 C 
BRANCH  18  19
ATOM     19  C   UNL     1      48.858  27.752  48.273  1.00  0.00    -0.003 C 
ATOM     20  C   UNL     1      47.807  26.646  48.306  1.00  0.00     0.004 C 
ENDBRANCH  18  19
ENDBRANCH  17  18
ENDBRANCH  16  17
ENDBRANCH  15  16
ENDBRANCH  14  15
ENDBRANCH  13  14
ENDBRANCH  12  13
ENDBRANCH   1  12
TORSDOF 16
ENDMDL
MODEL 9
REMARK VINA RESULT:    -2.790      3.324      7.086
REMARK INTER + INTRA:          -8.325
REMARK INTER:                  -5.705
REMARK INTRA:                  -2.620
REMARK UNBOUND:                -2.926
REMARK SMILES CCCCCCCCCCCCCCCCCC(=O)[O-]
REMARK SMILES IDX 10 1 11 2 12 3 13 4 14 5 15 6 16 7 17 8 18 9 19 10 20 11
REMARK SMILES IDX 9 12 8 13 7 14 6 15 5 16 4 17 3 18 2 19 1 20
REMARK H PARENT
REMARK Flexibility Score: inf
ROOT
ATOM      1  C   UNL     1      48.152  31.217  48.858  1.00  0.00     0.000 C 
ENDROOT
BRANCH   1   2
ATOM      2  C   UNL     1      47.605  32.356  49.737  1.00  0.00     0.000 C 
BRANCH   2   3
ATOM      3  C   UNL     1      46.708  33.335  48.960  1.00  0.00     0.000 C 
BRANCH   3   4
ATOM      4  C   UNL     1      45.356  32.718  48.561  1.00  0.00     0.000 C 
BRANCH   4   5
ATOM      5  C   UNL     1      44.264  32.772  49.646  1.00  0.00     0.000 C 
BRANCH   5   6
ATOM      6  C   UNL     1      43.140  33.770  49.318  1.00  0.00     0.000 C 
BRANCH   6   7
ATOM      7  C   UNL     1      43.121  34.975  50.282  1.00  0.00     0.006 C 
BRANCH   7   8
ATOM      8  C   UNL     1      44.227  36.006  49.999  1.00  0.00     0.053 C 
BRANCH   8   9
ATOM      9  C   UNL     1      44.157  36.549  48.605  1.00  0.00     0.041 C 
ATOM     10  O   UNL     1      43.153  37.211  48.233  1.00  0.00    -0.550 OA
ATOM     11  O   UNL     1      45.185  36.292  47.707  1.00  0.00    -0.550 OA
ENDBRANCH   8   9
ENDBRANCH   7   8
ENDBRANCH   6   7
ENDBRANCH   5   6
ENDBRANCH   4   5
ENDBRANCH   3   4
ENDBRANCH   2   3
ENDBRANCH   1   2
BRANCH   1  12
ATOM     12  C   UNL     1      48.115  29.813  49.497  1.00  0.00     0.000 C 
BRANCH  12  13
ATOM     13  C   UNL     1      47.238  29.689  50.756  1.00  0.00    -0.000 C 
BRANCH  13  14
ATOM     14  C   UNL     1      45.772  29.356  50.431  1.00  0.00    -0.000 C 
BRANCH  14  15
ATOM     15  C   UNL     1      45.640  28.191  49.436  1.00  0.00    -0.000 C 
BRANCH  15  16
ATOM     16  C   UNL     1      44.630  28.484  48.316  1.00  0.00    -0.000 C 
BRANCH  16  17
ATOM     17  C   UNL     1      45.324  28.518  46.946  1.00  0.00    -0.000 C 
BRANCH  17  18
ATOM     18  C   UNL     1      45.389  29.933  46.350  1.00  0.00    -0.000 C 
BRANCH  18  19
ATOM     19  C   UNL     1      46.632  30.150  45.474  1.00  0.00    -0.003 C 
ATOM     20  C   UNL     1      47.727  29.145  45.816  1.00  0.00     0.004 C 
ENDBRANCH  18  19
ENDBRANCH  17  18
ENDBRANCH  16  17
ENDBRANCH  15  16
ENDBRANCH  14  15
ENDBRANCH  13  14
ENDBRANCH  12  13
ENDBRANCH   1  12
TORSDOF 16
ENDMDL
