MODEL 1
REMARK VINA RESULT:    11.806      0.000      0.000
REMARK INTER + INTRA:          29.984
REMARK INTER:                  31.130
REMARK INTRA:                  -1.146
REMARK UNBOUND:                -1.146
REMARK SMILES CCCCCCCCCCCCCCCCCCCCCCCCCCCCCC(=O)[O-]
REMARK SMILES IDX 16 1 17 2 18 3 19 4 20 5 21 6 22 7 23 8 24 9 25 10 26 11
REMARK SMILES IDX 27 12 28 13 29 14 30 15 31 16 32 17 15 18 14 19 13 20 12 21
REMARK SMILES IDX 11 22 10 23 9 24 8 25 7 26 6 27 5 28 4 29 3 30 2 31 1 32
REMARK H PARENT
REMARK Flexibility Score: inf
ROOT
ATOM      1  C   UNL     1      10.777   1.414 -13.392  1.00  0.00     0.000 C 
ENDROOT
BRANCH   1   2
ATOM      2  C   UNL     1      10.832   2.298 -14.648  1.00  0.00     0.000 C 
BRANCH   2   3
ATOM      3  C   UNL     1      12.022   1.945 -15.563  1.00  0.00     0.000 C 
BRANCH   3   4
ATOM      4  C   UNL     1      11.865   2.506 -16.986  1.00  0.00     0.000 C 
BRANCH   4   5
ATOM      5  C   UNL     1      12.788   1.812 -18.006  1.00  0.00     0.000 C 
BRANCH   5   6
ATOM      6  C   UNL     1      14.064   1.236 -17.364  1.00  0.00     0.000 C 
BRANCH   6   7
ATOM      7  C   UNL     1      14.020  -0.292 -17.203  1.00  0.00     0.000 C 
BRANCH   7   8
ATOM      8  C   UNL     1      12.663  -0.887 -17.650  1.00  0.00     0.000 C 
BRANCH   8   9
ATOM      9  C   UNL     1      11.822  -1.413 -16.471  1.00  0.00     0.000 C 
BRANCH   9  10
ATOM     10  C   UNL     1      10.923  -2.598 -16.867  1.00  0.00     0.000 C 
BRANCH  10  11
ATOM     11  C   UNL     1      11.613  -3.951 -16.620  1.00  0.00     0.000 C 
BRANCH  11  12
ATOM     12  C   UNL     1      11.256  -5.007 -17.681  1.00  0.00     0.000 C 
BRANCH  12  13
ATOM     13  C   UNL     1      12.451  -5.441 -18.555  1.00  0.00     0.006 C 
BRANCH  13  14
ATOM     14  C   UNL     1      13.188  -6.664 -17.986  1.00  0.00     0.053 C 
BRANCH  14  15
ATOM     15  C   UNL     1      14.543  -6.809 -18.606  1.00  0.00     0.041 C 
ATOM     16  O   UNL     1      15.138  -5.804 -19.081  1.00  0.00    -0.550 OA
ATOM     17  O   UNL     1      15.137  -8.063 -18.689  1.00  0.00    -0.550 OA
ENDBRANCH  14  15
ENDBRANCH  13  14
ENDBRANCH  12  13
ENDBRANCH  11  12
ENDBRANCH  10  11
ENDBRANCH   9  10
ENDBRANCH   8   9
ENDBRANCH   7   8
ENDBRANCH   6   7
ENDBRANCH   5   6
ENDBRANCH   4   5
ENDBRANCH   3   4
ENDBRANCH   2   3
ENDBRANCH   1   2
BRANCH   1  18
ATOM     18  C   UNL     1       9.397   0.766 -13.186  1.00  0.00     0.000 C 
BRANCH  18  19
ATOM     19  C   UNL     1       8.261   1.811 -13.136  1.00  0.00     0.000 C 
BRANCH  19  20
ATOM     20  C   UNL     1       6.880   1.204 -12.812  1.00  0.00     0.000 C 
BRANCH  20  21
ATOM     21  C   UNL     1       5.942   1.045 -14.022  1.00  0.00     0.000 C 
BRANCH  21  22
ATOM     22  C   UNL     1       4.593   1.784 -13.901  1.00  0.00     0.000 C 
BRANCH  22  23
ATOM     23  C   UNL     1       3.548   1.036 -13.046  1.00  0.00     0.000 C 
BRANCH  23  24
ATOM     24  C   UNL     1       2.355   0.534 -13.877  1.00  0.00    -0.000 C 
BRANCH  24  25
ATOM     25  C   UNL     1       1.272   1.623 -14.047  1.00  0.00    -0.000 C 
BRANCH  25  26
ATOM     26  C   UNL     1       0.173   1.249 -15.059  1.00  0.00    -0.000 C 
BRANCH  26  27
ATOM     27  C   UNL     1      -0.104  -0.262 -15.172  1.00  0.00    -0.000 C 
BRANCH  27  28
ATOM     28  C   UNL     1       0.736  -0.943 -16.268  1.00  0.00    -0.000 C 
BRANCH  28  29
ATOM     29  C   UNL     1      -0.116  -1.871 -17.161  1.00  0.00    -0.000 C 
BRANCH  29  30
ATOM     30  C   UNL     1       0.076  -1.629 -18.669  1.00  0.00    -0.000 C 
BRANCH  30  31
ATOM     31  C   UNL     1      -0.123  -2.894 -19.514  1.00  0.00    -0.003 C 
ATOM     32  C   UNL     1       0.070  -2.598 -20.999  1.00  0.00     0.004 C 
ENDBRANCH  30  31
ENDBRANCH  29  30
ENDBRANCH  28  29
ENDBRANCH  27  28
ENDBRANCH  26  27
ENDBRANCH  25  26
ENDBRANCH  24  25
ENDBRANCH  23  24
ENDBRANCH  22  23
ENDBRANCH  21  22
ENDBRANCH  20  21
ENDBRANCH  19  20
ENDBRANCH  18  19
ENDBRANCH   1  18
TORSDOF 28
ENDMDL
MODEL 2
REMARK VINA RESULT:    11.824      4.047     11.205
REMARK INTER + INTRA:          30.031
REMARK INTER:                  28.826
REMARK INTRA:                   1.205
REMARK UNBOUND:                -1.146
REMARK SMILES CCCCCCCCCCCCCCCCCCCCCCCCCCCCCC(=O)[O-]
REMARK SMILES IDX 16 1 17 2 18 3 19 4 20 5 21 6 22 7 23 8 24 9 25 10 26 11
REMARK SMILES IDX 27 12 28 13 29 14 30 15 31 16 32 17 15 18 14 19 13 20 12 21
REMARK SMILES IDX 11 22 10 23 9 24 8 25 7 26 6 27 5 28 4 29 3 30 2 31 1 32
REMARK H PARENT
REMARK Flexibility Score: inf
ROOT
ATOM      1  C   UNL     1      11.083   1.494 -14.862  1.00  0.00     0.000 C 
ENDROOT
BRANCH   1   2
ATOM      2  C   UNL     1       9.842   1.803 -14.011  1.00  0.00     0.000 C 
BRANCH   2   3
ATOM      3  C   UNL     1       9.513   0.671 -13.017  1.00  0.00     0.000 C 
BRANCH   3   4
ATOM      4  C   UNL     1       8.015   0.591 -12.680  1.00  0.00     0.000 C 
BRANCH   4   5
ATOM      5  C   UNL     1       7.189   1.693 -13.370  1.00  0.00     0.000 C 
BRANCH   5   6
ATOM      6  C   UNL     1       5.978   1.139 -14.143  1.00  0.00     0.000 C 
BRANCH   6   7
ATOM      7  C   UNL     1       4.669   1.880 -13.823  1.00  0.00     0.000 C 
BRANCH   7   8
ATOM      8  C   UNL     1       3.625   0.955 -13.152  1.00  0.00     0.000 C 
BRANCH   8   9
ATOM      9  C   UNL     1       2.504   0.519 -14.115  1.00  0.00     0.000 C 
BRANCH   9  10
ATOM     10  C   UNL     1       1.107   0.949 -13.632  1.00  0.00     0.000 C 
BRANCH  10  11
ATOM     11  C   UNL     1       0.180   1.315 -14.805  1.00  0.00     0.000 C 
BRANCH  11  12
ATOM     12  C   UNL     1       0.184   0.257 -15.922  1.00  0.00     0.000 C 
BRANCH  12  13
ATOM     13  C   UNL     1      -0.098  -1.176 -15.426  1.00  0.00     0.006 C 
BRANCH  13  14
ATOM     14  C   UNL     1       0.008  -2.222 -16.547  1.00  0.00     0.053 C 
BRANCH  14  15
ATOM     15  C   UNL     1       0.295  -1.569 -17.864  1.00  0.00     0.041 C 
ATOM     16  O   UNL     1       0.590  -0.344 -17.917  1.00  0.00    -0.550 OA
ATOM     17  O   UNL     1       0.204  -2.307 -19.038  1.00  0.00    -0.550 OA
ENDBRANCH  14  15
ENDBRANCH  13  14
ENDBRANCH  12  13
ENDBRANCH  11  12
ENDBRANCH  10  11
ENDBRANCH   9  10
ENDBRANCH   8   9
ENDBRANCH   7   8
ENDBRANCH   6   7
ENDBRANCH   5   6
ENDBRANCH   4   5
ENDBRANCH   3   4
ENDBRANCH   2   3
ENDBRANCH   1   2
BRANCH   1  18
ATOM     18  C   UNL     1      11.499   2.677 -15.752  1.00  0.00     0.000 C 
BRANCH  18  19
ATOM     19  C   UNL     1      12.339   2.227 -16.968  1.00  0.00     0.000 C 
BRANCH  19  20
ATOM     20  C   UNL     1      13.861   2.307 -16.728  1.00  0.00     0.000 C 
BRANCH  20  21
ATOM     21  C   UNL     1      14.720   1.531 -17.743  1.00  0.00     0.000 C 
BRANCH  21  22
ATOM     22  C   UNL     1      14.327   0.051 -17.931  1.00  0.00     0.000 C 
BRANCH  22  23
ATOM     23  C   UNL     1      12.814  -0.214 -17.788  1.00  0.00     0.000 C 
BRANCH  23  24
ATOM     24  C   UNL     1      12.499  -1.281 -16.726  1.00  0.00    -0.000 C 
BRANCH  24  25
ATOM     25  C   UNL     1      11.430  -2.284 -17.216  1.00  0.00    -0.000 C 
BRANCH  25  26
ATOM     26  C   UNL     1      11.128  -3.407 -16.206  1.00  0.00    -0.000 C 
BRANCH  26  27
ATOM     27  C   UNL     1      11.649  -4.796 -16.619  1.00  0.00    -0.000 C 
BRANCH  27  28
ATOM     28  C   UNL     1      11.377  -5.120 -18.099  1.00  0.00    -0.000 C 
BRANCH  28  29
ATOM     29  C   UNL     1      12.370  -6.162 -18.658  1.00  0.00    -0.000 C 
BRANCH  29  30
ATOM     30  C   UNL     1      13.833  -5.684 -18.665  1.00  0.00    -0.000 C 
BRANCH  30  31
ATOM     31  C   UNL     1      14.845  -6.836 -18.703  1.00  0.00    -0.003 C 
ATOM     32  C   UNL     1      14.735  -7.706 -17.454  1.00  0.00     0.004 C 
ENDBRANCH  30  31
ENDBRANCH  29  30
ENDBRANCH  28  29
ENDBRANCH  27  28
ENDBRANCH  26  27
ENDBRANCH  25  26
ENDBRANCH  24  25
ENDBRANCH  23  24
ENDBRANCH  22  23
ENDBRANCH  21  22
ENDBRANCH  20  21
ENDBRANCH  19  20
ENDBRANCH  18  19
ENDBRANCH   1  18
TORSDOF 28
ENDMDL
MODEL 3
REMARK VINA RESULT:    12.472      0.857      1.234
REMARK INTER + INTRA:          31.740
REMARK INTER:                  33.712
REMARK INTRA:                  -1.971
REMARK UNBOUND:                -1.146
REMARK SMILES CCCCCCCCCCCCCCCCCCCCCCCCCCCCCC(=O)[O-]
REMARK SMILES IDX 16 1 17 2 18 3 19 4 20 5 21 6 22 7 23 8 24 9 25 10 26 11
REMARK SMILES IDX 27 12 28 13 29 14 30 15 31 16 32 17 15 18 14 19 13 20 12 21
REMARK SMILES IDX 11 22 10 23 9 24 8 25 7 26 6 27 5 28 4 29 3 30 2 31 1 32
REMARK H PARENT
REMARK Flexibility Score: inf
ROOT
ATOM      1  C   UNL     1       8.863   0.801 -13.675  1.00  0.00     0.000 C 
ENDROOT
BRANCH   1   2
ATOM      2  C   UNL     1      10.372   1.073 -13.784  1.00  0.00     0.000 C 
BRANCH   2   3
ATOM      3  C   UNL     1      10.677   2.458 -14.390  1.00  0.00     0.000 C 
BRANCH   3   4
ATOM      4  C   UNL     1      10.942   2.401 -15.903  1.00  0.00     0.000 C 
BRANCH   4   5
ATOM      5  C   UNL     1      12.437   2.248 -16.241  1.00  0.00     0.000 C 
BRANCH   5   6
ATOM      6  C   UNL     1      12.706   1.149 -17.286  1.00  0.00     0.000 C 
BRANCH   6   7
ATOM      7  C   UNL     1      13.382  -0.096 -16.689  1.00  0.00     0.000 C 
BRANCH   7   8
ATOM      8  C   UNL     1      12.361  -1.055 -16.030  1.00  0.00     0.000 C 
BRANCH   8   9
ATOM      9  C   UNL     1      11.675  -1.989 -17.045  1.00  0.00     0.000 C 
BRANCH   9  10
ATOM     10  C   UNL     1      10.848  -3.096 -16.367  1.00  0.00     0.000 C 
BRANCH  10  11
ATOM     11  C   UNL     1      11.406  -4.498 -16.668  1.00  0.00     0.000 C 
BRANCH  11  12
ATOM     12  C   UNL     1      11.105  -4.966 -18.103  1.00  0.00     0.000 C 
BRANCH  12  13
ATOM     13  C   UNL     1      12.241  -5.792 -18.741  1.00  0.00     0.006 C 
BRANCH  13  14
ATOM     14  C   UNL     1      13.299  -6.234 -17.718  1.00  0.00     0.053 C 
BRANCH  14  15
ATOM     15  C   UNL     1      14.521  -6.761 -18.403  1.00  0.00     0.041 C 
ATOM     16  O   UNL     1      15.126  -6.058 -19.258  1.00  0.00    -0.550 OA
ATOM     17  O   UNL     1      14.974  -8.045 -18.123  1.00  0.00    -0.550 OA
ENDBRANCH  14  15
ENDBRANCH  13  14
ENDBRANCH  12  13
ENDBRANCH  11  12
ENDBRANCH  10  11
ENDBRANCH   9  10
ENDBRANCH   8   9
ENDBRANCH   7   8
ENDBRANCH   6   7
ENDBRANCH   5   6
ENDBRANCH   4   5
ENDBRANCH   3   4
ENDBRANCH   2   3
ENDBRANCH   1   2
BRANCH   1  18
ATOM     18  C   UNL     1       8.246   1.397 -12.399  1.00  0.00     0.000 C 
BRANCH  18  19
ATOM     19  C   UNL     1       6.934   2.162 -12.685  1.00  0.00     0.000 C 
BRANCH  19  20
ATOM     20  C   UNL     1       6.328   1.846 -14.068  1.00  0.00     0.000 C 
BRANCH  20  21
ATOM     21  C   UNL     1       4.841   1.447 -14.049  1.00  0.00     0.000 C 
BRANCH  21  22
ATOM     22  C   UNL     1       4.325   0.924 -12.692  1.00  0.00     0.000 C 
BRANCH  22  23
ATOM     23  C   UNL     1       2.919   0.292 -12.763  1.00  0.00     0.000 C 
BRANCH  23  24
ATOM     24  C   UNL     1       1.835   1.307 -13.162  1.00  0.00    -0.000 C 
BRANCH  24  25
ATOM     25  C   UNL     1       0.545   0.610 -13.651  1.00  0.00    -0.000 C 
BRANCH  25  26
ATOM     26  C   UNL     1      -0.125   1.317 -14.844  1.00  0.00    -0.000 C 
BRANCH  26  27
ATOM     27  C   UNL     1       0.596   1.119 -16.191  1.00  0.00    -0.000 C 
BRANCH  27  28
ATOM     28  C   UNL     1      -0.125   0.120 -17.113  1.00  0.00    -0.000 C 
BRANCH  28  29
ATOM     29  C   UNL     1      -0.052  -1.325 -16.576  1.00  0.00    -0.000 C 
BRANCH  29  30
ATOM     30  C   UNL     1       0.425  -2.352 -17.619  1.00  0.00    -0.000 C 
BRANCH  30  31
ATOM     31  C   UNL     1      -0.113  -2.075 -19.029  1.00  0.00    -0.003 C 
ATOM     32  C   UNL     1       0.492  -3.038 -20.046  1.00  0.00     0.004 C 
ENDBRANCH  30  31
ENDBRANCH  29  30
ENDBRANCH  28  29
ENDBRANCH  27  28
ENDBRANCH  26  27
ENDBRANCH  25  26
ENDBRANCH  24  25
ENDBRANCH  23  24
ENDBRANCH  22  23
ENDBRANCH  21  22
ENDBRANCH  20  21
ENDBRANCH  19  20
ENDBRANCH  18  19
ENDBRANCH   1  18
TORSDOF 28
ENDMDL
MODEL 4
REMARK VINA RESULT:    13.070      3.969     10.984
REMARK INTER + INTRA:          33.319
REMARK INTER:                  33.585
REMARK INTRA:                  -0.267
REMARK UNBOUND:                -1.146
REMARK SMILES CCCCCCCCCCCCCCCCCCCCCCCCCCCCCC(=O)[O-]
REMARK SMILES IDX 16 1 17 2 18 3 19 4 20 5 21 6 22 7 23 8 24 9 25 10 26 11
REMARK SMILES IDX 27 12 28 13 29 14 30 15 31 16 32 17 15 18 14 19 13 20 12 21
REMARK SMILES IDX 11 22 10 23 9 24 8 25 7 26 6 27 5 28 4 29 3 30 2 31 1 32
REMARK H PARENT
REMARK Flexibility Score: inf
ROOT
ATOM      1  C   UNL     1      10.696   2.081 -14.181  1.00  0.00     0.000 C 
ENDROOT
BRANCH   1   2
ATOM      2  C   UNL     1       9.841   0.834 -13.909  1.00  0.00     0.000 C 
BRANCH   2   3
ATOM      3  C   UNL     1       9.027   0.950 -12.605  1.00  0.00     0.000 C 
BRANCH   3   4
ATOM      4  C   UNL     1       7.797   1.861 -12.750  1.00  0.00     0.000 C 
BRANCH   4   5
ATOM      5  C   UNL     1       6.742   1.288 -13.715  1.00  0.00     0.000 C 
BRANCH   5   6
ATOM      6  C   UNL     1       5.329   1.245 -13.103  1.00  0.00     0.000 C 
BRANCH   6   7
ATOM      7  C   UNL     1       4.236   0.921 -14.134  1.00  0.00     0.000 C 
BRANCH   7   8
ATOM      8  C   UNL     1       2.925   1.696 -13.857  1.00  0.00     0.000 C 
BRANCH   8   9
ATOM      9  C   UNL     1       1.664   0.838 -14.078  1.00  0.00     0.000 C 
BRANCH   9  10
ATOM     10  C   UNL     1       1.809  -0.133 -15.264  1.00  0.00     0.000 C 
BRANCH  10  11
ATOM     11  C   UNL     1       0.447  -0.484 -15.889  1.00  0.00     0.000 C 
BRANCH  11  12
ATOM     12  C   UNL     1       0.206  -2.001 -15.985  1.00  0.00     0.000 C 
BRANCH  12  13
ATOM     13  C   UNL     1       0.461  -2.585 -17.390  1.00  0.00     0.006 C 
BRANCH  13  14
ATOM     14  C   UNL     1      -0.125  -1.710 -18.510  1.00  0.00     0.053 C 
BRANCH  14  15
ATOM     15  C   UNL     1       0.174  -2.293 -19.856  1.00  0.00     0.041 C 
ATOM     16  O   UNL     1       0.524  -1.546 -20.810  1.00  0.00    -0.550 OA
ATOM     17  O   UNL     1       0.034  -3.659 -20.067  1.00  0.00    -0.550 OA
ENDBRANCH  14  15
ENDBRANCH  13  14
ENDBRANCH  12  13
ENDBRANCH  11  12
ENDBRANCH  10  11
ENDBRANCH   9  10
ENDBRANCH   8   9
ENDBRANCH   7   8
ENDBRANCH   6   7
ENDBRANCH   5   6
ENDBRANCH   4   5
ENDBRANCH   3   4
ENDBRANCH   2   3
ENDBRANCH   1   2
BRANCH   1  18
ATOM     18  C   UNL     1      10.771   2.432 -15.676  1.00  0.00     0.000 C 
BRANCH  18  19
ATOM     19  C   UNL     1      12.221   2.415 -16.209  1.00  0.00     0.000 C 
BRANCH  19  20
ATOM     20  C   UNL     1      12.321   2.075 -17.711  1.00  0.00     0.000 C 
BRANCH  20  21
ATOM     21  C   UNL     1      13.757   1.933 -18.250  1.00  0.00     0.000 C 
BRANCH  21  22
ATOM     22  C   UNL     1      14.672   1.004 -17.426  1.00  0.00     0.000 C 
BRANCH  22  23
ATOM     23  C   UNL     1      13.910   0.093 -16.442  1.00  0.00     0.000 C 
BRANCH  23  24
ATOM     24  C   UNL     1      12.806  -0.728 -17.130  1.00  0.00    -0.000 C 
BRANCH  24  25
ATOM     25  C   UNL     1      12.188  -1.776 -16.176  1.00  0.00    -0.000 C 
BRANCH  25  26
ATOM     26  C   UNL     1      10.939  -2.472 -16.750  1.00  0.00    -0.000 C 
BRANCH  26  27
ATOM     27  C   UNL     1      10.766  -3.938 -16.311  1.00  0.00    -0.000 C 
BRANCH  27  28
ATOM     28  C   UNL     1      10.985  -4.936 -17.462  1.00  0.00    -0.000 C 
BRANCH  28  29
ATOM     29  C   UNL     1      12.467  -5.019 -17.886  1.00  0.00    -0.000 C 
BRANCH  29  30
ATOM     30  C   UNL     1      12.874  -6.391 -18.454  1.00  0.00    -0.000 C 
BRANCH  30  31
ATOM     31  C   UNL     1      14.355  -6.468 -18.846  1.00  0.00    -0.003 C 
ATOM     32  C   UNL     1      15.047  -7.637 -18.150  1.00  0.00     0.004 C 
ENDBRANCH  30  31
ENDBRANCH  29  30
ENDBRANCH  28  29
ENDBRANCH  27  28
ENDBRANCH  26  27
ENDBRANCH  25  26
ENDBRANCH  24  25
ENDBRANCH  23  24
ENDBRANCH  22  23
ENDBRANCH  21  22
ENDBRANCH  20  21
ENDBRANCH  19  20
ENDBRANCH  18  19
ENDBRANCH   1  18
TORSDOF 28
ENDMDL
MODEL 5
REMARK VINA RESULT:    13.531      4.083     11.254
REMARK INTER + INTRA:          34.533
REMARK INTER:                  35.672
REMARK INTRA:                  -1.140
REMARK UNBOUND:                -1.146
REMARK SMILES CCCCCCCCCCCCCCCCCCCCCCCCCCCCCC(=O)[O-]
REMARK SMILES IDX 16 1 17 2 18 3 19 4 20 5 21 6 22 7 23 8 24 9 25 10 26 11
REMARK SMILES IDX 27 12 28 13 29 14 30 15 31 16 32 17 15 18 14 19 13 20 12 21
REMARK SMILES IDX 11 22 10 23 9 24 8 25 7 26 6 27 5 28 4 29 3 30 2 31 1 32
REMARK H PARENT
REMARK Flexibility Score: inf
ROOT
ATOM      1  C   UNL     1      10.663   2.128 -14.392  1.00  0.00     0.000 C 
ENDROOT
BRANCH   1   2
ATOM      2  C   UNL     1       9.782   0.908 -14.081  1.00  0.00     0.000 C 
BRANCH   2   3
ATOM      3  C   UNL     1       9.293   0.893 -12.619  1.00  0.00     0.000 C 
BRANCH   3   4
ATOM      4  C   UNL     1       8.012   1.717 -12.411  1.00  0.00     0.000 C 
BRANCH   4   5
ATOM      5  C   UNL     1       6.785   1.098 -13.108  1.00  0.00     0.000 C 
BRANCH   5   6
ATOM      6  C   UNL     1       6.015   2.110 -13.976  1.00  0.00     0.000 C 
BRANCH   6   7
ATOM      7  C   UNL     1       4.489   1.959 -13.867  1.00  0.00     0.000 C 
BRANCH   7   8
ATOM      8  C   UNL     1       4.083   0.661 -13.127  1.00  0.00     0.000 C 
BRANCH   8   9
ATOM      9  C   UNL     1       2.576   0.357 -13.234  1.00  0.00     0.000 C 
BRANCH   9  10
ATOM     10  C   UNL     1       1.926   1.011 -14.467  1.00  0.00     0.000 C 
BRANCH  10  11
ATOM     11  C   UNL     1       0.401   0.804 -14.492  1.00  0.00     0.000 C 
BRANCH  11  12
ATOM     12  C   UNL     1      -0.074   0.001 -15.715  1.00  0.00     0.000 C 
BRANCH  12  13
ATOM     13  C   UNL     1       0.593  -1.383 -15.851  1.00  0.00     0.006 C 
BRANCH  13  14
ATOM     14  C   UNL     1      -0.125  -2.290 -16.863  1.00  0.00     0.053 C 
BRANCH  14  15
ATOM     15  C   UNL     1      -0.113  -1.681 -18.230  1.00  0.00     0.041 C 
ATOM     16  O   UNL     1      -0.062  -2.415 -19.254  1.00  0.00    -0.550 OA
ATOM     17  O   UNL     1      -0.125  -0.299 -18.374  1.00  0.00    -0.550 OA
ENDBRANCH  14  15
ENDBRANCH  13  14
ENDBRANCH  12  13
ENDBRANCH  11  12
ENDBRANCH  10  11
ENDBRANCH   9  10
ENDBRANCH   8   9
ENDBRANCH   7   8
ENDBRANCH   6   7
ENDBRANCH   5   6
ENDBRANCH   4   5
ENDBRANCH   3   4
ENDBRANCH   2   3
ENDBRANCH   1   2
BRANCH   1  18
ATOM     18  C   UNL     1      11.121   2.169 -15.859  1.00  0.00     0.000 C 
BRANCH  18  19
ATOM     19  C   UNL     1      12.627   2.487 -15.994  1.00  0.00     0.000 C 
BRANCH  19  20
ATOM     20  C   UNL     1      13.318   1.716 -17.138  1.00  0.00     0.000 C 
BRANCH  20  21
ATOM     21  C   UNL     1      13.709   0.265 -16.800  1.00  0.00     0.000 C 
BRANCH  21  22
ATOM     22  C   UNL     1      12.880  -0.816 -17.523  1.00  0.00     0.000 C 
BRANCH  22  23
ATOM     23  C   UNL     1      11.486  -1.050 -16.903  1.00  0.00     0.000 C 
BRANCH  23  24
ATOM     24  C   UNL     1      10.862  -2.387 -17.337  1.00  0.00    -0.000 C 
BRANCH  24  25
ATOM     25  C   UNL     1      10.845  -3.417 -16.184  1.00  0.00    -0.000 C 
BRANCH  25  26
ATOM     26  C   UNL     1      11.509  -4.758 -16.545  1.00  0.00    -0.000 C 
BRANCH  26  27
ATOM     27  C   UNL     1      12.111  -4.813 -17.962  1.00  0.00    -0.000 C 
BRANCH  27  28
ATOM     28  C   UNL     1      12.424  -6.248 -18.423  1.00  0.00    -0.000 C 
BRANCH  28  29
ATOM     29  C   UNL     1      13.752  -6.771 -17.835  1.00  0.00    -0.000 C 
BRANCH  29  30
ATOM     30  C   UNL     1      14.900  -6.838 -18.859  1.00  0.00    -0.000 C 
BRANCH  30  31
ATOM     31  C   UNL     1      15.037  -5.560 -19.696  1.00  0.00    -0.003 C 
ATOM     32  C   UNL     1      15.086  -5.883 -21.187  1.00  0.00     0.004 C 
ENDBRANCH  30  31
ENDBRANCH  29  30
ENDBRANCH  28  29
ENDBRANCH  27  28
ENDBRANCH  26  27
ENDBRANCH  25  26
ENDBRANCH  24  25
ENDBRANCH  23  24
ENDBRANCH  22  23
ENDBRANCH  21  22
ENDBRANCH  20  21
ENDBRANCH  19  20
ENDBRANCH  18  19
ENDBRANCH   1  18
TORSDOF 28
ENDMDL
MODEL 6
REMARK VINA RESULT:    13.638      4.043     11.174
REMARK INTER + INTRA:          34.815
REMARK INTER:                  35.702
REMARK INTRA:                  -0.887
REMARK UNBOUND:                -1.146
REMARK SMILES CCCCCCCCCCCCCCCCCCCCCCCCCCCCCC(=O)[O-]
REMARK SMILES IDX 16 1 17 2 18 3 19 4 20 5 21 6 22 7 23 8 24 9 25 10 26 11
REMARK SMILES IDX 27 12 28 13 29 14 30 15 31 16 32 17 15 18 14 19 13 20 12 21
REMARK SMILES IDX 11 22 10 23 9 24 8 25 7 26 6 27 5 28 4 29 3 30 2 31 1 32
REMARK H PARENT
REMARK Flexibility Score: inf
ROOT
ATOM      1  C   UNL     1      11.379   2.764 -16.061  1.00  0.00     0.000 C 
ENDROOT
BRANCH   1   2
ATOM      2  C   UNL     1      11.071   1.602 -15.103  1.00  0.00     0.000 C 
BRANCH   2   3
ATOM      3  C   UNL     1      10.431   2.081 -13.785  1.00  0.00     0.000 C 
BRANCH   3   4
ATOM      4  C   UNL     1      10.028   0.918 -12.862  1.00  0.00     0.000 C 
BRANCH   4   5
ATOM      5  C   UNL     1       8.560   0.490 -13.049  1.00  0.00     0.000 C 
BRANCH   5   6
ATOM      6  C   UNL     1       7.596   1.686 -13.154  1.00  0.00     0.000 C 
BRANCH   6   7
ATOM      7  C   UNL     1       6.117   1.266 -13.181  1.00  0.00     0.000 C 
BRANCH   7   8
ATOM      8  C   UNL     1       5.176   2.464 -13.458  1.00  0.00     0.000 C 
BRANCH   8   9
ATOM      9  C   UNL     1       3.808   2.032 -14.021  1.00  0.00     0.000 C 
BRANCH   9  10
ATOM     10  C   UNL     1       3.502   0.546 -13.758  1.00  0.00     0.000 C 
BRANCH  10  11
ATOM     11  C   UNL     1       2.358   0.028 -14.649  1.00  0.00     0.000 C 
BRANCH  11  12
ATOM     12  C   UNL     1       0.999   0.662 -14.305  1.00  0.00     0.000 C 
BRANCH  12  13
ATOM     13  C   UNL     1      -0.125   0.307 -15.301  1.00  0.00     0.006 C 
BRANCH  13  14
ATOM     14  C   UNL     1       0.388   0.153 -16.741  1.00  0.00     0.053 C 
BRANCH  14  15
ATOM     15  C   UNL     1       0.385  -1.284 -17.160  1.00  0.00     0.041 C 
ATOM     16  O   UNL     1       0.743  -2.184 -16.353  1.00  0.00    -0.550 OA
ATOM     17  O   UNL     1       0.017  -1.629 -18.455  1.00  0.00    -0.550 OA
ENDBRANCH  14  15
ENDBRANCH  13  14
ENDBRANCH  12  13
ENDBRANCH  11  12
ENDBRANCH  10  11
ENDBRANCH   9  10
ENDBRANCH   8   9
ENDBRANCH   7   8
ENDBRANCH   6   7
ENDBRANCH   5   6
ENDBRANCH   4   5
ENDBRANCH   3   4
ENDBRANCH   2   3
ENDBRANCH   1   2
BRANCH   1  18
ATOM     18  C   UNL     1      12.769   2.642 -16.710  1.00  0.00     0.000 C 
BRANCH  18  19
ATOM     19  C   UNL     1      12.707   1.982 -18.105  1.00  0.00     0.000 C 
BRANCH  19  20
ATOM     20  C   UNL     1      14.014   1.266 -18.505  1.00  0.00     0.000 C 
BRANCH  20  21
ATOM     21  C   UNL     1      14.271  -0.068 -17.779  1.00  0.00     0.000 C 
BRANCH  21  22
ATOM     22  C   UNL     1      13.334  -0.350 -16.586  1.00  0.00     0.000 C 
BRANCH  22  23
ATOM     23  C   UNL     1      12.069  -1.148 -16.964  1.00  0.00     0.000 C 
BRANCH  23  24
ATOM     24  C   UNL     1      11.907  -2.430 -16.129  1.00  0.00    -0.000 C 
BRANCH  24  25
ATOM     25  C   UNL     1      10.585  -3.163 -16.448  1.00  0.00    -0.000 C 
BRANCH  25  26
ATOM     26  C   UNL     1      10.787  -4.552 -17.083  1.00  0.00    -0.000 C 
BRANCH  26  27
ATOM     27  C   UNL     1      12.000  -4.653 -18.027  1.00  0.00    -0.000 C 
BRANCH  27  28
ATOM     28  C   UNL     1      12.363  -6.106 -18.380  1.00  0.00    -0.000 C 
BRANCH  28  29
ATOM     29  C   UNL     1      13.860  -6.264 -18.726  1.00  0.00    -0.000 C 
BRANCH  29  30
ATOM     30  C   UNL     1      14.546  -7.431 -17.992  1.00  0.00    -0.000 C 
BRANCH  30  31
ATOM     31  C   UNL     1      15.118  -7.032 -16.625  1.00  0.00    -0.003 C 
ATOM     32  C   UNL     1      14.947  -8.158 -15.609  1.00  0.00     0.004 C 
ENDBRANCH  30  31
ENDBRANCH  29  30
ENDBRANCH  28  29
ENDBRANCH  27  28
ENDBRANCH  26  27
ENDBRANCH  25  26
ENDBRANCH  24  25
ENDBRANCH  23  24
ENDBRANCH  22  23
ENDBRANCH  21  22
ENDBRANCH  20  21
ENDBRANCH  19  20
ENDBRANCH  18  19
ENDBRANCH   1  18
TORSDOF 28
ENDMDL
MODEL 7
REMARK VINA RESULT:    14.493      1.022      3.073
REMARK INTER + INTRA:          37.070
REMARK INTER:                  36.822
REMARK INTRA:                   0.248
REMARK UNBOUND:                -1.146
REMARK SMILES CCCCCCCCCCCCCCCCCCCCCCCCCCCCCC(=O)[O-]
REMARK SMILES IDX 16 1 17 2 18 3 19 4 20 5 21 6 22 7 23 8 24 9 25 10 26 11
REMARK SMILES IDX 27 12 28 13 29 14 30 15 31 16 32 17 15 18 14 19 13 20 12 21
REMARK SMILES IDX 11 22 10 23 9 24 8 25 7 26 6 27 5 28 4 29 3 30 2 31 1 32
REMARK H PARENT
REMARK Flexibility Score: inf
ROOT
ATOM      1  C   UNL     1      13.082   2.403 -16.929  1.00  0.00     0.000 C 
ENDROOT
BRANCH   1   2
ATOM      2  C   UNL     1      12.821   1.851 -18.339  1.00  0.00     0.000 C 
BRANCH   2   3
ATOM      3  C   UNL     1      13.854   0.784 -18.753  1.00  0.00     0.000 C 
BRANCH   3   4
ATOM      4  C   UNL     1      14.917   0.532 -17.671  1.00  0.00     0.000 C 
BRANCH   4   5
ATOM      5  C   UNL     1      14.320  -0.034 -16.369  1.00  0.00     0.000 C 
BRANCH   5   6
ATOM      6  C   UNL     1      12.957  -0.718 -16.582  1.00  0.00     0.000 C 
BRANCH   6   7
ATOM      7  C   UNL     1      12.385  -1.335 -15.295  1.00  0.00     0.000 C 
BRANCH   7   8
ATOM      8  C   UNL     1      11.102  -2.158 -15.563  1.00  0.00     0.000 C 
BRANCH   8   9
ATOM      9  C   UNL     1      10.664  -2.119 -17.040  1.00  0.00     0.000 C 
BRANCH   9  10
ATOM     10  C   UNL     1      11.240  -3.289 -17.859  1.00  0.00     0.000 C 
BRANCH  10  11
ATOM     11  C   UNL     1      11.517  -4.523 -16.982  1.00  0.00     0.000 C 
BRANCH  11  12
ATOM     12  C   UNL     1      11.407  -5.846 -17.760  1.00  0.00     0.000 C 
BRANCH  12  13
ATOM     13  C   UNL     1      12.608  -6.125 -18.688  1.00  0.00     0.006 C 
BRANCH  13  14
ATOM     14  C   UNL     1      13.791  -6.768 -17.948  1.00  0.00     0.053 C 
BRANCH  14  15
ATOM     15  C   UNL     1      15.032  -6.728 -18.785  1.00  0.00     0.041 C 
ATOM     16  O   UNL     1      15.892  -7.646 -18.693  1.00  0.00    -0.550 OA
ATOM     17  O   UNL     1      15.255  -5.660 -19.644  1.00  0.00    -0.550 OA
ENDBRANCH  14  15
ENDBRANCH  13  14
ENDBRANCH  12  13
ENDBRANCH  11  12
ENDBRANCH  10  11
ENDBRANCH   9  10
ENDBRANCH   8   9
ENDBRANCH   7   8
ENDBRANCH   6   7
ENDBRANCH   5   6
ENDBRANCH   4   5
ENDBRANCH   3   4
ENDBRANCH   2   3
ENDBRANCH   1   2
BRANCH   1  18
ATOM     18  C   UNL     1      11.783   2.685 -16.155  1.00  0.00     0.000 C 
BRANCH  18  19
ATOM     19  C   UNL     1      11.501   1.616 -15.075  1.00  0.00     0.000 C 
BRANCH  19  20
ATOM     20  C   UNL     1      10.403   2.029 -14.073  1.00  0.00     0.000 C 
BRANCH  20  21
ATOM     21  C   UNL     1       9.216   1.052 -13.973  1.00  0.00     0.000 C 
BRANCH  21  22
ATOM     22  C   UNL     1       8.434   1.114 -12.645  1.00  0.00     0.000 C 
BRANCH  22  23
ATOM     23  C   UNL     1       7.088   1.861 -12.750  1.00  0.00     0.000 C 
BRANCH  23  24
ATOM     24  C   UNL     1       6.180   1.292 -13.853  1.00  0.00    -0.000 C 
BRANCH  24  25
ATOM     25  C   UNL     1       4.732   1.819 -13.738  1.00  0.00    -0.000 C 
BRANCH  25  26
ATOM     26  C   UNL     1       3.702   0.726 -13.396  1.00  0.00    -0.000 C 
BRANCH  26  27
ATOM     27  C   UNL     1       2.584   0.552 -14.442  1.00  0.00    -0.000 C 
BRANCH  27  28
ATOM     28  C   UNL     1       1.193   0.922 -13.896  1.00  0.00    -0.000 C 
BRANCH  28  29
ATOM     29  C   UNL     1       0.066   0.126 -14.591  1.00  0.00    -0.000 C 
BRANCH  29  30
ATOM     30  C   UNL     1       0.285  -0.068 -16.102  1.00  0.00    -0.000 C 
BRANCH  30  31
ATOM     31  C   UNL     1       0.735  -1.488 -16.470  1.00  0.00    -0.003 C 
ATOM     32  C   UNL     1       0.443  -1.794 -17.936  1.00  0.00     0.004 C 
ENDBRANCH  30  31
ENDBRANCH  29  30
ENDBRANCH  28  29
ENDBRANCH  27  28
ENDBRANCH  26  27
ENDBRANCH  25  26
ENDBRANCH  24  25
ENDBRANCH  23  24
ENDBRANCH  22  23
ENDBRANCH  21  22
ENDBRANCH  20  21
ENDBRANCH  19  20
ENDBRANCH  18  19
ENDBRANCH   1  18
TORSDOF 28
ENDMDL
