MODEL 1
REMARK VINA RESULT:    -4.109      0.000      0.000
REMARK INTER + INTRA:          -7.099
REMARK INTER:                  -6.511
REMARK INTRA:                  -0.589
REMARK UNBOUND:                -0.589
REMARK SMILES CCCCCCCCCCCC(=O)[O-]
REMARK SMILES IDX 7 1 8 2 9 3 10 4 11 5 12 6 13 7 14 8 6 9 5 10 4 11 3 12 2 13
REMARK SMILES IDX 1 14
REMARK H PARENT
REMARK Flexibility Score: inf
ROOT
ATOM      1  C   UNL     1      11.020 -22.703  41.989  1.00  0.00     0.000 C 
ENDROOT
BRANCH   1   2
ATOM      2  C   UNL     1      12.062 -21.599  41.726  1.00  0.00     0.000 C 
BRANCH   2   3
ATOM      3  C   UNL     1      13.215 -22.042  40.800  1.00  0.00     0.000 C 
BRANCH   3   4
ATOM      4  C   UNL     1      12.752 -22.272  39.354  1.00  0.00     0.006 C 
BRANCH   4   5
ATOM      5  C   UNL     1      13.618 -21.482  38.368  1.00  0.00     0.053 C 
BRANCH   5   6
ATOM      6  C   UNL     1      13.987 -22.335  37.195  1.00  0.00     0.041 C 
ATOM      7  O   UNL     1      14.101 -21.823  36.051  1.00  0.00    -0.550 OA
ATOM      8  O   UNL     1      14.155 -23.704  37.357  1.00  0.00    -0.550 OA
ENDBRANCH   5   6
ENDBRANCH   4   5
ENDBRANCH   3   4
ENDBRANCH   2   3
ENDBRANCH   1   2
BRANCH   1   9
ATOM      9  C   UNL     1       9.855 -22.752  40.982  1.00  0.00     0.000 C 
BRANCH   9  10
ATOM     10  C   UNL     1       9.385 -24.169  40.602  1.00  0.00    -0.000 C 
BRANCH  10  11
ATOM     11  C   UNL     1      10.383 -25.262  41.012  1.00  0.00    -0.000 C 
BRANCH  11  12
ATOM     12  C   UNL     1       9.668 -26.417  41.728  1.00  0.00    -0.000 C 
BRANCH  12  13
ATOM     13  C   UNL     1       8.178 -26.509  41.361  1.00  0.00    -0.003 C 
ATOM     14  C   UNL     1       7.829 -27.803  40.626  1.00  0.00     0.004 C 
ENDBRANCH  12  13
ENDBRANCH  11  12
ENDBRANCH  10  11
ENDBRANCH   9  10
ENDBRANCH   1   9
TORSDOF 10
ENDMDL
MODEL 2
REMARK VINA RESULT:    -4.045      1.481      2.052
REMARK INTER + INTRA:          -6.998
REMARK INTER:                  -5.572
REMARK INTRA:                  -1.425
REMARK UNBOUND:                -0.589
REMARK SMILES CCCCCCCCCCCC(=O)[O-]
REMARK SMILES IDX 7 1 8 2 9 3 10 4 11 5 12 6 13 7 14 8 6 9 5 10 4 11 3 12 2 13
REMARK SMILES IDX 1 14
REMARK H PARENT
REMARK Flexibility Score: inf
ROOT
ATOM      1  C   UNL     1      10.824 -22.407  41.426  1.00  0.00     0.000 C 
ENDROOT
BRANCH   1   2
ATOM      2  C   UNL     1      12.088 -21.950  40.674  1.00  0.00     0.000 C 
BRANCH   2   3
ATOM      3  C   UNL     1      13.282 -22.918  40.820  1.00  0.00     0.000 C 
BRANCH   3   4
ATOM      4  C   UNL     1      13.975 -23.203  39.479  1.00  0.00     0.006 C 
BRANCH   4   5
ATOM      5  C   UNL     1      13.351 -22.376  38.352  1.00  0.00     0.053 C 
BRANCH   5   6
ATOM      6  C   UNL     1      14.270 -22.318  37.173  1.00  0.00     0.041 C 
ATOM      7  O   UNL     1      13.802 -22.224  36.008  1.00  0.00    -0.550 OA
ATOM      8  O   UNL     1      15.644 -22.419  37.357  1.00  0.00    -0.550 OA
ENDBRANCH   5   6
ENDBRANCH   4   5
ENDBRANCH   3   4
ENDBRANCH   2   3
ENDBRANCH   1   2
BRANCH   1   9
ATOM      9  C   UNL     1       9.641 -22.813  40.528  1.00  0.00     0.000 C 
BRANCH   9  10
ATOM     10  C   UNL     1       9.536 -24.321  40.234  1.00  0.00    -0.000 C 
BRANCH  10  11
ATOM     11  C   UNL     1      10.255 -25.187  41.279  1.00  0.00    -0.000 C 
BRANCH  11  12
ATOM     12  C   UNL     1      11.356 -26.033  40.625  1.00  0.00    -0.000 C 
BRANCH  12  13
ATOM     13  C   UNL     1      11.272 -26.033  39.091  1.00  0.00    -0.003 C 
ATOM     14  C   UNL     1      12.588 -26.435  38.426  1.00  0.00     0.004 C 
ENDBRANCH  12  13
ENDBRANCH  11  12
ENDBRANCH  10  11
ENDBRANCH   9  10
ENDBRANCH   1   9
TORSDOF 10
ENDMDL
MODEL 3
REMARK VINA RESULT:    -3.978      2.091      4.425
REMARK INTER + INTRA:          -6.892
REMARK INTER:                  -5.733
REMARK INTRA:                  -1.159
REMARK UNBOUND:                -0.589
REMARK SMILES CCCCCCCCCCCC(=O)[O-]
REMARK SMILES IDX 7 1 8 2 9 3 10 4 11 5 12 6 13 7 14 8 6 9 5 10 4 11 3 12 2 13
REMARK SMILES IDX 1 14
REMARK H PARENT
REMARK Flexibility Score: inf
ROOT
ATOM      1  C   UNL     1      10.117 -25.999  41.696  1.00  0.00     0.000 C 
ENDROOT
BRANCH   1   2
ATOM      2  C   UNL     1      10.594 -27.417  41.326  1.00  0.00     0.000 C 
BRANCH   2   3
ATOM      3  C   UNL     1      11.382 -27.481  40.000  1.00  0.00     0.000 C 
BRANCH   3   4
ATOM      4  C   UNL     1      12.642 -26.604  40.022  1.00  0.00     0.006 C 
BRANCH   4   5
ATOM      5  C   UNL     1      12.618 -25.580  38.883  1.00  0.00     0.053 C 
BRANCH   5   6
ATOM      6  C   UNL     1      13.780 -25.790  37.965  1.00  0.00     0.041 C 
ATOM      7  O   UNL     1      14.892 -26.161  38.424  1.00  0.00    -0.550 OA
ATOM      8  O   UNL     1      13.650 -25.526  36.607  1.00  0.00    -0.550 OA
ENDBRANCH   5   6
ENDBRANCH   4   5
ENDBRANCH   3   4
ENDBRANCH   2   3
ENDBRANCH   1   2
BRANCH   1   9
ATOM      9  C   UNL     1       8.952 -25.460  40.844  1.00  0.00     0.000 C 
BRANCH   9  10
ATOM     10  C   UNL     1       9.315 -24.284  39.918  1.00  0.00    -0.000 C 
BRANCH  10  11
ATOM     11  C   UNL     1       9.638 -22.994  40.687  1.00  0.00    -0.000 C 
BRANCH  11  12
ATOM     12  C   UNL     1      11.048 -22.491  40.346  1.00  0.00    -0.000 C 
BRANCH  12  13
ATOM     13  C   UNL     1      11.758 -21.857  41.553  1.00  0.00    -0.003 C 
ATOM     14  C   UNL     1      11.492 -22.608  42.857  1.00  0.00     0.004 C 
ENDBRANCH  12  13
ENDBRANCH  11  12
ENDBRANCH  10  11
ENDBRANCH   9  10
ENDBRANCH   1   9
TORSDOF 10
ENDMDL
MODEL 4
REMARK VINA RESULT:    -3.896      2.112      2.829
REMARK INTER + INTRA:          -6.763
REMARK INTER:                  -5.525
REMARK INTRA:                  -1.238
REMARK UNBOUND:                -0.589
REMARK SMILES CCCCCCCCCCCC(=O)[O-]
REMARK SMILES IDX 7 1 8 2 9 3 10 4 11 5 12 6 13 7 14 8 6 9 5 10 4 11 3 12 2 13
REMARK SMILES IDX 1 14
REMARK H PARENT
REMARK Flexibility Score: inf
ROOT
ATOM      1  C   UNL     1      12.258 -21.990  40.235  1.00  0.00     0.000 C 
ENDROOT
BRANCH   1   2
ATOM      2  C   UNL     1      12.565 -23.150  39.268  1.00  0.00     0.000 C 
BRANCH   2   3
ATOM      3  C   UNL     1      13.498 -24.226  39.865  1.00  0.00     0.000 C 
BRANCH   3   4
ATOM      4  C   UNL     1      12.854 -25.620  39.880  1.00  0.00     0.006 C 
BRANCH   4   5
ATOM      5  C   UNL     1      12.434 -26.046  38.470  1.00  0.00     0.053 C 
BRANCH   5   6
ATOM      6  C   UNL     1      13.634 -26.204  37.591  1.00  0.00     0.041 C 
ATOM      7  O   UNL     1      13.697 -25.597  36.490  1.00  0.00    -0.550 OA
ATOM      8  O   UNL     1      14.661 -27.061  37.965  1.00  0.00    -0.550 OA
ENDBRANCH   5   6
ENDBRANCH   4   5
ENDBRANCH   3   4
ENDBRANCH   2   3
ENDBRANCH   1   2
BRANCH   1   9
ATOM      9  C   UNL     1      11.123 -22.263  41.240  1.00  0.00     0.000 C 
BRANCH   9  10
ATOM     10  C   UNL     1       9.795 -22.723  40.611  1.00  0.00    -0.000 C 
BRANCH  10  11
ATOM     11  C   UNL     1       9.448 -24.182  40.943  1.00  0.00    -0.000 C 
BRANCH  11  12
ATOM     12  C   UNL     1       9.127 -24.973  39.667  1.00  0.00    -0.000 C 
BRANCH  12  13
ATOM     13  C   UNL     1       8.970 -26.480  39.929  1.00  0.00    -0.003 C 
ATOM     14  C   UNL     1       8.159 -26.779  41.190  1.00  0.00     0.004 C 
ENDBRANCH  12  13
ENDBRANCH  11  12
ENDBRANCH  10  11
ENDBRANCH   9  10
ENDBRANCH   1   9
TORSDOF 10
ENDMDL
MODEL 5
REMARK VINA RESULT:    -3.890      2.024      2.797
REMARK INTER + INTRA:          -6.752
REMARK INTER:                  -5.239
REMARK INTRA:                  -1.513
REMARK UNBOUND:                -0.589
REMARK SMILES CCCCCCCCCCCC(=O)[O-]
REMARK SMILES IDX 7 1 8 2 9 3 10 4 11 5 12 6 13 7 14 8 6 9 5 10 4 11 3 12 2 13
REMARK SMILES IDX 1 14
REMARK H PARENT
REMARK Flexibility Score: inf
ROOT
ATOM      1  C   UNL     1      12.934 -21.336  42.122  1.00  0.00     0.000 C 
ENDROOT
BRANCH   1   2
ATOM      2  C   UNL     1      14.318 -21.914  41.769  1.00  0.00     0.000 C 
BRANCH   2   3
ATOM      3  C   UNL     1      14.819 -21.513  40.365  1.00  0.00     0.000 C 
BRANCH   3   4
ATOM      4  C   UNL     1      13.676 -21.091  39.431  1.00  0.00     0.006 C 
BRANCH   4   5
ATOM      5  C   UNL     1      13.621 -21.987  38.190  1.00  0.00     0.053 C 
BRANCH   5   6
ATOM      6  C   UNL     1      14.004 -21.214  36.968  1.00  0.00     0.041 C 
ATOM      7  O   UNL     1      14.321 -19.999  37.060  1.00  0.00    -0.550 OA
ATOM      8  O   UNL     1      13.962 -21.822  35.719  1.00  0.00    -0.550 OA
ENDBRANCH   5   6
ENDBRANCH   4   5
ENDBRANCH   3   4
ENDBRANCH   2   3
ENDBRANCH   1   2
BRANCH   1   9
ATOM      9  C   UNL     1      11.817 -22.381  42.301  1.00  0.00     0.000 C 
BRANCH   9  10
ATOM     10  C   UNL     1      10.660 -22.274  41.290  1.00  0.00    -0.000 C 
BRANCH  10  11
ATOM     11  C   UNL     1      10.749 -23.317  40.166  1.00  0.00    -0.000 C 
BRANCH  11  12
ATOM     12  C   UNL     1      11.105 -24.700  40.728  1.00  0.00    -0.000 C 
BRANCH  12  13
ATOM     13  C   UNL     1      12.130 -25.446  39.858  1.00  0.00    -0.003 C 
ATOM     14  C   UNL     1      13.574 -25.155  40.265  1.00  0.00     0.004 C 
ENDBRANCH  12  13
ENDBRANCH  11  12
ENDBRANCH  10  11
ENDBRANCH   9  10
ENDBRANCH   1   9
TORSDOF 10
ENDMDL
MODEL 6
REMARK VINA RESULT:    -3.839      1.624      3.165
REMARK INTER + INTRA:          -6.673
REMARK INTER:                  -5.486
REMARK INTRA:                  -1.187
REMARK UNBOUND:                -0.589
REMARK SMILES CCCCCCCCCCCC(=O)[O-]
REMARK SMILES IDX 7 1 8 2 9 3 10 4 11 5 12 6 13 7 14 8 6 9 5 10 4 11 3 12 2 13
REMARK SMILES IDX 1 14
REMARK H PARENT
REMARK Flexibility Score: inf
ROOT
ATOM      1  C   UNL     1      14.743 -21.872  42.087  1.00  0.00     0.000 C 
ENDROOT
BRANCH   1   2
ATOM      2  C   UNL     1      15.099 -21.349  40.682  1.00  0.00     0.000 C 
BRANCH   2   3
ATOM      3  C   UNL     1      14.049 -20.379  40.096  1.00  0.00     0.000 C 
BRANCH   3   4
ATOM      4  C   UNL     1      13.501 -20.855  38.742  1.00  0.00     0.006 C 
BRANCH   4   5
ATOM      5  C   UNL     1      13.389 -22.381  38.701  1.00  0.00     0.053 C 
BRANCH   5   6
ATOM      6  C   UNL     1      13.876 -22.908  37.389  1.00  0.00     0.041 C 
ATOM      7  O   UNL     1      14.115 -24.136  37.248  1.00  0.00    -0.550 OA
ATOM      8  O   UNL     1      14.114 -22.034  36.335  1.00  0.00    -0.550 OA
ENDBRANCH   5   6
ENDBRANCH   4   5
ENDBRANCH   3   4
ENDBRANCH   2   3
ENDBRANCH   1   2
BRANCH   1   9
ATOM      9  C   UNL     1      13.546 -21.173  42.759  1.00  0.00     0.000 C 
BRANCH   9  10
ATOM     10  C   UNL     1      12.386 -22.108  43.153  1.00  0.00    -0.000 C 
BRANCH  10  11
ATOM     11  C   UNL     1      11.841 -22.918  41.969  1.00  0.00    -0.000 C 
BRANCH  11  12
ATOM     12  C   UNL     1      10.591 -22.251  41.377  1.00  0.00    -0.000 C 
BRANCH  12  13
ATOM     13  C   UNL     1       9.982 -23.057  40.218  1.00  0.00    -0.003 C 
ATOM     14  C   UNL     1       9.416 -24.403  40.668  1.00  0.00     0.004 C 
ENDBRANCH  12  13
ENDBRANCH  11  12
ENDBRANCH  10  11
ENDBRANCH   9  10
ENDBRANCH   1   9
TORSDOF 10
ENDMDL
MODEL 7
REMARK VINA RESULT:    -3.836      1.808      2.281
REMARK INTER + INTRA:          -6.668
REMARK INTER:                  -5.439
REMARK INTRA:                  -1.229
REMARK UNBOUND:                -0.589
REMARK SMILES CCCCCCCCCCCC(=O)[O-]
REMARK SMILES IDX 7 1 8 2 9 3 10 4 11 5 12 6 13 7 14 8 6 9 5 10 4 11 3 12 2 13
REMARK SMILES IDX 1 14
REMARK H PARENT
REMARK Flexibility Score: inf
ROOT
ATOM      1  C   UNL     1       9.560 -22.966  40.721  1.00  0.00     0.000 C 
ENDROOT
BRANCH   1   2
ATOM      2  C   UNL     1      10.913 -22.302  41.042  1.00  0.00     0.000 C 
BRANCH   2   3
ATOM      3  C   UNL     1      11.970 -23.281  41.598  1.00  0.00     0.000 C 
BRANCH   3   4
ATOM      4  C   UNL     1      13.247 -23.314  40.746  1.00  0.00     0.006 C 
BRANCH   4   5
ATOM      5  C   UNL     1      13.445 -24.692  40.108  1.00  0.00     0.053 C 
BRANCH   5   6
ATOM      6  C   UNL     1      12.927 -24.701  38.705  1.00  0.00     0.041 C 
ATOM      7  O   UNL     1      13.006 -23.665  37.995  1.00  0.00    -0.550 OA
ATOM      8  O   UNL     1      12.309 -25.838  38.199  1.00  0.00    -0.550 OA
ENDBRANCH   5   6
ENDBRANCH   4   5
ENDBRANCH   3   4
ENDBRANCH   2   3
ENDBRANCH   1   2
BRANCH   1   9
ATOM      9  C   UNL     1       9.599 -24.014  39.593  1.00  0.00     0.000 C 
BRANCH   9  10
ATOM     10  C   UNL     1       8.923 -25.357  39.930  1.00  0.00    -0.000 C 
BRANCH  10  11
ATOM     11  C   UNL     1       9.317 -25.896  41.312  1.00  0.00    -0.000 C 
BRANCH  11  12
ATOM     12  C   UNL     1      10.589 -26.751  41.225  1.00  0.00    -0.000 C 
BRANCH  12  13
ATOM     13  C   UNL     1      10.370 -28.191  41.716  1.00  0.00    -0.003 C 
ATOM     14  C   UNL     1       8.942 -28.439  42.200  1.00  0.00     0.004 C 
ENDBRANCH  12  13
ENDBRANCH  11  12
ENDBRANCH  10  11
ENDBRANCH   9  10
ENDBRANCH   1   9
TORSDOF 10
ENDMDL
MODEL 8
REMARK VINA RESULT:    -3.826      1.747      2.649
REMARK INTER + INTRA:          -6.652
REMARK INTER:                  -5.204
REMARK INTRA:                  -1.448
REMARK UNBOUND:                -0.589
REMARK SMILES CCCCCCCCCCCC(=O)[O-]
REMARK SMILES IDX 7 1 8 2 9 3 10 4 11 5 12 6 13 7 14 8 6 9 5 10 4 11 3 12 2 13
REMARK SMILES IDX 1 14
REMARK H PARENT
REMARK Flexibility Score: inf
ROOT
ATOM      1  C   UNL     1      13.569 -23.272  41.664  1.00  0.00     0.000 C 
ENDROOT
BRANCH   1   2
ATOM      2  C   UNL     1      14.471 -23.451  40.427  1.00  0.00     0.000 C 
BRANCH   2   3
ATOM      3  C   UNL     1      14.008 -24.579  39.479  1.00  0.00     0.000 C 
BRANCH   3   4
ATOM      4  C   UNL     1      13.475 -24.042  38.143  1.00  0.00     0.006 C 
BRANCH   4   5
ATOM      5  C   UNL     1      13.554 -22.513  38.095  1.00  0.00     0.053 C 
BRANCH   5   6
ATOM      6  C   UNL     1      14.396 -22.068  36.941  1.00  0.00     0.041 C 
ATOM      7  O   UNL     1      13.866 -21.837  35.823  1.00  0.00    -0.550 OA
ATOM      8  O   UNL     1      15.773 -21.957  37.087  1.00  0.00    -0.550 OA
ENDBRANCH   5   6
ENDBRANCH   4   5
ENDBRANCH   3   4
ENDBRANCH   2   3
ENDBRANCH   1   2
BRANCH   1   9
ATOM      9  C   UNL     1      12.908 -21.887  41.793  1.00  0.00     0.000 C 
BRANCH   9  10
ATOM     10  C   UNL     1      11.371 -21.890  41.702  1.00  0.00    -0.000 C 
BRANCH  10  11
ATOM     11  C   UNL     1      10.793 -23.271  41.357  1.00  0.00    -0.000 C 
BRANCH  11  12
ATOM     12  C   UNL     1      10.231 -23.289  39.929  1.00  0.00    -0.000 C 
BRANCH  12  13
ATOM     13  C   UNL     1       9.520 -24.608  39.590  1.00  0.00    -0.003 C 
ATOM     14  C   UNL     1      10.462 -25.811  39.617  1.00  0.00     0.004 C 
ENDBRANCH  12  13
ENDBRANCH  11  12
ENDBRANCH  10  11
ENDBRANCH   9  10
ENDBRANCH   1   9
TORSDOF 10
ENDMDL
MODEL 9
REMARK VINA RESULT:    -3.785      2.467      4.689
REMARK INTER + INTRA:          -6.587
REMARK INTER:                  -5.294
REMARK INTRA:                  -1.293
REMARK UNBOUND:                -0.589
REMARK SMILES CCCCCCCCCCCC(=O)[O-]
REMARK SMILES IDX 7 1 8 2 9 3 10 4 11 5 12 6 13 7 14 8 6 9 5 10 4 11 3 12 2 13
REMARK SMILES IDX 1 14
REMARK H PARENT
REMARK Flexibility Score: inf
ROOT
ATOM      1  C   UNL     1       9.695 -24.215  40.002  1.00  0.00     0.000 C 
ENDROOT
BRANCH   1   2
ATOM      2  C   UNL     1      10.071 -25.363  40.959  1.00  0.00     0.000 C 
BRANCH   2   3
ATOM      3  C   UNL     1      11.427 -26.025  40.632  1.00  0.00     0.000 C 
BRANCH   3   4
ATOM      4  C   UNL     1      11.793 -25.913  39.145  1.00  0.00     0.006 C 
BRANCH   4   5
ATOM      5  C   UNL     1      13.285 -26.177  38.925  1.00  0.00     0.053 C 
BRANCH   5   6
ATOM      6  C   UNL     1      13.502 -26.926  37.648  1.00  0.00     0.041 C 
ATOM      7  O   UNL     1      14.059 -28.054  37.662  1.00  0.00    -0.550 OA
ATOM      8  O   UNL     1      13.135 -26.354  36.436  1.00  0.00    -0.550 OA
ENDBRANCH   5   6
ENDBRANCH   4   5
ENDBRANCH   3   4
ENDBRANCH   2   3
ENDBRANCH   1   2
BRANCH   1   9
ATOM      9  C   UNL     1       9.751 -22.806  40.621  1.00  0.00     0.000 C 
BRANCH   9  10
ATOM     10  C   UNL     1      11.171 -22.246  40.833  1.00  0.00    -0.000 C 
BRANCH  10  11
ATOM     11  C   UNL     1      11.591 -22.222  42.310  1.00  0.00    -0.000 C 
BRANCH  11  12
ATOM     12  C   UNL     1      13.091 -22.513  42.458  1.00  0.00    -0.000 C 
BRANCH  12  13
ATOM     13  C   UNL     1      13.694 -23.166  41.204  1.00  0.00    -0.003 C 
ATOM     14  C   UNL     1      14.897 -24.053  41.520  1.00  0.00     0.004 C 
ENDBRANCH  12  13
ENDBRANCH  11  12
ENDBRANCH  10  11
ENDBRANCH   9  10
ENDBRANCH   1   9
TORSDOF 10
ENDMDL
