MODEL 1
REMARK VINA RESULT:    -5.546      0.000      0.000
REMARK INTER + INTRA:          -6.963
REMARK INTER:                  -6.681
REMARK INTRA:                  -0.282
REMARK UNBOUND:                -0.282
REMARK SMILES O=c1c(O)c(-c2ccc(O)c(O)c2)oc2cc(O)cc(O)c12
REMARK SMILES IDX 5 1 3 2 2 3 1 4 22 5 20 6 19 7 17 8 16 9 15 10 14 11 6 12
REMARK SMILES IDX 7 13 8 14 9 15 13 16 11 17 10 18 12 20 4 22 21 24 18 26
REMARK H PARENT 10 19 12 21 4 23 21 25 18 27
REMARK Flexibility Score: inf
ROOT
ATOM      1  C   UNL     1     -17.030  24.874  -7.747  1.00  0.00     0.180 A 
ATOM      2  C   UNL     1     -17.548  23.608  -8.073  1.00  0.00     0.208 A 
ATOM      3  C   UNL     1     -16.672  22.612  -8.535  1.00  0.00     0.238 A 
ATOM      4  O   UNL     1     -17.134  21.466  -8.774  1.00  0.00    -0.285 OA
ATOM      5  C   UNL     1     -15.293  22.898  -8.678  1.00  0.00     0.111 A 
ATOM      6  C   UNL     1     -14.322  21.977  -9.175  1.00  0.00     0.134 A 
ATOM      7  C   UNL     1     -12.966  22.324  -9.152  1.00  0.00     0.093 A 
ATOM      8  C   UNL     1     -12.551  23.581  -8.712  1.00  0.00     0.123 A 
ATOM      9  C   UNL     1     -13.498  24.511  -8.280  1.00  0.00     0.094 A 
ATOM     10  C   UNL     1     -14.855  24.181  -8.258  1.00  0.00     0.146 A 
ATOM     11  O   UNL     1     -15.722  25.091  -7.829  1.00  0.00    -0.452 OA
ENDROOT
BRANCH   1  12
ATOM     12  C   UNL     1     -17.893  25.982  -7.279  1.00  0.00     0.025 A 
ATOM     13  C   UNL     1     -17.851  26.368  -5.931  1.00  0.00     0.016 A 
ATOM     14  C   UNL     1     -18.641  27.423  -5.474  1.00  0.00     0.051 A 
ATOM     15  C   UNL     1     -19.478  28.122  -6.351  1.00  0.00     0.157 A 
ATOM     16  C   UNL     1     -18.715  26.696  -8.167  1.00  0.00     0.062 A 
ATOM     17  C   UNL     1     -19.510  27.758  -7.717  1.00  0.00     0.158 A 
BRANCH  15  18
ATOM     18  O   UNL     1     -20.248  29.162  -5.828  1.00  0.00    -0.504 OA
ATOM     19  H   UNL     1     -21.020  29.594  -6.316  1.00  0.00     0.293 HD
ENDBRANCH  15  18
BRANCH  17  20
ATOM     20  O   UNL     1     -20.303  28.421  -8.656  1.00  0.00    -0.504 OA
ATOM     21  H   UNL     1     -20.971  29.141  -8.422  1.00  0.00     0.293 HD
ENDBRANCH  17  20
ENDBRANCH   1  12
BRANCH   2  22
ATOM     22  O   UNL     1     -18.909  23.341  -7.903  1.00  0.00    -0.502 OA
ATOM     23  H   UNL     1     -19.296  23.034  -7.020  1.00  0.00     0.293 HD
ENDBRANCH   2  22
BRANCH   6  24
ATOM     24  O   UNL     1     -14.637  20.731  -9.724  1.00  0.00    -0.507 OA
ATOM     25  H   UNL     1     -14.509  20.481 -10.693  1.00  0.00     0.293 HD
ENDBRANCH   6  24
BRANCH   8  26
ATOM     26  O   UNL     1     -11.195  23.898  -8.717  1.00  0.00    -0.508 OA
ATOM     27  H   UNL     1     -10.487  23.196  -8.898  1.00  0.00     0.293 HD
ENDBRANCH   8  26
TORSDOF 6
ENDMDL
MODEL 2
REMARK VINA RESULT:    -5.489      2.839      5.881
REMARK INTER + INTRA:          -6.894
REMARK INTER:                  -6.769
REMARK INTRA:                  -0.124
REMARK UNBOUND:                -0.282
REMARK SMILES O=c1c(O)c(-c2ccc(O)c(O)c2)oc2cc(O)cc(O)c12
REMARK SMILES IDX 5 1 3 2 2 3 1 4 22 5 20 6 19 7 17 8 16 9 15 10 14 11 6 12
REMARK SMILES IDX 7 13 8 14 9 15 13 16 11 17 10 18 12 20 4 22 21 24 18 26
REMARK H PARENT 10 19 12 21 4 23 21 25 18 27
REMARK Flexibility Score: inf
ROOT
ATOM      1  C   UNL     1     -12.319  23.825  -8.507  1.00  0.00     0.180 A 
ATOM      2  C   UNL     1     -11.478  24.890  -8.874  1.00  0.00     0.208 A 
ATOM      3  C   UNL     1     -10.088  24.690  -8.876  1.00  0.00     0.238 A 
ATOM      4  O   UNL     1      -9.343  25.630  -9.257  1.00  0.00    -0.285 OA
ATOM      5  C   UNL     1      -9.556  23.434  -8.497  1.00  0.00     0.111 A 
ATOM      6  C   UNL     1      -8.163  23.132  -8.424  1.00  0.00     0.134 A 
ATOM      7  C   UNL     1      -7.753  21.819  -8.162  1.00  0.00     0.093 A 
ATOM      8  C   UNL     1      -8.683  20.812  -7.908  1.00  0.00     0.123 A 
ATOM      9  C   UNL     1     -10.047  21.109  -7.917  1.00  0.00     0.094 A 
ATOM     10  C   UNL     1     -10.487  22.402  -8.210  1.00  0.00     0.146 A 
ATOM     11  O   UNL     1     -11.793  22.640  -8.221  1.00  0.00    -0.452 OA
ENDROOT
BRANCH   1  12
ATOM     12  C   UNL     1     -13.792  23.966  -8.457  1.00  0.00     0.025 A 
ATOM     13  C   UNL     1     -14.595  23.092  -9.202  1.00  0.00     0.016 A 
ATOM     14  C   UNL     1     -15.986  23.195  -9.152  1.00  0.00     0.051 A 
ATOM     15  C   UNL     1     -16.604  24.161  -8.350  1.00  0.00     0.157 A 
ATOM     16  C   UNL     1     -14.408  24.923  -7.632  1.00  0.00     0.062 A 
ATOM     17  C   UNL     1     -15.804  25.032  -7.574  1.00  0.00     0.158 A 
BRANCH  15  18
ATOM     18  O   UNL     1     -17.998  24.216  -8.351  1.00  0.00    -0.504 OA
ATOM     19  H   UNL     1     -18.590  23.566  -7.852  1.00  0.00     0.293 HD
ENDBRANCH  15  18
BRANCH  17  20
ATOM     20  O   UNL     1     -16.347  26.006  -6.734  1.00  0.00    -0.504 OA
ATOM     21  H   UNL     1     -16.322  26.997  -6.929  1.00  0.00     0.293 HD
ENDBRANCH  17  20
ENDBRANCH   1  12
BRANCH   2  22
ATOM     22  O   UNL     1     -12.024  26.115  -9.266  1.00  0.00    -0.502 OA
ATOM     23  H   UNL     1     -12.281  26.314 -10.225  1.00  0.00     0.293 HD
ENDBRANCH   2  22
BRANCH   6  24
ATOM     24  O   UNL     1      -7.149  24.084  -8.570  1.00  0.00    -0.507 OA
ATOM     25  H   UNL     1      -7.204  24.893  -9.171  1.00  0.00     0.293 HD
ENDBRANCH   6  24
BRANCH   8  26
ATOM     26  O   UNL     1      -8.239  19.520  -7.636  1.00  0.00    -0.508 OA
ATOM     27  H   UNL     1      -7.904  19.257  -6.717  1.00  0.00     0.293 HD
ENDBRANCH   8  26
TORSDOF 6
ENDMDL
MODEL 3
REMARK VINA RESULT:    -5.385      1.278      1.881
REMARK INTER + INTRA:          -6.769
REMARK INTER:                  -6.447
REMARK INTRA:                  -0.322
REMARK UNBOUND:                -0.282
REMARK SMILES O=c1c(O)c(-c2ccc(O)c(O)c2)oc2cc(O)cc(O)c12
REMARK SMILES IDX 5 1 3 2 2 3 1 4 22 5 20 6 19 7 17 8 16 9 15 10 14 11 6 12
REMARK SMILES IDX 7 13 8 14 9 15 13 16 11 17 10 18 12 20 4 22 21 24 18 26
REMARK H PARENT 10 19 12 21 4 23 21 25 18 27
REMARK Flexibility Score: inf
ROOT
ATOM      1  C   UNL     1     -16.441  24.742  -8.139  1.00  0.00     0.180 A 
ATOM      2  C   UNL     1     -16.567  23.420  -8.599  1.00  0.00     0.208 A 
ATOM      3  C   UNL     1     -15.407  22.701  -8.931  1.00  0.00     0.238 A 
ATOM      4  O   UNL     1     -15.523  21.500  -9.291  1.00  0.00    -0.285 OA
ATOM      5  C   UNL     1     -14.138  23.317  -8.813  1.00  0.00     0.111 A 
ATOM      6  C   UNL     1     -12.900  22.697  -9.159  1.00  0.00     0.134 A 
ATOM      7  C   UNL     1     -11.696  23.355  -8.880  1.00  0.00     0.093 A 
ATOM      8  C   UNL     1     -11.685  24.634  -8.327  1.00  0.00     0.123 A 
ATOM      9  C   UNL     1     -12.892  25.275  -8.040  1.00  0.00     0.094 A 
ATOM     10  C   UNL     1     -14.109  24.630  -8.274  1.00  0.00     0.146 A 
ATOM     11  O   UNL     1     -15.234  25.270  -7.976  1.00  0.00    -0.452 OA
ENDROOT
BRANCH   1  12
ATOM     12  C   UNL     1     -17.618  25.571  -7.794  1.00  0.00     0.025 A 
ATOM     13  C   UNL     1     -18.269  26.299  -8.800  1.00  0.00     0.016 A 
ATOM     14  C   UNL     1     -19.392  27.071  -8.500  1.00  0.00     0.051 A 
ATOM     15  C   UNL     1     -19.897  27.122  -7.196  1.00  0.00     0.157 A 
ATOM     16  C   UNL     1     -18.135  25.602  -6.487  1.00  0.00     0.062 A 
ATOM     17  C   UNL     1     -19.263  26.372  -6.177  1.00  0.00     0.158 A 
BRANCH  15  18
ATOM     18  O   UNL     1     -21.018  27.919  -6.961  1.00  0.00    -0.504 OA
ATOM     19  H   UNL     1     -21.668  28.206  -7.679  1.00  0.00     0.293 HD
ENDBRANCH  15  18
BRANCH  17  20
ATOM     20  O   UNL     1     -19.720  26.357  -4.858  1.00  0.00    -0.504 OA
ATOM     21  H   UNL     1     -20.665  26.122  -4.590  1.00  0.00     0.293 HD
ENDBRANCH  17  20
ENDBRANCH   1  12
BRANCH   2  22
ATOM     22  O   UNL     1     -17.827  22.823  -8.687  1.00  0.00    -0.502 OA
ATOM     23  H   UNL     1     -18.122  22.290  -9.496  1.00  0.00     0.293 HD
ENDBRANCH   2  22
BRANCH   6  24
ATOM     24  O   UNL     1     -12.800  21.459  -9.801  1.00  0.00    -0.507 OA
ATOM     25  H   UNL     1     -12.680  21.335 -10.795  1.00  0.00     0.293 HD
ENDBRANCH   6  24
BRANCH   8  26
ATOM     26  O   UNL     1     -10.470  25.265  -8.076  1.00  0.00    -0.508 OA
ATOM     27  H   UNL     1     -10.059  25.276  -7.150  1.00  0.00     0.293 HD
ENDBRANCH   8  26
TORSDOF 6
ENDMDL
MODEL 4
REMARK VINA RESULT:    -5.353      4.256      9.870
REMARK INTER + INTRA:          -6.730
REMARK INTER:                  -6.429
REMARK INTRA:                  -0.301
REMARK UNBOUND:                -0.282
REMARK SMILES O=c1c(O)c(-c2ccc(O)c(O)c2)oc2cc(O)cc(O)c12
REMARK SMILES IDX 5 1 3 2 2 3 1 4 22 5 20 6 19 7 17 8 16 9 15 10 14 11 6 12
REMARK SMILES IDX 7 13 8 14 9 15 13 16 11 17 10 18 12 20 4 22 21 24 18 26
REMARK H PARENT 10 19 12 21 4 23 21 25 18 27
REMARK Flexibility Score: inf
ROOT
ATOM      1  C   UNL     1      -9.765  22.045  -8.039  1.00  0.00     0.180 A 
ATOM      2  C   UNL     1      -9.236  23.304  -8.370  1.00  0.00     0.208 A 
ATOM      3  C   UNL     1     -10.117  24.347  -8.702  1.00  0.00     0.238 A 
ATOM      4  O   UNL     1      -9.640  25.486  -8.944  1.00  0.00    -0.285 OA
ATOM      5  C   UNL     1     -11.513  24.113  -8.714  1.00  0.00     0.111 A 
ATOM      6  C   UNL     1     -12.494  25.085  -9.074  1.00  0.00     0.134 A 
ATOM      7  C   UNL     1     -13.854  24.782  -8.925  1.00  0.00     0.093 A 
ATOM      8  C   UNL     1     -14.268  23.523  -8.492  1.00  0.00     0.123 A 
ATOM      9  C   UNL     1     -13.317  22.545  -8.195  1.00  0.00     0.094 A 
ATOM     10  C   UNL     1     -11.954  22.829  -8.299  1.00  0.00     0.146 A 
ATOM     11  O   UNL     1     -11.082  21.875  -7.995  1.00  0.00    -0.452 OA
ENDROOT
BRANCH   1  12
ATOM     12  C   UNL     1      -8.901  20.891  -7.703  1.00  0.00     0.025 A 
ATOM     13  C   UNL     1      -8.295  20.158  -8.734  1.00  0.00     0.016 A 
ATOM     14  C   UNL     1      -7.461  19.080  -8.438  1.00  0.00     0.051 A 
ATOM     15  C   UNL     1      -7.202  18.718  -7.111  1.00  0.00     0.157 A 
ATOM     16  C   UNL     1      -8.626  20.545  -6.368  1.00  0.00     0.062 A 
ATOM     17  C   UNL     1      -7.788  19.465  -6.063  1.00  0.00     0.158 A 
BRANCH  15  18
ATOM     18  O   UNL     1      -6.365  17.625  -6.884  1.00  0.00    -0.504 OA
ATOM     19  H   UNL     1      -6.446  17.007  -6.089  1.00  0.00     0.293 HD
ENDBRANCH  15  18
BRANCH  17  20
ATOM     20  O   UNL     1      -7.561  19.179  -4.715  1.00  0.00    -0.504 OA
ATOM     21  H   UNL     1      -7.325  18.262  -4.365  1.00  0.00     0.293 HD
ENDBRANCH  17  20
ENDBRANCH   1  12
BRANCH   2  22
ATOM     22  O   UNL     1      -7.856  23.520  -8.330  1.00  0.00    -0.502 OA
ATOM     23  H   UNL     1      -7.300  23.335  -7.504  1.00  0.00     0.293 HD
ENDBRANCH   2  22
BRANCH   6  24
ATOM     24  O   UNL     1     -12.190  26.342  -9.605  1.00  0.00    -0.507 OA
ATOM     25  H   UNL     1     -11.817  26.500 -10.529  1.00  0.00     0.293 HD
ENDBRANCH   6  24
BRANCH   8  26
ATOM     26  O   UNL     1     -15.628  23.252  -8.370  1.00  0.00    -0.508 OA
ATOM     27  H   UNL     1     -16.269  23.925  -7.968  1.00  0.00     0.293 HD
ENDBRANCH   8  26
TORSDOF 6
ENDMDL
MODEL 5
REMARK VINA RESULT:    -5.166      1.646      6.679
REMARK INTER + INTRA:          -6.506
REMARK INTER:                  -6.381
REMARK INTRA:                  -0.125
REMARK UNBOUND:                -0.282
REMARK SMILES O=c1c(O)c(-c2ccc(O)c(O)c2)oc2cc(O)cc(O)c12
REMARK SMILES IDX 5 1 3 2 2 3 1 4 22 5 20 6 19 7 17 8 16 9 15 10 14 11 6 12
REMARK SMILES IDX 7 13 8 14 9 15 13 16 11 17 10 18 12 20 4 22 21 24 18 26
REMARK H PARENT 10 19 12 21 4 23 21 25 18 27
REMARK Flexibility Score: inf
ROOT
ATOM      1  C   UNL     1     -14.973  24.218  -8.260  1.00  0.00     0.180 A 
ATOM      2  C   UNL     1     -15.866  23.576  -9.136  1.00  0.00     0.208 A 
ATOM      3  C   UNL     1     -17.240  23.849  -9.030  1.00  0.00     0.238 A 
ATOM      4  O   UNL     1     -18.027  23.312  -9.852  1.00  0.00    -0.285 OA
ATOM      5  C   UNL     1     -17.705  24.748  -8.040  1.00  0.00     0.111 A 
ATOM      6  C   UNL     1     -19.077  25.067  -7.816  1.00  0.00     0.134 A 
ATOM      7  C   UNL     1     -19.413  26.068  -6.896  1.00  0.00     0.093 A 
ATOM      8  C   UNL     1     -18.431  26.714  -6.145  1.00  0.00     0.123 A 
ATOM      9  C   UNL     1     -17.090  26.367  -6.313  1.00  0.00     0.094 A 
ATOM     10  C   UNL     1     -16.722  25.398  -7.249  1.00  0.00     0.146 A 
ATOM     11  O   UNL     1     -15.434  25.106  -7.386  1.00  0.00    -0.452 OA
ENDROOT
BRANCH   1  12
ATOM     12  C   UNL     1     -13.516  23.962  -8.294  1.00  0.00     0.025 A 
ATOM     13  C   UNL     1     -13.036  22.666  -8.056  1.00  0.00     0.016 A 
ATOM     14  C   UNL     1     -11.667  22.400  -8.104  1.00  0.00     0.051 A 
ATOM     15  C   UNL     1     -10.751  23.415  -8.402  1.00  0.00     0.157 A 
ATOM     16  C   UNL     1     -12.601  24.980  -8.616  1.00  0.00     0.062 A 
ATOM     17  C   UNL     1     -11.225  24.721  -8.668  1.00  0.00     0.158 A 
BRANCH  15  18
ATOM     18  O   UNL     1      -9.395  23.085  -8.426  1.00  0.00    -0.504 OA
ATOM     19  H   UNL     1      -8.820  23.120  -9.255  1.00  0.00     0.293 HD
ENDBRANCH  15  18
BRANCH  17  20
ATOM     20  O   UNL     1     -10.375  25.780  -8.992  1.00  0.00    -0.504 OA
ATOM     21  H   UNL     1      -9.379  25.684  -9.126  1.00  0.00     0.293 HD
ENDBRANCH  17  20
ENDBRANCH   1  12
BRANCH   2  22
ATOM     22  O   UNL     1     -15.384  22.709 -10.121  1.00  0.00    -0.502 OA
ATOM     23  H   UNL     1     -15.901  22.505 -10.967  1.00  0.00     0.293 HD
ENDBRANCH   2  22
BRANCH   6  24
ATOM     24  O   UNL     1     -20.143  24.416  -8.446  1.00  0.00    -0.507 OA
ATOM     25  H   UNL     1     -20.653  24.782  -9.236  1.00  0.00     0.293 HD
ENDBRANCH   6  24
BRANCH   8  26
ATOM     26  O   UNL     1     -18.802  27.694  -5.228  1.00  0.00    -0.508 OA
ATOM     27  H   UNL     1     -19.057  27.459  -4.276  1.00  0.00     0.293 HD
ENDBRANCH   8  26
TORSDOF 6
ENDMDL
MODEL 6
REMARK VINA RESULT:    -5.147      6.112      9.204
REMARK INTER + INTRA:          -6.483
REMARK INTER:                  -6.433
REMARK INTRA:                  -0.050
REMARK UNBOUND:                -0.282
REMARK SMILES O=c1c(O)c(-c2ccc(O)c(O)c2)oc2cc(O)cc(O)c12
REMARK SMILES IDX 5 1 3 2 2 3 1 4 22 5 20 6 19 7 17 8 16 9 15 10 14 11 6 12
REMARK SMILES IDX 7 13 8 14 9 15 13 16 11 17 10 18 12 20 4 22 21 24 18 26
REMARK H PARENT 10 19 12 21 4 23 21 25 18 27
REMARK Flexibility Score: inf
ROOT
ATOM      1  C   UNL     1      -8.920  21.759  -7.682  1.00  0.00     0.180 A 
ATOM      2  C   UNL     1      -7.586  21.536  -8.062  1.00  0.00     0.208 A 
ATOM      3  C   UNL     1      -6.862  20.507  -7.436  1.00  0.00     0.238 A 
ATOM      4  O   UNL     1      -5.686  20.277  -7.819  1.00  0.00    -0.285 OA
ATOM      5  C   UNL     1      -7.477  19.726  -6.428  1.00  0.00     0.111 A 
ATOM      6  C   UNL     1      -6.827  18.686  -5.699  1.00  0.00     0.134 A 
ATOM      7  C   UNL     1      -7.569  17.892  -4.816  1.00  0.00     0.093 A 
ATOM      8  C   UNL     1      -8.921  18.142  -4.586  1.00  0.00     0.123 A 
ATOM      9  C   UNL     1      -9.553  19.196  -5.248  1.00  0.00     0.094 A 
ATOM     10  C   UNL     1      -8.848  19.982  -6.163  1.00  0.00     0.146 A 
ATOM     11  O   UNL     1      -9.489  20.967  -6.780  1.00  0.00    -0.452 OA
ENDROOT
BRANCH   1  12
ATOM     12  C   UNL     1      -9.739  22.840  -8.277  1.00  0.00     0.025 A 
ATOM     13  C   UNL     1      -9.265  24.159  -8.250  1.00  0.00     0.016 A 
ATOM     14  C   UNL     1     -10.012  25.190  -8.824  1.00  0.00     0.051 A 
ATOM     15  C   UNL     1     -11.236  24.924  -9.447  1.00  0.00     0.157 A 
ATOM     16  C   UNL     1     -10.957  22.565  -8.922  1.00  0.00     0.062 A 
ATOM     17  C   UNL     1     -11.711  23.593  -9.503  1.00  0.00     0.158 A 
BRANCH  15  18
ATOM     18  O   UNL     1     -11.937  26.000  -9.995  1.00  0.00    -0.504 OA
ATOM     19  H   UNL     1     -12.928  26.151  -9.870  1.00  0.00     0.293 HD
ENDBRANCH  15  18
BRANCH  17  20
ATOM     20  O   UNL     1     -12.913  23.247 -10.125  1.00  0.00    -0.504 OA
ATOM     21  H   UNL     1     -13.790  23.719  -9.961  1.00  0.00     0.293 HD
ENDBRANCH  17  20
ENDBRANCH   1  12
BRANCH   2  22
ATOM     22  O   UNL     1      -7.005  22.303  -9.075  1.00  0.00    -0.502 OA
ATOM     23  H   UNL     1      -6.085  22.716  -8.985  1.00  0.00     0.293 HD
ENDBRANCH   2  22
BRANCH   6  24
ATOM     24  O   UNL     1      -5.458  18.411  -5.785  1.00  0.00    -0.507 OA
ATOM     25  H   UNL     1      -4.840  18.324  -4.992  1.00  0.00     0.293 HD
ENDBRANCH   6  24
BRANCH   8  26
ATOM     26  O   UNL     1      -9.625  17.343  -3.690  1.00  0.00    -0.508 OA
ATOM     27  H   UNL     1     -10.092  16.495  -3.988  1.00  0.00     0.293 HD
ENDBRANCH   8  26
TORSDOF 6
ENDMDL
MODEL 7
REMARK VINA RESULT:    -5.139      1.855      7.163
REMARK INTER + INTRA:          -6.472
REMARK INTER:                  -6.190
REMARK INTRA:                  -0.282
REMARK UNBOUND:                -0.282
REMARK SMILES O=c1c(O)c(-c2ccc(O)c(O)c2)oc2cc(O)cc(O)c12
REMARK SMILES IDX 5 1 3 2 2 3 1 4 22 5 20 6 19 7 17 8 16 9 15 10 14 11 6 12
REMARK SMILES IDX 7 13 8 14 9 15 13 16 11 17 10 18 12 20 4 22 21 24 18 26
REMARK H PARENT 10 19 12 21 4 23 21 25 18 27
REMARK Flexibility Score: inf
ROOT
ATOM      1  C   UNL     1     -14.145  22.883  -8.901  1.00  0.00     0.180 A 
ATOM      2  C   UNL     1     -15.025  21.880  -9.343  1.00  0.00     0.208 A 
ATOM      3  C   UNL     1     -16.406  22.056  -9.161  1.00  0.00     0.238 A 
ATOM      4  O   UNL     1     -17.191  21.179  -9.606  1.00  0.00    -0.285 OA
ATOM      5  C   UNL     1     -16.890  23.225  -8.525  1.00  0.00     0.111 A 
ATOM      6  C   UNL     1     -18.265  23.489  -8.252  1.00  0.00     0.134 A 
ATOM      7  C   UNL     1     -18.640  24.736  -7.736  1.00  0.00     0.093 A 
ATOM      8  C   UNL     1     -17.685  25.702  -7.423  1.00  0.00     0.123 A 
ATOM      9  C   UNL     1     -16.332  25.432  -7.630  1.00  0.00     0.094 A 
ATOM     10  C   UNL     1     -15.930  24.211  -8.177  1.00  0.00     0.146 A 
ATOM     11  O   UNL     1     -14.633  23.998  -8.369  1.00  0.00    -0.452 OA
ENDROOT
BRANCH   1  12
ATOM     12  C   UNL     1     -12.676  22.758  -9.036  1.00  0.00     0.025 A 
ATOM     13  C   UNL     1     -12.001  23.537  -9.987  1.00  0.00     0.016 A 
ATOM     14  C   UNL     1     -10.614  23.449 -10.116  1.00  0.00     0.051 A 
ATOM     15  C   UNL     1      -9.872  22.596  -9.291  1.00  0.00     0.157 A 
ATOM     16  C   UNL     1     -11.932  21.917  -8.190  1.00  0.00     0.062 A 
ATOM     17  C   UNL     1     -10.539  21.825  -8.311  1.00  0.00     0.158 A 
BRANCH  15  18
ATOM     18  O   UNL     1      -8.490  22.550  -9.477  1.00  0.00    -0.504 OA
ATOM     19  H   UNL     1      -7.960  23.263  -9.957  1.00  0.00     0.293 HD
ENDBRANCH  15  18
BRANCH  17  20
ATOM     20  O   UNL     1      -9.866  20.968  -7.439  1.00  0.00    -0.504 OA
ATOM     21  H   UNL     1      -9.052  20.427  -7.695  1.00  0.00     0.293 HD
ENDBRANCH  17  20
ENDBRANCH   1  12
BRANCH   2  22
ATOM     22  O   UNL     1     -14.528  20.743  -9.988  1.00  0.00    -0.502 OA
ATOM     23  H   UNL     1     -13.902  20.091  -9.534  1.00  0.00     0.293 HD
ENDBRANCH   2  22
BRANCH   6  24
ATOM     24  O   UNL     1     -19.291  22.558  -8.440  1.00  0.00    -0.507 OA
ATOM     25  H   UNL     1     -19.885  22.516  -9.255  1.00  0.00     0.293 HD
ENDBRANCH   6  24
BRANCH   8  26
ATOM     26  O   UNL     1     -18.092  26.925  -6.897  1.00  0.00    -0.508 OA
ATOM     27  H   UNL     1     -18.063  27.776  -7.447  1.00  0.00     0.293 HD
ENDBRANCH   8  26
TORSDOF 6
ENDMDL
MODEL 8
REMARK VINA RESULT:    -5.083      2.235      7.413
REMARK INTER + INTRA:          -6.405
REMARK INTER:                  -6.306
REMARK INTRA:                  -0.099
REMARK UNBOUND:                -0.282
REMARK SMILES O=c1c(O)c(-c2ccc(O)c(O)c2)oc2cc(O)cc(O)c12
REMARK SMILES IDX 5 1 3 2 2 3 1 4 22 5 20 6 19 7 17 8 16 9 15 10 14 11 6 12
REMARK SMILES IDX 7 13 8 14 9 15 13 16 11 17 10 18 12 20 4 22 21 24 18 26
REMARK H PARENT 10 19 12 21 4 23 21 25 18 27
REMARK Flexibility Score: inf
ROOT
ATOM      1  C   UNL     1     -12.677  23.503  -8.839  1.00  0.00     0.180 A 
ATOM      2  C   UNL     1     -13.231  22.369  -9.458  1.00  0.00     0.208 A 
ATOM      3  C   UNL     1     -14.624  22.189  -9.428  1.00  0.00     0.238 A 
ATOM      4  O   UNL     1     -15.118  21.200 -10.030  1.00  0.00    -0.285 OA
ATOM      5  C   UNL     1     -15.443  23.136  -8.767  1.00  0.00     0.111 A 
ATOM      6  C   UNL     1     -16.861  23.033  -8.640  1.00  0.00     0.134 A 
ATOM      7  C   UNL     1     -17.583  24.093  -8.079  1.00  0.00     0.093 A 
ATOM      8  C   UNL     1     -16.935  25.223  -7.582  1.00  0.00     0.123 A 
ATOM      9  C   UNL     1     -15.543  25.308  -7.646  1.00  0.00     0.094 A 
ATOM     10  C   UNL     1     -14.798  24.282  -8.233  1.00  0.00     0.146 A 
ATOM     11  O   UNL     1     -13.477  24.407  -8.285  1.00  0.00    -0.452 OA
ENDROOT
BRANCH   1  12
ATOM     12  C   UNL     1     -11.218  23.749  -8.807  1.00  0.00     0.025 A 
ATOM     13  C   UNL     1     -10.713  24.972  -9.273  1.00  0.00     0.016 A 
ATOM     14  C   UNL     1      -9.342  25.231  -9.232  1.00  0.00     0.051 A 
ATOM     15  C   UNL     1      -8.450  24.285  -8.715  1.00  0.00     0.157 A 
ATOM     16  C   UNL     1     -10.328  22.805  -8.266  1.00  0.00     0.062 A 
ATOM     17  C   UNL     1      -8.951  23.059  -8.219  1.00  0.00     0.158 A 
BRANCH  15  18
ATOM     18  O   UNL     1      -7.092  24.604  -8.710  1.00  0.00    -0.504 OA
ATOM     19  H   UNL     1      -6.351  23.921  -8.786  1.00  0.00     0.293 HD
ENDBRANCH  15  18
BRANCH  17  20
ATOM     20  O   UNL     1      -8.126  22.075  -7.670  1.00  0.00    -0.504 OA
ATOM     21  H   UNL     1      -7.125  22.165  -7.577  1.00  0.00     0.293 HD
ENDBRANCH  17  20
ENDBRANCH   1  12
BRANCH   2  22
ATOM     22  O   UNL     1     -12.407  21.458 -10.124  1.00  0.00    -0.502 OA
ATOM     23  H   UNL     1     -11.744  21.743 -10.834  1.00  0.00     0.293 HD
ENDBRANCH   2  22
BRANCH   6  24
ATOM     24  O   UNL     1     -17.599  21.908  -9.020  1.00  0.00    -0.507 OA
ATOM     25  H   UNL     1     -18.603  21.884  -9.114  1.00  0.00     0.293 HD
ENDBRANCH   6  24
BRANCH   8  26
ATOM     26  O   UNL     1     -17.683  26.251  -7.016  1.00  0.00    -0.508 OA
ATOM     27  H   UNL     1     -17.244  27.009  -6.506  1.00  0.00     0.293 HD
ENDBRANCH   8  26
TORSDOF 6
ENDMDL
MODEL 9
REMARK VINA RESULT:    -4.999      2.435      6.575
REMARK INTER + INTRA:          -6.303
REMARK INTER:                  -6.260
REMARK INTRA:                  -0.044
REMARK UNBOUND:                -0.282
REMARK SMILES O=c1c(O)c(-c2ccc(O)c(O)c2)oc2cc(O)cc(O)c12
REMARK SMILES IDX 5 1 3 2 2 3 1 4 22 5 20 6 19 7 17 8 16 9 15 10 14 11 6 12
REMARK SMILES IDX 7 13 8 14 9 15 13 16 11 17 10 18 12 20 4 22 21 24 18 26
REMARK H PARENT 10 19 12 21 4 23 21 25 18 27
REMARK Flexibility Score: inf
ROOT
ATOM      1  C   UNL     1     -16.887  23.766  -8.543  1.00  0.00     0.180 A 
ATOM      2  C   UNL     1     -17.660  24.858  -8.114  1.00  0.00     0.208 A 
ATOM      3  C   UNL     1     -19.059  24.787  -8.217  1.00  0.00     0.238 A 
ATOM      4  O   UNL     1     -19.747  25.746  -7.781  1.00  0.00    -0.285 OA
ATOM      5  C   UNL     1     -19.667  23.630  -8.763  1.00  0.00     0.111 A 
ATOM      6  C   UNL     1     -21.071  23.465  -8.953  1.00  0.00     0.134 A 
ATOM      7  C   UNL     1     -21.570  22.229  -9.381  1.00  0.00     0.093 A 
ATOM      8  C   UNL     1     -20.713  21.173  -9.687  1.00  0.00     0.123 A 
ATOM      9  C   UNL     1     -19.333  21.343  -9.563  1.00  0.00     0.094 A 
ATOM     10  C   UNL     1     -18.808  22.553  -9.104  1.00  0.00     0.146 A 
ATOM     11  O   UNL     1     -17.490  22.669  -8.989  1.00  0.00    -0.452 OA
ENDROOT
BRANCH   1  12
ATOM     12  C   UNL     1     -15.408  23.777  -8.489  1.00  0.00     0.025 A 
ATOM     13  C   UNL     1     -14.730  22.690  -7.920  1.00  0.00     0.016 A 
ATOM     14  C   UNL     1     -13.335  22.671  -7.878  1.00  0.00     0.051 A 
ATOM     15  C   UNL     1     -12.589  23.728  -8.413  1.00  0.00     0.157 A 
ATOM     16  C   UNL     1     -14.662  24.829  -9.049  1.00  0.00     0.062 A 
ATOM     17  C   UNL     1     -13.262  24.817  -9.012  1.00  0.00     0.158 A 
BRANCH  15  18
ATOM     18  O   UNL     1     -11.198  23.651  -8.332  1.00  0.00    -0.504 OA
ATOM     19  H   UNL     1     -10.662  22.832  -8.580  1.00  0.00     0.293 HD
ENDBRANCH  15  18
BRANCH  17  20
ATOM     20  O   UNL     1     -12.587  25.897  -9.586  1.00  0.00    -0.504 OA
ATOM     21  H   UNL     1     -13.027  26.773  -9.827  1.00  0.00     0.293 HD
ENDBRANCH  17  20
ENDBRANCH   1  12
BRANCH   2  22
ATOM     22  O   UNL     1     -17.042  25.981  -7.557  1.00  0.00    -0.502 OA
ATOM     23  H   UNL     1     -16.892  26.835  -8.081  1.00  0.00     0.293 HD
ENDBRANCH   2  22
BRANCH   6  24
ATOM     24  O   UNL     1     -22.009  24.485  -8.764  1.00  0.00    -0.507 OA
ATOM     25  H   UNL     1     -22.363  24.781  -7.867  1.00  0.00     0.293 HD
ENDBRANCH   6  24
BRANCH   8  26
ATOM     26  O   UNL     1     -21.243  19.963 -10.125  1.00  0.00    -0.508 OA
ATOM     27  H   UNL     1     -21.670  19.307  -9.481  1.00  0.00     0.293 HD
ENDBRANCH   8  26
TORSDOF 6
ENDMDL
