MODEL 1
REMARK VINA RESULT:    -5.756      0.000      0.000
REMARK INTER + INTRA:          -6.955
REMARK INTER:                  -6.765
REMARK INTRA:                  -0.190
REMARK UNBOUND:                -0.190
REMARK SMILES O=c1c(O)c(-c2ccc(O)cc2)oc2cc(O)cc(O)c12
REMARK SMILES IDX 5 1 3 2 2 3 1 4 21 5 19 6 18 7 16 8 15 9 14 10 13 11 6 12
REMARK SMILES IDX 7 13 8 14 9 15 12 16 11 17 10 18 4 20 20 22 17 24
REMARK H PARENT 10 19 4 21 20 23 17 25
REMARK Flexibility Score: inf
ROOT
ATOM      1  C   UNL     1      19.972  30.387  28.918  1.00  0.00     0.180 A 
ATOM      2  C   UNL     1      21.035  29.862  29.674  1.00  0.00     0.208 A 
ATOM      3  C   UNL     1      21.957  29.007  29.051  1.00  0.00     0.238 A 
ATOM      4  O   UNL     1      22.874  28.497  29.747  1.00  0.00    -0.285 OA
ATOM      5  C   UNL     1      21.817  28.700  27.676  1.00  0.00     0.111 A 
ATOM      6  C   UNL     1      22.716  27.878  26.933  1.00  0.00     0.134 A 
ATOM      7  C   UNL     1      22.407  27.536  25.611  1.00  0.00     0.093 A 
ATOM      8  C   UNL     1      21.268  28.039  24.984  1.00  0.00     0.123 A 
ATOM      9  C   UNL     1      20.412  28.892  25.683  1.00  0.00     0.094 A 
ATOM     10  C   UNL     1      20.675  29.222  27.015  1.00  0.00     0.146 A 
ATOM     11  O   UNL     1      19.830  30.028  27.647  1.00  0.00    -0.452 OA
ENDROOT
BRANCH   1  12
ATOM     12  C   UNL     1      18.974  31.315  29.497  1.00  0.00     0.021 A 
ATOM     13  C   UNL     1      18.933  32.671  29.125  1.00  0.00     0.016 A 
ATOM     14  C   UNL     1      17.966  33.523  29.669  1.00  0.00     0.047 A 
ATOM     15  C   UNL     1      17.021  33.027  30.577  1.00  0.00     0.115 A 
ATOM     16  C   UNL     1      18.011  30.822  30.393  1.00  0.00     0.016 A 
ATOM     17  C   UNL     1      17.045  31.677  30.934  1.00  0.00     0.047 A 
BRANCH  15  18
ATOM     18  O   UNL     1      16.053  33.867  31.125  1.00  0.00    -0.508 OA
ATOM     19  H   UNL     1      16.131  34.216  32.073  1.00  0.00     0.293 HD
ENDBRANCH  15  18
ENDBRANCH   1  12
BRANCH   2  20
ATOM     20  O   UNL     1      21.142  30.160  31.035  1.00  0.00    -0.502 OA
ATOM     21  H   UNL     1      20.509  29.777  31.727  1.00  0.00     0.293 HD
ENDBRANCH   2  20
BRANCH   6  22
ATOM     22  O   UNL     1      23.930  27.397  27.435  1.00  0.00    -0.507 OA
ATOM     23  H   UNL     1      24.109  27.193  28.406  1.00  0.00     0.293 HD
ENDBRANCH   6  22
BRANCH   8  24
ATOM     24  O   UNL     1      21.000  27.691  23.662  1.00  0.00    -0.508 OA
ATOM     25  H   UNL     1      20.303  28.183  23.115  1.00  0.00     0.293 HD
ENDBRANCH   8  24
TORSDOF 5
ENDMDL
MODEL 2
REMARK VINA RESULT:    -5.753      5.626      8.762
REMARK INTER + INTRA:          -6.951
REMARK INTER:                  -6.660
REMARK INTRA:                  -0.292
REMARK UNBOUND:                -0.190
REMARK SMILES O=c1c(O)c(-c2ccc(O)cc2)oc2cc(O)cc(O)c12
REMARK SMILES IDX 5 1 3 2 2 3 1 4 21 5 19 6 18 7 16 8 15 9 14 10 13 11 6 12
REMARK SMILES IDX 7 13 8 14 9 15 12 16 11 17 10 18 4 20 20 22 17 24
REMARK H PARENT 10 19 4 21 20 23 17 25
REMARK Flexibility Score: inf
ROOT
ATOM      1  C   UNL     1      22.511  29.302  21.277  1.00  0.00     0.180 A 
ATOM      2  C   UNL     1      23.321  28.263  20.785  1.00  0.00     0.208 A 
ATOM      3  C   UNL     1      23.442  28.092  19.398  1.00  0.00     0.238 A 
ATOM      4  O   UNL     1      24.125  27.127  18.965  1.00  0.00    -0.285 OA
ATOM      5  C   UNL     1      22.766  28.971  18.517  1.00  0.00     0.111 A 
ATOM      6  C   UNL     1      22.850  28.915  17.094  1.00  0.00     0.134 A 
ATOM      7  C   UNL     1      22.036  29.752  16.320  1.00  0.00     0.093 A 
ATOM      8  C   UNL     1      21.191  30.686  16.917  1.00  0.00     0.123 A 
ATOM      9  C   UNL     1      21.145  30.790  18.308  1.00  0.00     0.094 A 
ATOM     10  C   UNL     1      21.918  29.944  19.106  1.00  0.00     0.146 A 
ATOM     11  O   UNL     1      21.837  30.068  20.426  1.00  0.00    -0.452 OA
ENDROOT
BRANCH   1  12
ATOM     12  C   UNL     1      22.353  29.562  22.725  1.00  0.00     0.021 A 
ATOM     13  C   UNL     1      23.175  30.484  23.398  1.00  0.00     0.016 A 
ATOM     14  C   UNL     1      22.991  30.730  24.763  1.00  0.00     0.047 A 
ATOM     15  C   UNL     1      21.977  30.069  25.467  1.00  0.00     0.115 A 
ATOM     16  C   UNL     1      21.325  28.919  23.435  1.00  0.00     0.016 A 
ATOM     17  C   UNL     1      21.144  29.167  24.800  1.00  0.00     0.047 A 
BRANCH  15  18
ATOM     18  O   UNL     1      21.785  30.306  26.827  1.00  0.00    -0.508 OA
ATOM     19  H   UNL     1      20.856  30.382  27.226  1.00  0.00     0.293 HD
ENDBRANCH  15  18
ENDBRANCH   1  12
BRANCH   2  20
ATOM     20  O   UNL     1      23.961  27.394  21.672  1.00  0.00    -0.502 OA
ATOM     21  H   UNL     1      23.728  26.410  21.733  1.00  0.00     0.293 HD
ENDBRANCH   2  20
BRANCH   6  22
ATOM     22  O   UNL     1      23.730  28.082  16.395  1.00  0.00    -0.507 OA
ATOM     23  H   UNL     1      24.239  28.350  15.567  1.00  0.00     0.293 HD
ENDBRANCH   6  22
BRANCH   8  24
ATOM     24  O   UNL     1      20.407  31.514  16.117  1.00  0.00    -0.508 OA
ATOM     25  H   UNL     1      20.371  32.516  16.264  1.00  0.00     0.293 HD
ENDBRANCH   8  24
TORSDOF 5
ENDMDL
MODEL 3
REMARK VINA RESULT:    -5.700      5.591      8.765
REMARK INTER + INTRA:          -6.889
REMARK INTER:                  -6.602
REMARK INTRA:                  -0.287
REMARK UNBOUND:                -0.190
REMARK SMILES O=c1c(O)c(-c2ccc(O)cc2)oc2cc(O)cc(O)c12
REMARK SMILES IDX 5 1 3 2 2 3 1 4 21 5 19 6 18 7 16 8 15 9 14 10 13 11 6 12
REMARK SMILES IDX 7 13 8 14 9 15 12 16 11 17 10 18 4 20 20 22 17 24
REMARK H PARENT 10 19 4 21 20 23 17 25
REMARK Flexibility Score: inf
ROOT
ATOM      1  C   UNL     1      22.469  29.335  21.328  1.00  0.00     0.180 A 
ATOM      2  C   UNL     1      23.296  28.304  20.847  1.00  0.00     0.208 A 
ATOM      3  C   UNL     1      23.427  28.127  19.461  1.00  0.00     0.238 A 
ATOM      4  O   UNL     1      24.125  27.170  19.038  1.00  0.00    -0.285 OA
ATOM      5  C   UNL     1      22.745  28.993  18.572  1.00  0.00     0.111 A 
ATOM      6  C   UNL     1      22.838  28.931  17.150  1.00  0.00     0.134 A 
ATOM      7  C   UNL     1      22.017  29.753  16.367  1.00  0.00     0.093 A 
ATOM      8  C   UNL     1      21.157  30.679  16.954  1.00  0.00     0.123 A 
ATOM      9  C   UNL     1      21.102  30.790  18.344  1.00  0.00     0.094 A 
ATOM     10  C   UNL     1      21.881  29.958  19.151  1.00  0.00     0.146 A 
ATOM     11  O   UNL     1      21.790  30.088  20.469  1.00  0.00    -0.452 OA
ENDROOT
BRANCH   1  12
ATOM     12  C   UNL     1      22.299  29.600  22.775  1.00  0.00     0.021 A 
ATOM     13  C   UNL     1      21.326  28.923  23.534  1.00  0.00     0.016 A 
ATOM     14  C   UNL     1      21.200  29.173  24.904  1.00  0.00     0.047 A 
ATOM     15  C   UNL     1      22.052  30.088  25.535  1.00  0.00     0.115 A 
ATOM     16  C   UNL     1      23.162  30.501  23.420  1.00  0.00     0.016 A 
ATOM     17  C   UNL     1      23.033  30.748  24.790  1.00  0.00     0.047 A 
BRANCH  15  18
ATOM     18  O   UNL     1      21.935  30.345  26.899  1.00  0.00    -0.508 OA
ATOM     19  H   UNL     1      21.851  31.290  27.255  1.00  0.00     0.293 HD
ENDBRANCH  15  18
ENDBRANCH   1  12
BRANCH   2  20
ATOM     20  O   UNL     1      23.942  27.448  21.742  1.00  0.00    -0.502 OA
ATOM     21  H   UNL     1      24.438  26.619  21.439  1.00  0.00     0.293 HD
ENDBRANCH   2  20
BRANCH   6  22
ATOM     22  O   UNL     1      23.733  28.106  16.461  1.00  0.00    -0.507 OA
ATOM     23  H   UNL     1      24.396  28.426  15.773  1.00  0.00     0.293 HD
ENDBRANCH   6  22
BRANCH   8  24
ATOM     24  O   UNL     1      20.367  31.493  16.145  1.00  0.00    -0.508 OA
ATOM     25  H   UNL     1      19.390  31.662  16.356  1.00  0.00     0.293 HD
ENDBRANCH   8  24
TORSDOF 5
ENDMDL
MODEL 4
REMARK VINA RESULT:    -5.614      4.969      9.035
REMARK INTER + INTRA:          -6.788
REMARK INTER:                  -6.511
REMARK INTRA:                  -0.277
REMARK UNBOUND:                -0.190
REMARK SMILES O=c1c(O)c(-c2ccc(O)cc2)oc2cc(O)cc(O)c12
REMARK SMILES IDX 5 1 3 2 2 3 1 4 21 5 19 6 18 7 16 8 15 9 14 10 13 11 6 12
REMARK SMILES IDX 7 13 8 14 9 15 12 16 11 17 10 18 4 20 20 22 17 24
REMARK H PARENT 10 19 4 21 20 23 17 25
REMARK Flexibility Score: inf
ROOT
ATOM      1  C   UNL     1      22.337  29.945  21.258  1.00  0.00     0.180 A 
ATOM      2  C   UNL     1      23.231  30.785  21.945  1.00  0.00     0.208 A 
ATOM      3  C   UNL     1      23.181  30.831  23.347  1.00  0.00     0.238 A 
ATOM      4  O   UNL     1      23.945  31.626  23.953  1.00  0.00    -0.285 OA
ATOM      5  C   UNL     1      22.251  30.024  24.047  1.00  0.00     0.111 A 
ATOM      6  C   UNL     1      22.141  29.960  25.467  1.00  0.00     0.134 A 
ATOM      7  C   UNL     1      21.098  29.227  26.047  1.00  0.00     0.093 A 
ATOM      8  C   UNL     1      20.203  28.503  25.261  1.00  0.00     0.123 A 
ATOM      9  C   UNL     1      20.338  28.510  23.872  1.00  0.00     0.094 A 
ATOM     10  C   UNL     1      21.346  29.262  23.263  1.00  0.00     0.146 A 
ATOM     11  O   UNL     1      21.433  29.250  21.939  1.00  0.00    -0.452 OA
ENDROOT
BRANCH   1  12
ATOM     12  C   UNL     1      22.345  29.823  19.782  1.00  0.00     0.021 A 
ATOM     13  C   UNL     1      23.285  29.013  19.119  1.00  0.00     0.016 A 
ATOM     14  C   UNL     1      23.258  28.896  17.726  1.00  0.00     0.047 A 
ATOM     15  C   UNL     1      22.285  29.573  16.980  1.00  0.00     0.115 A 
ATOM     16  C   UNL     1      21.361  30.484  19.028  1.00  0.00     0.016 A 
ATOM     17  C   UNL     1      21.337  30.364  17.635  1.00  0.00     0.047 A 
BRANCH  15  18
ATOM     18  O   UNL     1      22.249  29.464  15.592  1.00  0.00    -0.508 OA
ATOM     19  H   UNL     1      21.774  28.696  15.133  1.00  0.00     0.293 HD
ENDBRANCH  15  18
ENDBRANCH   1  12
BRANCH   2  20
ATOM     20  O   UNL     1      24.125  31.590  21.235  1.00  0.00    -0.502 OA
ATOM     21  H   UNL     1      24.839  32.144  21.692  1.00  0.00     0.293 HD
ENDBRANCH   2  20
BRANCH   6  22
ATOM     22  O   UNL     1      23.038  30.572  26.348  1.00  0.00    -0.507 OA
ATOM     23  H   UNL     1      23.267  31.554  26.344  1.00  0.00     0.293 HD
ENDBRANCH   6  22
BRANCH   8  24
ATOM     24  O   UNL     1      19.187  27.771  25.872  1.00  0.00    -0.508 OA
ATOM     25  H   UNL     1      19.255  27.473  26.839  1.00  0.00     0.293 HD
ENDBRANCH   8  24
TORSDOF 5
ENDMDL
MODEL 5
REMARK VINA RESULT:    -5.547      1.476      1.818
REMARK INTER + INTRA:          -6.709
REMARK INTER:                  -6.450
REMARK INTRA:                  -0.259
REMARK UNBOUND:                -0.190
REMARK SMILES O=c1c(O)c(-c2ccc(O)cc2)oc2cc(O)cc(O)c12
REMARK SMILES IDX 5 1 3 2 2 3 1 4 21 5 19 6 18 7 16 8 15 9 14 10 13 11 6 12
REMARK SMILES IDX 7 13 8 14 9 15 12 16 11 17 10 18 4 20 20 22 17 24
REMARK H PARENT 10 19 4 21 20 23 17 25
REMARK Flexibility Score: inf
ROOT
ATOM      1  C   UNL     1      21.127  29.469  28.879  1.00  0.00     0.180 A 
ATOM      2  C   UNL     1      21.732  28.536  29.740  1.00  0.00     0.208 A 
ATOM      3  C   UNL     1      22.364  27.411  29.189  1.00  0.00     0.238 A 
ATOM      4  O   UNL     1      22.856  26.552  29.967  1.00  0.00    -0.285 OA
ATOM      5  C   UNL     1      22.400  27.240  27.784  1.00  0.00     0.111 A 
ATOM      6  C   UNL     1      23.049  26.159  27.115  1.00  0.00     0.134 A 
ATOM      7  C   UNL     1      22.908  26.021  25.729  1.00  0.00     0.093 A 
ATOM      8  C   UNL     1      22.200  26.958  24.979  1.00  0.00     0.123 A 
ATOM      9  C   UNL     1      21.612  28.053  25.616  1.00  0.00     0.094 A 
ATOM     10  C   UNL     1      21.703  28.198  27.002  1.00  0.00     0.146 A 
ATOM     11  O   UNL     1      21.121  29.247  27.570  1.00  0.00    -0.452 OA
ENDROOT
BRANCH   1  12
ATOM     12  C   UNL     1      20.463  30.692  29.383  1.00  0.00     0.021 A 
ATOM     13  C   UNL     1      21.207  31.810  29.803  1.00  0.00     0.016 A 
ATOM     14  C   UNL     1      20.557  32.963  30.254  1.00  0.00     0.047 A 
ATOM     15  C   UNL     1      19.157  33.020  30.276  1.00  0.00     0.115 A 
ATOM     16  C   UNL     1      19.060  30.765  29.390  1.00  0.00     0.016 A 
ATOM     17  C   UNL     1      18.412  31.920  29.841  1.00  0.00     0.047 A 
BRANCH  15  18
ATOM     18  O   UNL     1      18.498  34.163  30.723  1.00  0.00    -0.508 OA
ATOM     19  H   UNL     1      18.967  35.060  30.769  1.00  0.00     0.293 HD
ENDBRANCH  15  18
ENDBRANCH   1  12
BRANCH   2  20
ATOM     20  O   UNL     1      21.665  28.713  31.125  1.00  0.00    -0.502 OA
ATOM     21  H   UNL     1      22.332  28.290  31.760  1.00  0.00     0.293 HD
ENDBRANCH   2  20
BRANCH   6  22
ATOM     22  O   UNL     1      23.858  25.217  27.758  1.00  0.00    -0.507 OA
ATOM     23  H   UNL     1      24.802  24.990  27.485  1.00  0.00     0.293 HD
ENDBRANCH   6  22
BRANCH   8  24
ATOM     24  O   UNL     1      22.094  26.799  23.600  1.00  0.00    -0.508 OA
ATOM     25  H   UNL     1      22.895  26.912  22.989  1.00  0.00     0.293 HD
ENDBRANCH   8  24
TORSDOF 5
ENDMDL
MODEL 6
REMARK VINA RESULT:    -5.384      5.740      8.656
REMARK INTER + INTRA:          -6.518
REMARK INTER:                  -6.254
REMARK INTRA:                  -0.264
REMARK UNBOUND:                -0.190
REMARK SMILES O=c1c(O)c(-c2ccc(O)cc2)oc2cc(O)cc(O)c12
REMARK SMILES IDX 5 1 3 2 2 3 1 4 21 5 19 6 18 7 16 8 15 9 14 10 13 11 6 12
REMARK SMILES IDX 7 13 8 14 9 15 12 16 11 17 10 18 4 20 20 22 17 24
REMARK H PARENT 10 19 4 21 20 23 17 25
REMARK Flexibility Score: inf
ROOT
ATOM      1  C   UNL     1      22.795  29.479  21.613  1.00  0.00     0.180 A 
ATOM      2  C   UNL     1      23.092  30.509  22.523  1.00  0.00     0.208 A 
ATOM      3  C   UNL     1      23.358  30.180  23.861  1.00  0.00     0.238 A 
ATOM      4  O   UNL     1      23.570  31.110  24.682  1.00  0.00    -0.285 OA
ATOM      5  C   UNL     1      23.340  28.824  24.271  1.00  0.00     0.111 A 
ATOM      6  C   UNL     1      23.635  28.373  25.592  1.00  0.00     0.134 A 
ATOM      7  C   UNL     1      23.458  27.022  25.916  1.00  0.00     0.093 A 
ATOM      8  C   UNL     1      23.064  26.096  24.953  1.00  0.00     0.123 A 
ATOM      9  C   UNL     1      22.831  26.517  23.642  1.00  0.00     0.094 A 
ATOM     10  C   UNL     1      22.962  27.864  23.298  1.00  0.00     0.146 A 
ATOM     11  O   UNL     1      22.721  28.224  22.043  1.00  0.00    -0.452 OA
ENDROOT
BRANCH   1  12
ATOM     12  C   UNL     1      22.528  29.744  20.182  1.00  0.00     0.021 A 
ATOM     13  C   UNL     1      23.519  29.548  19.203  1.00  0.00     0.016 A 
ATOM     14  C   UNL     1      23.236  29.782  17.854  1.00  0.00     0.047 A 
ATOM     15  C   UNL     1      21.958  30.201  17.465  1.00  0.00     0.115 A 
ATOM     16  C   UNL     1      21.242  30.144  19.780  1.00  0.00     0.016 A 
ATOM     17  C   UNL     1      20.963  30.378  18.430  1.00  0.00     0.047 A 
BRANCH  15  18
ATOM     18  O   UNL     1      21.665  30.438  16.123  1.00  0.00    -0.508 OA
ATOM     19  H   UNL     1      21.393  29.687  15.499  1.00  0.00     0.293 HD
ENDBRANCH  15  18
ENDBRANCH   1  12
BRANCH   2  20
ATOM     20  O   UNL     1      23.082  31.841  22.103  1.00  0.00    -0.502 OA
ATOM     21  H   UNL     1      23.436  32.596  22.678  1.00  0.00     0.293 HD
ENDBRANCH   2  20
BRANCH   6  22
ATOM     22  O   UNL     1      24.125  29.200  26.609  1.00  0.00    -0.507 OA
ATOM     23  H   UNL     1      24.362  28.887  27.538  1.00  0.00     0.293 HD
ENDBRANCH   6  22
BRANCH   8  24
ATOM     24  O   UNL     1      22.914  24.757  25.306  1.00  0.00    -0.508 OA
ATOM     25  H   UNL     1      23.511  24.321  25.999  1.00  0.00     0.293 HD
ENDBRANCH   8  24
TORSDOF 5
ENDMDL
MODEL 7
REMARK VINA RESULT:    -5.056      1.990      6.634
REMARK INTER + INTRA:          -6.132
REMARK INTER:                  -5.845
REMARK INTRA:                  -0.287
REMARK UNBOUND:                -0.190
REMARK SMILES O=c1c(O)c(-c2ccc(O)cc2)oc2cc(O)cc(O)c12
REMARK SMILES IDX 5 1 3 2 2 3 1 4 21 5 19 6 18 7 16 8 15 9 14 10 13 11 6 12
REMARK SMILES IDX 7 13 8 14 9 15 12 16 11 17 10 18 4 20 20 22 17 24
REMARK H PARENT 10 19 4 21 20 23 17 25
REMARK Flexibility Score: inf
ROOT
ATOM      1  C   UNL     1      21.112  30.332  27.425  1.00  0.00     0.180 A 
ATOM      2  C   UNL     1      22.044  31.335  27.746  1.00  0.00     0.208 A 
ATOM      3  C   UNL     1      21.732  32.257  28.755  1.00  0.00     0.238 A 
ATOM      4  O   UNL     1      22.547  33.185  29.000  1.00  0.00    -0.285 OA
ATOM      5  C   UNL     1      20.499  32.158  29.446  1.00  0.00     0.111 A 
ATOM      6  C   UNL     1      20.097  33.013  30.514  1.00  0.00     0.134 A 
ATOM      7  C   UNL     1      18.801  32.905  31.035  1.00  0.00     0.093 A 
ATOM      8  C   UNL     1      17.918  31.931  30.573  1.00  0.00     0.123 A 
ATOM      9  C   UNL     1      18.323  31.049  29.569  1.00  0.00     0.094 A 
ATOM     10  C   UNL     1      19.596  31.156  29.004  1.00  0.00     0.146 A 
ATOM     11  O   UNL     1      19.937  30.305  28.044  1.00  0.00    -0.452 OA
ENDROOT
BRANCH   1  12
ATOM     12  C   UNL     1      21.379  29.308  26.389  1.00  0.00     0.021 A 
ATOM     13  C   UNL     1      21.082  29.543  25.034  1.00  0.00     0.016 A 
ATOM     14  C   UNL     1      21.365  28.570  24.070  1.00  0.00     0.047 A 
ATOM     15  C   UNL     1      21.961  27.359  24.445  1.00  0.00     0.115 A 
ATOM     16  C   UNL     1      21.994  28.099  26.754  1.00  0.00     0.016 A 
ATOM     17  C   UNL     1      22.276  27.128  25.787  1.00  0.00     0.047 A 
BRANCH  15  18
ATOM     18  O   UNL     1      22.247  26.382  23.494  1.00  0.00    -0.508 OA
ATOM     19  H   UNL     1      23.003  25.721  23.625  1.00  0.00     0.293 HD
ENDBRANCH  15  18
ENDBRANCH   1  12
BRANCH   2  20
ATOM     20  O   UNL     1      23.245  31.428  27.037  1.00  0.00    -0.502 OA
ATOM     21  H   UNL     1      24.140  31.195  27.450  1.00  0.00     0.293 HD
ENDBRANCH   2  20
BRANCH   6  22
ATOM     22  O   UNL     1      20.933  33.961  31.113  1.00  0.00    -0.507 OA
ATOM     23  H   UNL     1      20.642  34.616  31.822  1.00  0.00     0.293 HD
ENDBRANCH   6  22
BRANCH   8  24
ATOM     24  O   UNL     1      16.642  31.841  31.125  1.00  0.00    -0.508 OA
ATOM     25  H   UNL     1      15.810  31.984  30.564  1.00  0.00     0.293 HD
ENDBRANCH   8  24
TORSDOF 5
ENDMDL
MODEL 8
REMARK VINA RESULT:    -4.998      3.259      7.865
REMARK INTER + INTRA:          -6.064
REMARK INTER:                  -5.764
REMARK INTRA:                  -0.300
REMARK UNBOUND:                -0.190
REMARK SMILES O=c1c(O)c(-c2ccc(O)cc2)oc2cc(O)cc(O)c12
REMARK SMILES IDX 5 1 3 2 2 3 1 4 21 5 19 6 18 7 16 8 15 9 14 10 13 11 6 12
REMARK SMILES IDX 7 13 8 14 9 15 12 16 11 17 10 18 4 20 20 22 17 24
REMARK H PARENT 10 19 4 21 20 23 17 25
REMARK Flexibility Score: inf
ROOT
ATOM      1  C   UNL     1      21.951  29.498  23.920  1.00  0.00     0.180 A 
ATOM      2  C   UNL     1      20.721  29.015  24.400  1.00  0.00     0.208 A 
ATOM      3  C   UNL     1      20.296  29.390  25.684  1.00  0.00     0.238 A 
ATOM      4  O   UNL     1      19.220  28.912  26.128  1.00  0.00    -0.285 OA
ATOM      5  C   UNL     1      21.097  30.257  26.467  1.00  0.00     0.111 A 
ATOM      6  C   UNL     1      20.746  30.735  27.764  1.00  0.00     0.134 A 
ATOM      7  C   UNL     1      21.674  31.482  28.500  1.00  0.00     0.093 A 
ATOM      8  C   UNL     1      22.913  31.824  27.961  1.00  0.00     0.123 A 
ATOM      9  C   UNL     1      23.243  31.412  26.668  1.00  0.00     0.094 A 
ATOM     10  C   UNL     1      22.353  30.635  25.924  1.00  0.00     0.146 A 
ATOM     11  O   UNL     1      22.711  30.255  24.704  1.00  0.00    -0.452 OA
ENDROOT
BRANCH   1  12
ATOM     12  C   UNL     1      22.455  29.166  22.568  1.00  0.00     0.021 A 
ATOM     13  C   UNL     1      22.125  29.954  21.450  1.00  0.00     0.016 A 
ATOM     14  C   UNL     1      22.632  29.635  20.186  1.00  0.00     0.047 A 
ATOM     15  C   UNL     1      23.486  28.536  20.027  1.00  0.00     0.115 A 
ATOM     16  C   UNL     1      23.328  28.078  22.402  1.00  0.00     0.016 A 
ATOM     17  C   UNL     1      23.833  27.761  21.137  1.00  0.00     0.047 A 
BRANCH  15  18
ATOM     18  O   UNL     1      23.996  28.208  18.772  1.00  0.00    -0.508 OA
ATOM     19  H   UNL     1      23.958  28.861  17.998  1.00  0.00     0.293 HD
ENDBRANCH  15  18
ENDBRANCH   1  12
BRANCH   2  20
ATOM     20  O   UNL     1      19.956  28.144  23.620  1.00  0.00    -0.502 OA
ATOM     21  H   UNL     1      18.978  27.961  23.808  1.00  0.00     0.293 HD
ENDBRANCH   2  20
BRANCH   6  22
ATOM     22  O   UNL     1      19.498  30.528  28.360  1.00  0.00    -0.507 OA
ATOM     23  H   UNL     1      19.307  29.832  29.065  1.00  0.00     0.293 HD
ENDBRANCH   6  22
BRANCH   8  24
ATOM     24  O   UNL     1      23.806  32.582  28.715  1.00  0.00    -0.508 OA
ATOM     25  H   UNL     1      24.103  32.288  29.638  1.00  0.00     0.293 HD
ENDBRANCH   8  24
TORSDOF 5
ENDMDL
MODEL 9
REMARK VINA RESULT:    -4.941      1.823      2.569
REMARK INTER + INTRA:          -5.997
REMARK INTER:                  -5.708
REMARK INTRA:                  -0.289
REMARK UNBOUND:                -0.190
REMARK SMILES O=c1c(O)c(-c2ccc(O)cc2)oc2cc(O)cc(O)c12
REMARK SMILES IDX 5 1 3 2 2 3 1 4 21 5 19 6 18 7 16 8 15 9 14 10 13 11 6 12
REMARK SMILES IDX 7 13 8 14 9 15 12 16 11 17 10 18 4 20 20 22 17 24
REMARK H PARENT 10 19 4 21 20 23 17 25
REMARK Flexibility Score: inf
ROOT
ATOM      1  C   UNL     1      21.269  29.679  27.547  1.00  0.00     0.180 A 
ATOM      2  C   UNL     1      21.653  28.390  27.959  1.00  0.00     0.208 A 
ATOM      3  C   UNL     1      22.151  27.490  27.004  1.00  0.00     0.238 A 
ATOM      4  O   UNL     1      22.442  26.321  27.369  1.00  0.00    -0.285 OA
ATOM      5  C   UNL     1      22.278  27.894  25.653  1.00  0.00     0.111 A 
ATOM      6  C   UNL     1      22.810  27.079  24.610  1.00  0.00     0.134 A 
ATOM      7  C   UNL     1      22.766  27.534  23.286  1.00  0.00     0.093 A 
ATOM      8  C   UNL     1      22.272  28.800  22.976  1.00  0.00     0.123 A 
ATOM      9  C   UNL     1      21.804  29.630  23.997  1.00  0.00     0.094 A 
ATOM     10  C   UNL     1      21.801  29.189  25.322  1.00  0.00     0.146 A 
ATOM     11  O   UNL     1      21.338  30.005  26.261  1.00  0.00    -0.452 OA
ENDROOT
BRANCH   1  12
ATOM     12  C   UNL     1      20.757  30.691  28.498  1.00  0.00     0.021 A 
ATOM     13  C   UNL     1      21.613  31.637  29.092  1.00  0.00     0.016 A 
ATOM     14  C   UNL     1      21.103  32.599  29.969  1.00  0.00     0.047 A 
ATOM     15  C   UNL     1      19.731  32.637  30.252  1.00  0.00     0.115 A 
ATOM     16  C   UNL     1      19.381  30.750  28.771  1.00  0.00     0.016 A 
ATOM     17  C   UNL     1      18.873  31.713  29.649  1.00  0.00     0.047 A 
BRANCH  15  18
ATOM     18  O   UNL     1      19.211  33.591  31.125  1.00  0.00    -0.508 OA
ATOM     19  H   UNL     1      19.667  34.486  31.264  1.00  0.00     0.293 HD
ENDBRANCH  15  18
ENDBRANCH   1  12
BRANCH   2  20
ATOM     20  O   UNL     1      21.499  28.005  29.293  1.00  0.00    -0.502 OA
ATOM     21  H   UNL     1      20.613  27.689  29.669  1.00  0.00     0.293 HD
ENDBRANCH   2  20
BRANCH   6  22
ATOM     22  O   UNL     1      23.411  25.834  24.821  1.00  0.00    -0.507 OA
ATOM     23  H   UNL     1      24.201  25.483  24.302  1.00  0.00     0.293 HD
ENDBRANCH   6  22
BRANCH   8  24
ATOM     24  O   UNL     1      22.258  29.228  21.651  1.00  0.00    -0.508 OA
ATOM     25  H   UNL     1      22.193  28.571  20.882  1.00  0.00     0.293 HD
ENDBRANCH   8  24
TORSDOF 5
ENDMDL
