MODEL 1
REMARK VINA RESULT:    -8.946      0.000      0.000
REMARK INTER + INTRA:         -10.778
REMARK INTER:                 -10.515
REMARK INTRA:                  -0.263
REMARK UNBOUND:                -0.263
REMARK SMILES O=c1cc(-c2ccc(O)c(O)c2)oc2cc(O)cc(O)c12
REMARK SMILES IDX 4 1 3 2 2 3 1 4 21 5 19 6 18 7 16 8 15 9 14 10 13 11 5 12
REMARK SMILES IDX 6 13 7 14 8 15 12 16 10 17 9 18 11 20 20 22 17 24
REMARK H PARENT 9 19 11 21 20 23 17 25
REMARK Flexibility Score: inf
ROOT
ATOM      1  C   UNL     1       3.560 -71.440 208.915  1.00  0.00     0.138 A 
ATOM      2  C   UNL     1       3.753 -72.509 208.029  1.00  0.00     0.100 A 
ATOM      3  C   UNL     1       4.498 -72.315 206.865  1.00  0.00     0.197 A 
ATOM      4  O   UNL     1       4.601 -73.277 206.059  1.00  0.00    -0.289 OA
ATOM      5  C   UNL     1       5.078 -71.052 206.603  1.00  0.00     0.107 A 
ATOM      6  C   UNL     1       5.891 -70.750 205.471  1.00  0.00     0.134 A 
ATOM      7  C   UNL     1       6.315 -69.433 205.256  1.00  0.00     0.093 A 
ATOM      8  C   UNL     1       6.006 -68.419 206.167  1.00  0.00     0.123 A 
ATOM      9  C   UNL     1       5.259 -68.715 207.304  1.00  0.00     0.094 A 
ATOM     10  C   UNL     1       4.792 -70.012 207.529  1.00  0.00     0.146 A 
ATOM     11  O   UNL     1       4.070 -70.248 208.619  1.00  0.00    -0.456 OA
ENDROOT
BRANCH   1  12
ATOM     12  C   UNL     1       2.777 -71.591 210.167  1.00  0.00     0.021 A 
ATOM     13  C   UNL     1       3.447 -71.861 211.373  1.00  0.00     0.016 A 
ATOM     14  C   UNL     1       2.734 -72.014 212.564  1.00  0.00     0.051 A 
ATOM     15  C   UNL     1       1.340 -71.912 212.572  1.00  0.00     0.157 A 
ATOM     16  C   UNL     1       1.372 -71.501 210.178  1.00  0.00     0.062 A 
ATOM     17  C   UNL     1       0.654 -71.658 211.373  1.00  0.00     0.158 A 
BRANCH  15  18
ATOM     18  O   UNL     1       0.655 -72.068 213.776  1.00  0.00    -0.504 OA
ATOM     19  H   UNL     1       1.060 -72.557 214.566  1.00  0.00     0.293 HD
ENDBRANCH  15  18
BRANCH  17  20
ATOM     20  O   UNL     1      -0.737 -71.565 211.372  1.00  0.00    -0.504 OA
ATOM     21  H   UNL     1      -1.210 -70.669 211.361  1.00  0.00     0.293 HD
ENDBRANCH  17  20
ENDBRANCH   1  12
BRANCH   6  22
ATOM     22  O   UNL     1       6.328 -71.703 204.546  1.00  0.00    -0.507 OA
ATOM     23  H   UNL     1       7.263 -71.756 204.171  1.00  0.00     0.293 HD
ENDBRANCH   6  22
BRANCH   8  24
ATOM     24  O   UNL     1       6.445 -67.114 205.954  1.00  0.00    -0.508 OA
ATOM     25  H   UNL     1       6.793 -66.540 206.713  1.00  0.00     0.293 HD
ENDBRANCH   8  24
TORSDOF 5
ENDMDL
MODEL 2
REMARK VINA RESULT:    -8.620      1.126      2.668
REMARK INTER + INTRA:         -10.395
REMARK INTER:                 -10.131
REMARK INTRA:                  -0.264
REMARK UNBOUND:                -0.263
REMARK SMILES O=c1cc(-c2ccc(O)c(O)c2)oc2cc(O)cc(O)c12
REMARK SMILES IDX 4 1 3 2 2 3 1 4 21 5 19 6 18 7 16 8 15 9 14 10 13 11 5 12
REMARK SMILES IDX 6 13 7 14 8 15 12 16 10 17 9 18 11 20 20 22 17 24
REMARK H PARENT 9 19 11 21 20 23 17 25
REMARK Flexibility Score: inf
ROOT
ATOM      1  C   UNL     1       3.567 -70.699 208.965  1.00  0.00     0.138 A 
ATOM      2  C   UNL     1       4.041 -69.400 208.744  1.00  0.00     0.100 A 
ATOM      3  C   UNL     1       4.741 -69.110 207.571  1.00  0.00     0.197 A 
ATOM      4  O   UNL     1       5.208 -67.950 207.430  1.00  0.00    -0.289 OA
ATOM      5  C   UNL     1       4.938 -70.122 206.602  1.00  0.00     0.107 A 
ATOM      6  C   UNL     1       5.599 -69.932 205.352  1.00  0.00     0.134 A 
ATOM      7  C   UNL     1       5.838 -71.034 204.522  1.00  0.00     0.093 A 
ATOM      8  C   UNL     1       5.383 -72.309 204.871  1.00  0.00     0.123 A 
ATOM      9  C   UNL     1       4.689 -72.495 206.063  1.00  0.00     0.094 A 
ATOM     10  C   UNL     1       4.466 -71.421 206.928  1.00  0.00     0.146 A 
ATOM     11  O   UNL     1       3.812 -71.645 208.064  1.00  0.00    -0.456 OA
ENDROOT
BRANCH   1  12
ATOM     12  C   UNL     1       2.816 -71.062 210.194  1.00  0.00     0.021 A 
ATOM     13  C   UNL     1       3.521 -71.477 211.337  1.00  0.00     0.016 A 
ATOM     14  C   UNL     1       2.838 -71.830 212.504  1.00  0.00     0.051 A 
ATOM     15  C   UNL     1       1.442 -71.786 212.547  1.00  0.00     0.157 A 
ATOM     16  C   UNL     1       1.409 -71.031 210.239  1.00  0.00     0.062 A 
ATOM     17  C   UNL     1       0.723 -71.388 211.409  1.00  0.00     0.158 A 
BRANCH  15  18
ATOM     18  O   UNL     1       0.789 -72.142 213.726  1.00  0.00    -0.504 OA
ATOM     19  H   UNL     1       1.276 -72.573 214.502  1.00  0.00     0.293 HD
ENDBRANCH  15  18
BRANCH  17  20
ATOM     20  O   UNL     1      -0.671 -71.352 211.442  1.00  0.00    -0.504 OA
ATOM     21  H   UNL     1      -1.198 -70.673 210.906  1.00  0.00     0.293 HD
ENDBRANCH  17  20
ENDBRANCH   1  12
BRANCH   6  22
ATOM     22  O   UNL     1       6.017 -68.687 204.870  1.00  0.00    -0.507 OA
ATOM     23  H   UNL     1       6.775 -68.145 205.256  1.00  0.00     0.293 HD
ENDBRANCH   6  22
BRANCH   8  24
ATOM     24  O   UNL     1       5.612 -73.398 204.032  1.00  0.00    -0.508 OA
ATOM     25  H   UNL     1       5.880 -73.273 203.062  1.00  0.00     0.293 HD
ENDBRANCH   8  24
TORSDOF 5
ENDMDL
MODEL 3
REMARK VINA RESULT:    -7.290     12.244     13.795
REMARK INTER + INTRA:          -8.831
REMARK INTER:                  -8.514
REMARK INTRA:                  -0.318
REMARK UNBOUND:                -0.263
REMARK SMILES O=c1cc(-c2ccc(O)c(O)c2)oc2cc(O)cc(O)c12
REMARK SMILES IDX 4 1 3 2 2 3 1 4 21 5 19 6 18 7 16 8 15 9 14 10 13 11 5 12
REMARK SMILES IDX 6 13 7 14 8 15 12 16 10 17 9 18 11 20 20 22 17 24
REMARK H PARENT 9 19 11 21 20 23 17 25
REMARK Flexibility Score: inf
ROOT
ATOM      1  C   UNL     1      14.998 -76.769 202.824  1.00  0.00     0.138 A 
ATOM      2  C   UNL     1      15.689 -77.308 201.730  1.00  0.00     0.100 A 
ATOM      3  C   UNL     1      15.542 -76.731 200.468  1.00  0.00     0.197 A 
ATOM      4  O   UNL     1      16.125 -77.276 199.494  1.00  0.00    -0.289 OA
ATOM      5  C   UNL     1      14.723 -75.588 200.308  1.00  0.00     0.107 A 
ATOM      6  C   UNL     1      14.532 -74.891 199.078  1.00  0.00     0.134 A 
ATOM      7  C   UNL     1      13.607 -73.842 199.015  1.00  0.00     0.093 A 
ATOM      8  C   UNL     1      12.913 -73.425 200.154  1.00  0.00     0.123 A 
ATOM      9  C   UNL     1      13.133 -74.064 201.372  1.00  0.00     0.094 A 
ATOM     10  C   UNL     1      14.023 -75.136 201.459  1.00  0.00     0.146 A 
ATOM     11  O   UNL     1      14.193 -75.728 202.637  1.00  0.00    -0.456 OA
ENDROOT
BRANCH   1  12
ATOM     12  C   UNL     1      15.119 -77.343 204.188  1.00  0.00     0.021 A 
ATOM     13  C   UNL     1      15.998 -78.416 204.411  1.00  0.00     0.016 A 
ATOM     14  C   UNL     1      16.125 -78.979 205.683  1.00  0.00     0.051 A 
ATOM     15  C   UNL     1      15.370 -78.488 206.752  1.00  0.00     0.157 A 
ATOM     16  C   UNL     1      14.351 -76.860 205.265  1.00  0.00     0.062 A 
ATOM     17  C   UNL     1      14.476 -77.426 206.542  1.00  0.00     0.158 A 
BRANCH  15  18
ATOM     18  O   UNL     1      15.520 -79.069 208.010  1.00  0.00    -0.504 OA
ATOM     19  H   UNL     1      16.158 -78.695 208.703  1.00  0.00     0.293 HD
ENDBRANCH  15  18
BRANCH  17  20
ATOM     20  O   UNL     1      13.712 -76.939 207.602  1.00  0.00    -0.504 OA
ATOM     21  H   UNL     1      13.644 -75.947 207.796  1.00  0.00     0.293 HD
ENDBRANCH  17  20
ENDBRANCH   1  12
BRANCH   6  22
ATOM     22  O   UNL     1      15.237 -75.170 197.904  1.00  0.00    -0.507 OA
ATOM     23  H   UNL     1      14.951 -75.839 197.204  1.00  0.00     0.293 HD
ENDBRANCH   6  22
BRANCH   8  24
ATOM     24  O   UNL     1      12.005 -72.370 200.086  1.00  0.00    -0.508 OA
ATOM     25  H   UNL     1      11.269 -72.258 200.774  1.00  0.00     0.293 HD
ENDBRANCH   8  24
TORSDOF 5
ENDMDL
MODEL 4
REMARK VINA RESULT:    -7.224      1.272      3.015
REMARK INTER + INTRA:          -8.754
REMARK INTER:                  -8.492
REMARK INTRA:                  -0.263
REMARK UNBOUND:                -0.263
REMARK SMILES O=c1cc(-c2ccc(O)c(O)c2)oc2cc(O)cc(O)c12
REMARK SMILES IDX 4 1 3 2 2 3 1 4 21 5 19 6 18 7 16 8 15 9 14 10 13 11 5 12
REMARK SMILES IDX 6 13 7 14 8 15 12 16 10 17 9 18 11 20 20 22 17 24
REMARK H PARENT 9 19 11 21 20 23 17 25
REMARK Flexibility Score: inf
ROOT
ATOM      1  C   UNL     1       3.189 -70.663 208.874  1.00  0.00     0.138 A 
ATOM      2  C   UNL     1       3.726 -69.377 208.731  1.00  0.00     0.100 A 
ATOM      3  C   UNL     1       4.564 -69.095 207.651  1.00  0.00     0.197 A 
ATOM      4  O   UNL     1       5.081 -67.949 207.584  1.00  0.00    -0.289 OA
ATOM      5  C   UNL     1       4.839 -70.099 206.693  1.00  0.00     0.107 A 
ATOM      6  C   UNL     1       5.644 -69.913 205.530  1.00  0.00     0.134 A 
ATOM      7  C   UNL     1       5.942 -71.011 204.714  1.00  0.00     0.093 A 
ATOM      8  C   UNL     1       5.411 -72.275 204.986  1.00  0.00     0.123 A 
ATOM      9  C   UNL     1       4.580 -72.455 206.088  1.00  0.00     0.094 A 
ATOM     10  C   UNL     1       4.293 -71.386 206.941  1.00  0.00     0.146 A 
ATOM     11  O   UNL     1       3.507 -71.604 207.990  1.00  0.00    -0.456 OA
ENDROOT
BRANCH   1  12
ATOM     12  C   UNL     1       2.292 -71.017 210.003  1.00  0.00     0.021 A 
ATOM     13  C   UNL     1       0.947 -71.332 209.745  1.00  0.00     0.016 A 
ATOM     14  C   UNL     1       0.080 -71.662 210.790  1.00  0.00     0.051 A 
ATOM     15  C   UNL     1       0.537 -71.672 212.111  1.00  0.00     0.157 A 
ATOM     16  C   UNL     1       2.745 -71.017 211.337  1.00  0.00     0.062 A 
ATOM     17  C   UNL     1       1.875 -71.346 212.387  1.00  0.00     0.158 A 
BRANCH  15  18
ATOM     18  O   UNL     1      -0.350 -72.007 213.132  1.00  0.00    -0.504 OA
ATOM     19  H   UNL     1      -1.327 -71.743 213.104  1.00  0.00     0.293 HD
ENDBRANCH  15  18
BRANCH  17  20
ATOM     20  O   UNL     1       2.334 -71.344 213.703  1.00  0.00    -0.504 OA
ATOM     21  H   UNL     1       3.322 -71.289 213.921  1.00  0.00     0.293 HD
ENDBRANCH  17  20
ENDBRANCH   1  12
BRANCH   6  22
ATOM     22  O   UNL     1       6.153 -68.677 205.120  1.00  0.00    -0.507 OA
ATOM     23  H   UNL     1       6.315 -67.890 205.730  1.00  0.00     0.293 HD
ENDBRANCH   6  22
BRANCH   8  24
ATOM     24  O   UNL     1       5.701 -73.360 204.160  1.00  0.00    -0.508 OA
ATOM     25  H   UNL     1       6.590 -73.844 204.211  1.00  0.00     0.293 HD
ENDBRANCH   8  24
TORSDOF 5
ENDMDL
MODEL 5
REMARK VINA RESULT:    -6.798      1.320      7.062
REMARK INTER + INTRA:          -8.253
REMARK INTER:                  -7.990
REMARK INTRA:                  -0.263
REMARK UNBOUND:                -0.263
REMARK SMILES O=c1cc(-c2ccc(O)c(O)c2)oc2cc(O)cc(O)c12
REMARK SMILES IDX 4 1 3 2 2 3 1 4 21 5 19 6 18 7 16 8 15 9 14 10 13 11 5 12
REMARK SMILES IDX 6 13 7 14 8 15 12 16 10 17 9 18 11 20 20 22 17 24
REMARK H PARENT 9 19 11 21 20 23 17 25
REMARK Flexibility Score: inf
ROOT
ATOM      1  C   UNL     1       3.377 -70.460 208.252  1.00  0.00     0.138 A 
ATOM      2  C   UNL     1       2.123 -70.774 207.711  1.00  0.00     0.100 A 
ATOM      3  C   UNL     1       1.080 -71.150 208.559  1.00  0.00     0.197 A 
ATOM      4  O   UNL     1      -0.016 -71.486 208.039  1.00  0.00    -0.289 OA
ATOM      5  C   UNL     1       1.287 -71.179 209.958  1.00  0.00     0.107 A 
ATOM      6  C   UNL     1       0.286 -71.506 210.921  1.00  0.00     0.134 A 
ATOM      7  C   UNL     1       0.636 -71.616 212.272  1.00  0.00     0.093 A 
ATOM      8  C   UNL     1       1.939 -71.350 212.701  1.00  0.00     0.123 A 
ATOM      9  C   UNL     1       2.911 -70.978 211.777  1.00  0.00     0.094 A 
ATOM     10  C   UNL     1       2.600 -70.893 210.417  1.00  0.00     0.146 A 
ATOM     11  O   UNL     1       3.561 -70.548 209.566  1.00  0.00    -0.456 OA
ENDROOT
BRANCH   1  12
ATOM     12  C   UNL     1       4.521 -70.054 207.397  1.00  0.00     0.021 A 
ATOM     13  C   UNL     1       4.803 -68.689 207.222  1.00  0.00     0.016 A 
ATOM     14  C   UNL     1       5.869 -68.280 206.416  1.00  0.00     0.051 A 
ATOM     15  C   UNL     1       6.664 -69.225 205.763  1.00  0.00     0.157 A 
ATOM     16  C   UNL     1       5.318 -71.002 206.726  1.00  0.00     0.062 A 
ATOM     17  C   UNL     1       6.387 -70.593 205.916  1.00  0.00     0.158 A 
BRANCH  15  18
ATOM     18  O   UNL     1       7.722 -68.787 204.968  1.00  0.00    -0.504 OA
ATOM     19  H   UNL     1       7.977 -69.255 204.106  1.00  0.00     0.293 HD
ENDBRANCH  15  18
BRANCH  17  20
ATOM     20  O   UNL     1       7.170 -71.541 205.258  1.00  0.00    -0.504 OA
ATOM     21  H   UNL     1       6.791 -72.435 204.968  1.00  0.00     0.293 HD
ENDBRANCH  17  20
ENDBRANCH   1  12
BRANCH   6  22
ATOM     22  O   UNL     1      -1.063 -71.706 210.609  1.00  0.00    -0.507 OA
ATOM     23  H   UNL     1      -1.737 -72.143 211.219  1.00  0.00     0.293 HD
ENDBRANCH   6  22
BRANCH   8  24
ATOM     24  O   UNL     1       2.276 -71.448 214.050  1.00  0.00    -0.508 OA
ATOM     25  H   UNL     1       2.831 -70.736 214.511  1.00  0.00     0.293 HD
ENDBRANCH   8  24
TORSDOF 5
ENDMDL
MODEL 6
REMARK VINA RESULT:    -6.166      3.316      6.181
REMARK INTER + INTRA:          -7.511
REMARK INTER:                  -7.243
REMARK INTRA:                  -0.268
REMARK UNBOUND:                -0.263
REMARK SMILES O=c1cc(-c2ccc(O)c(O)c2)oc2cc(O)cc(O)c12
REMARK SMILES IDX 4 1 3 2 2 3 1 4 21 5 19 6 18 7 16 8 15 9 14 10 13 11 5 12
REMARK SMILES IDX 6 13 7 14 8 15 12 16 10 17 9 18 11 20 20 22 17 24
REMARK H PARENT 9 19 11 21 20 23 17 25
REMARK Flexibility Score: inf
ROOT
ATOM      1  C   UNL     1       3.377 -73.739 206.942  1.00  0.00     0.138 A 
ATOM      2  C   UNL     1       4.589 -73.116 206.616  1.00  0.00     0.100 A 
ATOM      3  C   UNL     1       4.972 -71.954 207.287  1.00  0.00     0.197 A 
ATOM      4  O   UNL     1       6.034 -71.383 206.929  1.00  0.00    -0.289 OA
ATOM      5  C   UNL     1       4.149 -71.432 208.314  1.00  0.00     0.107 A 
ATOM      6  C   UNL     1       4.457 -70.278 209.094  1.00  0.00     0.134 A 
ATOM      7  C   UNL     1       3.513 -69.787 210.003  1.00  0.00     0.093 A 
ATOM      8  C   UNL     1       2.296 -70.446 210.204  1.00  0.00     0.123 A 
ATOM      9  C   UNL     1       2.009 -71.603 209.487  1.00  0.00     0.094 A 
ATOM     10  C   UNL     1       2.916 -72.099 208.547  1.00  0.00     0.146 A 
ATOM     11  O   UNL     1       2.597 -73.199 207.873  1.00  0.00    -0.456 OA
ENDROOT
BRANCH   1  12
ATOM     12  C   UNL     1       2.923 -74.977 206.260  1.00  0.00     0.021 A 
ATOM     13  C   UNL     1       2.663 -76.130 207.021  1.00  0.00     0.016 A 
ATOM     14  C   UNL     1       2.241 -77.310 206.403  1.00  0.00     0.051 A 
ATOM     15  C   UNL     1       2.083 -77.364 205.015  1.00  0.00     0.157 A 
ATOM     16  C   UNL     1       2.774 -75.040 204.861  1.00  0.00     0.062 A 
ATOM     17  C   UNL     1       2.353 -76.225 204.239  1.00  0.00     0.158 A 
BRANCH  15  18
ATOM     18  O   UNL     1       1.659 -78.554 204.427  1.00  0.00    -0.504 OA
ATOM     19  H   UNL     1       1.680 -78.696 203.424  1.00  0.00     0.293 HD
ENDBRANCH  15  18
BRANCH  17  20
ATOM     20  O   UNL     1       2.208 -76.275 202.854  1.00  0.00    -0.504 OA
ATOM     21  H   UNL     1       2.993 -76.122 202.231  1.00  0.00     0.293 HD
ENDBRANCH  17  20
ENDBRANCH   1  12
BRANCH   6  22
ATOM     22  O   UNL     1       5.677 -69.597 209.033  1.00  0.00    -0.507 OA
ATOM     23  H   UNL     1       6.016 -68.959 209.738  1.00  0.00     0.293 HD
ENDBRANCH   6  22
BRANCH   8  24
ATOM     24  O   UNL     1       1.368 -69.958 211.122  1.00  0.00    -0.508 OA
ATOM     25  H   UNL     1       1.283 -68.966 211.314  1.00  0.00     0.293 HD
ENDBRANCH   8  24
TORSDOF 5
ENDMDL
