MODEL 1
REMARK VINA RESULT:    -8.384      0.000      0.000
REMARK INTER + INTRA:         -15.450
REMARK INTER:                 -13.776
REMARK INTRA:                  -1.675
REMARK UNBOUND:                -1.675
REMARK SMILES C[C@H]1O[C@@H](OC[C@H]2O[C@H](Oc3c(-c4ccc(O)c(O)c4)oc4cc(O)cc(O)c4c3=O)[C@@H](O)[C@@H](O)[C@@H]2O)[C@H](O)[C@@H](O)[C@H]1O
REMARK SMILES IDX 7 1 36 2 34 3 32 4 9 5 8 6 6 7 5 8 4 9 1 10 2 11 42 12 3 13
REMARK SMILES IDX 40 14 38 15 43 16 41 18 39 20 37 22 35 24 10 26 11 27 12 28
REMARK SMILES IDX 30 29 21 30 29 31 31 32 22 33 27 34 23 35 26 36 24 37 13 38
REMARK SMILES IDX 20 39 14 40 18 41 15 42 16 43 19 44 17 46 28 48 25 50 33 52
REMARK H PARENT 43 17 41 19 39 21 37 23 35 25 19 45 17 47 28 49 25 51 33 53
REMARK Flexibility Score: inf
ROOT
ATOM      1  C   UNL     1     140.830 132.109 146.316  1.00  0.00     0.180 C 
ATOM      2  C   UNL     1     142.120 132.970 146.290  1.00  0.00     0.177 C 
ATOM      3  C   UNL     1     141.793 134.392 145.804  1.00  0.00     0.180 C 
ATOM      4  C   UNL     1     140.619 134.972 146.615  1.00  0.00     0.214 C 
ATOM      5  C   UNL     1     139.443 133.979 146.630  1.00  0.00     0.339 C 
ATOM      6  O   UNL     1     139.843 132.715 147.139  1.00  0.00    -0.332 OA
ENDROOT
BRANCH   1   7
ATOM      7  C   UNL     1     141.118 130.699 146.852  1.00  0.00     0.198 C 
BRANCH   7   8
ATOM      8  O   UNL     1     140.775 130.643 148.224  1.00  0.00    -0.347 OA
BRANCH   8   9
ATOM      9  C   UNL     1     141.768 129.989 148.995  1.00  0.00     0.281 C 
ATOM     10  C   UNL     1     142.687 126.440 148.832  1.00  0.00     0.041 C 
ATOM     11  C   UNL     1     142.896 127.935 149.107  1.00  0.00     0.150 C 
ATOM     12  C   UNL     1     143.194 128.244 150.614  1.00  0.00     0.174 C 
ATOM     13  O   UNL     1     141.750 128.625 148.624  1.00  0.00    -0.344 OA
ATOM     14  C   UNL     1     141.981 128.889 151.310  1.00  0.00     0.179 C 
ATOM     15  C   UNL     1     141.468 130.120 150.515  1.00  0.00     0.202 C 
BRANCH  12  16
ATOM     16  O   UNL     1     143.598 127.104 151.332  1.00  0.00    -0.388 OA
ATOM     17  H   UNL     1     144.234 127.416 152.026  1.00  0.00     0.211 HD
ENDBRANCH  12  16
BRANCH  14  18
ATOM     18  O   UNL     1     140.956 127.948 151.526  1.00  0.00    -0.387 OA
ATOM     19  H   UNL     1     141.093 127.186 150.906  1.00  0.00     0.211 HD
ENDBRANCH  14  18
BRANCH  15  20
ATOM     20  O   UNL     1     142.083 131.287 151.001  1.00  0.00    -0.385 OA
ATOM     21  H   UNL     1     141.514 131.627 151.740  1.00  0.00     0.211 HD
ENDBRANCH  15  20
ENDBRANCH   8   9
ENDBRANCH   7   8
ENDBRANCH   1   7
BRANCH   2  22
ATOM     22  O   UNL     1     143.110 132.386 145.480  1.00  0.00    -0.387 OA
ATOM     23  H   UNL     1     143.006 131.399 145.541  1.00  0.00     0.211 HD
ENDBRANCH   2  22
BRANCH   3  24
ATOM     24  O   UNL     1     142.928 135.207 145.935  1.00  0.00    -0.387 OA
ATOM     25  H   UNL     1     143.379 135.211 145.050  1.00  0.00     0.211 HD
ENDBRANCH   3  24
BRANCH   5  26
ATOM     26  O   UNL     1     138.879 133.852 145.319  1.00  0.00    -0.454 OA
BRANCH  26  27
ATOM     27  C   UNL     1     137.765 134.595 144.911  1.00  0.00     0.214 A 
ATOM     28  C   UNL     1     137.902 135.698 144.050  1.00  0.00     0.180 A 
ATOM     29  C   UNL     1     136.488 134.232 145.351  1.00  0.00     0.239 A 
ATOM     30  O   UNL     1     136.821 136.346 143.625  1.00  0.00    -0.452 OA
ATOM     31  C   UNL     1     135.362 134.949 144.894  1.00  0.00     0.111 A 
ATOM     32  O   UNL     1     136.363 133.262 146.147  1.00  0.00    -0.285 OA
ATOM     33  C   UNL     1     135.587 136.026 144.001  1.00  0.00     0.146 A 
ATOM     34  C   UNL     1     134.037 134.636 145.274  1.00  0.00     0.134 A 
ATOM     35  C   UNL     1     134.511 136.773 143.514  1.00  0.00     0.094 A 
ATOM     36  C   UNL     1     132.970 135.399 144.778  1.00  0.00     0.093 A 
ATOM     37  C   UNL     1     133.205 136.467 143.903  1.00  0.00     0.123 A 
BRANCH  28  38
ATOM     38  C   UNL     1     139.226 136.171 143.609  1.00  0.00     0.025 A 
ATOM     39  C   UNL     1     139.916 135.490 142.594  1.00  0.00     0.062 A 
ATOM     40  C   UNL     1     139.788 137.331 144.164  1.00  0.00     0.016 A 
ATOM     41  C   UNL     1     141.175 135.937 142.168  1.00  0.00     0.158 A 
ATOM     42  C   UNL     1     141.032 137.787 143.727  1.00  0.00     0.051 A 
ATOM     43  C   UNL     1     141.739 137.088 142.744  1.00  0.00     0.157 A 
BRANCH  41  44
ATOM     44  O   UNL     1     141.865 135.240 141.180  1.00  0.00    -0.504 OA
ATOM     45  H   UNL     1     141.727 135.439 140.195  1.00  0.00     0.293 HD
ENDBRANCH  41  44
BRANCH  43  46
ATOM     46  O   UNL     1     142.997 137.547 142.357  1.00  0.00    -0.504 OA
ATOM     47  H   UNL     1     143.170 138.519 142.128  1.00  0.00     0.293 HD
ENDBRANCH  43  46
ENDBRANCH  28  38
BRANCH  34  48
ATOM     48  O   UNL     1     133.770 133.572 146.137  1.00  0.00    -0.507 OA
ATOM     49  H   UNL     1     134.326 133.407 146.966  1.00  0.00     0.293 HD
ENDBRANCH  34  48
BRANCH  37  50
ATOM     50  O   UNL     1     132.146 137.232 143.417  1.00  0.00    -0.508 OA
ATOM     51  H   UNL     1     132.080 138.223 143.609  1.00  0.00     0.293 HD
ENDBRANCH  37  50
ENDBRANCH  26  27
ENDBRANCH   5  26
BRANCH   4  52
ATOM     52  O   UNL     1     141.016 135.228 147.941  1.00  0.00    -0.384 OA
ATOM     53  H   UNL     1     141.975 134.977 148.011  1.00  0.00     0.211 HD
ENDBRANCH   4  52
TORSDOF 16
ENDMDL
MODEL 2
REMARK VINA RESULT:    -8.247      2.355      5.495
REMARK INTER + INTRA:         -15.225
REMARK INTER:                 -13.323
REMARK INTRA:                  -1.901
REMARK UNBOUND:                -1.675
REMARK SMILES C[C@H]1O[C@@H](OC[C@H]2O[C@H](Oc3c(-c4ccc(O)c(O)c4)oc4cc(O)cc(O)c4c3=O)[C@@H](O)[C@@H](O)[C@@H]2O)[C@H](O)[C@@H](O)[C@H]1O
REMARK SMILES IDX 7 1 36 2 34 3 32 4 9 5 8 6 6 7 5 8 4 9 1 10 2 11 42 12 3 13
REMARK SMILES IDX 40 14 38 15 43 16 41 18 39 20 37 22 35 24 10 26 11 27 12 28
REMARK SMILES IDX 30 29 21 30 29 31 31 32 22 33 27 34 23 35 26 36 24 37 13 38
REMARK SMILES IDX 20 39 14 40 18 41 15 42 16 43 19 44 17 46 28 48 25 50 33 52
REMARK H PARENT 43 17 41 19 39 21 37 23 35 25 19 45 17 47 28 49 25 51 33 53
REMARK Flexibility Score: inf
ROOT
ATOM      1  C   UNL     1     140.182 130.901 147.973  1.00  0.00     0.180 C 
ATOM      2  C   UNL     1     139.299 129.638 148.153  1.00  0.00     0.177 C 
ATOM      3  C   UNL     1     137.962 129.823 147.415  1.00  0.00     0.180 C 
ATOM      4  C   UNL     1     138.217 130.259 145.959  1.00  0.00     0.214 C 
ATOM      5  C   UNL     1     139.176 131.463 145.927  1.00  0.00     0.339 C 
ATOM      6  O   UNL     1     140.394 131.169 146.595  1.00  0.00    -0.332 OA
ENDROOT
BRANCH   1   7
ATOM      7  C   UNL     1     141.547 130.721 148.654  1.00  0.00     0.198 C 
BRANCH   7   8
ATOM      8  O   UNL     1     141.384 130.816 150.056  1.00  0.00    -0.347 OA
BRANCH   8   9
ATOM      9  C   UNL     1     142.387 130.103 150.759  1.00  0.00     0.281 C 
ATOM     10  C   UNL     1     145.426 128.616 149.337  1.00  0.00     0.041 C 
ATOM     11  C   UNL     1     144.539 129.228 150.429  1.00  0.00     0.150 C 
ATOM     12  C   UNL     1     144.260 128.241 151.614  1.00  0.00     0.174 C 
ATOM     13  O   UNL     1     143.345 129.686 149.807  1.00  0.00    -0.344 OA
ATOM     14  C   UNL     1     142.819 127.702 151.573  1.00  0.00     0.179 C 
ATOM     15  C   UNL     1     141.789 128.859 151.474  1.00  0.00     0.202 C 
BRANCH  12  16
ATOM     16  O   UNL     1     145.165 127.166 151.650  1.00  0.00    -0.388 OA
ATOM     17  H   UNL     1     145.289 126.931 152.606  1.00  0.00     0.211 HD
ENDBRANCH  12  16
BRANCH  14  18
ATOM     18  O   UNL     1     142.652 126.770 150.530  1.00  0.00    -0.387 OA
ATOM     19  H   UNL     1     142.419 127.263 149.702  1.00  0.00     0.211 HD
ENDBRANCH  14  18
BRANCH  15  20
ATOM     20  O   UNL     1     141.372 129.232 152.764  1.00  0.00    -0.385 OA
ATOM     21  H   UNL     1     141.674 130.167 152.907  1.00  0.00     0.211 HD
ENDBRANCH  15  20
ENDBRANCH   8   9
ENDBRANCH   7   8
ENDBRANCH   1   7
BRANCH   2  22
ATOM     22  O   UNL     1     139.077 129.356 149.513  1.00  0.00    -0.387 OA
ATOM     23  H   UNL     1     138.237 128.827 149.577  1.00  0.00     0.211 HD
ENDBRANCH   2  22
BRANCH   3  24
ATOM     24  O   UNL     1     137.237 128.622 147.446  1.00  0.00    -0.387 OA
ATOM     25  H   UNL     1     137.009 128.452 148.397  1.00  0.00     0.211 HD
ENDBRANCH   3  24
BRANCH   5  26
ATOM     26  O   UNL     1     138.545 132.620 146.489  1.00  0.00    -0.454 OA
BRANCH  26  27
ATOM     27  C   UNL     1     138.193 133.730 145.712  1.00  0.00     0.214 A 
ATOM     28  C   UNL     1     136.898 133.864 145.182  1.00  0.00     0.180 A 
ATOM     29  C   UNL     1     139.135 134.734 145.467  1.00  0.00     0.239 A 
ATOM     30  O   UNL     1     136.570 134.959 144.502  1.00  0.00    -0.452 OA
ATOM     31  C   UNL     1     138.759 135.877 144.730  1.00  0.00     0.111 A 
ATOM     32  O   UNL     1     140.306 134.604 145.916  1.00  0.00    -0.285 OA
ATOM     33  C   UNL     1     137.425 135.948 144.260  1.00  0.00     0.146 A 
ATOM     34  C   UNL     1     139.644 136.946 144.454  1.00  0.00     0.134 A 
ATOM     35  C   UNL     1     136.995 137.056 143.525  1.00  0.00     0.094 A 
ATOM     36  C   UNL     1     139.195 138.048 143.711  1.00  0.00     0.093 A 
ATOM     37  C   UNL     1     137.876 138.102 143.244  1.00  0.00     0.123 A 
BRANCH  28  38
ATOM     38  C   UNL     1     135.884 132.807 145.346  1.00  0.00     0.025 A 
ATOM     39  C   UNL     1     135.188 132.682 146.558  1.00  0.00     0.062 A 
ATOM     40  C   UNL     1     135.572 131.949 144.281  1.00  0.00     0.016 A 
ATOM     41  C   UNL     1     134.220 131.680 146.721  1.00  0.00     0.158 A 
ATOM     42  C   UNL     1     134.595 130.964 144.436  1.00  0.00     0.051 A 
ATOM     43  C   UNL     1     133.928 130.812 145.655  1.00  0.00     0.157 A 
BRANCH  41  44
ATOM     44  O   UNL     1     133.553 131.544 147.935  1.00  0.00    -0.504 OA
ATOM     45  H   UNL     1     133.879 132.012 148.775  1.00  0.00     0.293 HD
ENDBRANCH  41  44
BRANCH  43  46
ATOM     46  O   UNL     1     132.986 129.794 145.790  1.00  0.00    -0.504 OA
ATOM     47  H   UNL     1     132.584 129.546 146.687  1.00  0.00     0.293 HD
ENDBRANCH  43  46
ENDBRANCH  28  38
BRANCH  34  48
ATOM     48  O   UNL     1     140.961 136.925 144.914  1.00  0.00    -0.507 OA
ATOM     49  H   UNL     1     141.646 136.283 144.537  1.00  0.00     0.293 HD
ENDBRANCH  34  48
BRANCH  37  50
ATOM     50  O   UNL     1     137.433 139.193 142.498  1.00  0.00    -0.508 OA
ATOM     51  H   UNL     1     137.185 140.069 142.941  1.00  0.00     0.293 HD
ENDBRANCH  37  50
ENDBRANCH  26  27
ENDBRANCH   5  26
BRANCH   4  52
ATOM     52  O   UNL     1     138.786 129.204 145.222  1.00  0.00    -0.384 OA
ATOM     53  H   UNL     1     138.570 128.363 145.704  1.00  0.00     0.211 HD
ENDBRANCH   4  52
TORSDOF 16
ENDMDL
MODEL 3
REMARK VINA RESULT:    -8.030      2.986      9.331
REMARK INTER + INTRA:         -14.868
REMARK INTER:                 -12.411
REMARK INTRA:                  -2.457
REMARK UNBOUND:                -1.675
REMARK SMILES C[C@H]1O[C@@H](OC[C@H]2O[C@H](Oc3c(-c4ccc(O)c(O)c4)oc4cc(O)cc(O)c4c3=O)[C@@H](O)[C@@H](O)[C@@H]2O)[C@H](O)[C@@H](O)[C@H]1O
REMARK SMILES IDX 7 1 36 2 34 3 32 4 9 5 8 6 6 7 5 8 4 9 1 10 2 11 42 12 3 13
REMARK SMILES IDX 40 14 38 15 43 16 41 18 39 20 37 22 35 24 10 26 11 27 12 28
REMARK SMILES IDX 30 29 21 30 29 31 31 32 22 33 27 34 23 35 26 36 24 37 13 38
REMARK SMILES IDX 20 39 14 40 18 41 15 42 16 43 19 44 17 46 28 48 25 50 33 52
REMARK H PARENT 43 17 41 19 39 21 37 23 35 25 19 45 17 47 28 49 25 51 33 53
REMARK Flexibility Score: inf
ROOT
ATOM      1  C   UNL     1     142.743 133.045 143.440  1.00  0.00     0.180 C 
ATOM      2  C   UNL     1     143.781 132.369 142.505  1.00  0.00     0.177 C 
ATOM      3  C   UNL     1     144.489 131.224 143.248  1.00  0.00     0.180 C 
ATOM      4  C   UNL     1     143.450 130.282 143.884  1.00  0.00     0.214 C 
ATOM      5  C   UNL     1     142.434 131.093 144.710  1.00  0.00     0.339 C 
ATOM      6  O   UNL     1     141.806 132.089 143.917  1.00  0.00    -0.332 OA
ENDROOT
BRANCH   1   7
ATOM      7  C   UNL     1     141.980 134.156 142.705  1.00  0.00     0.198 C 
BRANCH   7   8
ATOM      8  O   UNL     1     141.933 135.310 143.523  1.00  0.00    -0.347 OA
BRANCH   8   9
ATOM      9  C   UNL     1     142.466 136.449 142.869  1.00  0.00     0.281 C 
ATOM     10  C   UNL     1     145.702 136.681 141.155  1.00  0.00     0.041 C 
ATOM     11  C   UNL     1     144.244 137.048 141.461  1.00  0.00     0.150 C 
ATOM     12  C   UNL     1     144.079 138.521 141.971  1.00  0.00     0.174 C 
ATOM     13  O   UNL     1     143.746 136.090 142.387  1.00  0.00    -0.344 OA
ATOM     14  C   UNL     1     143.789 138.567 143.482  1.00  0.00     0.179 C 
ATOM     15  C   UNL     1     142.596 137.645 143.853  1.00  0.00     0.202 C 
BRANCH  12  16
ATOM     16  O   UNL     1     145.195 139.324 141.680  1.00  0.00    -0.388 OA
ATOM     17  H   UNL     1     145.512 139.054 140.780  1.00  0.00     0.211 HD
ENDBRANCH  12  16
BRANCH  14  18
ATOM     18  O   UNL     1     144.939 138.253 144.233  1.00  0.00    -0.387 OA
ATOM     19  H   UNL     1     145.269 137.364 143.944  1.00  0.00     0.211 HD
ENDBRANCH  14  18
BRANCH  15  20
ATOM     20  O   UNL     1     141.401 138.386 143.830  1.00  0.00    -0.385 OA
ATOM     21  H   UNL     1     141.082 138.450 144.768  1.00  0.00     0.211 HD
ENDBRANCH  15  20
ENDBRANCH   8   9
ENDBRANCH   7   8
ENDBRANCH   1   7
BRANCH   2  22
ATOM     22  O   UNL     1     144.718 133.299 142.021  1.00  0.00    -0.387 OA
ATOM     23  H   UNL     1     144.361 133.671 141.170  1.00  0.00     0.211 HD
ENDBRANCH   2  22
BRANCH   3  24
ATOM     24  O   UNL     1     145.308 130.517 142.353  1.00  0.00    -0.387 OA
ATOM     25  H   UNL     1     145.624 129.709 142.834  1.00  0.00     0.211 HD
ENDBRANCH   3  24
BRANCH   5  26
ATOM     26  O   UNL     1     143.070 131.671 145.857  1.00  0.00    -0.454 OA
BRANCH  26  27
ATOM     27  C   UNL     1     142.824 131.211 147.156  1.00  0.00     0.214 A 
ATOM     28  C   UNL     1     141.709 131.657 147.887  1.00  0.00     0.180 A 
ATOM     29  C   UNL     1     143.690 130.280 147.739  1.00  0.00     0.239 A 
ATOM     30  O   UNL     1     141.462 131.155 149.093  1.00  0.00    -0.452 OA
ATOM     31  C   UNL     1     143.409 129.777 149.027  1.00  0.00     0.111 A 
ATOM     32  O   UNL     1     144.708 129.899 147.099  1.00  0.00    -0.285 OA
ATOM     33  C   UNL     1     142.246 130.255 149.680  1.00  0.00     0.146 A 
ATOM     34  C   UNL     1     144.221 128.821 149.679  1.00  0.00     0.134 A 
ATOM     35  C   UNL     1     141.915 129.793 150.957  1.00  0.00     0.094 A 
ATOM     36  C   UNL     1     143.875 128.372 150.962  1.00  0.00     0.093 A 
ATOM     37  C   UNL     1     142.728 128.858 151.602  1.00  0.00     0.123 A 
BRANCH  28  38
ATOM     38  C   UNL     1     140.801 132.688 147.354  1.00  0.00     0.025 A 
ATOM     39  C   UNL     1     141.299 133.952 147.004  1.00  0.00     0.062 A 
ATOM     40  C   UNL     1     139.442 132.402 147.149  1.00  0.00     0.016 A 
ATOM     41  C   UNL     1     140.441 134.938 146.494  1.00  0.00     0.158 A 
ATOM     42  C   UNL     1     138.592 133.376 146.624  1.00  0.00     0.051 A 
ATOM     43  C   UNL     1     139.078 134.649 146.310  1.00  0.00     0.157 A 
BRANCH  41  44
ATOM     44  O   UNL     1     140.938 136.198 146.175  1.00  0.00    -0.504 OA
ATOM     45  H   UNL     1     141.409 136.774 146.865  1.00  0.00     0.293 HD
ENDBRANCH  41  44
BRANCH  43  46
ATOM     46  O   UNL     1     138.195 135.612 145.824  1.00  0.00    -0.504 OA
ATOM     47  H   UNL     1     137.782 136.316 146.424  1.00  0.00     0.293 HD
ENDBRANCH  43  46
ENDBRANCH  28  38
BRANCH  34  48
ATOM     48  O   UNL     1     145.364 128.310 149.065  1.00  0.00    -0.507 OA
ATOM     49  H   UNL     1     145.873 127.527 149.453  1.00  0.00     0.293 HD
ENDBRANCH  34  48
BRANCH  37  50
ATOM     50  O   UNL     1     142.389 128.419 152.881  1.00  0.00    -0.508 OA
ATOM     51  H   UNL     1     142.477 129.025 153.687  1.00  0.00     0.293 HD
ENDBRANCH  37  50
ENDBRANCH  26  27
ENDBRANCH   5  26
BRANCH   4  52
ATOM     52  O   UNL     1     142.760 129.567 142.888  1.00  0.00    -0.384 OA
ATOM     53  H   UNL     1     142.795 128.607 143.142  1.00  0.00     0.211 HD
ENDBRANCH   4  52
TORSDOF 16
ENDMDL
MODEL 4
REMARK VINA RESULT:    -8.010      3.341     10.722
REMARK INTER + INTRA:         -14.835
REMARK INTER:                 -12.819
REMARK INTRA:                  -2.017
REMARK UNBOUND:                -1.675
REMARK SMILES C[C@H]1O[C@@H](OC[C@H]2O[C@H](Oc3c(-c4ccc(O)c(O)c4)oc4cc(O)cc(O)c4c3=O)[C@@H](O)[C@@H](O)[C@@H]2O)[C@H](O)[C@@H](O)[C@H]1O
REMARK SMILES IDX 7 1 36 2 34 3 32 4 9 5 8 6 6 7 5 8 4 9 1 10 2 11 42 12 3 13
REMARK SMILES IDX 40 14 38 15 43 16 41 18 39 20 37 22 35 24 10 26 11 27 12 28
REMARK SMILES IDX 30 29 21 30 29 31 31 32 22 33 27 34 23 35 26 36 24 37 13 38
REMARK SMILES IDX 20 39 14 40 18 41 15 42 16 43 19 44 17 46 28 48 25 50 33 52
REMARK H PARENT 43 17 41 19 39 21 37 23 35 25 19 45 17 47 28 49 25 51 33 53
REMARK Flexibility Score: inf
ROOT
ATOM      1  C   UNL     1     140.423 130.535 146.014  1.00  0.00     0.180 C 
ATOM      2  C   UNL     1     140.568 131.282 147.366  1.00  0.00     0.177 C 
ATOM      3  C   UNL     1     141.555 130.531 148.276  1.00  0.00     0.180 C 
ATOM      4  C   UNL     1     142.868 130.255 147.520  1.00  0.00     0.214 C 
ATOM      5  C   UNL     1     142.569 129.594 146.163  1.00  0.00     0.339 C 
ATOM      6  O   UNL     1     141.688 130.391 145.385  1.00  0.00    -0.332 OA
ENDROOT
BRANCH   1   7
ATOM      7  C   UNL     1     139.486 131.295 145.063  1.00  0.00     0.198 C 
BRANCH   7   8
ATOM      8  O   UNL     1     140.260 132.078 144.174  1.00  0.00    -0.347 OA
BRANCH   8   9
ATOM      9  C   UNL     1     140.448 133.399 144.652  1.00  0.00     0.281 C 
ATOM     10  C   UNL     1     138.779 136.432 143.434  1.00  0.00     0.041 C 
ATOM     11  C   UNL     1     139.507 135.538 144.447  1.00  0.00     0.150 C 
ATOM     12  C   UNL     1     140.886 136.128 144.903  1.00  0.00     0.174 C 
ATOM     13  O   UNL     1     139.631 134.245 143.869  1.00  0.00    -0.344 OA
ATOM     14  C   UNL     1     142.064 135.363 144.273  1.00  0.00     0.179 C 
ATOM     15  C   UNL     1     141.934 133.835 144.513  1.00  0.00     0.202 C 
BRANCH  12  16
ATOM     16  O   UNL     1     141.009 137.500 144.621  1.00  0.00    -0.388 OA
ATOM     17  H   UNL     1     140.456 137.978 145.292  1.00  0.00     0.211 HD
ENDBRANCH  12  16
BRANCH  14  18
ATOM     18  O   UNL     1     142.193 135.663 142.903  1.00  0.00    -0.387 OA
ATOM     19  H   UNL     1     142.356 134.818 142.410  1.00  0.00     0.211 HD
ENDBRANCH  14  18
BRANCH  15  20
ATOM     20  O   UNL     1     142.624 133.480 145.685  1.00  0.00    -0.385 OA
ATOM     21  H   UNL     1     141.945 133.375 146.401  1.00  0.00     0.211 HD
ENDBRANCH  15  20
ENDBRANCH   8   9
ENDBRANCH   7   8
ENDBRANCH   1   7
BRANCH   2  22
ATOM     22  O   UNL     1     139.325 131.435 148.004  1.00  0.00    -0.387 OA
ATOM     23  H   UNL     1     138.619 131.166 147.357  1.00  0.00     0.211 HD
ENDBRANCH   2  22
BRANCH   3  24
ATOM     24  O   UNL     1     141.804 131.292 149.429  1.00  0.00    -0.387 OA
ATOM     25  H   UNL     1     141.051 131.933 149.515  1.00  0.00     0.211 HD
ENDBRANCH   3  24
BRANCH   5  26
ATOM     26  O   UNL     1     142.040 128.275 146.353  1.00  0.00    -0.454 OA
BRANCH  26  27
ATOM     27  C   UNL     1     142.779 127.125 146.055  1.00  0.00     0.214 A 
ATOM     28  C   UNL     1     143.448 126.408 147.062  1.00  0.00     0.180 A 
ATOM     29  C   UNL     1     142.845 126.664 144.736  1.00  0.00     0.239 A 
ATOM     30  O   UNL     1     144.087 125.282 146.762  1.00  0.00    -0.452 OA
ATOM     31  C   UNL     1     143.544 125.473 144.447  1.00  0.00     0.111 A 
ATOM     32  O   UNL     1     142.270 127.320 143.824  1.00  0.00    -0.285 OA
ATOM     33  C   UNL     1     144.162 124.796 145.527  1.00  0.00     0.146 A 
ATOM     34  C   UNL     1     143.643 124.929 143.146  1.00  0.00     0.134 A 
ATOM     35  C   UNL     1     144.868 123.610 145.303  1.00  0.00     0.094 A 
ATOM     36  C   UNL     1     144.359 123.740 142.940  1.00  0.00     0.093 A 
ATOM     37  C   UNL     1     144.974 123.084 144.014  1.00  0.00     0.123 A 
BRANCH  28  38
ATOM     38  C   UNL     1     143.473 126.882 148.458  1.00  0.00     0.025 A 
ATOM     39  C   UNL     1     142.492 126.455 149.365  1.00  0.00     0.062 A 
ATOM     40  C   UNL     1     144.503 127.726 148.904  1.00  0.00     0.016 A 
ATOM     41  C   UNL     1     142.512 126.900 150.695  1.00  0.00     0.158 A 
ATOM     42  C   UNL     1     144.533 128.154 150.232  1.00  0.00     0.051 A 
ATOM     43  C   UNL     1     143.535 127.760 151.128  1.00  0.00     0.157 A 
BRANCH  41  44
ATOM     44  O   UNL     1     141.519 126.493 151.582  1.00  0.00    -0.504 OA
ATOM     45  H   UNL     1     140.569 126.318 151.271  1.00  0.00     0.293 HD
ENDBRANCH  41  44
BRANCH  43  46
ATOM     46  O   UNL     1     143.572 128.236 152.437  1.00  0.00    -0.504 OA
ATOM     47  H   UNL     1     142.978 128.993 152.753  1.00  0.00     0.293 HD
ENDBRANCH  43  46
ENDBRANCH  28  38
BRANCH  34  48
ATOM     48  O   UNL     1     143.034 125.554 142.058  1.00  0.00    -0.507 OA
ATOM     49  H   UNL     1     143.245 126.511 141.808  1.00  0.00     0.293 HD
ENDBRANCH  34  48
BRANCH  37  50
ATOM     50  O   UNL     1     145.693 121.908 143.808  1.00  0.00    -0.508 OA
ATOM     51  H   UNL     1     146.703 121.888 143.883  1.00  0.00     0.293 HD
ENDBRANCH  37  50
ENDBRANCH  26  27
ENDBRANCH   5  26
BRANCH   4  52
ATOM     52  O   UNL     1     143.570 131.454 147.299  1.00  0.00    -0.384 OA
ATOM     53  H   UNL     1     142.919 132.108 146.931  1.00  0.00     0.211 HD
ENDBRANCH   4  52
TORSDOF 16
ENDMDL
MODEL 5
REMARK VINA RESULT:    -7.999      1.722      5.521
REMARK INTER + INTRA:         -14.818
REMARK INTER:                 -13.063
REMARK INTRA:                  -1.755
REMARK UNBOUND:                -1.675
REMARK SMILES C[C@H]1O[C@@H](OC[C@H]2O[C@H](Oc3c(-c4ccc(O)c(O)c4)oc4cc(O)cc(O)c4c3=O)[C@@H](O)[C@@H](O)[C@@H]2O)[C@H](O)[C@@H](O)[C@H]1O
REMARK SMILES IDX 7 1 36 2 34 3 32 4 9 5 8 6 6 7 5 8 4 9 1 10 2 11 42 12 3 13
REMARK SMILES IDX 40 14 38 15 43 16 41 18 39 20 37 22 35 24 10 26 11 27 12 28
REMARK SMILES IDX 30 29 21 30 29 31 31 32 22 33 27 34 23 35 26 36 24 37 13 38
REMARK SMILES IDX 20 39 14 40 18 41 15 42 16 43 19 44 17 46 28 48 25 50 33 52
REMARK H PARENT 43 17 41 19 39 21 37 23 35 25 19 45 17 47 28 49 25 51 33 53
REMARK Flexibility Score: inf
ROOT
ATOM      1  C   UNL     1     138.653 131.435 146.781  1.00  0.00     0.180 C 
ATOM      2  C   UNL     1     137.160 131.084 147.016  1.00  0.00     0.177 C 
ATOM      3  C   UNL     1     136.264 132.200 146.455  1.00  0.00     0.180 C 
ATOM      4  C   UNL     1     136.656 132.512 144.998  1.00  0.00     0.214 C 
ATOM      5  C   UNL     1     138.172 132.753 144.896  1.00  0.00     0.339 C 
ATOM      6  O   UNL     1     138.904 131.644 145.398  1.00  0.00    -0.332 OA
ENDROOT
BRANCH   1   7
ATOM      7  C   UNL     1     139.570 130.309 147.281  1.00  0.00     0.198 C 
BRANCH   7   8
ATOM      8  O   UNL     1     139.873 130.527 148.646  1.00  0.00    -0.347 OA
BRANCH   8   9
ATOM      9  C   UNL     1     141.148 130.017 148.997  1.00  0.00     0.281 C 
ATOM     10  C   UNL     1     142.508 126.722 148.127  1.00  0.00     0.041 C 
ATOM     11  C   UNL     1     142.558 128.207 148.510  1.00  0.00     0.150 C 
ATOM     12  C   UNL     1     143.266 128.460 149.886  1.00  0.00     0.174 C 
ATOM     13  O   UNL     1     141.226 128.703 148.482  1.00  0.00    -0.344 OA
ATOM     14  C   UNL     1     142.252 128.818 150.986  1.00  0.00     0.179 C 
ATOM     15  C   UNL     1     141.328 129.984 150.541  1.00  0.00     0.202 C 
BRANCH  12  16
ATOM     16  O   UNL     1     144.048 127.368 150.302  1.00  0.00    -0.388 OA
ATOM     17  H   UNL     1     144.996 127.632 150.171  1.00  0.00     0.211 HD
ENDBRANCH  12  16
BRANCH  14  18
ATOM     18  O   UNL     1     141.507 127.690 151.381  1.00  0.00    -0.387 OA
ATOM     19  H   UNL     1     141.532 127.627 152.370  1.00  0.00     0.211 HD
ENDBRANCH  14  18
BRANCH  15  20
ATOM     20  O   UNL     1     141.876 131.208 150.962  1.00  0.00    -0.385 OA
ATOM     21  H   UNL     1     141.327 131.927 150.554  1.00  0.00     0.211 HD
ENDBRANCH  15  20
ENDBRANCH   8   9
ENDBRANCH   7   8
ENDBRANCH   1   7
BRANCH   2  22
ATOM     22  O   UNL     1     136.892 130.873 148.380  1.00  0.00    -0.387 OA
ATOM     23  H   UNL     1     136.183 131.517 148.650  1.00  0.00     0.211 HD
ENDBRANCH   2  22
BRANCH   3  24
ATOM     24  O   UNL     1     134.919 131.805 146.526  1.00  0.00    -0.387 OA
ATOM     25  H   UNL     1     134.816 131.297 147.373  1.00  0.00     0.211 HD
ENDBRANCH   3  24
BRANCH   5  26
ATOM     26  O   UNL     1     138.534 133.960 145.578  1.00  0.00    -0.454 OA
BRANCH  26  27
ATOM     27  C   UNL     1     139.346 134.935 144.988  1.00  0.00     0.214 A 
ATOM     28  C   UNL     1     138.790 136.076 144.382  1.00  0.00     0.180 A 
ATOM     29  C   UNL     1     140.737 134.788 145.010  1.00  0.00     0.239 A 
ATOM     30  O   UNL     1     139.586 137.019 143.887  1.00  0.00    -0.452 OA
ATOM     31  C   UNL     1     141.554 135.800 144.463  1.00  0.00     0.111 A 
ATOM     32  O   UNL     1     141.239 133.753 145.526  1.00  0.00    -0.285 OA
ATOM     33  C   UNL     1     140.912 136.932 143.901  1.00  0.00     0.146 A 
ATOM     34  C   UNL     1     142.967 135.739 144.461  1.00  0.00     0.134 A 
ATOM     35  C   UNL     1     141.670 137.967 143.345  1.00  0.00     0.094 A 
ATOM     36  C   UNL     1     143.709 136.785 143.895  1.00  0.00     0.093 A 
ATOM     37  C   UNL     1     143.064 137.895 143.335  1.00  0.00     0.123 A 
BRANCH  28  38
ATOM     38  C   UNL     1     137.331 136.253 144.266  1.00  0.00     0.025 A 
ATOM     39  C   UNL     1     136.702 136.113 143.019  1.00  0.00     0.062 A 
ATOM     40  C   UNL     1     136.554 136.515 145.404  1.00  0.00     0.016 A 
ATOM     41  C   UNL     1     135.315 136.278 142.902  1.00  0.00     0.158 A 
ATOM     42  C   UNL     1     135.170 136.660 145.291  1.00  0.00     0.051 A 
ATOM     43  C   UNL     1     134.546 136.560 144.044  1.00  0.00     0.157 A 
BRANCH  41  44
ATOM     44  O   UNL     1     134.702 136.165 141.657  1.00  0.00    -0.504 OA
ATOM     45  H   UNL     1     134.788 135.323 141.097  1.00  0.00     0.293 HD
ENDBRANCH  41  44
BRANCH  43  46
ATOM     46  O   UNL     1     133.168 136.749 143.958  1.00  0.00    -0.504 OA
ATOM     47  H   UNL     1     132.759 137.496 143.409  1.00  0.00     0.293 HD
ENDBRANCH  43  46
ENDBRANCH  28  38
BRANCH  34  48
ATOM     48  O   UNL     1     143.639 134.651 145.020  1.00  0.00    -0.507 OA
ATOM     49  H   UNL     1     143.164 133.973 145.601  1.00  0.00     0.293 HD
ENDBRANCH  34  48
BRANCH  37  50
ATOM     50  O   UNL     1     143.802 138.930 142.764  1.00  0.00    -0.508 OA
ATOM     51  H   UNL     1     143.705 139.886 143.085  1.00  0.00     0.293 HD
ENDBRANCH  37  50
ENDBRANCH  26  27
ENDBRANCH   5  26
BRANCH   4  52
ATOM     52  O   UNL     1     136.307 131.441 144.155  1.00  0.00    -0.384 OA
ATOM     53  H   UNL     1     136.591 130.606 144.612  1.00  0.00     0.211 HD
ENDBRANCH   4  52
TORSDOF 16
ENDMDL
MODEL 6
REMARK VINA RESULT:    -7.951      1.783      4.271
REMARK INTER + INTRA:         -14.738
REMARK INTER:                 -11.753
REMARK INTRA:                  -2.985
REMARK UNBOUND:                -1.675
REMARK SMILES C[C@H]1O[C@@H](OC[C@H]2O[C@H](Oc3c(-c4ccc(O)c(O)c4)oc4cc(O)cc(O)c4c3=O)[C@@H](O)[C@@H](O)[C@@H]2O)[C@H](O)[C@@H](O)[C@H]1O
REMARK SMILES IDX 7 1 36 2 34 3 32 4 9 5 8 6 6 7 5 8 4 9 1 10 2 11 42 12 3 13
REMARK SMILES IDX 40 14 38 15 43 16 41 18 39 20 37 22 35 24 10 26 11 27 12 28
REMARK SMILES IDX 30 29 21 30 29 31 31 32 22 33 27 34 23 35 26 36 24 37 13 38
REMARK SMILES IDX 20 39 14 40 18 41 15 42 16 43 19 44 17 46 28 48 25 50 33 52
REMARK H PARENT 43 17 41 19 39 21 37 23 35 25 19 45 17 47 28 49 25 51 33 53
REMARK Flexibility Score: inf
ROOT
ATOM      1  C   UNL     1     141.357 132.773 146.276  1.00  0.00     0.180 C 
ATOM      2  C   UNL     1     142.324 133.884 145.787  1.00  0.00     0.177 C 
ATOM      3  C   UNL     1     141.521 135.053 145.190  1.00  0.00     0.180 C 
ATOM      4  C   UNL     1     140.428 135.504 146.177  1.00  0.00     0.214 C 
ATOM      5  C   UNL     1     139.603 134.292 146.646  1.00  0.00     0.339 C 
ATOM      6  O   UNL     1     140.435 133.296 147.222  1.00  0.00    -0.332 OA
ENDROOT
BRANCH   1   7
ATOM      7  C   UNL     1     142.129 131.619 146.929  1.00  0.00     0.198 C 
BRANCH   7   8
ATOM      8  O   UNL     1     141.608 131.383 148.224  1.00  0.00    -0.347 OA
BRANCH   8   9
ATOM      9  C   UNL     1     142.483 130.599 149.016  1.00  0.00     0.281 C 
ATOM     10  C   UNL     1     144.051 127.420 148.064  1.00  0.00     0.041 C 
ATOM     11  C   UNL     1     143.907 128.744 148.827  1.00  0.00     0.150 C 
ATOM     12  C   UNL     1     143.762 128.544 150.375  1.00  0.00     0.174 C 
ATOM     13  O   UNL     1     142.809 129.448 148.262  1.00  0.00    -0.344 OA
ATOM     14  C   UNL     1     142.319 128.798 150.846  1.00  0.00     0.179 C 
ATOM     15  C   UNL     1     141.800 130.173 150.346  1.00  0.00     0.202 C 
BRANCH  12  16
ATOM     16  O   UNL     1     144.180 127.270 150.799  1.00  0.00    -0.388 OA
ATOM     17  H   UNL     1     143.407 126.661 150.670  1.00  0.00     0.211 HD
ENDBRANCH  12  16
BRANCH  14  18
ATOM     18  O   UNL     1     141.463 127.750 150.456  1.00  0.00    -0.387 OA
ATOM     19  H   UNL     1     141.880 127.270 149.696  1.00  0.00     0.211 HD
ENDBRANCH  14  18
BRANCH  15  20
ATOM     20  O   UNL     1     142.050 131.155 151.321  1.00  0.00    -0.385 OA
ATOM     21  H   UNL     1     143.035 131.201 151.441  1.00  0.00     0.211 HD
ENDBRANCH  15  20
ENDBRANCH   8   9
ENDBRANCH   7   8
ENDBRANCH   1   7
BRANCH   2  22
ATOM     22  O   UNL     1     143.245 133.387 144.849  1.00  0.00    -0.387 OA
ATOM     23  H   UNL     1     142.915 132.499 144.545  1.00  0.00     0.211 HD
ENDBRANCH   2  22
BRANCH   3  24
ATOM     24  O   UNL     1     142.387 136.118 144.898  1.00  0.00    -0.387 OA
ATOM     25  H   UNL     1     143.200 135.720 144.488  1.00  0.00     0.211 HD
ENDBRANCH   3  24
BRANCH   5  26
ATOM     26  O   UNL     1     138.836 133.759 145.559  1.00  0.00    -0.454 OA
BRANCH  26  27
ATOM     27  C   UNL     1     137.453 133.566 145.647  1.00  0.00     0.214 A 
ATOM     28  C   UNL     1     136.915 132.373 146.160  1.00  0.00     0.180 A 
ATOM     29  C   UNL     1     136.583 134.580 145.233  1.00  0.00     0.239 A 
ATOM     30  O   UNL     1     135.599 132.242 146.294  1.00  0.00    -0.452 OA
ATOM     31  C   UNL     1     135.190 134.405 145.375  1.00  0.00     0.111 A 
ATOM     32  O   UNL     1     137.059 135.641 144.745  1.00  0.00    -0.285 OA
ATOM     33  C   UNL     1     134.734 133.184 145.932  1.00  0.00     0.146 A 
ATOM     34  C   UNL     1     134.243 135.386 145.000  1.00  0.00     0.134 A 
ATOM     35  C   UNL     1     133.365 132.953 146.098  1.00  0.00     0.094 A 
ATOM     36  C   UNL     1     132.874 135.134 145.170  1.00  0.00     0.093 A 
ATOM     37  C   UNL     1     132.434 133.921 145.713  1.00  0.00     0.123 A 
BRANCH  28  38
ATOM     38  C   UNL     1     137.779 131.242 146.546  1.00  0.00     0.025 A 
ATOM     39  C   UNL     1     137.837 130.826 147.885  1.00  0.00     0.062 A 
ATOM     40  C   UNL     1     138.512 130.544 145.575  1.00  0.00     0.016 A 
ATOM     41  C   UNL     1     138.654 129.749 148.259  1.00  0.00     0.158 A 
ATOM     42  C   UNL     1     139.311 129.460 145.943  1.00  0.00     0.051 A 
ATOM     43  C   UNL     1     139.401 129.068 147.282  1.00  0.00     0.157 A 
BRANCH  41  44
ATOM     44  O   UNL     1     138.728 129.359 149.593  1.00  0.00    -0.504 OA
ATOM     45  H   UNL     1     138.251 129.877 150.324  1.00  0.00     0.293 HD
ENDBRANCH  41  44
BRANCH  43  46
ATOM     46  O   UNL     1     140.237 128.006 147.623  1.00  0.00    -0.504 OA
ATOM     47  H   UNL     1     139.916 127.046 147.628  1.00  0.00     0.293 HD
ENDBRANCH  43  46
ENDBRANCH  28  38
BRANCH  34  48
ATOM     48  O   UNL     1     134.650 136.609 144.464  1.00  0.00    -0.507 OA
ATOM     49  H   UNL     1     135.397 136.670 143.785  1.00  0.00     0.293 HD
ENDBRANCH  34  48
BRANCH  37  50
ATOM     50  O   UNL     1     131.074 133.667 145.874  1.00  0.00    -0.508 OA
ATOM     51  H   UNL     1     130.373 134.251 145.433  1.00  0.00     0.293 HD
ENDBRANCH  37  50
ENDBRANCH  26  27
ENDBRANCH   5  26
BRANCH   4  52
ATOM     52  O   UNL     1     141.006 136.124 147.301  1.00  0.00    -0.384 OA
ATOM     53  H   UNL     1     140.649 137.051 147.337  1.00  0.00     0.211 HD
ENDBRANCH   4  52
TORSDOF 16
ENDMDL
MODEL 7
REMARK VINA RESULT:    -7.892      1.478      2.100
REMARK INTER + INTRA:         -14.642
REMARK INTER:                 -12.557
REMARK INTRA:                  -2.085
REMARK UNBOUND:                -1.675
REMARK SMILES C[C@H]1O[C@@H](OC[C@H]2O[C@H](Oc3c(-c4ccc(O)c(O)c4)oc4cc(O)cc(O)c4c3=O)[C@@H](O)[C@@H](O)[C@@H]2O)[C@H](O)[C@@H](O)[C@H]1O
REMARK SMILES IDX 7 1 36 2 34 3 32 4 9 5 8 6 6 7 5 8 4 9 1 10 2 11 42 12 3 13
REMARK SMILES IDX 40 14 38 15 43 16 41 18 39 20 37 22 35 24 10 26 11 27 12 28
REMARK SMILES IDX 30 29 21 30 29 31 31 32 22 33 27 34 23 35 26 36 24 37 13 38
REMARK SMILES IDX 20 39 14 40 18 41 15 42 16 43 19 44 17 46 28 48 25 50 33 52
REMARK H PARENT 43 17 41 19 39 21 37 23 35 25 19 45 17 47 28 49 25 51 33 53
REMARK Flexibility Score: inf
ROOT
ATOM      1  C   UNL     1     140.876 131.311 147.388  1.00  0.00     0.180 C 
ATOM      2  C   UNL     1     142.309 131.358 146.795  1.00  0.00     0.177 C 
ATOM      3  C   UNL     1     142.326 132.236 145.532  1.00  0.00     0.180 C 
ATOM      4  C   UNL     1     141.680 133.602 145.829  1.00  0.00     0.214 C 
ATOM      5  C   UNL     1     140.306 133.407 146.493  1.00  0.00     0.339 C 
ATOM      6  O   UNL     1     140.412 132.623 147.673  1.00  0.00    -0.332 OA
ENDROOT
BRANCH   1   7
ATOM      7  C   UNL     1     140.842 130.487 148.683  1.00  0.00     0.198 C 
BRANCH   7   8
ATOM      8  O   UNL     1     141.585 131.159 149.683  1.00  0.00    -0.347 OA
BRANCH   8   9
ATOM      9  C   UNL     1     142.393 130.270 150.435  1.00  0.00     0.281 C 
ATOM     10  C   UNL     1     145.291 128.375 149.219  1.00  0.00     0.041 C 
ATOM     11  C   UNL     1     144.406 129.079 150.256  1.00  0.00     0.150 C 
ATOM     12  C   UNL     1     143.864 128.105 151.358  1.00  0.00     0.174 C 
ATOM     13  O   UNL     1     143.364 129.743 149.553  1.00  0.00    -0.344 OA
ATOM     14  C   UNL     1     142.368 127.802 151.158  1.00  0.00     0.179 C 
ATOM     15  C   UNL     1     141.543 129.110 151.027  1.00  0.00     0.202 C 
BRANCH  12  16
ATOM     16  O   UNL     1     144.585 126.900 151.419  1.00  0.00    -0.388 OA
ATOM     17  H   UNL     1     145.547 127.143 151.391  1.00  0.00     0.211 HD
ENDBRANCH  12  16
BRANCH  14  18
ATOM     18  O   UNL     1     142.163 126.948 150.057  1.00  0.00    -0.387 OA
ATOM     19  H   UNL     1     141.857 127.494 149.288  1.00  0.00     0.211 HD
ENDBRANCH  14  18
BRANCH  15  20
ATOM     20  O   UNL     1     141.065 129.496 152.292  1.00  0.00    -0.385 OA
ATOM     21  H   UNL     1     140.295 128.906 152.503  1.00  0.00     0.211 HD
ENDBRANCH  15  20
ENDBRANCH   8   9
ENDBRANCH   7   8
ENDBRANCH   1   7
BRANCH   2  22
ATOM     22  O   UNL     1     142.788 130.068 146.506  1.00  0.00    -0.387 OA
ATOM     23  H   UNL     1     142.861 129.988 145.517  1.00  0.00     0.211 HD
ENDBRANCH   2  22
BRANCH   3  24
ATOM     24  O   UNL     1     143.648 132.404 145.093  1.00  0.00    -0.387 OA
ATOM     25  H   UNL     1     144.225 132.352 145.900  1.00  0.00     0.211 HD
ENDBRANCH   3  24
BRANCH   5  26
ATOM     26  O   UNL     1     139.381 132.823 145.567  1.00  0.00    -0.454 OA
BRANCH  26  27
ATOM     27  C   UNL     1     138.090 133.331 145.382  1.00  0.00     0.214 A 
ATOM     28  C   UNL     1     137.853 134.417 144.522  1.00  0.00     0.180 A 
ATOM     29  C   UNL     1     137.010 132.745 146.049  1.00  0.00     0.239 A 
ATOM     30  O   UNL     1     136.609 134.839 144.312  1.00  0.00    -0.452 OA
ATOM     31  C   UNL     1     135.703 133.225 145.817  1.00  0.00     0.111 A 
ATOM     32  O   UNL     1     137.221 131.789 146.844  1.00  0.00    -0.285 OA
ATOM     33  C   UNL     1     135.550 134.301 144.909  1.00  0.00     0.146 A 
ATOM     34  C   UNL     1     134.555 132.676 146.435  1.00  0.00     0.134 A 
ATOM     35  C   UNL     1     134.279 134.819 144.638  1.00  0.00     0.094 A 
ATOM     36  C   UNL     1     133.290 133.212 146.154  1.00  0.00     0.093 A 
ATOM     37  C   UNL     1     133.151 134.282 145.261  1.00  0.00     0.123 A 
BRANCH  28  38
ATOM     38  C   UNL     1     138.958 135.121 143.846  1.00  0.00     0.025 A 
ATOM     39  C   UNL     1     139.484 136.300 144.398  1.00  0.00     0.062 A 
ATOM     40  C   UNL     1     139.524 134.597 142.674  1.00  0.00     0.016 A 
ATOM     41  C   UNL     1     140.537 136.973 143.762  1.00  0.00     0.158 A 
ATOM     42  C   UNL     1     140.584 135.257 142.051  1.00  0.00     0.051 A 
ATOM     43  C   UNL     1     141.085 136.451 142.578  1.00  0.00     0.157 A 
BRANCH  41  44
ATOM     44  O   UNL     1     141.035 138.156 144.301  1.00  0.00    -0.504 OA
ATOM     45  H   UNL     1     140.758 138.477 145.223  1.00  0.00     0.293 HD
ENDBRANCH  41  44
BRANCH  43  46
ATOM     46  O   UNL     1     142.118 137.107 141.911  1.00  0.00    -0.504 OA
ATOM     47  H   UNL     1     141.955 137.670 141.084  1.00  0.00     0.293 HD
ENDBRANCH  43  46
ENDBRANCH  28  38
BRANCH  34  48
ATOM     48  O   UNL     1     134.660 131.604 147.321  1.00  0.00    -0.507 OA
ATOM     49  H   UNL     1     134.013 131.483 148.089  1.00  0.00     0.293 HD
ENDBRANCH  34  48
BRANCH  37  50
ATOM     50  O   UNL     1     131.894 134.819 144.989  1.00  0.00    -0.508 OA
ATOM     51  H   UNL     1     131.178 134.276 144.524  1.00  0.00     0.293 HD
ENDBRANCH  37  50
ENDBRANCH  26  27
ENDBRANCH   5  26
BRANCH   4  52
ATOM     52  O   UNL     1     142.499 134.357 146.689  1.00  0.00    -0.384 OA
ATOM     53  H   UNL     1     143.440 134.119 146.479  1.00  0.00     0.211 HD
ENDBRANCH   4  52
TORSDOF 16
ENDMDL
MODEL 8
REMARK VINA RESULT:    -7.865      3.551      8.089
REMARK INTER + INTRA:         -14.597
REMARK INTER:                 -11.391
REMARK INTRA:                  -3.206
REMARK UNBOUND:                -1.675
REMARK SMILES C[C@H]1O[C@@H](OC[C@H]2O[C@H](Oc3c(-c4ccc(O)c(O)c4)oc4cc(O)cc(O)c4c3=O)[C@@H](O)[C@@H](O)[C@@H]2O)[C@H](O)[C@@H](O)[C@H]1O
REMARK SMILES IDX 7 1 36 2 34 3 32 4 9 5 8 6 6 7 5 8 4 9 1 10 2 11 42 12 3 13
REMARK SMILES IDX 40 14 38 15 43 16 41 18 39 20 37 22 35 24 10 26 11 27 12 28
REMARK SMILES IDX 30 29 21 30 29 31 31 32 22 33 27 34 23 35 26 36 24 37 13 38
REMARK SMILES IDX 20 39 14 40 18 41 15 42 16 43 19 44 17 46 28 48 25 50 33 52
REMARK H PARENT 43 17 41 19 39 21 37 23 35 25 19 45 17 47 28 49 25 51 33 53
REMARK Flexibility Score: inf
ROOT
ATOM      1  C   UNL     1     140.259 133.594 141.766  1.00  0.00     0.180 C 
ATOM      2  C   UNL     1     140.308 132.765 140.455  1.00  0.00     0.177 C 
ATOM      3  C   UNL     1     141.430 133.290 139.544  1.00  0.00     0.180 C 
ATOM      4  C   UNL     1     142.752 133.378 140.330  1.00  0.00     0.214 C 
ATOM      5  C   UNL     1     142.538 134.149 141.645  1.00  0.00     0.339 C 
ATOM      6  O   UNL     1     141.515 133.554 142.428  1.00  0.00    -0.332 OA
ENDROOT
BRANCH   1   7
ATOM      7  C   UNL     1     139.183 133.054 142.719  1.00  0.00     0.198 C 
BRANCH   7   8
ATOM      8  O   UNL     1     139.769 132.784 143.979  1.00  0.00    -0.347 OA
BRANCH   8   9
ATOM      9  C   UNL     1     138.870 132.130 144.857  1.00  0.00     0.281 C 
ATOM     10  C   UNL     1     135.380 133.057 145.513  1.00  0.00     0.041 C 
ATOM     11  C   UNL     1     136.593 132.121 145.421  1.00  0.00     0.150 C 
ATOM     12  C   UNL     1     136.995 131.505 146.806  1.00  0.00     0.174 C 
ATOM     13  O   UNL     1     137.654 132.851 144.819  1.00  0.00    -0.344 OA
ATOM     14  C   UNL     1     138.279 132.149 147.360  1.00  0.00     0.179 C 
ATOM     15  C   UNL     1     139.422 132.115 146.310  1.00  0.00     0.202 C 
BRANCH  12  16
ATOM     16  O   UNL     1     135.968 131.601 147.761  1.00  0.00    -0.388 OA
ATOM     17  H   UNL     1     135.646 132.539 147.737  1.00  0.00     0.211 HD
ENDBRANCH  12  16
BRANCH  14  18
ATOM     18  O   UNL     1     138.036 133.459 147.818  1.00  0.00    -0.387 OA
ATOM     19  H   UNL     1     137.925 134.051 147.032  1.00  0.00     0.211 HD
ENDBRANCH  14  18
BRANCH  15  20
ATOM     20  O   UNL     1     140.196 130.955 146.491  1.00  0.00    -0.385 OA
ATOM     21  H   UNL     1     139.587 130.252 146.838  1.00  0.00     0.211 HD
ENDBRANCH  15  20
ENDBRANCH   8   9
ENDBRANCH   7   8
ENDBRANCH   1   7
BRANCH   2  22
ATOM     22  O   UNL     1     139.073 132.792 139.784  1.00  0.00    -0.387 OA
ATOM     23  H   UNL     1     138.824 133.746 139.651  1.00  0.00     0.211 HD
ENDBRANCH   2  22
BRANCH   3  24
ATOM     24  O   UNL     1     141.575 132.440 138.437  1.00  0.00    -0.387 OA
ATOM     25  H   UNL     1     141.053 132.846 137.696  1.00  0.00     0.211 HD
ENDBRANCH   3  24
BRANCH   5  26
ATOM     26  O   UNL     1     142.246 135.526 141.376  1.00  0.00    -0.454 OA
BRANCH  26  27
ATOM     27  C   UNL     1     142.983 136.570 141.947  1.00  0.00     0.214 A 
ATOM     28  C   UNL     1     142.594 137.154 143.165  1.00  0.00     0.180 A 
ATOM     29  C   UNL     1     144.138 137.035 141.309  1.00  0.00     0.239 A 
ATOM     30  O   UNL     1     143.348 138.099 143.719  1.00  0.00    -0.452 OA
ATOM     31  C   UNL     1     144.909 138.049 141.916  1.00  0.00     0.111 A 
ATOM     32  O   UNL     1     144.476 136.535 140.202  1.00  0.00    -0.285 OA
ATOM     33  C   UNL     1     144.462 138.560 143.160  1.00  0.00     0.146 A 
ATOM     34  C   UNL     1     146.098 138.562 141.349  1.00  0.00     0.134 A 
ATOM     35  C   UNL     1     145.185 139.565 143.809  1.00  0.00     0.094 A 
ATOM     36  C   UNL     1     146.808 139.574 142.013  1.00  0.00     0.093 A 
ATOM     37  C   UNL     1     146.352 140.077 143.238  1.00  0.00     0.123 A 
BRANCH  28  38
ATOM     38  C   UNL     1     141.350 136.755 143.848  1.00  0.00     0.025 A 
ATOM     39  C   UNL     1     141.403 136.160 145.118  1.00  0.00     0.062 A 
ATOM     40  C   UNL     1     140.102 137.008 143.257  1.00  0.00     0.016 A 
ATOM     41  C   UNL     1     140.224 135.781 145.774  1.00  0.00     0.158 A 
ATOM     42  C   UNL     1     138.927 136.647 143.919  1.00  0.00     0.051 A 
ATOM     43  C   UNL     1     138.979 136.020 145.167  1.00  0.00     0.157 A 
BRANCH  41  44
ATOM     44  O   UNL     1     140.286 135.166 147.022  1.00  0.00    -0.504 OA
ATOM     45  H   UNL     1     140.964 134.438 147.222  1.00  0.00     0.293 HD
ENDBRANCH  41  44
BRANCH  43  46
ATOM     46  O   UNL     1     137.789 135.637 145.784  1.00  0.00    -0.504 OA
ATOM     47  H   UNL     1     136.926 135.523 145.267  1.00  0.00     0.293 HD
ENDBRANCH  43  46
ENDBRANCH  28  38
BRANCH  34  48
ATOM     48  O   UNL     1     146.583 138.075 140.134  1.00  0.00    -0.507 OA
ATOM     49  H   UNL     1     146.048 137.430 139.568  1.00  0.00     0.293 HD
ENDBRANCH  34  48
BRANCH  37  50
ATOM     50  O   UNL     1     147.052 141.088 143.893  1.00  0.00    -0.508 OA
ATOM     51  H   UNL     1     148.006 141.316 143.643  1.00  0.00     0.293 HD
ENDBRANCH  37  50
ENDBRANCH  26  27
ENDBRANCH   5  26
BRANCH   4  52
ATOM     52  O   UNL     1     143.234 132.091 140.629  1.00  0.00    -0.384 OA
ATOM     53  H   UNL     1     142.451 131.479 140.627  1.00  0.00     0.211 HD
ENDBRANCH   4  52
TORSDOF 16
ENDMDL
MODEL 9
REMARK VINA RESULT:    -7.861      2.350      9.437
REMARK INTER + INTRA:         -14.590
REMARK INTER:                 -11.349
REMARK INTRA:                  -3.241
REMARK UNBOUND:                -1.675
REMARK SMILES C[C@H]1O[C@@H](OC[C@H]2O[C@H](Oc3c(-c4ccc(O)c(O)c4)oc4cc(O)cc(O)c4c3=O)[C@@H](O)[C@@H](O)[C@@H]2O)[C@H](O)[C@@H](O)[C@H]1O
REMARK SMILES IDX 7 1 36 2 34 3 32 4 9 5 8 6 6 7 5 8 4 9 1 10 2 11 42 12 3 13
REMARK SMILES IDX 40 14 38 15 43 16 41 18 39 20 37 22 35 24 10 26 11 27 12 28
REMARK SMILES IDX 30 29 21 30 29 31 31 32 22 33 27 34 23 35 26 36 24 37 13 38
REMARK SMILES IDX 20 39 14 40 18 41 15 42 16 43 19 44 17 46 28 48 25 50 33 52
REMARK H PARENT 43 17 41 19 39 21 37 23 35 25 19 45 17 47 28 49 25 51 33 53
REMARK Flexibility Score: inf
ROOT
ATOM      1  C   UNL     1     138.650 132.186 145.093  1.00  0.00     0.180 C 
ATOM      2  C   UNL     1     137.493 131.411 144.410  1.00  0.00     0.177 C 
ATOM      3  C   UNL     1     137.598 129.912 144.739  1.00  0.00     0.180 C 
ATOM      4  C   UNL     1     137.730 129.712 146.260  1.00  0.00     0.214 C 
ATOM      5  C   UNL     1     138.854 130.604 146.817  1.00  0.00     0.339 C 
ATOM      6  O   UNL     1     138.634 131.969 146.497  1.00  0.00    -0.332 OA
ENDROOT
BRANCH   1   7
ATOM      7  C   UNL     1     138.535 133.694 144.828  1.00  0.00     0.198 C 
BRANCH   7   8
ATOM      8  O   UNL     1     139.177 134.002 143.605  1.00  0.00    -0.347 OA
BRANCH   8   9
ATOM      9  C   UNL     1     138.570 135.100 142.946  1.00  0.00     0.281 C 
ATOM     10  C   UNL     1     139.359 138.652 143.422  1.00  0.00     0.041 C 
ATOM     11  C   UNL     1     138.851 137.413 142.673  1.00  0.00     0.150 C 
ATOM     12  C   UNL     1     137.328 137.499 142.311  1.00  0.00     0.174 C 
ATOM     13  O   UNL     1     139.160 136.275 143.466  1.00  0.00    -0.344 OA
ATOM     14  C   UNL     1     136.481 136.577 143.206  1.00  0.00     0.179 C 
ATOM     15  C   UNL     1     137.038 135.128 143.205  1.00  0.00     0.202 C 
BRANCH  12  16
ATOM     16  O   UNL     1     136.828 138.812 142.379  1.00  0.00    -0.388 OA
ATOM     17  H   UNL     1     137.198 139.297 141.596  1.00  0.00     0.211 HD
ENDBRANCH  12  16
BRANCH  14  18
ATOM     18  O   UNL     1     136.377 137.090 144.514  1.00  0.00    -0.387 OA
ATOM     19  H   UNL     1     137.027 137.832 144.613  1.00  0.00     0.211 HD
ENDBRANCH  14  18
BRANCH  15  20
ATOM     20  O   UNL     1     136.394 134.375 142.207  1.00  0.00    -0.385 OA
ATOM     21  H   UNL     1     136.477 133.420 142.464  1.00  0.00     0.211 HD
ENDBRANCH  15  20
ENDBRANCH   8   9
ENDBRANCH   7   8
ENDBRANCH   1   7
BRANCH   2  22
ATOM     22  O   UNL     1     137.491 131.613 143.018  1.00  0.00    -0.387 OA
ATOM     23  H   UNL     1     136.882 132.375 142.825  1.00  0.00     0.211 HD
ENDBRANCH   2  22
BRANCH   3  24
ATOM     24  O   UNL     1     136.465 129.242 144.253  1.00  0.00    -0.387 OA
ATOM     25  H   UNL     1     135.681 129.633 144.720  1.00  0.00     0.211 HD
ENDBRANCH   3  24
BRANCH   5  26
ATOM     26  O   UNL     1     140.129 130.161 146.337  1.00  0.00    -0.454 OA
BRANCH  26  27
ATOM     27  C   UNL     1     141.214 129.939 147.193  1.00  0.00     0.214 A 
ATOM     28  C   UNL     1     142.130 130.965 147.487  1.00  0.00     0.180 A 
ATOM     29  C   UNL     1     141.387 128.684 147.785  1.00  0.00     0.239 A 
ATOM     30  O   UNL     1     143.113 130.747 148.356  1.00  0.00    -0.452 OA
ATOM     31  C   UNL     1     142.449 128.481 148.691  1.00  0.00     0.111 A 
ATOM     32  O   UNL     1     140.585 127.753 147.502  1.00  0.00    -0.285 OA
ATOM     33  C   UNL     1     143.307 129.577 148.956  1.00  0.00     0.146 A 
ATOM     34  C   UNL     1     142.684 127.249 149.346  1.00  0.00     0.134 A 
ATOM     35  C   UNL     1     144.376 129.436 149.846  1.00  0.00     0.094 A 
ATOM     36  C   UNL     1     143.764 127.126 150.232  1.00  0.00     0.093 A 
ATOM     37  C   UNL     1     144.611 128.214 150.480  1.00  0.00     0.123 A 
BRANCH  28  38
ATOM     38  C   UNL     1     142.040 132.287 146.842  1.00  0.00     0.025 A 
ATOM     39  C   UNL     1     141.523 133.383 147.550  1.00  0.00     0.062 A 
ATOM     40  C   UNL     1     142.512 132.473 145.533  1.00  0.00     0.016 A 
ATOM     41  C   UNL     1     141.437 134.644 146.942  1.00  0.00     0.158 A 
ATOM     42  C   UNL     1     142.444 133.732 144.935  1.00  0.00     0.051 A 
ATOM     43  C   UNL     1     141.894 134.817 145.625  1.00  0.00     0.157 A 
BRANCH  41  44
ATOM     44  O   UNL     1     140.898 135.719 147.642  1.00  0.00    -0.504 OA
ATOM     45  H   UNL     1     140.028 136.157 147.355  1.00  0.00     0.293 HD
ENDBRANCH  41  44
BRANCH  43  46
ATOM     46  O   UNL     1     141.805 136.052 144.986  1.00  0.00    -0.504 OA
ATOM     47  H   UNL     1     140.940 136.579 144.948  1.00  0.00     0.293 HD
ENDBRANCH  43  46
ENDBRANCH  28  38
BRANCH  34  48
ATOM     48  O   UNL     1     141.853 126.150 149.128  1.00  0.00    -0.507 OA
ATOM     49  H   UNL     1     141.217 125.814 149.838  1.00  0.00     0.293 HD
ENDBRANCH  34  48
BRANCH  37  50
ATOM     50  O   UNL     1     145.689 128.089 151.353  1.00  0.00    -0.508 OA
ATOM     51  H   UNL     1     146.131 127.194 151.521  1.00  0.00     0.293 HD
ENDBRANCH  37  50
ENDBRANCH  26  27
ENDBRANCH   5  26
BRANCH   4  52
ATOM     52  O   UNL     1     136.524 130.042 146.906  1.00  0.00    -0.384 OA
ATOM     53  H   UNL     1     136.726 130.778 147.542  1.00  0.00     0.211 HD
ENDBRANCH   4  52
TORSDOF 16
ENDMDL
