MODEL 1
REMARK VINA RESULT:    -6.001      0.000      0.000
REMARK INTER + INTRA:          -6.176
REMARK INTER:                  -6.176
REMARK INTRA:                   0.000
REMARK UNBOUND:                 0.000
REMARK SMILES CC1(C)CC[C@@]2(C)CC[C@]3(C)C(=CC[C@H]4[C@]5(C)CC[C@H](O)C(C)(C)[C@@H]5CC[C@@]43C)[C@H]2C1
REMARK SMILES IDX 1 1 2 2 4 3 5 4 6 5 8 6 9 7 10 8 12 9 13 10 14 11 15 12
REMARK SMILES IDX 28 13 27 14 26 15 25 16 16 17 18 18 19 19 20 20 22 21 23 22
REMARK SMILES IDX 24 23 17 24 29 25 30 26 31 27 11 28 7 29 3 30 21 31
REMARK H PARENT 21 32
REMARK Flexibility Score: inf
ROOT
ATOM      1  C   UNL     1      12.463  -8.637  25.604  1.00  0.00     0.011 C 
ATOM      2  C   UNL     1      12.471 -10.182  25.603  1.00  0.00    -0.035 C 
ATOM      3  C   UNL     1      11.252 -10.707  24.772  1.00  0.00     0.007 C 
ATOM      4  C   UNL     1      11.656 -11.550  23.547  1.00  0.00     0.008 C 
ATOM      5  C   UNL     1      12.605 -12.726  23.926  1.00  0.00    -0.026 C 
ATOM      6  C   UNL     1      13.020 -13.438  22.604  1.00  0.00     0.008 C 
ATOM      7  C   UNL     1      14.113 -14.527  22.778  1.00  0.00     0.012 C 
ATOM      8  C   UNL     1      15.337 -14.127  23.699  1.00  0.00    -0.006 C 
ATOM      9  C   UNL     1      15.196 -12.622  24.000  1.00  0.00    -0.064 C 
ATOM     10  C   UNL     1      16.039 -11.712  23.434  1.00  0.00    -0.027 C 
ATOM     11  C   UNL     1      17.133 -12.036  22.452  1.00  0.00     0.032 C 
ATOM     12  C   UNL     1      17.011 -13.462  21.852  1.00  0.00     0.006 C 
ATOM     13  C   UNL     1      16.770 -14.456  23.036  1.00  0.00    -0.020 C 
ATOM     14  C   UNL     1      16.829 -15.890  22.468  1.00  0.00     0.008 C 
ATOM     15  C   UNL     1      18.187 -16.266  21.882  1.00  0.00     0.005 C 
ATOM     16  C   UNL     1      18.994 -15.143  21.143  1.00  0.00     0.003 C 
ATOM     17  C   UNL     1      18.096 -13.896  20.725  1.00  0.00    -0.025 C 
ATOM     18  C   UNL     1      17.321 -14.292  19.426  1.00  0.00     0.010 C 
ATOM     19  C   UNL     1      18.209 -14.802  18.281  1.00  0.00     0.033 C 
ATOM     20  C   UNL     1      19.058 -16.020  18.679  1.00  0.00     0.120 C 
ATOM     21  C   UNL     1      19.901 -15.769  19.977  1.00  0.00    -0.006 C 
ATOM     22  C   UNL     1      20.555 -17.116  20.431  1.00  0.00     0.014 C 
ATOM     23  C   UNL     1      21.125 -14.852  19.631  1.00  0.00     0.014 C 
ATOM     24  C   UNL     1      18.988 -12.661  20.394  1.00  0.00     0.012 C 
ATOM     25  C   UNL     1      17.885 -14.308  24.133  1.00  0.00     0.012 C 
ATOM     26  C   UNL     1      13.886 -12.184  24.703  1.00  0.00     0.022 C 
ATOM     27  C   UNL     1      13.814 -10.654  24.989  1.00  0.00     0.015 C 
ATOM     28  C   UNL     1      15.206 -14.903  25.053  1.00  0.00     0.017 C 
ATOM     29  C   UNL     1      11.776 -13.737  24.779  1.00  0.00     0.012 C 
ATOM     30  C   UNL     1      12.368 -10.647  27.077  1.00  0.00     0.011 C 
ENDROOT
BRANCH  20  31
ATOM     31  O   UNL     1      18.198 -17.125  18.827  1.00  0.00    -0.393 OA
ATOM     32  H   UNL     1      17.392 -16.957  18.273  1.00  0.00     0.210 HD
ENDBRANCH  20  31
TORSDOF 1
ENDMDL
MODEL 2
REMARK VINA RESULT:    -5.430      7.781     11.292
REMARK INTER + INTRA:          -5.588
REMARK INTER:                  -5.588
REMARK INTRA:                   0.000
REMARK UNBOUND:                 0.000
REMARK SMILES CC1(C)CC[C@@]2(C)CC[C@]3(C)C(=CC[C@H]4[C@]5(C)CC[C@H](O)C(C)(C)[C@@H]5CC[C@@]43C)[C@H]2C1
REMARK SMILES IDX 1 1 2 2 4 3 5 4 6 5 8 6 9 7 10 8 12 9 13 10 14 11 15 12
REMARK SMILES IDX 28 13 27 14 26 15 25 16 16 17 18 18 19 19 20 20 22 21 23 22
REMARK SMILES IDX 24 23 17 24 29 25 30 26 31 27 11 28 7 29 3 30 21 31
REMARK H PARENT 21 32
REMARK Flexibility Score: inf
ROOT
ATOM      1  C   UNL     1      15.852 -11.453  23.621  1.00  0.00     0.011 C 
ATOM      2  C   UNL     1      17.222 -10.793  23.349  1.00  0.00    -0.035 C 
ATOM      3  C   UNL     1      17.392 -10.563  21.809  1.00  0.00     0.007 C 
ATOM      4  C   UNL     1      17.555  -9.082  21.419  1.00  0.00     0.008 C 
ATOM      5  C   UNL     1      18.708  -8.388  22.204  1.00  0.00    -0.026 C 
ATOM      6  C   UNL     1      18.710  -6.883  21.800  1.00  0.00     0.008 C 
ATOM      7  C   UNL     1      19.682  -5.998  22.627  1.00  0.00     0.012 C 
ATOM      8  C   UNL     1      19.665  -6.240  24.191  1.00  0.00    -0.006 C 
ATOM      9  C   UNL     1      18.475  -7.175  24.486  1.00  0.00    -0.064 C 
ATOM     10  C   UNL     1      17.353  -6.709  25.103  1.00  0.00    -0.027 C 
ATOM     11  C   UNL     1      17.119  -5.279  25.516  1.00  0.00     0.032 C 
ATOM     12  C   UNL     1      18.120  -4.287  24.867  1.00  0.00     0.006 C 
ATOM     13  C   UNL     1      19.558  -4.877  25.047  1.00  0.00    -0.020 C 
ATOM     14  C   UNL     1      20.568  -3.812  24.568  1.00  0.00     0.008 C 
ATOM     15  C   UNL     1      20.543  -2.525  25.388  1.00  0.00     0.005 C 
ATOM     16  C   UNL     1      19.156  -2.037  25.930  1.00  0.00     0.003 C 
ATOM     17  C   UNL     1      17.919  -2.707  25.183  1.00  0.00    -0.025 C 
ATOM     18  C   UNL     1      17.731  -1.957  23.825  1.00  0.00     0.010 C 
ATOM     19  C   UNL     1      17.602  -0.430  23.948  1.00  0.00     0.033 C 
ATOM     20  C   UNL     1      18.808   0.216  24.649  1.00  0.00     0.120 C 
ATOM     21  C   UNL     1      19.120  -0.437  26.039  1.00  0.00    -0.006 C 
ATOM     22  C   UNL     1      20.478   0.124  26.576  1.00  0.00     0.014 C 
ATOM     23  C   UNL     1      18.066   0.054  27.092  1.00  0.00     0.014 C 
ATOM     24  C   UNL     1      16.612  -2.530  26.014  1.00  0.00     0.012 C 
ATOM     25  C   UNL     1      19.852  -5.198  26.557  1.00  0.00     0.012 C 
ATOM     26  C   UNL     1      18.494  -8.552  23.774  1.00  0.00     0.022 C 
ATOM     27  C   UNL     1      17.271  -9.451  24.125  1.00  0.00     0.015 C 
ATOM     28  C   UNL     1      20.979  -6.994  24.587  1.00  0.00     0.017 C 
ATOM     29  C   UNL     1      20.049  -9.020  21.717  1.00  0.00     0.012 C 
ATOM     30  C   UNL     1      18.313 -11.754  23.882  1.00  0.00     0.011 C 
ENDROOT
BRANCH  20  31
ATOM     31  O   UNL     1      19.914   0.138  23.782  1.00  0.00    -0.393 OA
ATOM     32  H   UNL     1      19.602  -0.263  22.929  1.00  0.00     0.210 HD
ENDBRANCH  20  31
TORSDOF 1
ENDMDL
MODEL 3
REMARK VINA RESULT:    -5.303      3.783      6.692
REMARK INTER + INTRA:          -5.458
REMARK INTER:                  -5.458
REMARK INTRA:                   0.000
REMARK UNBOUND:                 0.000
REMARK SMILES CC1(C)CC[C@@]2(C)CC[C@]3(C)C(=CC[C@H]4[C@]5(C)CC[C@H](O)C(C)(C)[C@@H]5CC[C@@]43C)[C@H]2C1
REMARK SMILES IDX 1 1 2 2 4 3 5 4 6 5 8 6 9 7 10 8 12 9 13 10 14 11 15 12
REMARK SMILES IDX 28 13 27 14 26 15 25 16 16 17 18 18 19 19 20 20 22 21 23 22
REMARK SMILES IDX 24 23 17 24 29 25 30 26 31 27 11 28 7 29 3 30 21 31
REMARK H PARENT 21 32
REMARK Flexibility Score: inf
ROOT
ATOM      1  C   UNL     1       7.386  -5.951  24.006  1.00  0.00     0.011 C 
ATOM      2  C   UNL     1       8.679  -6.011  24.851  1.00  0.00    -0.035 C 
ATOM      3  C   UNL     1       8.303  -6.146  26.366  1.00  0.00     0.007 C 
ATOM      4  C   UNL     1       8.827  -7.439  27.020  1.00  0.00     0.008 C 
ATOM      5  C   UNL     1      10.361  -7.623  26.820  1.00  0.00    -0.026 C 
ATOM      6  C   UNL     1      10.752  -9.000  27.433  1.00  0.00     0.008 C 
ATOM      7  C   UNL     1      12.218  -9.432  27.160  1.00  0.00     0.012 C 
ATOM      8  C   UNL     1      12.727  -9.226  25.675  1.00  0.00    -0.006 C 
ATOM      9  C   UNL     1      11.497  -8.841  24.830  1.00  0.00    -0.064 C 
ATOM     10  C   UNL     1      10.958  -9.718  23.936  1.00  0.00    -0.027 C 
ATOM     11  C   UNL     1      11.441 -11.125  23.702  1.00  0.00     0.032 C 
ATOM     12  C   UNL     1      12.395 -11.635  24.814  1.00  0.00     0.006 C 
ATOM     13  C   UNL     1      13.466 -10.524  25.067  1.00  0.00    -0.020 C 
ATOM     14  C   UNL     1      14.521 -11.097  26.039  1.00  0.00     0.008 C 
ATOM     15  C   UNL     1      15.287 -12.293  25.482  1.00  0.00     0.005 C 
ATOM     16  C   UNL     1      14.504 -13.295  24.565  1.00  0.00     0.003 C 
ATOM     17  C   UNL     1      12.922 -13.167  24.705  1.00  0.00    -0.025 C 
ATOM     18  C   UNL     1      12.504 -13.923  26.008  1.00  0.00     0.010 C 
ATOM     19  C   UNL     1      12.999 -15.375  26.093  1.00  0.00     0.033 C 
ATOM     20  C   UNL     1      14.527 -15.494  25.981  1.00  0.00     0.120 C 
ATOM     21  C   UNL     1      15.097 -14.779  24.708  1.00  0.00    -0.006 C 
ATOM     22  C   UNL     1      16.659 -14.758  24.788  1.00  0.00     0.014 C 
ATOM     23  C   UNL     1      14.795 -15.653  23.442  1.00  0.00     0.014 C 
ATOM     24  C   UNL     1      12.205 -13.853  23.502  1.00  0.00     0.012 C 
ATOM     25  C   UNL     1      14.189 -10.121  23.731  1.00  0.00     0.012 C 
ATOM     26  C   UNL     1      10.734  -7.566  25.272  1.00  0.00     0.022 C 
ATOM     27  C   UNL     1       9.510  -7.228  24.369  1.00  0.00     0.015 C 
ATOM     28  C   UNL     1      13.719  -8.014  25.659  1.00  0.00     0.017 C 
ATOM     29  C   UNL     1      11.075  -6.507  27.645  1.00  0.00     0.012 C 
ATOM     30  C   UNL     1       9.460  -4.699  24.596  1.00  0.00     0.011 C 
ENDROOT
BRANCH  20  31
ATOM     31  O   UNL     1      15.095 -14.978  27.161  1.00  0.00    -0.393 OA
ATOM     32  H   UNL     1      16.081 -15.060  27.083  1.00  0.00     0.210 HD
ENDBRANCH  20  31
TORSDOF 1
ENDMDL
MODEL 4
REMARK VINA RESULT:    -5.167      5.525      7.628
REMARK INTER + INTRA:          -5.318
REMARK INTER:                  -5.318
REMARK INTRA:                   0.000
REMARK UNBOUND:                 0.000
REMARK SMILES CC1(C)CC[C@@]2(C)CC[C@]3(C)C(=CC[C@H]4[C@]5(C)CC[C@H](O)C(C)(C)[C@@H]5CC[C@@]43C)[C@H]2C1
REMARK SMILES IDX 1 1 2 2 4 3 5 4 6 5 8 6 9 7 10 8 12 9 13 10 14 11 15 12
REMARK SMILES IDX 28 13 27 14 26 15 25 16 16 17 18 18 19 19 20 20 22 21 23 22
REMARK SMILES IDX 24 23 17 24 29 25 30 26 31 27 11 28 7 29 3 30 21 31
REMARK H PARENT 21 32
REMARK Flexibility Score: inf
ROOT
ATOM      1  C   UNL     1      16.264  -2.532  26.066  1.00  0.00     0.011 C 
ATOM      2  C   UNL     1      17.655  -3.017  25.600  1.00  0.00    -0.035 C 
ATOM      3  C   UNL     1      18.607  -3.133  26.838  1.00  0.00     0.007 C 
ATOM      4  C   UNL     1      19.131  -4.561  27.082  1.00  0.00     0.008 C 
ATOM      5  C   UNL     1      19.807  -5.168  25.817  1.00  0.00    -0.026 C 
ATOM      6  C   UNL     1      20.203  -6.635  26.155  1.00  0.00     0.008 C 
ATOM      7  C   UNL     1      20.728  -7.454  24.944  1.00  0.00     0.012 C 
ATOM      8  C   UNL     1      19.891  -7.310  23.607  1.00  0.00    -0.006 C 
ATOM      9  C   UNL     1      18.609  -6.534  23.964  1.00  0.00    -0.064 C 
ATOM     10  C   UNL     1      17.398  -7.159  24.001  1.00  0.00    -0.027 C 
ATOM     11  C   UNL     1      17.171  -8.628  23.757  1.00  0.00     0.032 C 
ATOM     12  C   UNL     1      18.479  -9.461  23.801  1.00  0.00     0.006 C 
ATOM     13  C   UNL     1      19.541  -8.726  22.918  1.00  0.00    -0.020 C 
ATOM     14  C   UNL     1      20.780  -9.639  22.810  1.00  0.00     0.008 C 
ATOM     15  C   UNL     1      20.508 -10.968  22.111  1.00  0.00     0.005 C 
ATOM     16  C   UNL     1      19.112 -11.640  22.347  1.00  0.00     0.003 C 
ATOM     17  C   UNL     1      18.349 -11.070  23.623  1.00  0.00    -0.025 C 
ATOM     18  C   UNL     1      18.970 -11.753  24.884  1.00  0.00     0.010 C 
ATOM     19  C   UNL     1      18.991 -13.289  24.835  1.00  0.00     0.033 C 
ATOM     20  C   UNL     1      19.748 -13.837  23.615  1.00  0.00     0.120 C 
ATOM     21  C   UNL     1      19.229 -13.238  22.263  1.00  0.00    -0.006 C 
ATOM     22  C   UNL     1      20.188 -13.675  21.107  1.00  0.00     0.014 C 
ATOM     23  C   UNL     1      17.860 -13.906  21.891  1.00  0.00     0.014 C 
ATOM     24  C   UNL     1      16.835 -11.441  23.572  1.00  0.00     0.012 C 
ATOM     25  C   UNL     1      18.988  -8.464  21.470  1.00  0.00     0.012 C 
ATOM     26  C   UNL     1      18.810  -5.123  24.575  1.00  0.00     0.022 C 
ATOM     27  C   UNL     1      17.475  -4.389  24.900  1.00  0.00     0.015 C 
ATOM     28  C   UNL     1      20.717  -6.439  22.602  1.00  0.00     0.017 C 
ATOM     29  C   UNL     1      21.117  -4.360  25.556  1.00  0.00     0.012 C 
ATOM     30  C   UNL     1      18.194  -1.973  24.591  1.00  0.00     0.011 C 
ENDROOT
BRANCH  20  31
ATOM     31  O   UNL     1      21.121 -13.584  23.799  1.00  0.00    -0.393 OA
ATOM     32  H   UNL     1      21.384 -13.967  24.676  1.00  0.00     0.210 HD
ENDBRANCH  20  31
TORSDOF 1
ENDMDL
MODEL 5
REMARK VINA RESULT:    -5.025      1.593      2.211
REMARK INTER + INTRA:          -5.172
REMARK INTER:                  -5.172
REMARK INTRA:                   0.000
REMARK UNBOUND:                 0.000
REMARK SMILES CC1(C)CC[C@@]2(C)CC[C@]3(C)C(=CC[C@H]4[C@]5(C)CC[C@H](O)C(C)(C)[C@@H]5CC[C@@]43C)[C@H]2C1
REMARK SMILES IDX 1 1 2 2 4 3 5 4 6 5 8 6 9 7 10 8 12 9 13 10 14 11 15 12
REMARK SMILES IDX 28 13 27 14 26 15 25 16 16 17 18 18 19 19 20 20 22 21 23 22
REMARK SMILES IDX 24 23 17 24 29 25 30 26 31 27 11 28 7 29 3 30 21 31
REMARK H PARENT 21 32
REMARK Flexibility Score: inf
ROOT
ATOM      1  C   UNL     1      11.821  -7.625  26.345  1.00  0.00     0.011 C 
ATOM      2  C   UNL     1      11.586  -9.124  26.055  1.00  0.00    -0.035 C 
ATOM      3  C   UNL     1      10.784  -9.276  24.718  1.00  0.00     0.007 C 
ATOM      4  C   UNL     1      11.542 -10.055  23.626  1.00  0.00     0.008 C 
ATOM      5  C   UNL     1      12.034 -11.445  24.127  1.00  0.00    -0.026 C 
ATOM      6  C   UNL     1      12.865 -12.090  22.978  1.00  0.00     0.008 C 
ATOM      7  C   UNL     1      13.588 -13.407  23.370  1.00  0.00     0.012 C 
ATOM      8  C   UNL     1      14.336 -13.388  24.765  1.00  0.00    -0.006 C 
ATOM      9  C   UNL     1      14.317 -11.929  25.262  1.00  0.00    -0.064 C 
ATOM     10  C   UNL     1      15.453 -11.175  25.269  1.00  0.00    -0.027 C 
ATOM     11  C   UNL     1      16.800 -11.631  24.772  1.00  0.00     0.032 C 
ATOM     12  C   UNL     1      16.728 -12.923  23.916  1.00  0.00     0.006 C 
ATOM     13  C   UNL     1      15.844 -13.956  24.690  1.00  0.00    -0.020 C 
ATOM     14  C   UNL     1      15.918 -15.301  23.935  1.00  0.00     0.008 C 
ATOM     15  C   UNL     1      17.318 -15.905  23.889  1.00  0.00     0.005 C 
ATOM     16  C   UNL     1      18.531 -14.920  23.767  1.00  0.00     0.003 C 
ATOM     17  C   UNL     1      18.112 -13.468  23.264  1.00  0.00    -0.025 C 
ATOM     18  C   UNL     1      17.927 -13.543  21.715  1.00  0.00     0.010 C 
ATOM     19  C   UNL     1      19.132 -14.116  20.953  1.00  0.00     0.033 C 
ATOM     20  C   UNL     1      19.520 -15.527  21.423  1.00  0.00     0.120 C 
ATOM     21  C   UNL     1      19.744 -15.607  22.972  1.00  0.00    -0.006 C 
ATOM     22  C   UNL     1      19.916 -17.105  23.388  1.00  0.00     0.014 C 
ATOM     23  C   UNL     1      21.123 -14.954  23.332  1.00  0.00     0.014 C 
ATOM     24  C   UNL     1      19.240 -12.434  23.564  1.00  0.00     0.012 C 
ATOM     25  C   UNL     1      16.379 -14.176  26.151  1.00  0.00     0.012 C 
ATOM     26  C   UNL     1      12.918 -11.286  25.443  1.00  0.00     0.022 C 
ATOM     27  C   UNL     1      12.970  -9.817  25.959  1.00  0.00     0.015 C 
ATOM     28  C   UNL     1      13.510 -14.252  25.777  1.00  0.00     0.017 C 
ATOM     29  C   UNL     1      10.770 -12.329  24.364  1.00  0.00     0.012 C 
ATOM     30  C   UNL     1      10.782  -9.706  27.243  1.00  0.00     0.011 C 
ENDROOT
BRANCH  20  31
ATOM     31  O   UNL     1      18.520 -16.422  20.998  1.00  0.00    -0.393 OA
ATOM     32  H   UNL     1      17.641 -15.994  21.165  1.00  0.00     0.210 HD
ENDBRANCH  20  31
TORSDOF 1
ENDMDL
MODEL 6
REMARK VINA RESULT:    -4.943      4.608      8.524
REMARK INTER + INTRA:          -5.087
REMARK INTER:                  -5.087
REMARK INTRA:                   0.000
REMARK UNBOUND:                 0.000
REMARK SMILES CC1(C)CC[C@@]2(C)CC[C@]3(C)C(=CC[C@H]4[C@]5(C)CC[C@H](O)C(C)(C)[C@@H]5CC[C@@]43C)[C@H]2C1
REMARK SMILES IDX 1 1 2 2 4 3 5 4 6 5 8 6 9 7 10 8 12 9 13 10 14 11 15 12
REMARK SMILES IDX 28 13 27 14 26 15 25 16 16 17 18 18 19 19 20 20 22 21 23 22
REMARK SMILES IDX 24 23 17 24 29 25 30 26 31 27 11 28 7 29 3 30 21 31
REMARK H PARENT 21 32
REMARK Flexibility Score: inf
ROOT
ATOM      1  C   UNL     1      16.020 -15.039  17.558  1.00  0.00     0.011 C 
ATOM      2  C   UNL     1      17.396 -14.814  18.224  1.00  0.00    -0.035 C 
ATOM      3  C   UNL     1      18.426 -14.346  17.142  1.00  0.00     0.007 C 
ATOM      4  C   UNL     1      19.016 -12.949  17.413  1.00  0.00     0.008 C 
ATOM      5  C   UNL     1      19.634 -12.835  18.839  1.00  0.00    -0.026 C 
ATOM      6  C   UNL     1      20.103 -11.363  19.030  1.00  0.00     0.008 C 
ATOM      7  C   UNL     1      20.581 -11.023  20.468  1.00  0.00     0.012 C 
ATOM      8  C   UNL     1      19.659 -11.556  21.639  1.00  0.00    -0.006 C 
ATOM      9  C   UNL     1      18.374 -12.099  20.984  1.00  0.00    -0.064 C 
ATOM     10  C   UNL     1      17.191 -11.431  21.103  1.00  0.00    -0.027 C 
ATOM     11  C   UNL     1      17.003 -10.117  21.814  1.00  0.00     0.032 C 
ATOM     12  C   UNL     1      18.341  -9.389  22.112  1.00  0.00     0.006 C 
ATOM     13  C   UNL     1      19.318 -10.433  22.746  1.00  0.00    -0.020 C 
ATOM     14  C   UNL     1      20.581  -9.677  23.211  1.00  0.00     0.008 C 
ATOM     15  C   UNL     1      20.315  -8.643  24.301  1.00  0.00     0.005 C 
ATOM     16  C   UNL     1      18.961  -7.855  24.239  1.00  0.00     0.003 C 
ATOM     17  C   UNL     1      18.258  -7.926  22.812  1.00  0.00    -0.025 C 
ATOM     18  C   UNL     1      18.980  -6.898  21.882  1.00  0.00     0.010 C 
ATOM     19  C   UNL     1      19.054  -5.469  22.444  1.00  0.00     0.033 C 
ATOM     20  C   UNL     1      19.754  -5.400  23.811  1.00  0.00     0.120 C 
ATOM     21  C   UNL     1      19.130  -6.385  24.859  1.00  0.00    -0.006 C 
ATOM     22  C   UNL     1      20.031  -6.410  26.137  1.00  0.00     0.014 C 
ATOM     23  C   UNL     1      17.766  -5.805  25.369  1.00  0.00     0.014 C 
ATOM     24  C   UNL     1      16.759  -7.511  22.914  1.00  0.00     0.012 C 
ATOM     25  C   UNL     1      18.667 -11.130  23.996  1.00  0.00     0.012 C 
ATOM     26  C   UNL     1      18.561 -13.235  19.947  1.00  0.00     0.022 C 
ATOM     27  C   UNL     1      17.223 -13.745  19.333  1.00  0.00     0.015 C 
ATOM     28  C   UNL     1      20.389 -12.756  22.332  1.00  0.00     0.017 C 
ATOM     29  C   UNL     1      20.895 -13.753  18.874  1.00  0.00     0.012 C 
ATOM     30  C   UNL     1      17.834 -16.162  18.849  1.00  0.00     0.011 C 
ENDROOT
BRANCH  20  31
ATOM     31  O   UNL     1      21.125  -5.653  23.616  1.00  0.00    -0.393 OA
ATOM     32  H   UNL     1      21.392  -5.229  22.759  1.00  0.00     0.210 HD
ENDBRANCH  20  31
TORSDOF 1
ENDMDL
MODEL 7
REMARK VINA RESULT:    -4.923      8.744     13.023
REMARK INTER + INTRA:          -5.067
REMARK INTER:                  -5.067
REMARK INTRA:                   0.000
REMARK UNBOUND:                 0.000
REMARK SMILES CC1(C)CC[C@@]2(C)CC[C@]3(C)C(=CC[C@H]4[C@]5(C)CC[C@H](O)C(C)(C)[C@@H]5CC[C@@]43C)[C@H]2C1
REMARK SMILES IDX 1 1 2 2 4 3 5 4 6 5 8 6 9 7 10 8 12 9 13 10 14 11 15 12
REMARK SMILES IDX 28 13 27 14 26 15 25 16 16 17 18 18 19 19 20 20 22 21 23 22
REMARK SMILES IDX 24 23 17 24 29 25 30 26 31 27 11 28 7 29 3 30 21 31
REMARK H PARENT 21 32
REMARK Flexibility Score: inf
ROOT
ATOM      1  C   UNL     1      17.187  -9.782  22.687  1.00  0.00     0.011 C 
ATOM      2  C   UNL     1      18.403  -8.871  22.966  1.00  0.00    -0.035 C 
ATOM      3  C   UNL     1      18.943  -8.296  21.613  1.00  0.00     0.007 C 
ATOM      4  C   UNL     1      18.886  -6.759  21.528  1.00  0.00     0.008 C 
ATOM      5  C   UNL     1      19.596  -6.074  22.733  1.00  0.00    -0.026 C 
ATOM      6  C   UNL     1      19.388  -4.537  22.589  1.00  0.00     0.008 C 
ATOM      7  C   UNL     1      19.876  -3.706  23.806  1.00  0.00     0.012 C 
ATOM      8  C   UNL     1      19.474  -4.274  25.228  1.00  0.00    -0.006 C 
ATOM      9  C   UNL     1      18.480  -5.426  24.984  1.00  0.00    -0.064 C 
ATOM     10  C   UNL     1      17.157  -5.285  25.281  1.00  0.00    -0.027 C 
ATOM     11  C   UNL     1      16.516  -4.031  25.815  1.00  0.00     0.032 C 
ATOM     12  C   UNL     1      17.420  -2.778  25.676  1.00  0.00     0.006 C 
ATOM     13  C   UNL     1      18.842  -3.158  26.206  1.00  0.00    -0.020 C 
ATOM     14  C   UNL     1      19.693  -1.870  26.241  1.00  0.00     0.008 C 
ATOM     15  C   UNL     1      19.164  -0.807  27.199  1.00  0.00     0.005 C 
ATOM     16  C   UNL     1      17.609  -0.670  27.345  1.00  0.00     0.003 C 
ATOM     17  C   UNL     1      16.804  -1.353  26.152  1.00  0.00    -0.025 C 
ATOM     18  C   UNL     1      16.846  -0.371  24.937  1.00  0.00     0.010 C 
ATOM     19  C   UNL     1      16.363   1.054  25.248  1.00  0.00     0.033 C 
ATOM     20  C   UNL     1      17.157   1.719  26.384  1.00  0.00     0.120 C 
ATOM     21  C   UNL     1      17.200   0.844  27.683  1.00  0.00    -0.006 C 
ATOM     22  C   UNL     1      18.200   1.485  28.701  1.00  0.00     0.014 C 
ATOM     23  C   UNL     1      15.815   0.927  28.412  1.00  0.00     0.014 C 
ATOM     24  C   UNL     1      15.311  -1.566  26.546  1.00  0.00     0.012 C 
ATOM     25  C   UNL     1      18.764  -3.742  27.663  1.00  0.00     0.012 C 
ATOM     26  C   UNL     1      18.993  -6.599  24.111  1.00  0.00     0.022 C 
ATOM     27  C   UNL     1      17.944  -7.735  23.915  1.00  0.00     0.015 C 
ATOM     28  C   UNL     1      20.756  -4.877  25.896  1.00  0.00     0.017 C 
ATOM     29  C   UNL     1      21.123  -6.369  22.602  1.00  0.00     0.012 C 
ATOM     30  C   UNL     1      19.482  -9.739  23.660  1.00  0.00     0.011 C 
ENDROOT
BRANCH  20  31
ATOM     31  O   UNL     1      18.451   2.003  25.909  1.00  0.00    -0.393 OA
ATOM     32  H   UNL     1      18.615   2.973  26.039  1.00  0.00     0.210 HD
ENDBRANCH  20  31
TORSDOF 1
ENDMDL
MODEL 8
REMARK VINA RESULT:    -4.698      5.886      9.339
REMARK INTER + INTRA:          -4.835
REMARK INTER:                  -4.835
REMARK INTRA:                   0.000
REMARK UNBOUND:                 0.000
REMARK SMILES CC1(C)CC[C@@]2(C)CC[C@]3(C)C(=CC[C@H]4[C@]5(C)CC[C@H](O)C(C)(C)[C@@H]5CC[C@@]43C)[C@H]2C1
REMARK SMILES IDX 1 1 2 2 4 3 5 4 6 5 8 6 9 7 10 8 12 9 13 10 14 11 15 12
REMARK SMILES IDX 28 13 27 14 26 15 25 16 16 17 18 18 19 19 20 20 22 21 23 22
REMARK SMILES IDX 24 23 17 24 29 25 30 26 31 27 11 28 7 29 3 30 21 31
REMARK H PARENT 21 32
REMARK Flexibility Score: inf
ROOT
ATOM      1  C   UNL     1      20.399 -15.411  23.360  1.00  0.00     0.011 C 
ATOM      2  C   UNL     1      19.732 -14.374  22.428  1.00  0.00    -0.035 C 
ATOM      3  C   UNL     1      18.176 -14.523  22.514  1.00  0.00     0.007 C 
ATOM      4  C   UNL     1      17.461 -13.259  23.029  1.00  0.00     0.008 C 
ATOM      5  C   UNL     1      17.842 -11.990  22.210  1.00  0.00    -0.026 C 
ATOM      6  C   UNL     1      17.142 -10.771  22.881  1.00  0.00     0.008 C 
ATOM      7  C   UNL     1      17.559  -9.392  22.302  1.00  0.00     0.012 C 
ATOM      8  C   UNL     1      19.112  -9.189  22.071  1.00  0.00    -0.006 C 
ATOM      9  C   UNL     1      19.822 -10.392  22.722  1.00  0.00    -0.064 C 
ATOM     10  C   UNL     1      20.536 -10.246  23.873  1.00  0.00    -0.027 C 
ATOM     11  C   UNL     1      20.679  -8.963  24.650  1.00  0.00     0.032 C 
ATOM     12  C   UNL     1      19.655  -7.878  24.226  1.00  0.00     0.006 C 
ATOM     13  C   UNL     1      19.668  -7.796  22.664  1.00  0.00    -0.020 C 
ATOM     14  C   UNL     1      18.790  -6.597  22.246  1.00  0.00     0.008 C 
ATOM     15  C   UNL     1      19.312  -5.249  22.737  1.00  0.00     0.005 C 
ATOM     16  C   UNL     1      20.001  -5.206  24.144  1.00  0.00     0.003 C 
ATOM     17  C   UNL     1      19.667  -6.476  25.046  1.00  0.00    -0.025 C 
ATOM     18  C   UNL     1      18.246  -6.255  25.658  1.00  0.00     0.010 C 
ATOM     19  C   UNL     1      18.071  -4.924  26.407  1.00  0.00     0.033 C 
ATOM     20  C   UNL     1      18.372  -3.700  25.528  1.00  0.00     0.120 C 
ATOM     21  C   UNL     1      19.779  -3.779  24.843  1.00  0.00    -0.006 C 
ATOM     22  C   UNL     1      19.911  -2.616  23.806  1.00  0.00     0.014 C 
ATOM     23  C   UNL     1      20.892  -3.468  25.903  1.00  0.00     0.014 C 
ATOM     24  C   UNL     1      20.683  -6.600  26.222  1.00  0.00     0.012 C 
ATOM     25  C   UNL     1      21.125  -7.557  22.124  1.00  0.00     0.012 C 
ATOM     26  C   UNL     1      19.423 -11.792  22.189  1.00  0.00     0.022 C 
ATOM     27  C   UNL     1      20.186 -12.962  22.879  1.00  0.00     0.015 C 
ATOM     28  C   UNL     1      19.391  -9.240  20.531  1.00  0.00     0.017 C 
ATOM     29  C   UNL     1      17.246 -12.163  20.779  1.00  0.00     0.012 C 
ATOM     30  C   UNL     1      20.230 -14.658  20.989  1.00  0.00     0.011 C 
ENDROOT
BRANCH  20  31
ATOM     31  O   UNL     1      17.341  -3.577  24.578  1.00  0.00    -0.393 OA
ATOM     32  H   UNL     1      17.087  -2.619  24.529  1.00  0.00     0.210 HD
ENDBRANCH  20  31
TORSDOF 1
ENDMDL
MODEL 9
REMARK VINA RESULT:    -4.201      2.388      8.102
REMARK INTER + INTRA:          -4.324
REMARK INTER:                  -4.324
REMARK INTRA:                   0.000
REMARK UNBOUND:                 0.000
REMARK SMILES CC1(C)CC[C@@]2(C)CC[C@]3(C)C(=CC[C@H]4[C@]5(C)CC[C@H](O)C(C)(C)[C@@H]5CC[C@@]43C)[C@H]2C1
REMARK SMILES IDX 1 1 2 2 4 3 5 4 6 5 8 6 9 7 10 8 12 9 13 10 14 11 15 12
REMARK SMILES IDX 28 13 27 14 26 15 25 16 16 17 18 18 19 19 20 20 22 21 23 22
REMARK SMILES IDX 24 23 17 24 29 25 30 26 31 27 11 28 7 29 3 30 21 31
REMARK H PARENT 21 32
REMARK Flexibility Score: inf
ROOT
ATOM      1  C   UNL     1      19.553 -17.125  18.100  1.00  0.00     0.011 C 
ATOM      2  C   UNL     1      19.656 -15.675  18.623  1.00  0.00    -0.035 C 
ATOM      3  C   UNL     1      19.248 -14.682  17.483  1.00  0.00     0.007 C 
ATOM      4  C   UNL     1      18.020 -13.817  17.826  1.00  0.00     0.008 C 
ATOM      5  C   UNL     1      18.190 -13.057  19.175  1.00  0.00    -0.026 C 
ATOM      6  C   UNL     1      16.857 -12.304  19.460  1.00  0.00     0.008 C 
ATOM      7  C   UNL     1      16.784 -11.637  20.861  1.00  0.00     0.012 C 
ATOM      8  C   UNL     1      17.285 -12.528  22.070  1.00  0.00    -0.006 C 
ATOM      9  C   UNL     1      17.509 -13.949  21.515  1.00  0.00    -0.064 C 
ATOM     10  C   UNL     1      16.664 -14.968  21.836  1.00  0.00    -0.027 C 
ATOM     11  C   UNL     1      15.433 -14.838  22.694  1.00  0.00     0.032 C 
ATOM     12  C   UNL     1      14.993 -13.366  22.909  1.00  0.00     0.006 C 
ATOM     13  C   UNL     1      16.262 -12.547  23.317  1.00  0.00    -0.020 C 
ATOM     14  C   UNL     1      15.801 -11.126  23.708  1.00  0.00     0.008 C 
ATOM     15  C   UNL     1      14.877 -11.089  24.921  1.00  0.00     0.005 C 
ATOM     16  C   UNL     1      13.862 -12.271  25.097  1.00  0.00     0.003 C 
ATOM     17  C   UNL     1      13.635 -13.106  23.759  1.00  0.00    -0.025 C 
ATOM     18  C   UNL     1      12.644 -12.295  22.863  1.00  0.00     0.010 C 
ATOM     19  C   UNL     1      11.330 -11.902  23.555  1.00  0.00     0.033 C 
ATOM     20  C   UNL     1      11.550 -11.076  24.832  1.00  0.00     0.120 C 
ATOM     21  C   UNL     1      12.530 -11.771  25.839  1.00  0.00    -0.006 C 
ATOM     22  C   UNL     1      12.868 -10.775  26.996  1.00  0.00     0.014 C 
ATOM     23  C   UNL     1      11.786 -12.948  26.559  1.00  0.00     0.014 C 
ATOM     24  C   UNL     1      12.978 -14.485  24.075  1.00  0.00     0.012 C 
ATOM     25  C   UNL     1      16.980 -13.195  24.555  1.00  0.00     0.012 C 
ATOM     26  C   UNL     1      18.527 -14.077  20.352  1.00  0.00     0.022 C 
ATOM     27  C   UNL     1      18.716 -15.539  19.848  1.00  0.00     0.015 C 
ATOM     28  C   UNL     1      18.670 -11.974  22.548  1.00  0.00     0.017 C 
ATOM     29  C   UNL     1      19.313 -11.993  18.971  1.00  0.00     0.012 C 
ATOM     30  C   UNL     1      21.125 -15.440  19.052  1.00  0.00     0.011 C 
ENDROOT
BRANCH  20  31
ATOM     31  O   UNL     1      12.015  -9.801  24.456  1.00  0.00    -0.393 OA
ATOM     32  H   UNL     1      11.626  -9.140  25.086  1.00  0.00     0.210 HD
ENDBRANCH  20  31
TORSDOF 1
ENDMDL
