MODEL 1
REMARK VINA RESULT:    -5.500      0.000      0.000
REMARK INTER + INTRA:          -9.284
REMARK INTER:                  -8.072
REMARK INTRA:                  -1.212
REMARK UNBOUND:                -1.212
REMARK SMILES O=c1c(O[C@@H]2O[C@@H](CO)[C@H](O)[C@@H](O)[C@H]2O)c(-c2ccc(O)c(O)c2)oc2cc(O)cc(O)c12
REMARK SMILES IDX 4 1 3 2 16 3 25 4 2 5 26 6 1 7 33 8 27 9 31 10 28 11 30 12
REMARK SMILES IDX 17 13 18 14 19 15 20 16 24 17 22 18 21 19 23 21 32 23 29 25
REMARK SMILES IDX 5 27 14 28 6 29 12 30 7 31 10 32 15 33 13 35 8 37 9 38 11 40
REMARK H PARENT 21 20 23 22 32 24 29 26 15 34 13 36 9 39 11 41
REMARK Flexibility Score: inf
ROOT
ATOM      1  O   UNL     1       6.239  -3.096  35.230  1.00  0.00    -0.454 OA
ENDROOT
BRANCH   1   2
ATOM      2  C   UNL     1       5.016  -3.698  34.903  1.00  0.00     0.214 A 
ATOM      3  C   UNL     1       4.321  -3.291  33.755  1.00  0.00     0.180 A 
ATOM      4  O   UNL     1       3.130  -3.807  33.483  1.00  0.00    -0.452 OA
ATOM      5  C   UNL     1       4.466  -4.712  35.705  1.00  0.00     0.239 A 
ATOM      6  C   UNL     1       2.558  -4.751  34.221  1.00  0.00     0.146 A 
ATOM      7  O   UNL     1       5.099  -5.086  36.725  1.00  0.00    -0.285 OA
ATOM      8  C   UNL     1       3.218  -5.285  35.360  1.00  0.00     0.111 A 
ATOM      9  C   UNL     1       1.291  -5.209  33.851  1.00  0.00     0.094 A 
ATOM     10  C   UNL     1       2.573  -6.332  36.088  1.00  0.00     0.134 A 
ATOM     11  C   UNL     1       0.650  -6.196  34.600  1.00  0.00     0.123 A 
ATOM     12  C   UNL     1       1.287  -6.743  35.713  1.00  0.00     0.093 A 
BRANCH   3  13
ATOM     13  C   UNL     1       4.869  -2.265  32.847  1.00  0.00     0.025 A 
ATOM     14  C   UNL     1       4.452  -0.932  32.973  1.00  0.00     0.016 A 
ATOM     15  C   UNL     1       4.971   0.051  32.125  1.00  0.00     0.051 A 
ATOM     16  C   UNL     1       5.896  -0.287  31.133  1.00  0.00     0.157 A 
ATOM     17  C   UNL     1       5.778  -2.610  31.834  1.00  0.00     0.062 A 
ATOM     18  C   UNL     1       6.302  -1.625  30.985  1.00  0.00     0.158 A 
BRANCH  16  19
ATOM     19  O   UNL     1       6.399   0.716  30.305  1.00  0.00    -0.504 OA
ATOM     20  H   UNL     1       6.999   0.512  29.516  1.00  0.00     0.293 HD
ENDBRANCH  16  19
BRANCH  18  21
ATOM     21  O   UNL     1       7.223  -1.968  29.997  1.00  0.00    -0.504 OA
ATOM     22  H   UNL     1       7.618  -2.900  29.942  1.00  0.00     0.293 HD
ENDBRANCH  18  21
ENDBRANCH   3  13
BRANCH  10  23
ATOM     23  O   UNL     1       3.153  -7.014  37.162  1.00  0.00    -0.507 OA
ATOM     24  H   UNL     1       3.957  -6.697  37.682  1.00  0.00     0.293 HD
ENDBRANCH  10  23
BRANCH  11  25
ATOM     25  O   UNL     1      -0.617  -6.650  34.239  1.00  0.00    -0.508 OA
ATOM     26  H   UNL     1      -0.818  -7.637  34.145  1.00  0.00     0.293 HD
ENDBRANCH  11  25
ENDBRANCH   1   2
BRANCH   1  27
ATOM     27  C   UNL     1       7.498  -3.778  35.169  1.00  0.00     0.339 C 
ATOM     28  C   UNL     1       8.538  -2.929  34.422  1.00  0.00     0.214 C 
ATOM     29  O   UNL     1       7.951  -4.124  36.469  1.00  0.00    -0.332 OA
ATOM     30  C   UNL     1       8.888  -1.677  35.242  1.00  0.00     0.180 C 
ATOM     31  C   UNL     1       8.162  -2.976  37.280  1.00  0.00     0.179 C 
ATOM     32  C   UNL     1       9.266  -2.071  36.683  1.00  0.00     0.177 C 
BRANCH  28  33
ATOM     33  O   UNL     1       9.690  -3.705  34.201  1.00  0.00    -0.384 OA
ATOM     34  H   UNL     1      10.436  -3.076  34.022  1.00  0.00     0.211 HD
ENDBRANCH  28  33
BRANCH  30  35
ATOM     35  O   UNL     1       9.951  -0.996  34.626  1.00  0.00    -0.387 OA
ATOM     36  H   UNL     1       9.873  -1.154  33.651  1.00  0.00     0.211 HD
ENDBRANCH  30  35
BRANCH  31  37
ATOM     37  C   UNL     1       8.534  -3.458  38.692  1.00  0.00     0.191 C 
BRANCH  37  38
ATOM     38  O   UNL     1       8.044  -2.580  39.672  1.00  0.00    -0.394 OA
ATOM     39  H   UNL     1       7.768  -1.753  39.199  1.00  0.00     0.210 HD
ENDBRANCH  37  38
ENDBRANCH  31  37
BRANCH  32  40
ATOM     40  O   UNL     1       9.399  -0.908  37.462  1.00  0.00    -0.387 OA
ATOM     41  H   UNL     1       9.982  -0.283  36.956  1.00  0.00     0.211 HD
ENDBRANCH  32  40
ENDBRANCH   1  27
TORSDOF 12
ENDMDL
MODEL 2
REMARK VINA RESULT:    -5.444      2.176      5.767
REMARK INTER + INTRA:          -9.202
REMARK INTER:                  -8.041
REMARK INTRA:                  -1.161
REMARK UNBOUND:                -1.212
REMARK SMILES O=c1c(O[C@@H]2O[C@@H](CO)[C@H](O)[C@@H](O)[C@H]2O)c(-c2ccc(O)c(O)c2)oc2cc(O)cc(O)c12
REMARK SMILES IDX 4 1 3 2 16 3 25 4 2 5 26 6 1 7 33 8 27 9 31 10 28 11 30 12
REMARK SMILES IDX 17 13 18 14 19 15 20 16 24 17 22 18 21 19 23 21 32 23 29 25
REMARK SMILES IDX 5 27 14 28 6 29 12 30 7 31 10 32 15 33 13 35 8 37 9 38 11 40
REMARK H PARENT 21 20 23 22 32 24 29 26 15 34 13 36 9 39 11 41
REMARK Flexibility Score: inf
ROOT
ATOM      1  O   UNL     1       4.135  -4.050  34.634  1.00  0.00    -0.454 OA
ENDROOT
BRANCH   1   2
ATOM      2  C   UNL     1       3.341  -5.016  35.269  1.00  0.00     0.214 A 
ATOM      3  C   UNL     1       3.789  -5.622  36.451  1.00  0.00     0.180 A 
ATOM      4  O   UNL     1       3.073  -6.587  37.014  1.00  0.00    -0.452 OA
ATOM      5  C   UNL     1       2.093  -5.391  34.745  1.00  0.00     0.239 A 
ATOM      6  C   UNL     1       1.899  -6.993  36.545  1.00  0.00     0.146 A 
ATOM      7  O   UNL     1       1.687  -4.833  33.693  1.00  0.00    -0.285 OA
ATOM      8  C   UNL     1       1.323  -6.385  35.397  1.00  0.00     0.111 A 
ATOM      9  C   UNL     1       1.241  -8.031  37.208  1.00  0.00     0.094 A 
ATOM     10  C   UNL     1       0.036  -6.832  34.967  1.00  0.00     0.134 A 
ATOM     11  C   UNL     1       0.007  -8.493  36.747  1.00  0.00     0.123 A 
ATOM     12  C   UNL     1      -0.581  -7.901  35.630  1.00  0.00     0.093 A 
BRANCH   3  13
ATOM     13  C   UNL     1       5.068  -5.238  37.078  1.00  0.00     0.025 A 
ATOM     14  C   UNL     1       6.199  -6.046  36.900  1.00  0.00     0.016 A 
ATOM     15  C   UNL     1       7.420  -5.687  37.480  1.00  0.00     0.051 A 
ATOM     16  C   UNL     1       7.520  -4.529  38.257  1.00  0.00     0.157 A 
ATOM     17  C   UNL     1       5.161  -4.088  37.879  1.00  0.00     0.062 A 
ATOM     18  C   UNL     1       6.385  -3.725  38.458  1.00  0.00     0.158 A 
BRANCH  16  19
ATOM     19  O   UNL     1       8.752  -4.195  38.818  1.00  0.00    -0.504 OA
ATOM     20  H   UNL     1       8.986  -3.244  39.077  1.00  0.00     0.293 HD
ENDBRANCH  16  19
BRANCH  18  21
ATOM     21  O   UNL     1       6.479  -2.569  39.232  1.00  0.00    -0.504 OA
ATOM     22  H   UNL     1       6.941  -1.736  38.886  1.00  0.00     0.293 HD
ENDBRANCH  18  21
ENDBRANCH   3  13
BRANCH  10  23
ATOM     23  O   UNL     1      -0.686  -6.252  33.919  1.00  0.00    -0.507 OA
ATOM     24  H   UNL     1      -1.665  -6.408  33.736  1.00  0.00     0.293 HD
ENDBRANCH  10  23
BRANCH  11  25
ATOM     25  O   UNL     1      -0.650  -9.535  37.401  1.00  0.00    -0.508 OA
ATOM     26  H   UNL     1      -1.498  -9.376  37.929  1.00  0.00     0.293 HD
ENDBRANCH  11  25
ENDBRANCH   1   2
BRANCH   1  27
ATOM     27  C   UNL     1       5.369  -4.353  33.970  1.00  0.00     0.339 C 
ATOM     28  C   UNL     1       5.110  -5.184  32.704  1.00  0.00     0.214 C 
ATOM     29  O   UNL     1       6.089  -3.167  33.672  1.00  0.00    -0.332 OA
ATOM     30  C   UNL     1       4.377  -4.336  31.653  1.00  0.00     0.180 C 
ATOM     31  C   UNL     1       5.366  -2.314  32.795  1.00  0.00     0.179 C 
ATOM     32  C   UNL     1       5.118  -3.002  31.431  1.00  0.00     0.177 C 
BRANCH  28  33
ATOM     33  O   UNL     1       6.341  -5.636  32.193  1.00  0.00    -0.384 OA
ATOM     34  H   UNL     1       6.141  -6.360  31.545  1.00  0.00     0.211 HD
ENDBRANCH  28  33
BRANCH  30  35
ATOM     35  O   UNL     1       4.291  -5.053  30.448  1.00  0.00    -0.387 OA
ATOM     36  H   UNL     1       5.021  -4.728  29.863  1.00  0.00     0.211 HD
ENDBRANCH  30  35
BRANCH  31  37
ATOM     37  C   UNL     1       6.173  -1.015  32.629  1.00  0.00     0.191 C 
BRANCH  37  38
ATOM     38  O   UNL     1       5.323   0.096  32.516  1.00  0.00    -0.394 OA
ATOM     39  H   UNL     1       5.844   0.884  32.822  1.00  0.00     0.210 HD
ENDBRANCH  37  38
ENDBRANCH  31  37
BRANCH  32  40
ATOM     40  O   UNL     1       4.336  -2.168  30.614  1.00  0.00    -0.387 OA
ATOM     41  H   UNL     1       3.608  -1.802  31.182  1.00  0.00     0.211 HD
ENDBRANCH  32  40
ENDBRANCH   1  27
TORSDOF 12
ENDMDL
MODEL 3
REMARK VINA RESULT:    -5.416      1.851      4.900
REMARK INTER + INTRA:          -9.161
REMARK INTER:                  -7.368
REMARK INTRA:                  -1.792
REMARK UNBOUND:                -1.212
REMARK SMILES O=c1c(O[C@@H]2O[C@@H](CO)[C@H](O)[C@@H](O)[C@H]2O)c(-c2ccc(O)c(O)c2)oc2cc(O)cc(O)c12
REMARK SMILES IDX 4 1 3 2 16 3 25 4 2 5 26 6 1 7 33 8 27 9 31 10 28 11 30 12
REMARK SMILES IDX 17 13 18 14 19 15 20 16 24 17 22 18 21 19 23 21 32 23 29 25
REMARK SMILES IDX 5 27 14 28 6 29 12 30 7 31 10 32 15 33 13 35 8 37 9 38 11 40
REMARK H PARENT 21 20 23 22 32 24 29 26 15 34 13 36 9 39 11 41
REMARK Flexibility Score: inf
ROOT
ATOM      1  O   UNL     1       6.542  -3.009  35.217  1.00  0.00    -0.454 OA
ENDROOT
BRANCH   1   2
ATOM      2  C   UNL     1       5.481  -3.829  35.625  1.00  0.00     0.214 A 
ATOM      3  C   UNL     1       5.611  -4.617  36.778  1.00  0.00     0.180 A 
ATOM      4  O   UNL     1       4.637  -5.448  37.126  1.00  0.00    -0.452 OA
ATOM      5  C   UNL     1       4.278  -3.879  34.901  1.00  0.00     0.239 A 
ATOM      6  C   UNL     1       3.491  -5.548  36.463  1.00  0.00     0.146 A 
ATOM      7  O   UNL     1       4.160  -3.159  33.877  1.00  0.00    -0.285 OA
ATOM      8  C   UNL     1       3.233  -4.735  35.327  1.00  0.00     0.111 A 
ATOM      9  C   UNL     1       2.543  -6.472  36.908  1.00  0.00     0.094 A 
ATOM     10  C   UNL     1       1.964  -4.854  34.682  1.00  0.00     0.134 A 
ATOM     11  C   UNL     1       1.327  -6.614  36.239  1.00  0.00     0.123 A 
ATOM     12  C   UNL     1       1.049  -5.816  35.130  1.00  0.00     0.093 A 
BRANCH   3  13
ATOM     13  C   UNL     1       6.830  -4.574  37.608  1.00  0.00     0.025 A 
ATOM     14  C   UNL     1       7.698  -5.674  37.625  1.00  0.00     0.016 A 
ATOM     15  C   UNL     1       8.862  -5.641  38.399  1.00  0.00     0.051 A 
ATOM     16  C   UNL     1       9.162  -4.519  39.177  1.00  0.00     0.157 A 
ATOM     17  C   UNL     1       7.117  -3.457  38.410  1.00  0.00     0.062 A 
ATOM     18  C   UNL     1       8.285  -3.421  39.184  1.00  0.00     0.158 A 
BRANCH  16  19
ATOM     19  O   UNL     1      10.332  -4.514  39.935  1.00  0.00    -0.504 OA
ATOM     20  H   UNL     1      11.248  -4.426  39.512  1.00  0.00     0.293 HD
ENDBRANCH  16  19
BRANCH  18  21
ATOM     21  O   UNL     1       8.579  -2.299  39.958  1.00  0.00    -0.504 OA
ATOM     22  H   UNL     1       7.891  -1.572  40.118  1.00  0.00     0.293 HD
ENDBRANCH  18  21
ENDBRANCH   3  13
BRANCH  10  23
ATOM     23  O   UNL     1       1.543  -4.045  33.622  1.00  0.00    -0.507 OA
ATOM     24  H   UNL     1       0.582  -3.837  33.399  1.00  0.00     0.293 HD
ENDBRANCH  10  23
BRANCH  11  25
ATOM     25  O   UNL     1       0.380  -7.541  36.675  1.00  0.00    -0.508 OA
ATOM     26  H   UNL     1       0.419  -8.510  36.390  1.00  0.00     0.293 HD
ENDBRANCH  11  25
ENDBRANCH   1   2
BRANCH   1  27
ATOM     27  C   UNL     1       7.632  -3.470  34.408  1.00  0.00     0.339 C 
ATOM     28  C   UNL     1       7.758  -2.619  33.135  1.00  0.00     0.214 C 
ATOM     29  O   UNL     1       8.845  -3.476  35.147  1.00  0.00    -0.332 OA
ATOM     30  C   UNL     1       8.201  -1.191  33.492  1.00  0.00     0.180 C 
ATOM     31  C   UNL     1       9.202  -2.175  35.590  1.00  0.00     0.179 C 
ATOM     32  C   UNL     1       9.453  -1.230  34.390  1.00  0.00     0.177 C 
BRANCH  28  33
ATOM     33  O   UNL     1       8.695  -3.219  32.273  1.00  0.00    -0.384 OA
ATOM     34  H   UNL     1       8.554  -2.830  31.371  1.00  0.00     0.211 HD
ENDBRANCH  28  33
BRANCH  30  35
ATOM     35  O   UNL     1       8.466  -0.474  32.314  1.00  0.00    -0.387 OA
ATOM     36  H   UNL     1       9.126  -1.001  31.794  1.00  0.00     0.211 HD
ENDBRANCH  30  35
BRANCH  31  37
ATOM     37  C   UNL     1      10.455  -2.305  36.473  1.00  0.00     0.191 C 
BRANCH  37  38
ATOM     38  O   UNL     1      10.438  -1.365  37.515  1.00  0.00    -0.394 OA
ATOM     39  H   UNL     1      10.547  -1.874  38.359  1.00  0.00     0.210 HD
ENDBRANCH  37  38
ENDBRANCH  31  37
BRANCH  32  40
ATOM     40  O   UNL     1       9.729   0.067  34.856  1.00  0.00    -0.387 OA
ATOM     41  H   UNL     1      10.621   0.037  35.293  1.00  0.00     0.211 HD
ENDBRANCH  32  40
ENDBRANCH   1  27
TORSDOF 12
ENDMDL
MODEL 4
REMARK VINA RESULT:    -5.317      1.949      5.299
REMARK INTER + INTRA:          -9.016
REMARK INTER:                  -7.428
REMARK INTRA:                  -1.588
REMARK UNBOUND:                -1.212
REMARK SMILES O=c1c(O[C@@H]2O[C@@H](CO)[C@H](O)[C@@H](O)[C@H]2O)c(-c2ccc(O)c(O)c2)oc2cc(O)cc(O)c12
REMARK SMILES IDX 4 1 3 2 16 3 25 4 2 5 26 6 1 7 33 8 27 9 31 10 28 11 30 12
REMARK SMILES IDX 17 13 18 14 19 15 20 16 24 17 22 18 21 19 23 21 32 23 29 25
REMARK SMILES IDX 5 27 14 28 6 29 12 30 7 31 10 32 15 33 13 35 8 37 9 38 11 40
REMARK H PARENT 21 20 23 22 32 24 29 26 15 34 13 36 9 39 11 41
REMARK Flexibility Score: inf
ROOT
ATOM      1  O   UNL     1       4.124  -4.248  34.462  1.00  0.00    -0.454 OA
ENDROOT
BRANCH   1   2
ATOM      2  C   UNL     1       3.299  -5.129  35.175  1.00  0.00     0.214 A 
ATOM      3  C   UNL     1       3.727  -5.645  36.407  1.00  0.00     0.180 A 
ATOM      4  O   UNL     1       2.980  -6.534  37.049  1.00  0.00    -0.452 OA
ATOM      5  C   UNL     1       2.040  -5.509  34.681  1.00  0.00     0.239 A 
ATOM      6  C   UNL     1       1.794  -6.941  36.613  1.00  0.00     0.146 A 
ATOM      7  O   UNL     1       1.652  -5.032  33.584  1.00  0.00    -0.285 OA
ATOM      8  C   UNL     1       1.239  -6.418  35.414  1.00  0.00     0.111 A 
ATOM      9  C   UNL     1       1.102  -7.897  37.361  1.00  0.00     0.094 A 
ATOM     10  C   UNL     1      -0.062  -6.859  35.020  1.00  0.00     0.134 A 
ATOM     11  C   UNL     1      -0.145  -8.358  36.938  1.00  0.00     0.123 A 
ATOM     12  C   UNL     1      -0.713  -7.846  35.772  1.00  0.00     0.093 A 
BRANCH   3  13
ATOM     13  C   UNL     1       5.017  -5.248  37.002  1.00  0.00     0.025 A 
ATOM     14  C   UNL     1       6.161  -6.022  36.761  1.00  0.00     0.016 A 
ATOM     15  C   UNL     1       7.391  -5.651  37.310  1.00  0.00     0.051 A 
ATOM     16  C   UNL     1       7.490  -4.516  38.120  1.00  0.00     0.157 A 
ATOM     17  C   UNL     1       5.110  -4.122  37.836  1.00  0.00     0.062 A 
ATOM     18  C   UNL     1       6.344  -3.747  38.385  1.00  0.00     0.158 A 
BRANCH  16  19
ATOM     19  O   UNL     1       8.732  -4.168  38.650  1.00  0.00    -0.504 OA
ATOM     20  H   UNL     1       9.035  -4.483  39.564  1.00  0.00     0.293 HD
ENDBRANCH  16  19
BRANCH  18  21
ATOM     21  O   UNL     1       6.437  -2.614  39.192  1.00  0.00    -0.504 OA
ATOM     22  H   UNL     1       6.638  -1.700  38.802  1.00  0.00     0.293 HD
ENDBRANCH  18  21
ENDBRANCH   3  13
BRANCH  10  23
ATOM     23  O   UNL     1      -0.765  -6.350  33.924  1.00  0.00    -0.507 OA
ATOM     24  H   UNL     1      -1.230  -5.456  33.900  1.00  0.00     0.293 HD
ENDBRANCH  10  23
BRANCH  11  25
ATOM     25  O   UNL     1      -0.835  -9.318  37.677  1.00  0.00    -0.508 OA
ATOM     26  H   UNL     1      -1.339 -10.070  37.226  1.00  0.00     0.293 HD
ENDBRANCH  11  25
ENDBRANCH   1   2
BRANCH   1  27
ATOM     27  C   UNL     1       5.034  -4.670  33.438  1.00  0.00     0.339 C 
ATOM     28  C   UNL     1       4.680  -4.011  32.096  1.00  0.00     0.214 C 
ATOM     29  O   UNL     1       6.377  -4.399  33.809  1.00  0.00    -0.332 OA
ATOM     30  C   UNL     1       4.947  -2.499  32.161  1.00  0.00     0.180 C 
ATOM     31  C   UNL     1       6.605  -3.009  33.994  1.00  0.00     0.179 C 
ATOM     32  C   UNL     1       6.374  -2.229  32.677  1.00  0.00     0.177 C 
BRANCH  28  33
ATOM     33  O   UNL     1       5.455  -4.599  31.079  1.00  0.00    -0.384 OA
ATOM     34  H   UNL     1       4.853  -5.192  30.559  1.00  0.00     0.211 HD
ENDBRANCH  28  33
BRANCH  30  35
ATOM     35  O   UNL     1       4.774  -1.937  30.886  1.00  0.00    -0.387 OA
ATOM     36  H   UNL     1       4.695  -0.956  31.008  1.00  0.00     0.211 HD
ENDBRANCH  30  35
BRANCH  31  37
ATOM     37  C   UNL     1       8.045  -2.832  34.505  1.00  0.00     0.191 C 
BRANCH  37  38
ATOM     38  O   UNL     1       8.914  -2.486  33.459  1.00  0.00    -0.394 OA
ATOM     39  H   UNL     1       9.202  -1.552  33.626  1.00  0.00     0.210 HD
ENDBRANCH  37  38
ENDBRANCH  31  37
BRANCH  32  40
ATOM     40  O   UNL     1       6.531  -0.852  32.907  1.00  0.00    -0.387 OA
ATOM     41  H   UNL     1       5.629  -0.441  32.844  1.00  0.00     0.211 HD
ENDBRANCH  32  40
ENDBRANCH   1  27
TORSDOF 12
ENDMDL
MODEL 5
REMARK VINA RESULT:    -5.292      1.543      3.113
REMARK INTER + INTRA:          -8.979
REMARK INTER:                  -7.485
REMARK INTRA:                  -1.493
REMARK UNBOUND:                -1.212
REMARK SMILES O=c1c(O[C@@H]2O[C@@H](CO)[C@H](O)[C@@H](O)[C@H]2O)c(-c2ccc(O)c(O)c2)oc2cc(O)cc(O)c12
REMARK SMILES IDX 4 1 3 2 16 3 25 4 2 5 26 6 1 7 33 8 27 9 31 10 28 11 30 12
REMARK SMILES IDX 17 13 18 14 19 15 20 16 24 17 22 18 21 19 23 21 32 23 29 25
REMARK SMILES IDX 5 27 14 28 6 29 12 30 7 31 10 32 15 33 13 35 8 37 9 38 11 40
REMARK H PARENT 21 20 23 22 32 24 29 26 15 34 13 36 9 39 11 41
REMARK Flexibility Score: inf
ROOT
ATOM      1  O   UNL     1       5.166  -5.126  36.131  1.00  0.00    -0.454 OA
ENDROOT
BRANCH   1   2
ATOM      2  C   UNL     1       3.929  -5.449  35.555  1.00  0.00     0.214 A 
ATOM      3  C   UNL     1       3.562  -4.882  34.326  1.00  0.00     0.180 A 
ATOM      4  O   UNL     1       2.363  -5.129  33.814  1.00  0.00    -0.452 OA
ATOM      5  C   UNL     1       3.042  -6.338  36.184  1.00  0.00     0.239 A 
ATOM      6  C   UNL     1       1.482  -5.944  34.381  1.00  0.00     0.146 A 
ATOM      7  O   UNL     1       3.382  -6.857  37.278  1.00  0.00    -0.285 OA
ATOM      8  C   UNL     1       1.791  -6.627  35.587  1.00  0.00     0.111 A 
ATOM      9  C   UNL     1       0.241  -6.116  33.762  1.00  0.00     0.094 A 
ATOM     10  C   UNL     1       0.820  -7.527  36.125  1.00  0.00     0.134 A 
ATOM     11  C   UNL     1      -0.718  -6.959  34.325  1.00  0.00     0.123 A 
ATOM     12  C   UNL     1      -0.429  -7.649  35.502  1.00  0.00     0.093 A 
BRANCH   3  13
ATOM     13  C   UNL     1       4.468  -3.979  33.592  1.00  0.00     0.025 A 
ATOM     14  C   UNL     1       5.579  -4.506  32.919  1.00  0.00     0.016 A 
ATOM     15  C   UNL     1       6.440  -3.662  32.211  1.00  0.00     0.051 A 
ATOM     16  C   UNL     1       6.212  -2.283  32.182  1.00  0.00     0.157 A 
ATOM     17  C   UNL     1       4.253  -2.591  33.585  1.00  0.00     0.062 A 
ATOM     18  C   UNL     1       5.113  -1.743  32.873  1.00  0.00     0.158 A 
BRANCH  16  19
ATOM     19  O   UNL     1       7.086  -1.467  31.465  1.00  0.00    -0.504 OA
ATOM     20  H   UNL     1       7.127  -0.465  31.607  1.00  0.00     0.293 HD
ENDBRANCH  16  19
BRANCH  18  21
ATOM     21  O   UNL     1       4.881  -0.369  32.848  1.00  0.00    -0.504 OA
ATOM     22  H   UNL     1       4.897   0.186  33.696  1.00  0.00     0.293 HD
ENDBRANCH  18  21
ENDBRANCH   3  13
BRANCH  10  23
ATOM     23  O   UNL     1       1.036  -8.337  37.245  1.00  0.00    -0.507 OA
ATOM     24  H   UNL     1       0.452  -9.111  37.520  1.00  0.00     0.293 HD
ENDBRANCH  10  23
BRANCH  11  25
ATOM     25  O   UNL     1      -1.961  -7.127  33.716  1.00  0.00    -0.508 OA
ATOM     26  H   UNL     1      -2.214  -7.995  33.263  1.00  0.00     0.293 HD
ENDBRANCH  11  25
ENDBRANCH   1   2
BRANCH   1  27
ATOM     27  C   UNL     1       5.407  -3.913  36.857  1.00  0.00     0.339 C 
ATOM     28  C   UNL     1       5.837  -4.223  38.299  1.00  0.00     0.214 C 
ATOM     29  O   UNL     1       6.369  -3.107  36.192  1.00  0.00    -0.332 OA
ATOM     30  C   UNL     1       7.224  -4.887  38.308  1.00  0.00     0.180 C 
ATOM     31  C   UNL     1       7.626  -3.762  36.085  1.00  0.00     0.179 C 
ATOM     32  C   UNL     1       8.222  -4.051  37.484  1.00  0.00     0.177 C 
BRANCH  28  33
ATOM     33  O   UNL     1       5.866  -3.025  39.036  1.00  0.00    -0.384 OA
ATOM     34  H   UNL     1       5.283  -2.377  38.562  1.00  0.00     0.211 HD
ENDBRANCH  28  33
BRANCH  30  35
ATOM     35  O   UNL     1       7.672  -5.018  39.633  1.00  0.00    -0.387 OA
ATOM     36  H   UNL     1       6.867  -5.101  40.206  1.00  0.00     0.211 HD
ENDBRANCH  30  35
BRANCH  31  37
ATOM     37  C   UNL     1       8.556  -2.863  35.253  1.00  0.00     0.191 C 
BRANCH  37  38
ATOM     38  O   UNL     1       9.306  -2.011  36.079  1.00  0.00    -0.394 OA
ATOM     39  H   UNL     1       8.701  -1.714  36.806  1.00  0.00     0.210 HD
ENDBRANCH  37  38
ENDBRANCH  31  37
BRANCH  32  40
ATOM     40  O   UNL     1       9.425  -4.766  37.348  1.00  0.00    -0.387 OA
ATOM     41  H   UNL     1       9.730  -4.999  38.264  1.00  0.00     0.211 HD
ENDBRANCH  32  40
ENDBRANCH   1  27
TORSDOF 12
ENDMDL
MODEL 6
REMARK VINA RESULT:    -5.284      1.782      2.837
REMARK INTER + INTRA:          -8.968
REMARK INTER:                  -7.523
REMARK INTRA:                  -1.446
REMARK UNBOUND:                -1.212
REMARK SMILES O=c1c(O[C@@H]2O[C@@H](CO)[C@H](O)[C@@H](O)[C@H]2O)c(-c2ccc(O)c(O)c2)oc2cc(O)cc(O)c12
REMARK SMILES IDX 4 1 3 2 16 3 25 4 2 5 26 6 1 7 33 8 27 9 31 10 28 11 30 12
REMARK SMILES IDX 17 13 18 14 19 15 20 16 24 17 22 18 21 19 23 21 32 23 29 25
REMARK SMILES IDX 5 27 14 28 6 29 12 30 7 31 10 32 15 33 13 35 8 37 9 38 11 40
REMARK H PARENT 21 20 23 22 32 24 29 26 15 34 13 36 9 39 11 41
REMARK Flexibility Score: inf
ROOT
ATOM      1  O   UNL     1       4.452  -4.775  36.004  1.00  0.00    -0.454 OA
ENDROOT
BRANCH   1   2
ATOM      2  C   UNL     1       3.305  -5.242  35.346  1.00  0.00     0.214 A 
ATOM      3  C   UNL     1       3.074  -4.888  34.008  1.00  0.00     0.180 A 
ATOM      4  O   UNL     1       1.955  -5.268  33.406  1.00  0.00    -0.452 OA
ATOM      5  C   UNL     1       2.375  -6.066  35.999  1.00  0.00     0.239 A 
ATOM      6  C   UNL     1       1.035  -6.028  33.988  1.00  0.00     0.146 A 
ATOM      7  O   UNL     1       2.593  -6.395  37.193  1.00  0.00    -0.285 OA
ATOM      8  C   UNL     1       1.215  -6.503  35.314  1.00  0.00     0.111 A 
ATOM      9  C   UNL     1      -0.115  -6.352  33.264  1.00  0.00     0.094 A 
ATOM     10  C   UNL     1       0.213  -7.356  35.871  1.00  0.00     0.134 A 
ATOM     11  C   UNL     1      -1.110  -7.144  33.837  1.00  0.00     0.123 A 
ATOM     12  C   UNL     1      -0.946  -7.632  35.134  1.00  0.00     0.093 A 
BRANCH   3  13
ATOM     13  C   UNL     1       4.037  -4.064  33.252  1.00  0.00     0.025 A 
ATOM     14  C   UNL     1       4.952  -4.683  32.389  1.00  0.00     0.016 A 
ATOM     15  C   UNL     1       5.863  -3.913  31.659  1.00  0.00     0.051 A 
ATOM     16  C   UNL     1       5.881  -2.522  31.795  1.00  0.00     0.157 A 
ATOM     17  C   UNL     1       4.072  -2.669  33.409  1.00  0.00     0.062 A 
ATOM     18  C   UNL     1       4.982  -1.895  32.675  1.00  0.00     0.158 A 
BRANCH  16  19
ATOM     19  O   UNL     1       6.798  -1.781  31.050  1.00  0.00    -0.504 OA
ATOM     20  H   UNL     1       7.528  -1.232  31.487  1.00  0.00     0.293 HD
ENDBRANCH  16  19
BRANCH  18  21
ATOM     21  O   UNL     1       4.995  -0.509  32.815  1.00  0.00    -0.504 OA
ATOM     22  H   UNL     1       5.709  -0.038  33.361  1.00  0.00     0.293 HD
ENDBRANCH  18  21
ENDBRANCH   3  13
BRANCH  10  23
ATOM     23  O   UNL     1       0.314  -7.973  37.121  1.00  0.00    -0.507 OA
ATOM     24  H   UNL     1      -0.411  -8.524  37.554  1.00  0.00     0.293 HD
ENDBRANCH  10  23
BRANCH  11  25
ATOM     25  O   UNL     1      -2.264  -7.463  33.122  1.00  0.00    -0.508 OA
ATOM     26  H   UNL     1      -2.275  -7.465  32.111  1.00  0.00     0.293 HD
ENDBRANCH  11  25
ENDBRANCH   1   2
BRANCH   1  27
ATOM     27  C   UNL     1       5.716  -5.450  35.965  1.00  0.00     0.339 C 
ATOM     28  C   UNL     1       6.854  -4.452  35.700  1.00  0.00     0.214 C 
ATOM     29  O   UNL     1       5.937  -6.181  37.162  1.00  0.00    -0.332 OA
ATOM     30  C   UNL     1       7.026  -3.512  36.904  1.00  0.00     0.180 C 
ATOM     31  C   UNL     1       5.975  -5.333  38.301  1.00  0.00     0.179 C 
ATOM     32  C   UNL     1       7.149  -4.329  38.206  1.00  0.00     0.177 C 
BRANCH  28  33
ATOM     33  O   UNL     1       8.043  -5.166  35.465  1.00  0.00    -0.384 OA
ATOM     34  H   UNL     1       8.635  -5.013  36.247  1.00  0.00     0.211 HD
ENDBRANCH  28  33
BRANCH  30  35
ATOM     35  O   UNL     1       8.167  -2.715  36.717  1.00  0.00    -0.387 OA
ATOM     36  H   UNL     1       8.809  -2.953  37.434  1.00  0.00     0.211 HD
ENDBRANCH  30  35
BRANCH  31  37
ATOM     37  C   UNL     1       6.100  -6.224  39.549  1.00  0.00     0.191 C 
BRANCH  37  38
ATOM     38  O   UNL     1       7.354  -6.066  40.160  1.00  0.00    -0.394 OA
ATOM     39  H   UNL     1       7.977  -6.679  39.691  1.00  0.00     0.210 HD
ENDBRANCH  37  38
ENDBRANCH  31  37
BRANCH  32  40
ATOM     40  O   UNL     1       7.116  -3.454  39.306  1.00  0.00    -0.387 OA
ATOM     41  H   UNL     1       8.057  -3.302  39.586  1.00  0.00     0.211 HD
ENDBRANCH  32  40
ENDBRANCH   1  27
TORSDOF 12
ENDMDL
MODEL 7
REMARK VINA RESULT:    -5.283      1.694      5.203
REMARK INTER + INTRA:          -8.967
REMARK INTER:                  -7.851
REMARK INTRA:                  -1.116
REMARK UNBOUND:                -1.212
REMARK SMILES O=c1c(O[C@@H]2O[C@@H](CO)[C@H](O)[C@@H](O)[C@H]2O)c(-c2ccc(O)c(O)c2)oc2cc(O)cc(O)c12
REMARK SMILES IDX 4 1 3 2 16 3 25 4 2 5 26 6 1 7 33 8 27 9 31 10 28 11 30 12
REMARK SMILES IDX 17 13 18 14 19 15 20 16 24 17 22 18 21 19 23 21 32 23 29 25
REMARK SMILES IDX 5 27 14 28 6 29 12 30 7 31 10 32 15 33 13 35 8 37 9 38 11 40
REMARK H PARENT 21 20 23 22 32 24 29 26 15 34 13 36 9 39 11 41
REMARK Flexibility Score: inf
ROOT
ATOM      1  O   UNL     1       4.595  -3.223  34.492  1.00  0.00    -0.454 OA
ENDROOT
BRANCH   1   2
ATOM      2  C   UNL     1       4.010  -4.269  35.219  1.00  0.00     0.214 A 
ATOM      3  C   UNL     1       4.680  -4.811  36.325  1.00  0.00     0.180 A 
ATOM      4  O   UNL     1       4.162  -5.847  36.971  1.00  0.00    -0.452 OA
ATOM      5  C   UNL     1       2.754  -4.789  34.864  1.00  0.00     0.239 A 
ATOM      6  C   UNL     1       2.990  -6.389  36.661  1.00  0.00     0.146 A 
ATOM      7  O   UNL     1       2.149  -4.290  33.882  1.00  0.00    -0.285 OA
ATOM      8  C   UNL     1       2.199  -5.861  35.605  1.00  0.00     0.111 A 
ATOM      9  C   UNL     1       2.551  -7.492  37.397  1.00  0.00     0.094 A 
ATOM     10  C   UNL     1       0.926  -6.456  35.348  1.00  0.00     0.134 A 
ATOM     11  C   UNL     1       1.328  -8.096  37.103  1.00  0.00     0.123 A 
ATOM     12  C   UNL     1       0.531  -7.584  36.080  1.00  0.00     0.093 A 
BRANCH   3  13
ATOM     13  C   UNL     1       5.978  -4.277  36.778  1.00  0.00     0.025 A 
ATOM     14  C   UNL     1       7.129  -4.504  36.009  1.00  0.00     0.016 A 
ATOM     15  C   UNL     1       8.363  -3.995  36.421  1.00  0.00     0.051 A 
ATOM     16  C   UNL     1       8.467  -3.269  37.612  1.00  0.00     0.157 A 
ATOM     17  C   UNL     1       6.086  -3.570  37.987  1.00  0.00     0.062 A 
ATOM     18  C   UNL     1       7.323  -3.055  38.400  1.00  0.00     0.158 A 
BRANCH  16  19
ATOM     19  O   UNL     1       9.711  -2.770  37.995  1.00  0.00    -0.504 OA
ATOM     20  H   UNL     1      10.020  -1.840  37.739  1.00  0.00     0.293 HD
ENDBRANCH  16  19
BRANCH  18  21
ATOM     21  O   UNL     1       7.420  -2.333  39.588  1.00  0.00    -0.504 OA
ATOM     22  H   UNL     1       6.968  -2.649  40.438  1.00  0.00     0.293 HD
ENDBRANCH  18  21
ENDBRANCH   3  13
BRANCH  10  23
ATOM     23  O   UNL     1       0.008  -5.971  34.412  1.00  0.00    -0.507 OA
ATOM     24  H   UNL     1       0.053  -6.138  33.419  1.00  0.00     0.293 HD
ENDBRANCH  10  23
BRANCH  11  25
ATOM     25  O   UNL     1       0.889  -9.202  37.830  1.00  0.00    -0.508 OA
ATOM     26  H   UNL     1       1.476 -10.016  37.960  1.00  0.00     0.293 HD
ENDBRANCH  11  25
ENDBRANCH   1   2
BRANCH   1  27
ATOM     27  C   UNL     1       4.952  -3.325  33.107  1.00  0.00     0.339 C 
ATOM     28  C   UNL     1       4.165  -2.306  32.269  1.00  0.00     0.214 C 
ATOM     29  O   UNL     1       6.352  -3.168  32.931  1.00  0.00    -0.332 OA
ATOM     30  C   UNL     1       4.613  -0.877  32.614  1.00  0.00     0.180 C 
ATOM     31  C   UNL     1       6.800  -1.890  33.363  1.00  0.00     0.179 C 
ATOM     32  C   UNL     1       6.148  -0.763  32.527  1.00  0.00     0.177 C 
BRANCH  28  33
ATOM     33  O   UNL     1       4.383  -2.569  30.904  1.00  0.00    -0.384 OA
ATOM     34  H   UNL     1       3.503  -2.795  30.506  1.00  0.00     0.211 HD
ENDBRANCH  28  33
BRANCH  30  35
ATOM     35  O   UNL     1       4.005   0.031  31.731  1.00  0.00    -0.387 OA
ATOM     36  H   UNL     1       4.009  -0.389  30.833  1.00  0.00     0.211 HD
ENDBRANCH  30  35
BRANCH  31  37
ATOM     37  C   UNL     1       8.333  -1.862  33.242  1.00  0.00     0.191 C 
BRANCH  37  38
ATOM     38  O   UNL     1       8.736  -1.217  32.063  1.00  0.00    -0.394 OA
ATOM     39  H   UNL     1       8.771  -1.913  31.357  1.00  0.00     0.210 HD
ENDBRANCH  37  38
ENDBRANCH  31  37
BRANCH  32  40
ATOM     40  O   UNL     1       6.548   0.490  33.025  1.00  0.00    -0.387 OA
ATOM     41  H   UNL     1       6.751   0.369  33.989  1.00  0.00     0.211 HD
ENDBRANCH  32  40
ENDBRANCH   1  27
TORSDOF 12
ENDMDL
MODEL 8
REMARK VINA RESULT:    -5.145      2.115      6.330
REMARK INTER + INTRA:          -8.764
REMARK INTER:                  -7.316
REMARK INTRA:                  -1.448
REMARK UNBOUND:                -1.212
REMARK SMILES O=c1c(O[C@@H]2O[C@@H](CO)[C@H](O)[C@@H](O)[C@H]2O)c(-c2ccc(O)c(O)c2)oc2cc(O)cc(O)c12
REMARK SMILES IDX 4 1 3 2 16 3 25 4 2 5 26 6 1 7 33 8 27 9 31 10 28 11 30 12
REMARK SMILES IDX 17 13 18 14 19 15 20 16 24 17 22 18 21 19 23 21 32 23 29 25
REMARK SMILES IDX 5 27 14 28 6 29 12 30 7 31 10 32 15 33 13 35 8 37 9 38 11 40
REMARK H PARENT 21 20 23 22 32 24 29 26 15 34 13 36 9 39 11 41
REMARK Flexibility Score: inf
ROOT
ATOM      1  O   UNL     1       6.030  -3.039  34.829  1.00  0.00    -0.454 OA
ENDROOT
BRANCH   1   2
ATOM      2  C   UNL     1       6.286  -3.895  35.909  1.00  0.00     0.214 A 
ATOM      3  C   UNL     1       5.378  -4.918  36.221  1.00  0.00     0.180 A 
ATOM      4  O   UNL     1       5.581  -5.683  37.285  1.00  0.00    -0.452 OA
ATOM      5  C   UNL     1       7.444  -3.754  36.693  1.00  0.00     0.239 A 
ATOM      6  C   UNL     1       6.648  -5.575  38.069  1.00  0.00     0.146 A 
ATOM      7  O   UNL     1       8.264  -2.847  36.400  1.00  0.00    -0.285 OA
ATOM      8  C   UNL     1       7.663  -4.621  37.791  1.00  0.00     0.111 A 
ATOM      9  C   UNL     1       6.750  -6.422  39.175  1.00  0.00     0.094 A 
ATOM     10  C   UNL     1       8.810  -4.583  38.642  1.00  0.00     0.134 A 
ATOM     11  C   UNL     1       7.850  -6.340  40.029  1.00  0.00     0.123 A 
ATOM     12  C   UNL     1       8.864  -5.420  39.765  1.00  0.00     0.093 A 
BRANCH   3  13
ATOM     13  C   UNL     1       4.169  -5.149  35.409  1.00  0.00     0.025 A 
ATOM     14  C   UNL     1       3.065  -4.296  35.548  1.00  0.00     0.016 A 
ATOM     15  C   UNL     1       1.917  -4.497  34.777  1.00  0.00     0.051 A 
ATOM     16  C   UNL     1       1.851  -5.561  33.872  1.00  0.00     0.157 A 
ATOM     17  C   UNL     1       4.093  -6.233  34.519  1.00  0.00     0.062 A 
ATOM     18  C   UNL     1       2.944  -6.434  33.742  1.00  0.00     0.158 A 
BRANCH  16  19
ATOM     19  O   UNL     1       0.693  -5.734  33.113  1.00  0.00    -0.504 OA
ATOM     20  H   UNL     1       0.680  -6.298  32.273  1.00  0.00     0.293 HD
ENDBRANCH  16  19
BRANCH  18  21
ATOM     21  O   UNL     1       2.884  -7.497  32.842  1.00  0.00    -0.504 OA
ATOM     22  H   UNL     1       2.155  -7.556  32.139  1.00  0.00     0.293 HD
ENDBRANCH  18  21
ENDBRANCH   3  13
BRANCH  10  23
ATOM     23  O   UNL     1       9.924  -3.767  38.423  1.00  0.00    -0.507 OA
ATOM     24  H   UNL     1       9.947  -2.976  37.799  1.00  0.00     0.293 HD
ENDBRANCH  10  23
BRANCH  11  25
ATOM     25  O   UNL     1       7.952  -7.177  41.139  1.00  0.00    -0.508 OA
ATOM     26  H   UNL     1       8.091  -6.807  42.070  1.00  0.00     0.293 HD
ENDBRANCH  11  25
ENDBRANCH   1   2
BRANCH   1  27
ATOM     27  C   UNL     1       6.811  -3.027  33.628  1.00  0.00     0.339 C 
ATOM     28  C   UNL     1       6.242  -4.021  32.603  1.00  0.00     0.214 C 
ATOM     29  O   UNL     1       6.889  -1.716  33.087  1.00  0.00    -0.332 OA
ATOM     30  C   UNL     1       4.870  -3.541  32.103  1.00  0.00     0.180 C 
ATOM     31  C   UNL     1       5.609  -1.211  32.733  1.00  0.00     0.179 C 
ATOM     32  C   UNL     1       4.957  -2.077  31.628  1.00  0.00     0.177 C 
BRANCH  28  33
ATOM     33  O   UNL     1       7.141  -4.134  31.527  1.00  0.00    -0.384 OA
ATOM     34  H   UNL     1       6.611  -4.049  30.693  1.00  0.00     0.211 HD
ENDBRANCH  28  33
BRANCH  30  35
ATOM     35  O   UNL     1       4.437  -4.370  31.055  1.00  0.00    -0.387 OA
ATOM     36  H   UNL     1       5.155  -4.374  30.371  1.00  0.00     0.211 HD
ENDBRANCH  30  35
BRANCH  31  37
ATOM     37  C   UNL     1       5.787   0.245  32.272  1.00  0.00     0.191 C 
BRANCH  37  38
ATOM     38  O   UNL     1       5.732   0.343  30.873  1.00  0.00    -0.394 OA
ATOM     39  H   UNL     1       5.424   1.263  30.665  1.00  0.00     0.210 HD
ENDBRANCH  37  38
ENDBRANCH  31  37
BRANCH  32  40
ATOM     40  O   UNL     1       3.663  -1.601  31.354  1.00  0.00    -0.387 OA
ATOM     41  H   UNL     1       3.057  -2.389  31.353  1.00  0.00     0.211 HD
ENDBRANCH  32  40
ENDBRANCH   1  27
TORSDOF 12
ENDMDL
MODEL 9
REMARK VINA RESULT:    -4.938      1.761      7.376
REMARK INTER + INTRA:          -8.460
REMARK INTER:                  -7.122
REMARK INTRA:                  -1.338
REMARK UNBOUND:                -1.212
REMARK SMILES O=c1c(O[C@@H]2O[C@@H](CO)[C@H](O)[C@@H](O)[C@H]2O)c(-c2ccc(O)c(O)c2)oc2cc(O)cc(O)c12
REMARK SMILES IDX 4 1 3 2 16 3 25 4 2 5 26 6 1 7 33 8 27 9 31 10 28 11 30 12
REMARK SMILES IDX 17 13 18 14 19 15 20 16 24 17 22 18 21 19 23 21 32 23 29 25
REMARK SMILES IDX 5 27 14 28 6 29 12 30 7 31 10 32 15 33 13 35 8 37 9 38 11 40
REMARK H PARENT 21 20 23 22 32 24 29 26 15 34 13 36 9 39 11 41
REMARK Flexibility Score: inf
ROOT
ATOM      1  O   UNL     1       4.780  -4.564  35.318  1.00  0.00    -0.454 OA
ENDROOT
BRANCH   1   2
ATOM      2  C   UNL     1       5.438  -3.604  34.537  1.00  0.00     0.214 A 
ATOM      3  C   UNL     1       6.789  -3.314  34.777  1.00  0.00     0.180 A 
ATOM      4  O   UNL     1       7.395  -2.356  34.088  1.00  0.00    -0.452 OA
ATOM      5  C   UNL     1       4.771  -2.922  33.506  1.00  0.00     0.239 A 
ATOM      6  C   UNL     1       6.801  -1.668  33.120  1.00  0.00     0.146 A 
ATOM      7  O   UNL     1       3.564  -3.196  33.283  1.00  0.00    -0.285 OA
ATOM      8  C   UNL     1       5.458  -1.942  32.748  1.00  0.00     0.111 A 
ATOM      9  C   UNL     1       7.530  -0.667  32.472  1.00  0.00     0.094 A 
ATOM     10  C   UNL     1       4.888  -1.201  31.668  1.00  0.00     0.134 A 
ATOM     11  C   UNL     1       6.945   0.085  31.452  1.00  0.00     0.123 A 
ATOM     12  C   UNL     1       5.631  -0.178  31.064  1.00  0.00     0.093 A 
BRANCH   3  13
ATOM     13  C   UNL     1       7.559  -4.030  35.812  1.00  0.00     0.025 A 
ATOM     14  C   UNL     1       8.308  -5.162  35.463  1.00  0.00     0.016 A 
ATOM     15  C   UNL     1       9.049  -5.843  36.433  1.00  0.00     0.051 A 
ATOM     16  C   UNL     1       9.037  -5.413  37.763  1.00  0.00     0.157 A 
ATOM     17  C   UNL     1       7.525  -3.613  37.153  1.00  0.00     0.062 A 
ATOM     18  C   UNL     1       8.271  -4.293  38.126  1.00  0.00     0.158 A 
BRANCH  16  19
ATOM     19  O   UNL     1       9.790  -6.111  38.707  1.00  0.00    -0.504 OA
ATOM     20  H   UNL     1      10.022  -7.090  38.594  1.00  0.00     0.293 HD
ENDBRANCH  16  19
BRANCH  18  21
ATOM     21  O   UNL     1       8.254  -3.859  39.451  1.00  0.00    -0.504 OA
ATOM     22  H   UNL     1       8.132  -4.509  40.220  1.00  0.00     0.293 HD
ENDBRANCH  18  21
ENDBRANCH   3  13
BRANCH  10  23
ATOM     23  O   UNL     1       3.617  -1.440  31.136  1.00  0.00    -0.507 OA
ATOM     24  H   UNL     1       3.345  -2.275  30.642  1.00  0.00     0.293 HD
ENDBRANCH  10  23
BRANCH  11  25
ATOM     25  O   UNL     1       7.665   1.090  30.809  1.00  0.00    -0.508 OA
ATOM     26  H   UNL     1       8.425   1.573  31.270  1.00  0.00     0.293 HD
ENDBRANCH  11  25
ENDBRANCH   1   2
BRANCH   1  27
ATOM     27  C   UNL     1       4.600  -5.927  34.912  1.00  0.00     0.339 C 
ATOM     28  C   UNL     1       4.796  -6.877  36.104  1.00  0.00     0.214 C 
ATOM     29  O   UNL     1       3.329  -6.112  34.307  1.00  0.00    -0.332 OA
ATOM     30  C   UNL     1       3.661  -6.691  37.123  1.00  0.00     0.180 C 
ATOM     31  C   UNL     1       2.267  -5.823  35.206  1.00  0.00     0.179 C 
ATOM     32  C   UNL     1       2.292  -6.782  36.421  1.00  0.00     0.177 C 
BRANCH  28  33
ATOM     33  O   UNL     1       4.817  -8.203  35.634  1.00  0.00    -0.384 OA
ATOM     34  H   UNL     1       5.187  -8.181  34.714  1.00  0.00     0.211 HD
ENDBRANCH  28  33
BRANCH  30  35
ATOM     35  O   UNL     1       3.764  -7.671  38.123  1.00  0.00    -0.387 OA
ATOM     36  H   UNL     1       3.446  -7.260  38.968  1.00  0.00     0.211 HD
ENDBRANCH  30  35
BRANCH  31  37
ATOM     37  C   UNL     1       0.946  -5.938  34.428  1.00  0.00     0.191 C 
BRANCH  37  38
ATOM     38  O   UNL     1       1.002  -5.214  33.227  1.00  0.00    -0.394 OA
ATOM     39  H   UNL     1       1.813  -4.646  33.275  1.00  0.00     0.210 HD
ENDBRANCH  37  38
ENDBRANCH  31  37
BRANCH  32  40
ATOM     40  O   UNL     1       1.280  -6.424  37.329  1.00  0.00    -0.387 OA
ATOM     41  H   UNL     1       0.462  -6.243  36.797  1.00  0.00     0.211 HD
ENDBRANCH  32  40
ENDBRANCH   1  27
TORSDOF 12
ENDMDL
