MODEL 1
REMARK VINA RESULT:    -5.067      0.000      0.000
REMARK INTER + INTRA:          -7.387
REMARK INTER:                  -6.845
REMARK INTRA:                  -0.542
REMARK UNBOUND:                -0.542
REMARK SMILES C=C[C@](C)(CCC=C(C)C)OC(C)=O
REMARK SMILES IDX 3 1 4 2 5 3 6 4 7 5 9 6 8 7 10 8 2 9 1 10 11 11 12 12 14 13
REMARK SMILES IDX 13 14
REMARK H PARENT
REMARK Flexibility Score: inf
ROOT
ATOM      1  C   UNL     1      49.741  -6.600  -4.726  1.00  0.00     0.127 C 
ATOM      2  C   UNL     1      50.881  -7.608  -4.446  1.00  0.00     0.061 C 
ENDROOT
BRANCH   1   3
ATOM      3  C   UNL     1      48.859  -6.367  -3.463  1.00  0.00     0.057 C 
BRANCH   3   4
ATOM      4  C   UNL     1      49.079  -7.354  -2.306  1.00  0.00     0.032 C 
BRANCH   4   5
ATOM      5  C   UNL     1      48.381  -6.886  -1.051  1.00  0.00    -0.028 C 
ATOM      6  C   UNL     1      46.649  -6.928   0.694  1.00  0.00     0.039 C 
ATOM      7  C   UNL     1      47.266  -7.475  -0.568  1.00  0.00    -0.080 C 
ATOM      8  C   UNL     1      46.632  -8.658  -1.259  1.00  0.00     0.039 C 
ENDBRANCH   4   5
ENDBRANCH   3   4
ENDBRANCH   1   3
BRANCH   1   9
ATOM      9  C   UNL     1      48.854  -7.214  -5.798  1.00  0.00     0.013 C 
ATOM     10  C   UNL     1      48.006  -6.482  -6.532  1.00  0.00     0.008 C 
ENDBRANCH   1   9
BRANCH   1  11
ATOM     11  O   UNL     1      50.239  -5.359  -5.261  1.00  0.00    -0.455 OA
BRANCH  11  12
ATOM     12  C   UNL     1      51.470  -5.118  -5.895  1.00  0.00     0.303 C 
ATOM     13  O   UNL     1      51.707  -5.529  -7.062  1.00  0.00    -0.253 OA
ATOM     14  C   UNL     1      52.537  -4.396  -5.147  1.00  0.00     0.139 C 
ENDBRANCH  11  12
ENDBRANCH   1  11
TORSDOF 6
ENDMDL
MODEL 2
REMARK VINA RESULT:    -4.883     10.382     12.724
REMARK INTER + INTRA:          -7.138
REMARK INTER:                  -6.317
REMARK INTRA:                  -0.821
REMARK UNBOUND:                -0.542
REMARK SMILES C=C[C@](C)(CCC=C(C)C)OC(C)=O
REMARK SMILES IDX 3 1 4 2 5 3 6 4 7 5 9 6 8 7 10 8 2 9 1 10 11 11 12 12 14 13
REMARK SMILES IDX 13 14
REMARK H PARENT
REMARK Flexibility Score: inf
ROOT
ATOM      1  C   UNL     1      58.913  -1.370  -0.142  1.00  0.00     0.127 C 
ATOM      2  C   UNL     1      58.411  -2.136  -1.389  1.00  0.00     0.061 C 
ENDROOT
BRANCH   1   3
ATOM      3  C   UNL     1      58.607   0.154  -0.243  1.00  0.00     0.057 C 
BRANCH   3   4
ATOM      4  C   UNL     1      57.601   0.560  -1.332  1.00  0.00     0.032 C 
BRANCH   4   5
ATOM      5  C   UNL     1      57.884   1.953  -1.842  1.00  0.00    -0.028 C 
ATOM      6  C   UNL     1      58.923   3.631  -3.308  1.00  0.00     0.039 C 
ATOM      7  C   UNL     1      58.711   2.202  -2.879  1.00  0.00    -0.080 C 
ATOM      8  C   UNL     1      59.421   1.088  -3.610  1.00  0.00     0.039 C 
ENDBRANCH   4   5
ENDBRANCH   3   4
ENDBRANCH   1   3
BRANCH   1   9
ATOM      9  C   UNL     1      60.424  -1.534  -0.093  1.00  0.00     0.013 C 
ATOM     10  C   UNL     1      61.234  -0.975  -1.002  1.00  0.00     0.008 C 
ENDBRANCH   1   9
BRANCH   1  11
ATOM     11  O   UNL     1      58.396  -1.934   1.079  1.00  0.00    -0.455 OA
BRANCH  11  12
ATOM     12  C   UNL     1      57.080  -2.341   1.359  1.00  0.00     0.303 C 
ATOM     13  O   UNL     1      56.720  -3.543   1.249  1.00  0.00    -0.253 OA
ATOM     14  C   UNL     1      56.076  -1.314   1.754  1.00  0.00     0.139 C 
ENDBRANCH  11  12
ENDBRANCH   1  11
TORSDOF 6
ENDMDL
MODEL 3
REMARK VINA RESULT:    -4.851      1.311      2.824
REMARK INTER + INTRA:          -7.095
REMARK INTER:                  -6.579
REMARK INTRA:                  -0.517
REMARK UNBOUND:                -0.542
REMARK SMILES C=C[C@](C)(CCC=C(C)C)OC(C)=O
REMARK SMILES IDX 3 1 4 2 5 3 6 4 7 5 9 6 8 7 10 8 2 9 1 10 11 11 12 12 14 13
REMARK SMILES IDX 13 14
REMARK H PARENT
REMARK Flexibility Score: inf
ROOT
ATOM      1  C   UNL     1      49.916  -6.572  -4.581  1.00  0.00     0.127 C 
ATOM      2  C   UNL     1      50.140  -5.041  -4.592  1.00  0.00     0.061 C 
ENDROOT
BRANCH   1   3
ATOM      3  C   UNL     1      48.774  -6.977  -3.602  1.00  0.00     0.057 C 
BRANCH   3   4
ATOM      4  C   UNL     1      49.228  -7.599  -2.271  1.00  0.00     0.032 C 
BRANCH   4   5
ATOM      5  C   UNL     1      48.459  -7.017  -1.109  1.00  0.00    -0.028 C 
ATOM      6  C   UNL     1      46.626  -6.897   0.527  1.00  0.00     0.039 C 
ATOM      7  C   UNL     1      47.314  -7.559  -0.640  1.00  0.00    -0.080 C 
ATOM      8  C   UNL     1      46.717  -8.801  -1.255  1.00  0.00     0.039 C 
ENDBRANCH   4   5
ENDBRANCH   3   4
ENDBRANCH   1   3
BRANCH   1   9
ATOM      9  C   UNL     1      51.202  -7.209  -4.077  1.00  0.00     0.013 C 
ATOM     10  C   UNL     1      51.804  -8.215  -4.724  1.00  0.00     0.008 C 
ENDBRANCH   1   9
BRANCH   1  11
ATOM     11  O   UNL     1      49.688  -7.091  -5.905  1.00  0.00    -0.455 OA
BRANCH  11  12
ATOM     12  C   UNL     1      48.478  -7.158  -6.616  1.00  0.00     0.303 C 
ATOM     13  O   UNL     1      47.682  -6.182  -6.664  1.00  0.00    -0.253 OA
ATOM     14  C   UNL     1      48.107  -8.433  -7.291  1.00  0.00     0.139 C 
ENDBRANCH  11  12
ENDBRANCH   1  11
TORSDOF 6
ENDMDL
MODEL 4
REMARK VINA RESULT:    -4.765      9.715     11.471
REMARK INTER + INTRA:          -6.979
REMARK INTER:                  -6.038
REMARK INTRA:                  -0.941
REMARK UNBOUND:                -0.542
REMARK SMILES C=C[C@](C)(CCC=C(C)C)OC(C)=O
REMARK SMILES IDX 3 1 4 2 5 3 6 4 7 5 9 6 8 7 10 8 2 9 1 10 11 11 12 12 14 13
REMARK SMILES IDX 13 14
REMARK H PARENT
REMARK Flexibility Score: inf
ROOT
ATOM      1  C   UNL     1      59.440  -0.312  -2.243  1.00  0.00     0.127 C 
ATOM      2  C   UNL     1      60.516   0.388  -3.108  1.00  0.00     0.061 C 
ENDROOT
BRANCH   1   3
ATOM      3  C   UNL     1      59.999  -0.709  -0.844  1.00  0.00     0.057 C 
BRANCH   3   4
ATOM      4  C   UNL     1      59.022  -0.550   0.332  1.00  0.00     0.032 C 
BRANCH   4   5
ATOM      5  C   UNL     1      58.417  -1.879   0.720  1.00  0.00    -0.028 C 
ATOM      6  C   UNL     1      56.590  -3.481   1.096  1.00  0.00     0.039 C 
ATOM      7  C   UNL     1      57.088  -2.118   0.688  1.00  0.00    -0.080 C 
ATOM      8  C   UNL     1      56.103  -1.058   0.257  1.00  0.00     0.039 C 
ENDBRANCH   4   5
ENDBRANCH   3   4
ENDBRANCH   1   3
BRANCH   1   9
ATOM      9  C   UNL     1      59.050  -1.594  -2.964  1.00  0.00     0.013 C 
ATOM     10  C   UNL     1      57.788  -2.039  -2.999  1.00  0.00     0.008 C 
ENDBRANCH   1   9
BRANCH   1  11
ATOM     11  O   UNL     1      58.242   0.481  -2.130  1.00  0.00    -0.455 OA
BRANCH  11  12
ATOM     12  C   UNL     1      58.129   1.880  -2.067  1.00  0.00     0.303 C 
ATOM     13  O   UNL     1      58.195   2.502  -0.974  1.00  0.00    -0.253 OA
ATOM     14  C   UNL     1      57.878   2.640  -3.323  1.00  0.00     0.139 C 
ENDBRANCH  11  12
ENDBRANCH   1  11
TORSDOF 6
ENDMDL
MODEL 5
REMARK VINA RESULT:    -4.709      9.248     11.008
REMARK INTER + INTRA:          -6.903
REMARK INTER:                  -6.041
REMARK INTRA:                  -0.862
REMARK UNBOUND:                -0.542
REMARK SMILES C=C[C@](C)(CCC=C(C)C)OC(C)=O
REMARK SMILES IDX 3 1 4 2 5 3 6 4 7 5 9 6 8 7 10 8 2 9 1 10 11 11 12 12 14 13
REMARK SMILES IDX 13 14
REMARK H PARENT
REMARK Flexibility Score: inf
ROOT
ATOM      1  C   UNL     1      58.507  -0.474  -1.889  1.00  0.00     0.127 C 
ATOM      2  C   UNL     1      59.907  -0.612  -1.244  1.00  0.00     0.061 C 
ENDROOT
BRANCH   1   3
ATOM      3  C   UNL     1      57.467   0.103  -0.883  1.00  0.00     0.057 C 
BRANCH   3   4
ATOM      4  C   UNL     1      57.567  -0.427   0.556  1.00  0.00     0.032 C 
BRANCH   4   5
ATOM      5  C   UNL     1      56.411  -1.344   0.879  1.00  0.00    -0.028 C 
ATOM      6  C   UNL     1      55.349  -3.476   1.489  1.00  0.00     0.039 C 
ATOM      7  C   UNL     1      56.571  -2.651   1.181  1.00  0.00    -0.080 C 
ATOM      8  C   UNL     1      57.937  -3.293   1.215  1.00  0.00     0.039 C 
ENDBRANCH   4   5
ENDBRANCH   3   4
ENDBRANCH   1   3
BRANCH   1   9
ATOM      9  C   UNL     1      58.050  -1.873  -2.271  1.00  0.00     0.013 C 
ATOM     10  C   UNL     1      58.906  -2.895  -2.406  1.00  0.00     0.008 C 
ENDBRANCH   1   9
BRANCH   1  11
ATOM     11  O   UNL     1      58.550   0.295  -3.107  1.00  0.00    -0.455 OA
BRANCH  11  12
ATOM     12  C   UNL     1      59.275   1.470  -3.368  1.00  0.00     0.303 C 
ATOM     13  O   UNL     1      60.485   1.439  -3.717  1.00  0.00    -0.253 OA
ATOM     14  C   UNL     1      58.604   2.787  -3.182  1.00  0.00     0.139 C 
ENDBRANCH  11  12
ENDBRANCH   1  11
TORSDOF 6
ENDMDL
MODEL 6
REMARK VINA RESULT:    -4.661      1.510      2.124
REMARK INTER + INTRA:          -6.838
REMARK INTER:                  -5.810
REMARK INTRA:                  -1.028
REMARK UNBOUND:                -0.542
REMARK SMILES C=C[C@](C)(CCC=C(C)C)OC(C)=O
REMARK SMILES IDX 3 1 4 2 5 3 6 4 7 5 9 6 8 7 10 8 2 9 1 10 11 11 12 12 14 13
REMARK SMILES IDX 13 14
REMARK H PARENT
REMARK Flexibility Score: inf
ROOT
ATOM      1  C   UNL     1      50.988  -7.566  -4.772  1.00  0.00     0.127 C 
ATOM      2  C   UNL     1      51.945  -7.847  -5.955  1.00  0.00     0.061 C 
ENDROOT
BRANCH   1   3
ATOM      3  C   UNL     1      51.078  -8.680  -3.686  1.00  0.00     0.057 C 
BRANCH   3   4
ATOM      4  C   UNL     1      50.806  -8.225  -2.243  1.00  0.00     0.032 C 
BRANCH   4   5
ATOM      5  C   UNL     1      49.507  -8.798  -1.728  1.00  0.00    -0.028 C 
ATOM      6  C   UNL     1      47.183  -8.708  -0.929  1.00  0.00     0.039 C 
ATOM      7  C   UNL     1      48.432  -8.034  -1.437  1.00  0.00    -0.080 C 
ATOM      8  C   UNL     1      48.457  -6.534  -1.608  1.00  0.00     0.039 C 
ENDBRANCH   4   5
ENDBRANCH   3   4
ENDBRANCH   1   3
BRANCH   1   9
ATOM      9  C   UNL     1      49.573  -7.579  -5.328  1.00  0.00     0.013 C 
ATOM     10  C   UNL     1      48.757  -6.521  -5.232  1.00  0.00     0.008 C 
ENDBRANCH   1   9
BRANCH   1  11
ATOM     11  O   UNL     1      51.200  -6.258  -4.208  1.00  0.00    -0.455 OA
BRANCH  11  12
ATOM     12  C   UNL     1      52.233  -5.347  -4.489  1.00  0.00     0.303 C 
ATOM     13  O   UNL     1      53.382  -5.471  -3.986  1.00  0.00    -0.253 OA
ATOM     14  C   UNL     1      51.946  -4.180  -5.368  1.00  0.00     0.139 C 
ENDBRANCH  11  12
ENDBRANCH   1  11
TORSDOF 6
ENDMDL
MODEL 7
REMARK VINA RESULT:    -4.654      9.387     11.780
REMARK INTER + INTRA:          -6.829
REMARK INTER:                  -6.113
REMARK INTRA:                  -0.716
REMARK UNBOUND:                -0.542
REMARK SMILES C=C[C@](C)(CCC=C(C)C)OC(C)=O
REMARK SMILES IDX 3 1 4 2 5 3 6 4 7 5 9 6 8 7 10 8 2 9 1 10 11 11 12 12 14 13
REMARK SMILES IDX 13 14
REMARK H PARENT
REMARK Flexibility Score: inf
ROOT
ATOM      1  C   UNL     1      57.509  -1.677  -0.086  1.00  0.00     0.127 C 
ATOM      2  C   UNL     1      58.697  -2.593   0.298  1.00  0.00     0.061 C 
ENDROOT
BRANCH   1   3
ATOM      3  C   UNL     1      57.855  -0.172   0.122  1.00  0.00     0.057 C 
BRANCH   3   4
ATOM      4  C   UNL     1      58.856   0.425  -0.879  1.00  0.00     0.032 C 
BRANCH   4   5
ATOM      5  C   UNL     1      58.265   1.617  -1.594  1.00  0.00    -0.028 C 
ATOM      6  C   UNL     1      58.024   3.228  -3.436  1.00  0.00     0.039 C 
ATOM      7  C   UNL     1      58.683   2.025  -2.812  1.00  0.00    -0.080 C 
ATOM      8  C   UNL     1      59.785   1.307  -3.551  1.00  0.00     0.039 C 
ENDBRANCH   4   5
ENDBRANCH   3   4
ENDBRANCH   1   3
BRANCH   1   9
ATOM      9  C   UNL     1      56.360  -2.019   0.849  1.00  0.00     0.013 C 
ATOM     10  C   UNL     1      55.950  -1.185   1.814  1.00  0.00     0.008 C 
ENDBRANCH   1   9
BRANCH   1  11
ATOM     11  O   UNL     1      57.044  -1.934  -1.425  1.00  0.00    -0.455 OA
BRANCH  11  12
ATOM     12  C   UNL     1      57.572  -2.827  -2.373  1.00  0.00     0.303 C 
ATOM     13  O   UNL     1      57.219  -4.036  -2.414  1.00  0.00    -0.253 OA
ATOM     14  C   UNL     1      58.611  -2.340  -3.323  1.00  0.00     0.139 C 
ENDBRANCH  11  12
ENDBRANCH   1  11
TORSDOF 6
ENDMDL
MODEL 8
REMARK VINA RESULT:    -4.573      9.352     11.228
REMARK INTER + INTRA:          -6.720
REMARK INTER:                  -5.682
REMARK INTRA:                  -1.038
REMARK UNBOUND:                -0.542
REMARK SMILES C=C[C@](C)(CCC=C(C)C)OC(C)=O
REMARK SMILES IDX 3 1 4 2 5 3 6 4 7 5 9 6 8 7 10 8 2 9 1 10 11 11 12 12 14 13
REMARK SMILES IDX 13 14
REMARK H PARENT
REMARK Flexibility Score: inf
ROOT
ATOM      1  C   UNL     1      58.811   0.159  -2.060  1.00  0.00     0.127 C 
ATOM      2  C   UNL     1      57.875   1.303  -1.598  1.00  0.00     0.061 C 
ENDROOT
BRANCH   1   3
ATOM      3  C   UNL     1      59.543  -0.504  -0.855  1.00  0.00     0.057 C 
BRANCH   3   4
ATOM      4  C   UNL     1      58.809  -0.430   0.493  1.00  0.00     0.032 C 
BRANCH   4   5
ATOM      5  C   UNL     1      58.278  -1.786   0.897  1.00  0.00    -0.028 C 
ATOM      6  C   UNL     1      56.544  -3.488   1.273  1.00  0.00     0.039 C 
ATOM      7  C   UNL     1      56.967  -2.106   0.847  1.00  0.00    -0.080 C 
ATOM      8  C   UNL     1      55.928  -1.117   0.376  1.00  0.00     0.039 C 
ENDBRANCH   4   5
ENDBRANCH   3   4
ENDBRANCH   1   3
BRANCH   1   9
ATOM      9  C   UNL     1      59.870   0.782  -2.956  1.00  0.00     0.013 C 
ATOM     10  C   UNL     1      59.711   1.984  -3.524  1.00  0.00     0.008 C 
ENDBRANCH   1   9
BRANCH   1  11
ATOM     11  O   UNL     1      58.113  -0.816  -2.858  1.00  0.00    -0.455 OA
BRANCH  11  12
ATOM     12  C   UNL     1      58.466  -2.155  -3.099  1.00  0.00     0.303 C 
ATOM     13  O   UNL     1      59.460  -2.462  -3.809  1.00  0.00    -0.253 OA
ATOM     14  C   UNL     1      57.613  -3.238  -2.535  1.00  0.00     0.139 C 
ENDBRANCH  11  12
ENDBRANCH   1  11
TORSDOF 6
ENDMDL
MODEL 9
REMARK VINA RESULT:    -4.385     11.058     12.856
REMARK INTER + INTRA:          -6.465
REMARK INTER:                  -5.786
REMARK INTRA:                  -0.679
REMARK UNBOUND:                -0.542
REMARK SMILES C=C[C@](C)(CCC=C(C)C)OC(C)=O
REMARK SMILES IDX 3 1 4 2 5 3 6 4 7 5 9 6 8 7 10 8 2 9 1 10 11 11 12 12 14 13
REMARK SMILES IDX 13 14
REMARK H PARENT
REMARK Flexibility Score: inf
ROOT
ATOM      1  C   UNL     1      59.469  -1.512  -0.914  1.00  0.00     0.127 C 
ATOM      2  C   UNL     1      59.492  -2.474   0.298  1.00  0.00     0.061 C 
ENDROOT
BRANCH   1   3
ATOM      3  C   UNL     1      58.992  -0.086  -0.505  1.00  0.00     0.057 C 
BRANCH   3   4
ATOM      4  C   UNL     1      57.757   0.443  -1.251  1.00  0.00     0.032 C 
BRANCH   4   5
ATOM      5  C   UNL     1      57.973   1.861  -1.723  1.00  0.00    -0.028 C 
ATOM      6  C   UNL     1      58.845   3.617  -3.208  1.00  0.00     0.039 C 
ATOM      7  C   UNL     1      58.692   2.168  -2.824  1.00  0.00    -0.080 C 
ATOM      8  C   UNL     1      59.340   1.097  -3.669  1.00  0.00     0.039 C 
ENDBRANCH   4   5
ENDBRANCH   3   4
ENDBRANCH   1   3
BRANCH   1   9
ATOM      9  C   UNL     1      58.459  -2.066  -1.907  1.00  0.00     0.013 C 
ATOM     10  C   UNL     1      58.820  -2.532  -3.110  1.00  0.00     0.008 C 
ENDBRANCH   1   9
BRANCH   1  11
ATOM     11  O   UNL     1      60.739  -1.471  -1.593  1.00  0.00    -0.455 OA
BRANCH  11  12
ATOM     12  C   UNL     1      61.893  -2.226  -1.322  1.00  0.00     0.303 C 
ATOM     13  O   UNL     1      62.032  -3.402  -1.751  1.00  0.00    -0.253 OA
ATOM     14  C   UNL     1      62.959  -1.633  -0.467  1.00  0.00     0.139 C 
ENDBRANCH  11  12
ENDBRANCH   1  11
TORSDOF 6
ENDMDL
