MODEL 1
REMARK VINA RESULT:    -1.709      0.000      0.000
REMARK INTER + INTRA:          -3.211
REMARK INTER:                  -3.706
REMARK INTRA:                   0.495
REMARK UNBOUND:                 0.495
REMARK SMILES CCCCCCCCCCCCCCCCCCCCCC(=O)[O-]
REMARK SMILES IDX 12 1 11 2 10 3 9 4 8 5 7 6 6 7 5 8 4 9 3 10 2 11 1 12 13 13
REMARK SMILES IDX 14 14 15 15 16 16 17 17 18 18 19 19 20 20 21 21 22 22 23 23
REMARK SMILES IDX 24 24
REMARK H PARENT
REMARK Flexibility Score: inf
ROOT
ATOM      1  C   UNL     1     -31.212 -21.469 -33.886  1.00  0.00     0.000 C 
ENDROOT
BRANCH   1   2
ATOM      2  C   UNL     1     -31.635 -21.264 -35.353  1.00  0.00     0.000 C 
BRANCH   2   3
ATOM      3  C   UNL     1     -33.115 -21.600 -35.603  1.00  0.00     0.000 C 
BRANCH   3   4
ATOM      4  C   UNL     1     -33.689 -20.871 -36.828  1.00  0.00    -0.000 C 
BRANCH   4   5
ATOM      5  C   UNL     1     -33.861 -21.797 -38.047  1.00  0.00    -0.000 C 
BRANCH   5   6
ATOM      6  C   UNL     1     -32.724 -21.620 -39.075  1.00  0.00    -0.000 C 
BRANCH   6   7
ATOM      7  C   UNL     1     -31.653 -22.723 -39.004  1.00  0.00    -0.000 C 
BRANCH   7   8
ATOM      8  C   UNL     1     -32.246 -24.136 -39.125  1.00  0.00    -0.000 C 
BRANCH   8   9
ATOM      9  C   UNL     1     -31.920 -25.021 -37.911  1.00  0.00    -0.000 C 
BRANCH   9  10
ATOM     10  C   UNL     1     -32.878 -26.218 -37.776  1.00  0.00    -0.000 C 
BRANCH  10  11
ATOM     11  C   UNL     1     -32.722 -27.227 -38.924  1.00  0.00    -0.003 C 
ATOM     12  C   UNL     1     -33.853 -28.254 -38.969  1.00  0.00     0.004 C 
ENDBRANCH  10  11
ENDBRANCH   9  10
ENDBRANCH   8   9
ENDBRANCH   7   8
ENDBRANCH   6   7
ENDBRANCH   5   6
ENDBRANCH   4   5
ENDBRANCH   3   4
ENDBRANCH   2   3
ENDBRANCH   1   2
BRANCH   1  13
ATOM     13  C   UNL     1     -31.696 -20.382 -32.910  1.00  0.00     0.000 C 
BRANCH  13  14
ATOM     14  C   UNL     1     -30.697 -19.223 -32.760  1.00  0.00     0.000 C 
BRANCH  14  15
ATOM     15  C   UNL     1     -29.253 -19.745 -32.754  1.00  0.00     0.000 C 
BRANCH  15  16
ATOM     16  C   UNL     1     -28.388 -19.107 -31.652  1.00  0.00     0.000 C 
BRANCH  16  17
ATOM     17  C   UNL     1     -29.092 -18.932 -30.293  1.00  0.00     0.000 C 
BRANCH  17  18
ATOM     18  C   UNL     1     -30.615 -19.164 -30.311  1.00  0.00     0.000 C 
BRANCH  18  19
ATOM     19  C   UNL     1     -31.077 -20.342 -29.428  1.00  0.00     0.000 C 
BRANCH  19  20
ATOM     20  C   UNL     1     -30.490 -21.688 -29.888  1.00  0.00     0.006 C 
BRANCH  20  21
ATOM     21  C   UNL     1     -30.135 -22.600 -28.706  1.00  0.00     0.053 C 
BRANCH  21  22
ATOM     22  C   UNL     1     -29.100 -21.980 -27.816  1.00  0.00     0.041 C 
ATOM     23  O   UNL     1     -28.339 -21.082 -28.261  1.00  0.00    -0.550 OA
ATOM     24  O   UNL     1     -28.992 -22.382 -26.490  1.00  0.00    -0.550 OA
ENDBRANCH  21  22
ENDBRANCH  20  21
ENDBRANCH  19  20
ENDBRANCH  18  19
ENDBRANCH  17  18
ENDBRANCH  16  17
ENDBRANCH  15  16
ENDBRANCH  14  15
ENDBRANCH  13  14
ENDBRANCH   1  13
TORSDOF 20
ENDMDL
MODEL 2
REMARK VINA RESULT:    -1.265      3.543      8.884
REMARK INTER + INTRA:          -2.249
REMARK INTER:                  -1.088
REMARK INTRA:                  -1.162
REMARK UNBOUND:                 0.495
REMARK SMILES CCCCCCCCCCCCCCCCCCCCCC(=O)[O-]
REMARK SMILES IDX 12 1 11 2 10 3 9 4 8 5 7 6 6 7 5 8 4 9 3 10 2 11 1 12 13 13
REMARK SMILES IDX 14 14 15 15 16 16 17 17 18 18 19 19 20 20 21 21 22 22 23 23
REMARK SMILES IDX 24 24
REMARK H PARENT
REMARK Flexibility Score: inf
ROOT
ATOM      1  C   UNL     1     -30.877 -21.542 -32.487  1.00  0.00     0.000 C 
ENDROOT
BRANCH   1   2
ATOM      2  C   UNL     1     -29.922 -20.622 -33.270  1.00  0.00     0.000 C 
BRANCH   2   3
ATOM      3  C   UNL     1     -29.738 -19.246 -32.608  1.00  0.00     0.000 C 
BRANCH   3   4
ATOM      4  C   UNL     1     -28.259 -18.875 -32.413  1.00  0.00    -0.000 C 
BRANCH   4   5
ATOM      5  C   UNL     1     -27.724 -19.268 -31.023  1.00  0.00    -0.000 C 
BRANCH   5   6
ATOM      6  C   UNL     1     -28.831 -19.247 -29.948  1.00  0.00    -0.000 C 
BRANCH   6   7
ATOM      7  C   UNL     1     -29.552 -20.596 -29.778  1.00  0.00    -0.000 C 
BRANCH   7   8
ATOM      8  C   UNL     1     -30.948 -20.450 -29.152  1.00  0.00    -0.000 C 
BRANCH   8   9
ATOM      9  C   UNL     1     -31.694 -19.202 -29.653  1.00  0.00    -0.000 C 
BRANCH   9  10
ATOM     10  C   UNL     1     -33.179 -19.198 -29.251  1.00  0.00    -0.000 C 
BRANCH  10  11
ATOM     11  C   UNL     1     -34.107 -18.880 -30.434  1.00  0.00    -0.003 C 
ATOM     12  C   UNL     1     -33.462 -19.173 -31.788  1.00  0.00     0.004 C 
ENDBRANCH  10  11
ENDBRANCH   9  10
ENDBRANCH   8   9
ENDBRANCH   7   8
ENDBRANCH   6   7
ENDBRANCH   5   6
ENDBRANCH   4   5
ENDBRANCH   3   4
ENDBRANCH   2   3
ENDBRANCH   1   2
BRANCH   1  13
ATOM     13  C   UNL     1     -31.685 -22.529 -33.348  1.00  0.00     0.000 C 
BRANCH  13  14
ATOM     14  C   UNL     1     -31.813 -22.082 -34.813  1.00  0.00     0.000 C 
BRANCH  14  15
ATOM     15  C   UNL     1     -33.254 -21.659 -35.130  1.00  0.00     0.000 C 
BRANCH  15  16
ATOM     16  C   UNL     1     -33.372 -20.174 -35.521  1.00  0.00     0.000 C 
BRANCH  16  17
ATOM     17  C   UNL     1     -33.974 -19.916 -36.916  1.00  0.00     0.000 C 
BRANCH  17  18
ATOM     18  C   UNL     1     -33.752 -21.043 -37.942  1.00  0.00     0.000 C 
BRANCH  18  19
ATOM     19  C   UNL     1     -32.292 -21.536 -38.022  1.00  0.00     0.000 C 
BRANCH  19  20
ATOM     20  C   UNL     1     -32.133 -22.759 -38.943  1.00  0.00     0.006 C 
BRANCH  20  21
ATOM     21  C   UNL     1     -32.927 -23.971 -38.440  1.00  0.00     0.053 C 
BRANCH  21  22
ATOM     22  C   UNL     1     -32.035 -25.142 -38.157  1.00  0.00     0.041 C 
ATOM     23  O   UNL     1     -30.830 -24.959 -37.843  1.00  0.00    -0.550 OA
ATOM     24  O   UNL     1     -32.543 -26.434 -38.219  1.00  0.00    -0.550 OA
ENDBRANCH  21  22
ENDBRANCH  20  21
ENDBRANCH  19  20
ENDBRANCH  18  19
ENDBRANCH  17  18
ENDBRANCH  16  17
ENDBRANCH  15  16
ENDBRANCH  14  15
ENDBRANCH  13  14
ENDBRANCH   1  13
TORSDOF 20
ENDMDL
MODEL 3
REMARK VINA RESULT:    -0.824      3.393      9.059
REMARK INTER + INTRA:          -1.292
REMARK INTER:                  -0.205
REMARK INTRA:                  -1.087
REMARK UNBOUND:                 0.495
REMARK SMILES CCCCCCCCCCCCCCCCCCCCCC(=O)[O-]
REMARK SMILES IDX 12 1 11 2 10 3 9 4 8 5 7 6 6 7 5 8 4 9 3 10 2 11 1 12 13 13
REMARK SMILES IDX 14 14 15 15 16 16 17 17 18 18 19 19 20 20 21 21 22 22 23 23
REMARK SMILES IDX 24 24
REMARK H PARENT
REMARK Flexibility Score: inf
ROOT
ATOM      1  C   UNL     1     -30.823 -21.766 -33.199  1.00  0.00     0.000 C 
ENDROOT
BRANCH   1   2
ATOM      2  C   UNL     1     -30.172 -20.710 -34.111  1.00  0.00     0.000 C 
BRANCH   2   3
ATOM      3  C   UNL     1     -30.149 -19.307 -33.482  1.00  0.00     0.000 C 
BRANCH   3   4
ATOM      4  C   UNL     1     -29.078 -19.165 -32.389  1.00  0.00    -0.000 C 
BRANCH   4   5
ATOM      5  C   UNL     1     -29.678 -19.083 -30.973  1.00  0.00    -0.000 C 
BRANCH   5   6
ATOM      6  C   UNL     1     -31.207 -18.877 -31.002  1.00  0.00    -0.000 C 
BRANCH   6   7
ATOM      7  C   UNL     1     -31.890 -19.138 -29.648  1.00  0.00    -0.000 C 
BRANCH   7   8
ATOM      8  C   UNL     1     -31.781 -20.605 -29.200  1.00  0.00    -0.000 C 
BRANCH   8   9
ATOM      9  C   UNL     1     -30.328 -21.107 -29.167  1.00  0.00    -0.000 C 
BRANCH   9  10
ATOM     10  C   UNL     1     -30.218 -22.571 -28.706  1.00  0.00    -0.000 C 
BRANCH  10  11
ATOM     11  C   UNL     1     -29.283 -22.736 -27.497  1.00  0.00    -0.003 C 
ATOM     12  C   UNL     1     -28.509 -21.461 -27.168  1.00  0.00     0.004 C 
ENDBRANCH  10  11
ENDBRANCH   9  10
ENDBRANCH   8   9
ENDBRANCH   7   8
ENDBRANCH   6   7
ENDBRANCH   5   6
ENDBRANCH   4   5
ENDBRANCH   3   4
ENDBRANCH   2   3
ENDBRANCH   1   2
BRANCH   1  13
ATOM     13  C   UNL     1     -31.890 -22.645 -33.876  1.00  0.00     0.000 C 
BRANCH  13  14
ATOM     14  C   UNL     1     -32.146 -22.257 -35.341  1.00  0.00     0.000 C 
BRANCH  14  15
ATOM     15  C   UNL     1     -33.519 -21.588 -35.496  1.00  0.00     0.000 C 
BRANCH  15  16
ATOM     16  C   UNL     1     -33.470 -20.307 -36.349  1.00  0.00     0.000 C 
BRANCH  16  17
ATOM     17  C   UNL     1     -34.022 -20.458 -37.780  1.00  0.00     0.000 C 
BRANCH  17  18
ATOM     18  C   UNL     1     -33.481 -21.668 -38.564  1.00  0.00     0.000 C 
BRANCH  18  19
ATOM     19  C   UNL     1     -31.941 -21.715 -38.657  1.00  0.00     0.000 C 
BRANCH  19  20
ATOM     20  C   UNL     1     -31.420 -23.086 -39.123  1.00  0.00     0.006 C 
BRANCH  20  21
ATOM     21  C   UNL     1     -32.513 -24.162 -39.093  1.00  0.00     0.053 C 
BRANCH  21  22
ATOM     22  C   UNL     1     -32.132 -25.317 -38.218  1.00  0.00     0.041 C 
ATOM     23  O   UNL     1     -32.894 -26.314 -38.117  1.00  0.00    -0.550 OA
ATOM     24  O   UNL     1     -30.924 -25.301 -37.530  1.00  0.00    -0.550 OA
ENDBRANCH  21  22
ENDBRANCH  20  21
ENDBRANCH  19  20
ENDBRANCH  18  19
ENDBRANCH  17  18
ENDBRANCH  16  17
ENDBRANCH  15  16
ENDBRANCH  14  15
ENDBRANCH  13  14
ENDBRANCH   1  13
TORSDOF 20
ENDMDL
MODEL 4
REMARK VINA RESULT:    -0.804      1.389      1.968
REMARK INTER + INTRA:          -1.248
REMARK INTER:                  -1.103
REMARK INTRA:                  -0.145
REMARK UNBOUND:                 0.495
REMARK SMILES CCCCCCCCCCCCCCCCCCCCCC(=O)[O-]
REMARK SMILES IDX 12 1 11 2 10 3 9 4 8 5 7 6 6 7 5 8 4 9 3 10 2 11 1 12 13 13
REMARK SMILES IDX 14 14 15 15 16 16 17 17 18 18 19 19 20 20 21 21 22 22 23 23
REMARK SMILES IDX 24 24
REMARK H PARENT
REMARK Flexibility Score: inf
ROOT
ATOM      1  C   UNL     1     -31.563 -19.917 -33.327  1.00  0.00     0.000 C 
ENDROOT
BRANCH   1   2
ATOM      2  C   UNL     1     -32.937 -20.367 -33.857  1.00  0.00     0.000 C 
BRANCH   2   3
ATOM      3  C   UNL     1     -33.363 -19.618 -35.130  1.00  0.00     0.000 C 
BRANCH   3   4
ATOM      4  C   UNL     1     -34.102 -20.521 -36.131  1.00  0.00    -0.000 C 
BRANCH   4   5
ATOM      5  C   UNL     1     -33.610 -21.980 -36.092  1.00  0.00    -0.000 C 
BRANCH   5   6
ATOM      6  C   UNL     1     -32.951 -22.406 -37.421  1.00  0.00    -0.000 C 
BRANCH   6   7
ATOM      7  C   UNL     1     -31.461 -22.765 -37.283  1.00  0.00    -0.000 C 
BRANCH   7   8
ATOM      8  C   UNL     1     -31.195 -24.271 -37.439  1.00  0.00    -0.000 C 
BRANCH   8   9
ATOM      9  C   UNL     1     -31.987 -24.894 -38.601  1.00  0.00    -0.000 C 
BRANCH   9  10
ATOM     10  C   UNL     1     -33.142 -25.788 -38.118  1.00  0.00    -0.000 C 
BRANCH  10  11
ATOM     11  C   UNL     1     -33.343 -27.022 -39.012  1.00  0.00    -0.003 C 
ATOM     12  C   UNL     1     -32.257 -28.079 -38.816  1.00  0.00     0.004 C 
ENDBRANCH  10  11
ENDBRANCH   9  10
ENDBRANCH   8   9
ENDBRANCH   7   8
ENDBRANCH   6   7
ENDBRANCH   5   6
ENDBRANCH   4   5
ENDBRANCH   3   4
ENDBRANCH   2   3
ENDBRANCH   1   2
BRANCH   1  13
ATOM     13  C   UNL     1     -30.355 -20.632 -33.958  1.00  0.00     0.000 C 
BRANCH  13  14
ATOM     14  C   UNL     1     -29.105 -19.742 -34.037  1.00  0.00     0.000 C 
BRANCH  14  15
ATOM     15  C   UNL     1     -28.955 -18.897 -32.764  1.00  0.00     0.000 C 
BRANCH  15  16
ATOM     16  C   UNL     1     -27.590 -19.081 -32.076  1.00  0.00     0.000 C 
BRANCH  16  17
ATOM     17  C   UNL     1     -27.660 -19.466 -30.586  1.00  0.00     0.000 C 
BRANCH  17  18
ATOM     18  C   UNL     1     -28.856 -18.877 -29.814  1.00  0.00     0.000 C 
BRANCH  18  19
ATOM     19  C   UNL     1     -30.187 -18.925 -30.594  1.00  0.00     0.000 C 
BRANCH  19  20
ATOM     20  C   UNL     1     -31.397 -19.182 -29.679  1.00  0.00     0.006 C 
BRANCH  20  21
ATOM     21  C   UNL     1     -31.947 -20.606 -29.831  1.00  0.00     0.053 C 
BRANCH  21  22
ATOM     22  C   UNL     1     -30.848 -21.621 -29.913  1.00  0.00     0.041 C 
ATOM     23  O   UNL     1     -30.458 -22.044 -31.033  1.00  0.00    -0.550 OA
ATOM     24  O   UNL     1     -30.240 -22.085 -28.752  1.00  0.00    -0.550 OA
ENDBRANCH  21  22
ENDBRANCH  20  21
ENDBRANCH  19  20
ENDBRANCH  18  19
ENDBRANCH  17  18
ENDBRANCH  16  17
ENDBRANCH  15  16
ENDBRANCH  14  15
ENDBRANCH  13  14
ENDBRANCH   1  13
TORSDOF 20
ENDMDL
MODEL 5
REMARK VINA RESULT:    -0.618      2.041      3.090
REMARK INTER + INTRA:          -0.846
REMARK INTER:                   0.084
REMARK INTRA:                  -0.930
REMARK UNBOUND:                 0.495
REMARK SMILES CCCCCCCCCCCCCCCCCCCCCC(=O)[O-]
REMARK SMILES IDX 12 1 11 2 10 3 9 4 8 5 7 6 6 7 5 8 4 9 3 10 2 11 1 12 13 13
REMARK SMILES IDX 14 14 15 15 16 16 17 17 18 18 19 19 20 20 21 21 22 22 23 23
REMARK SMILES IDX 24 24
REMARK H PARENT
REMARK Flexibility Score: inf
ROOT
ATOM      1  C   UNL     1     -29.464 -20.257 -33.198  1.00  0.00     0.000 C 
ENDROOT
BRANCH   1   2
ATOM      2  C   UNL     1     -30.701 -21.106 -32.850  1.00  0.00     0.000 C 
BRANCH   2   3
ATOM      3  C   UNL     1     -32.015 -20.481 -33.348  1.00  0.00     0.000 C 
BRANCH   3   4
ATOM      4  C   UNL     1     -32.681 -21.309 -34.459  1.00  0.00    -0.000 C 
BRANCH   4   5
ATOM      5  C   UNL     1     -32.042 -21.074 -35.841  1.00  0.00    -0.000 C 
BRANCH   5   6
ATOM      6  C   UNL     1     -32.782 -21.838 -36.960  1.00  0.00    -0.000 C 
BRANCH   6   7
ATOM      7  C   UNL     1     -32.905 -23.349 -36.696  1.00  0.00    -0.000 C 
BRANCH   7   8
ATOM      8  C   UNL     1     -31.611 -24.115 -37.014  1.00  0.00    -0.000 C 
BRANCH   8   9
ATOM      9  C   UNL     1     -31.646 -24.790 -38.395  1.00  0.00    -0.000 C 
BRANCH   9  10
ATOM     10  C   UNL     1     -32.865 -25.712 -38.573  1.00  0.00    -0.000 C 
BRANCH  10  11
ATOM     11  C   UNL     1     -32.468 -27.191 -38.705  1.00  0.00    -0.003 C 
ATOM     12  C   UNL     1     -33.654 -28.140 -38.545  1.00  0.00     0.004 C 
ENDBRANCH  10  11
ENDBRANCH   9  10
ENDBRANCH   8   9
ENDBRANCH   7   8
ENDBRANCH   6   7
ENDBRANCH   5   6
ENDBRANCH   4   5
ENDBRANCH   3   4
ENDBRANCH   2   3
ENDBRANCH   1   2
BRANCH   1  13
ATOM     13  C   UNL     1     -29.334 -18.940 -32.414  1.00  0.00     0.000 C 
BRANCH  13  14
ATOM     14  C   UNL     1     -28.276 -19.005 -31.301  1.00  0.00     0.000 C 
BRANCH  14  15
ATOM     15  C   UNL     1     -28.933 -18.898 -29.917  1.00  0.00     0.000 C 
BRANCH  15  16
ATOM     16  C   UNL     1     -28.031 -19.413 -28.781  1.00  0.00     0.000 C 
BRANCH  16  17
ATOM     17  C   UNL     1     -28.018 -20.944 -28.605  1.00  0.00     0.000 C 
BRANCH  17  18
ATOM     18  C   UNL     1     -29.244 -21.528 -27.879  1.00  0.00     0.000 C 
BRANCH  18  19
ATOM     19  C   UNL     1     -30.337 -22.062 -28.830  1.00  0.00     0.000 C 
BRANCH  19  20
ATOM     20  C   UNL     1     -31.056 -20.935 -29.592  1.00  0.00     0.006 C 
BRANCH  20  21
ATOM     21  C   UNL     1     -32.111 -20.232 -28.729  1.00  0.00     0.053 C 
BRANCH  21  22
ATOM     22  C   UNL     1     -32.964 -19.304 -29.539  1.00  0.00     0.041 C 
ATOM     23  O   UNL     1     -34.063 -18.894 -29.083  1.00  0.00    -0.550 OA
ATOM     24  O   UNL     1     -32.533 -18.875 -30.789  1.00  0.00    -0.550 OA
ENDBRANCH  21  22
ENDBRANCH  20  21
ENDBRANCH  19  20
ENDBRANCH  18  19
ENDBRANCH  17  18
ENDBRANCH  16  17
ENDBRANCH  15  16
ENDBRANCH  14  15
ENDBRANCH  13  14
ENDBRANCH   1  13
TORSDOF 20
ENDMDL
MODEL 6
REMARK VINA RESULT:    -0.558      3.961      9.091
REMARK INTER + INTRA:          -0.714
REMARK INTER:                  -0.458
REMARK INTRA:                  -0.256
REMARK UNBOUND:                 0.495
REMARK SMILES CCCCCCCCCCCCCCCCCCCCCC(=O)[O-]
REMARK SMILES IDX 12 1 11 2 10 3 9 4 8 5 7 6 6 7 5 8 4 9 3 10 2 11 1 12 13 13
REMARK SMILES IDX 14 14 15 15 16 16 17 17 18 18 19 19 20 20 21 21 22 22 23 23
REMARK SMILES IDX 24 24
REMARK H PARENT
REMARK Flexibility Score: inf
ROOT
ATOM      1  C   UNL     1     -31.106 -21.536 -32.740  1.00  0.00     0.000 C 
ENDROOT
BRANCH   1   2
ATOM      2  C   UNL     1     -31.549 -20.104 -32.385  1.00  0.00     0.000 C 
BRANCH   2   3
ATOM      3  C   UNL     1     -30.550 -19.033 -32.854  1.00  0.00     0.000 C 
BRANCH   3   4
ATOM      4  C   UNL     1     -29.330 -19.634 -33.570  1.00  0.00    -0.000 C 
BRANCH   4   5
ATOM      5  C   UNL     1     -28.025 -18.875 -33.264  1.00  0.00    -0.000 C 
BRANCH   5   6
ATOM      6  C   UNL     1     -27.534 -19.123 -31.822  1.00  0.00    -0.000 C 
BRANCH   6   7
ATOM      7  C   UNL     1     -28.632 -18.946 -30.759  1.00  0.00    -0.000 C 
BRANCH   7   8
ATOM      8  C   UNL     1     -28.128 -19.220 -29.332  1.00  0.00    -0.000 C 
BRANCH   8   9
ATOM      9  C   UNL     1     -28.870 -20.384 -28.655  1.00  0.00    -0.000 C 
BRANCH   9  10
ATOM     10  C   UNL     1     -29.884 -21.065 -29.591  1.00  0.00    -0.000 C 
BRANCH  10  11
ATOM     11  C   UNL     1     -30.366 -22.419 -29.048  1.00  0.00    -0.003 C 
ATOM     12  C   UNL     1     -30.985 -23.305 -30.129  1.00  0.00     0.004 C 
ENDBRANCH  10  11
ENDBRANCH   9  10
ENDBRANCH   8   9
ENDBRANCH   7   8
ENDBRANCH   6   7
ENDBRANCH   5   6
ENDBRANCH   4   5
ENDBRANCH   3   4
ENDBRANCH   2   3
ENDBRANCH   1   2
BRANCH   1  13
ATOM     13  C   UNL     1     -31.159 -21.882 -34.239  1.00  0.00     0.000 C 
BRANCH  13  14
ATOM     14  C   UNL     1     -32.548 -22.353 -34.697  1.00  0.00     0.000 C 
BRANCH  14  15
ATOM     15  C   UNL     1     -33.286 -21.230 -35.441  1.00  0.00     0.000 C 
BRANCH  15  16
ATOM     16  C   UNL     1     -34.027 -21.727 -36.696  1.00  0.00     0.000 C 
BRANCH  16  17
ATOM     17  C   UNL     1     -33.639 -21.012 -38.005  1.00  0.00     0.000 C 
BRANCH  17  18
ATOM     18  C   UNL     1     -33.120 -21.935 -39.124  1.00  0.00     0.000 C 
BRANCH  18  19
ATOM     19  C   UNL     1     -32.225 -23.086 -38.619  1.00  0.00     0.000 C 
BRANCH  19  20
ATOM     20  C   UNL     1     -32.934 -24.451 -38.674  1.00  0.00     0.006 C 
BRANCH  20  21
ATOM     21  C   UNL     1     -32.010 -25.601 -38.253  1.00  0.00     0.053 C 
BRANCH  21  22
ATOM     22  C   UNL     1     -32.664 -26.937 -38.441  1.00  0.00     0.041 C 
ATOM     23  O   UNL     1     -33.909 -27.058 -38.300  1.00  0.00    -0.550 OA
ATOM     24  O   UNL     1     -31.899 -28.042 -38.793  1.00  0.00    -0.550 OA
ENDBRANCH  21  22
ENDBRANCH  20  21
ENDBRANCH  19  20
ENDBRANCH  18  19
ENDBRANCH  17  18
ENDBRANCH  16  17
ENDBRANCH  15  16
ENDBRANCH  14  15
ENDBRANCH  13  14
ENDBRANCH   1  13
TORSDOF 20
ENDMDL
MODEL 7
REMARK VINA RESULT:    -0.412      1.193      2.124
REMARK INTER + INTRA:          -0.398
REMARK INTER:                   0.884
REMARK INTRA:                  -1.283
REMARK UNBOUND:                 0.495
REMARK SMILES CCCCCCCCCCCCCCCCCCCCCC(=O)[O-]
REMARK SMILES IDX 12 1 11 2 10 3 9 4 8 5 7 6 6 7 5 8 4 9 3 10 2 11 1 12 13 13
REMARK SMILES IDX 14 14 15 15 16 16 17 17 18 18 19 19 20 20 21 21 22 22 23 23
REMARK SMILES IDX 24 24
REMARK H PARENT
REMARK Flexibility Score: inf
ROOT
ATOM      1  C   UNL     1     -30.634 -20.897 -33.766  1.00  0.00     0.000 C 
ENDROOT
BRANCH   1   2
ATOM      2  C   UNL     1     -32.008 -20.883 -34.461  1.00  0.00     0.000 C 
BRANCH   2   3
ATOM      3  C   UNL     1     -32.721 -19.525 -34.353  1.00  0.00     0.000 C 
BRANCH   3   4
ATOM      4  C   UNL     1     -34.125 -19.541 -34.979  1.00  0.00    -0.000 C 
BRANCH   4   5
ATOM      5  C   UNL     1     -34.117 -19.156 -36.471  1.00  0.00    -0.000 C 
BRANCH   5   6
ATOM      6  C   UNL     1     -33.188 -20.067 -37.300  1.00  0.00    -0.000 C 
BRANCH   6   7
ATOM      7  C   UNL     1     -33.944 -21.064 -38.197  1.00  0.00    -0.000 C 
BRANCH   7   8
ATOM      8  C   UNL     1     -33.030 -22.161 -38.768  1.00  0.00    -0.000 C 
BRANCH   8   9
ATOM      9  C   UNL     1     -31.622 -22.139 -38.152  1.00  0.00    -0.000 C 
BRANCH   9  10
ATOM     10  C   UNL     1     -31.284 -23.436 -37.397  1.00  0.00    -0.000 C 
BRANCH  10  11
ATOM     11  C   UNL     1     -32.526 -24.303 -37.136  1.00  0.00    -0.003 C 
ATOM     12  C   UNL     1     -32.527 -25.597 -37.948  1.00  0.00     0.004 C 
ENDBRANCH  10  11
ENDBRANCH   9  10
ENDBRANCH   8   9
ENDBRANCH   7   8
ENDBRANCH   6   7
ENDBRANCH   5   6
ENDBRANCH   4   5
ENDBRANCH   3   4
ENDBRANCH   2   3
ENDBRANCH   1   2
BRANCH   1  13
ATOM     13  C   UNL     1     -29.530 -20.101 -34.485  1.00  0.00     0.000 C 
BRANCH  13  14
ATOM     14  C   UNL     1     -28.522 -19.464 -33.516  1.00  0.00     0.000 C 
BRANCH  14  15
ATOM     15  C   UNL     1     -29.238 -18.875 -32.292  1.00  0.00     0.000 C 
BRANCH  15  16
ATOM     16  C   UNL     1     -28.441 -19.050 -30.987  1.00  0.00     0.000 C 
BRANCH  16  17
ATOM     17  C   UNL     1     -29.275 -18.943 -29.696  1.00  0.00     0.000 C 
BRANCH  17  18
ATOM     18  C   UNL     1     -30.799 -19.056 -29.892  1.00  0.00     0.000 C 
BRANCH  18  19
ATOM     19  C   UNL     1     -31.286 -20.490 -30.189  1.00  0.00     0.000 C 
BRANCH  19  20
ATOM     20  C   UNL     1     -30.180 -21.541 -29.988  1.00  0.00     0.006 C 
BRANCH  20  21
ATOM     21  C   UNL     1     -30.359 -22.329 -28.684  1.00  0.00     0.053 C 
BRANCH  21  22
ATOM     22  C   UNL     1     -29.252 -22.055 -27.712  1.00  0.00     0.041 C 
ATOM     23  O   UNL     1     -29.196 -22.682 -26.622  1.00  0.00    -0.550 OA
ATOM     24  O   UNL     1     -28.270 -21.121 -28.021  1.00  0.00    -0.550 OA
ENDBRANCH  21  22
ENDBRANCH  20  21
ENDBRANCH  19  20
ENDBRANCH  18  19
ENDBRANCH  17  18
ENDBRANCH  16  17
ENDBRANCH  15  16
ENDBRANCH  14  15
ENDBRANCH  13  14
ENDBRANCH   1  13
TORSDOF 20
ENDMDL
MODEL 8
REMARK VINA RESULT:    -0.234      3.328      8.510
REMARK INTER + INTRA:          -0.012
REMARK INTER:                   1.480
REMARK INTRA:                  -1.493
REMARK UNBOUND:                 0.495
REMARK SMILES CCCCCCCCCCCCCCCCCCCCCC(=O)[O-]
REMARK SMILES IDX 12 1 11 2 10 3 9 4 8 5 7 6 6 7 5 8 4 9 3 10 2 11 1 12 13 13
REMARK SMILES IDX 14 14 15 15 16 16 17 17 18 18 19 19 20 20 21 21 22 22 23 23
REMARK SMILES IDX 24 24
REMARK H PARENT
REMARK Flexibility Score: inf
ROOT
ATOM      1  C   UNL     1     -29.206 -20.682 -33.775  1.00  0.00     0.000 C 
ENDROOT
BRANCH   1   2
ATOM      2  C   UNL     1     -28.960 -19.179 -33.545  1.00  0.00     0.000 C 
BRANCH   2   3
ATOM      3  C   UNL     1     -27.565 -18.880 -32.973  1.00  0.00     0.000 C 
BRANCH   3   4
ATOM      4  C   UNL     1     -27.541 -18.879 -31.436  1.00  0.00    -0.000 C 
BRANCH   4   5
ATOM      5  C   UNL     1     -28.952 -18.916 -30.818  1.00  0.00    -0.000 C 
BRANCH   5   6
ATOM      6  C   UNL     1     -28.927 -19.366 -29.342  1.00  0.00    -0.000 C 
BRANCH   6   7
ATOM      7  C   UNL     1     -29.798 -20.604 -29.062  1.00  0.00    -0.000 C 
BRANCH   7   8
ATOM      8  C   UNL     1     -31.277 -20.385 -29.423  1.00  0.00    -0.000 C 
BRANCH   8   9
ATOM      9  C   UNL     1     -31.706 -21.176 -30.669  1.00  0.00    -0.000 C 
BRANCH   9  10
ATOM     10  C   UNL     1     -30.818 -22.407 -30.924  1.00  0.00    -0.000 C 
BRANCH  10  11
ATOM     11  C   UNL     1     -30.898 -23.435 -29.784  1.00  0.00    -0.003 C 
ATOM     12  C   UNL     1     -31.508 -24.764 -30.227  1.00  0.00     0.004 C 
ENDBRANCH  10  11
ENDBRANCH   9  10
ENDBRANCH   8   9
ENDBRANCH   7   8
ENDBRANCH   6   7
ENDBRANCH   5   6
ENDBRANCH   4   5
ENDBRANCH   3   4
ENDBRANCH   2   3
ENDBRANCH   1   2
BRANCH   1  13
ATOM     13  C   UNL     1     -30.472 -21.020 -34.582  1.00  0.00     0.000 C 
BRANCH  13  14
ATOM     14  C   UNL     1     -31.766 -20.584 -33.878  1.00  0.00     0.000 C 
BRANCH  14  15
ATOM     15  C   UNL     1     -32.998 -21.148 -34.601  1.00  0.00     0.000 C 
BRANCH  15  16
ATOM     16  C   UNL     1     -33.851 -20.058 -35.274  1.00  0.00     0.000 C 
BRANCH  16  17
ATOM     17  C   UNL     1     -34.113 -20.273 -36.777  1.00  0.00     0.000 C 
BRANCH  17  18
ATOM     18  C   UNL     1     -33.467 -21.535 -37.378  1.00  0.00     0.000 C 
BRANCH  18  19
ATOM     19  C   UNL     1     -32.376 -21.239 -38.429  1.00  0.00     0.000 C 
BRANCH  19  20
ATOM     20  C   UNL     1     -31.829 -22.518 -39.087  1.00  0.00     0.006 C 
BRANCH  20  21
ATOM     21  C   UNL     1     -32.725 -23.735 -38.824  1.00  0.00     0.053 C 
BRANCH  21  22
ATOM     22  C   UNL     1     -32.035 -24.760 -37.976  1.00  0.00     0.041 C 
ATOM     23  O   UNL     1     -31.800 -25.908 -38.437  1.00  0.00    -0.550 OA
ATOM     24  O   UNL     1     -31.635 -24.440 -36.685  1.00  0.00    -0.550 OA
ENDBRANCH  21  22
ENDBRANCH  20  21
ENDBRANCH  19  20
ENDBRANCH  18  19
ENDBRANCH  17  18
ENDBRANCH  16  17
ENDBRANCH  15  16
ENDBRANCH  14  15
ENDBRANCH  13  14
ENDBRANCH   1  13
TORSDOF 20
ENDMDL
MODEL 9
REMARK VINA RESULT:     0.166      2.304      3.763
REMARK INTER + INTRA:           0.855
REMARK INTER:                  -0.454
REMARK INTRA:                   1.309
REMARK UNBOUND:                 0.495
REMARK SMILES CCCCCCCCCCCCCCCCCCCCCC(=O)[O-]
REMARK SMILES IDX 12 1 11 2 10 3 9 4 8 5 7 6 6 7 5 8 4 9 3 10 2 11 1 12 13 13
REMARK SMILES IDX 14 14 15 15 16 16 17 17 18 18 19 19 20 20 21 21 22 22 23 23
REMARK SMILES IDX 24 24
REMARK H PARENT
REMARK Flexibility Score: inf
ROOT
ATOM      1  C   UNL     1     -31.614 -22.921 -31.400  1.00  0.00     0.000 C 
ENDROOT
BRANCH   1   2
ATOM      2  C   UNL     1     -31.747 -22.060 -32.670  1.00  0.00     0.000 C 
BRANCH   2   3
ATOM      3  C   UNL     1     -32.165 -22.875 -33.905  1.00  0.00     0.000 C 
BRANCH   3   4
ATOM      4  C   UNL     1     -31.523 -22.357 -35.202  1.00  0.00    -0.000 C 
BRANCH   4   5
ATOM      5  C   UNL     1     -32.457 -22.483 -36.421  1.00  0.00    -0.000 C 
BRANCH   5   6
ATOM      6  C   UNL     1     -32.189 -21.386 -37.473  1.00  0.00    -0.000 C 
BRANCH   6   7
ATOM      7  C   UNL     1     -32.175 -21.911 -38.920  1.00  0.00    -0.000 C 
BRANCH   7   8
ATOM      8  C   UNL     1     -32.900 -23.258 -39.071  1.00  0.00    -0.000 C 
BRANCH   8   9
ATOM      9  C   UNL     1     -31.935 -24.454 -39.067  1.00  0.00    -0.000 C 
BRANCH   9  10
ATOM     10  C   UNL     1     -32.296 -25.504 -38.001  1.00  0.00    -0.000 C 
BRANCH  10  11
ATOM     11  C   UNL     1     -32.212 -26.941 -38.540  1.00  0.00    -0.003 C 
ATOM     12  C   UNL     1     -33.578 -27.515 -38.912  1.00  0.00     0.004 C 
ENDBRANCH  10  11
ENDBRANCH   9  10
ENDBRANCH   8   9
ENDBRANCH   7   8
ENDBRANCH   6   7
ENDBRANCH   5   6
ENDBRANCH   4   5
ENDBRANCH   3   4
ENDBRANCH   2   3
ENDBRANCH   1   2
BRANCH   1  13
ATOM     13  C   UNL     1     -30.386 -22.609 -30.526  1.00  0.00     0.000 C 
BRANCH  13  14
ATOM     14  C   UNL     1     -30.648 -21.500 -29.496  1.00  0.00     0.000 C 
BRANCH  14  15
ATOM     15  C   UNL     1     -31.457 -20.355 -30.121  1.00  0.00     0.000 C 
BRANCH  15  16
ATOM     16  C   UNL     1     -30.762 -18.987 -29.993  1.00  0.00     0.000 C 
BRANCH  16  17
ATOM     17  C   UNL     1     -29.228 -19.023 -30.123  1.00  0.00     0.000 C 
BRANCH  17  18
ATOM     18  C   UNL     1     -28.693 -18.976 -31.567  1.00  0.00     0.000 C 
BRANCH  18  19
ATOM     19  C   UNL     1     -28.836 -20.310 -32.330  1.00  0.00     0.000 C 
BRANCH  19  20
ATOM     20  C   UNL     1     -29.908 -20.246 -33.432  1.00  0.00     0.006 C 
BRANCH  20  21
ATOM     21  C   UNL     1     -30.593 -18.875 -33.497  1.00  0.00     0.053 C 
BRANCH  21  22
ATOM     22  C   UNL     1     -32.078 -18.987 -33.328  1.00  0.00     0.041 C 
ATOM     23  O   UNL     1     -32.594 -18.902 -32.183  1.00  0.00    -0.550 OA
ATOM     24  O   UNL     1     -32.893 -19.164 -34.440  1.00  0.00    -0.550 OA
ENDBRANCH  21  22
ENDBRANCH  20  21
ENDBRANCH  19  20
ENDBRANCH  18  19
ENDBRANCH  17  18
ENDBRANCH  16  17
ENDBRANCH  15  16
ENDBRANCH  14  15
ENDBRANCH  13  14
ENDBRANCH   1  13
TORSDOF 20
ENDMDL
