MODEL 1
REMARK VINA RESULT:    -4.508      0.000      0.000
REMARK INTER + INTRA:          -8.797
REMARK INTER:                  -7.671
REMARK INTRA:                  -1.127
REMARK UNBOUND:                -1.127
REMARK SMILES CCCCCCCCCCCCCC(=O)[O-]
REMARK SMILES IDX 8 1 9 2 10 3 11 4 12 5 13 6 14 7 15 8 16 9 7 10 6 11 5 12
REMARK SMILES IDX 4 13 3 14 2 15 1 16
REMARK H PARENT
REMARK Flexibility Score: inf
ROOT
ATOM      1  C   UNL     1      10.896  79.501  -0.109  1.00  0.00     0.000 C 
ENDROOT
BRANCH   1   2
ATOM      2  C   UNL     1      10.751  78.760   1.232  1.00  0.00     0.000 C 
BRANCH   2   3
ATOM      3  C   UNL     1      10.313  79.638   2.423  1.00  0.00     0.000 C 
BRANCH   3   4
ATOM      4  C   UNL     1       9.312  78.980   3.388  1.00  0.00     0.000 C 
BRANCH   4   5
ATOM      5  C   UNL     1       7.881  79.521   3.225  1.00  0.00     0.006 C 
BRANCH   5   6
ATOM      6  C   UNL     1       7.024  78.628   2.318  1.00  0.00     0.053 C 
BRANCH   6   7
ATOM      7  C   UNL     1       6.514  79.373   1.122  1.00  0.00     0.041 C 
ATOM      8  O   UNL     1       5.277  79.438   0.896  1.00  0.00    -0.550 OA
ATOM      9  O   UNL     1       7.403  80.022   0.274  1.00  0.00    -0.550 OA
ENDBRANCH   6   7
ENDBRANCH   5   6
ENDBRANCH   4   5
ENDBRANCH   3   4
ENDBRANCH   2   3
ENDBRANCH   1   2
BRANCH   1  10
ATOM     10  C   UNL     1      12.290  80.124  -0.298  1.00  0.00     0.000 C 
BRANCH  10  11
ATOM     11  C   UNL     1      13.223  79.850   0.893  1.00  0.00    -0.000 C 
BRANCH  11  12
ATOM     12  C   UNL     1      14.709  79.886   0.497  1.00  0.00    -0.000 C 
BRANCH  12  13
ATOM     13  C   UNL     1      15.087  78.785  -0.511  1.00  0.00    -0.000 C 
BRANCH  13  14
ATOM     14  C   UNL     1      14.973  77.345   0.021  1.00  0.00    -0.000 C 
BRANCH  14  15
ATOM     15  C   UNL     1      13.831  76.553  -0.634  1.00  0.00    -0.003 C 
ATOM     16  C   UNL     1      13.468  77.136  -1.996  1.00  0.00     0.004 C 
ENDBRANCH  14  15
ENDBRANCH  13  14
ENDBRANCH  12  13
ENDBRANCH  11  12
ENDBRANCH  10  11
ENDBRANCH   1  10
TORSDOF 12
ENDMDL
MODEL 2
REMARK VINA RESULT:    -4.355      2.709      6.688
REMARK INTER + INTRA:          -8.537
REMARK INTER:                  -7.698
REMARK INTRA:                  -0.839
REMARK UNBOUND:                -1.127
REMARK SMILES CCCCCCCCCCCCCC(=O)[O-]
REMARK SMILES IDX 8 1 9 2 10 3 11 4 12 5 13 6 14 7 15 8 16 9 7 10 6 11 5 12
REMARK SMILES IDX 4 13 3 14 2 15 1 16
REMARK H PARENT
REMARK Flexibility Score: inf
ROOT
ATOM      1  C   UNL     1      11.192  79.322  -0.115  1.00  0.00     0.000 C 
ENDROOT
BRANCH   1   2
ATOM      2  C   UNL     1      12.507  80.120  -0.070  1.00  0.00     0.000 C 
BRANCH   2   3
ATOM      3  C   UNL     1      13.269  80.056   1.271  1.00  0.00     0.000 C 
BRANCH   3   4
ATOM      4  C   UNL     1      14.684  79.458   1.191  1.00  0.00     0.000 C 
BRANCH   4   5
ATOM      5  C   UNL     1      15.017  78.893  -0.201  1.00  0.00     0.006 C 
BRANCH   5   6
ATOM      6  C   UNL     1      14.997  77.360  -0.224  1.00  0.00     0.053 C 
BRANCH   6   7
ATOM      7  C   UNL     1      13.782  76.828  -0.922  1.00  0.00     0.041 C 
ATOM      8  O   UNL     1      13.661  76.955  -2.169  1.00  0.00    -0.550 OA
ATOM      9  O   UNL     1      12.798  76.165  -0.200  1.00  0.00    -0.550 OA
ENDBRANCH   6   7
ENDBRANCH   5   6
ENDBRANCH   4   5
ENDBRANCH   3   4
ENDBRANCH   2   3
ENDBRANCH   1   2
BRANCH   1  10
ATOM     10  C   UNL     1      10.870  78.627   1.219  1.00  0.00     0.000 C 
BRANCH  10  11
ATOM     11  C   UNL     1      10.185  79.569   2.223  1.00  0.00    -0.000 C 
BRANCH  11  12
ATOM     12  C   UNL     1       9.168  78.838   3.117  1.00  0.00    -0.000 C 
BRANCH  12  13
ATOM     13  C   UNL     1       7.815  79.569   3.206  1.00  0.00    -0.000 C 
BRANCH  13  14
ATOM     14  C   UNL     1       7.280  80.116   1.870  1.00  0.00    -0.000 C 
BRANCH  14  15
ATOM     15  C   UNL     1       6.275  79.171   1.195  1.00  0.00    -0.003 C 
ATOM     16  C   UNL     1       5.879  78.032   2.129  1.00  0.00     0.004 C 
ENDBRANCH  14  15
ENDBRANCH  13  14
ENDBRANCH  12  13
ENDBRANCH  11  12
ENDBRANCH  10  11
ENDBRANCH   1  10
TORSDOF 12
ENDMDL
MODEL 3
REMARK VINA RESULT:    -4.302      1.729      2.367
REMARK INTER + INTRA:          -8.446
REMARK INTER:                  -7.581
REMARK INTRA:                  -0.865
REMARK UNBOUND:                -1.127
REMARK SMILES CCCCCCCCCCCCCC(=O)[O-]
REMARK SMILES IDX 8 1 9 2 10 3 11 4 12 5 13 6 14 7 15 8 16 9 7 10 6 11 5 12
REMARK SMILES IDX 4 13 3 14 2 15 1 16
REMARK H PARENT
REMARK Flexibility Score: inf
ROOT
ATOM      1  C   UNL     1      10.694  79.215   0.115  1.00  0.00     0.000 C 
ENDROOT
BRANCH   1   2
ATOM      2  C   UNL     1       9.909  80.006  -0.947  1.00  0.00     0.000 C 
BRANCH   2   3
ATOM      3  C   UNL     1       8.392  80.123  -0.691  1.00  0.00     0.000 C 
BRANCH   3   4
ATOM      4  C   UNL     1       7.971  80.062   0.787  1.00  0.00     0.000 C 
BRANCH   4   5
ATOM      5  C   UNL     1       6.859  79.031   1.049  1.00  0.00     0.006 C 
BRANCH   5   6
ATOM      6  C   UNL     1       6.807  78.595   2.519  1.00  0.00     0.053 C 
BRANCH   6   7
ATOM      7  C   UNL     1       8.065  78.954   3.251  1.00  0.00     0.041 C 
ATOM      8  O   UNL     1       8.071  79.914   4.065  1.00  0.00    -0.550 OA
ATOM      9  O   UNL     1       9.221  78.209   3.057  1.00  0.00    -0.550 OA
ENDBRANCH   6   7
ENDBRANCH   5   6
ENDBRANCH   4   5
ENDBRANCH   3   4
ENDBRANCH   2   3
ENDBRANCH   1   2
BRANCH   1  10
ATOM     10  C   UNL     1      11.449  80.125   1.100  1.00  0.00     0.000 C 
BRANCH  10  11
ATOM     11  C   UNL     1      12.967  79.882   1.079  1.00  0.00    -0.000 C 
BRANCH  11  12
ATOM     12  C   UNL     1      13.580  80.113  -0.314  1.00  0.00    -0.000 C 
BRANCH  12  13
ATOM     13  C   UNL     1      14.902  79.349  -0.520  1.00  0.00    -0.000 C 
BRANCH  13  14
ATOM     14  C   UNL     1      14.889  78.318  -1.662  1.00  0.00    -0.000 C 
BRANCH  14  15
ATOM     15  C   UNL     1      13.602  77.481  -1.699  1.00  0.00    -0.003 C 
ATOM     16  C   UNL     1      13.575  76.464  -0.563  1.00  0.00     0.004 C 
ENDBRANCH  14  15
ENDBRANCH  13  14
ENDBRANCH  12  13
ENDBRANCH  11  12
ENDBRANCH  10  11
ENDBRANCH   1  10
TORSDOF 12
ENDMDL
MODEL 4
REMARK VINA RESULT:    -4.297      2.842      6.787
REMARK INTER + INTRA:          -8.439
REMARK INTER:                  -7.627
REMARK INTRA:                  -0.812
REMARK UNBOUND:                -1.127
REMARK SMILES CCCCCCCCCCCCCC(=O)[O-]
REMARK SMILES IDX 8 1 9 2 10 3 11 4 12 5 13 6 14 7 15 8 16 9 7 10 6 11 5 12
REMARK SMILES IDX 4 13 3 14 2 15 1 16
REMARK H PARENT
REMARK Flexibility Score: inf
ROOT
ATOM      1  C   UNL     1      10.287  79.943  -0.979  1.00  0.00     0.000 C 
ENDROOT
BRANCH   1   2
ATOM      2  C   UNL     1      10.818  79.445   0.377  1.00  0.00     0.000 C 
BRANCH   2   3
ATOM      3  C   UNL     1      12.326  79.664   0.612  1.00  0.00     0.000 C 
BRANCH   3   4
ATOM      4  C   UNL     1      13.159  79.907  -0.658  1.00  0.00     0.000 C 
BRANCH   4   5
ATOM      5  C   UNL     1      14.621  79.451  -0.511  1.00  0.00     0.006 C 
BRANCH   5   6
ATOM      6  C   UNL     1      14.730  77.972  -0.119  1.00  0.00     0.053 C 
BRANCH   6   7
ATOM      7  C   UNL     1      13.893  77.098  -1.004  1.00  0.00     0.041 C 
ATOM      8  O   UNL     1      13.030  76.330  -0.504  1.00  0.00    -0.550 OA
ATOM      9  O   UNL     1      14.047  77.154  -2.384  1.00  0.00    -0.550 OA
ENDBRANCH   6   7
ENDBRANCH   5   6
ENDBRANCH   4   5
ENDBRANCH   3   4
ENDBRANCH   2   3
ENDBRANCH   1   2
BRANCH   1  10
ATOM     10  C   UNL     1       8.750  80.006  -1.031  1.00  0.00     0.000 C 
BRANCH  10  11
ATOM     11  C   UNL     1       8.119  80.125   0.367  1.00  0.00    -0.000 C 
BRANCH  11  12
ATOM     12  C   UNL     1       6.727  79.474   0.442  1.00  0.00    -0.000 C 
BRANCH  12  13
ATOM     13  C   UNL     1       6.189  79.377   1.881  1.00  0.00    -0.000 C 
BRANCH  13  14
ATOM     14  C   UNL     1       6.920  78.368   2.785  1.00  0.00    -0.000 C 
BRANCH  14  15
ATOM     15  C   UNL     1       7.829  79.043   3.823  1.00  0.00    -0.003 C 
ATOM     16  C   UNL     1       9.301  78.791   3.511  1.00  0.00     0.004 C 
ENDBRANCH  14  15
ENDBRANCH  13  14
ENDBRANCH  12  13
ENDBRANCH  11  12
ENDBRANCH  10  11
ENDBRANCH   1  10
TORSDOF 12
ENDMDL
MODEL 5
REMARK VINA RESULT:    -4.122      3.197      6.995
REMARK INTER + INTRA:          -8.140
REMARK INTER:                  -7.460
REMARK INTRA:                  -0.680
REMARK UNBOUND:                -1.127
REMARK SMILES CCCCCCCCCCCCCC(=O)[O-]
REMARK SMILES IDX 8 1 9 2 10 3 11 4 12 5 13 6 14 7 15 8 16 9 7 10 6 11 5 12
REMARK SMILES IDX 4 13 3 14 2 15 1 16
REMARK H PARENT
REMARK Flexibility Score: inf
ROOT
ATOM      1  C   UNL     1       9.438  78.690   2.919  1.00  0.00     0.000 C 
ENDROOT
BRANCH   1   2
ATOM      2  C   UNL     1      10.359  79.922   2.860  1.00  0.00     0.000 C 
BRANCH   2   3
ATOM      3  C   UNL     1      11.405  79.907   1.726  1.00  0.00     0.000 C 
BRANCH   3   4
ATOM      4  C   UNL     1      11.066  78.995   0.535  1.00  0.00     0.000 C 
BRANCH   4   5
ATOM      5  C   UNL     1      12.004  79.209  -0.666  1.00  0.00     0.006 C 
BRANCH   5   6
ATOM      6  C   UNL     1      13.358  78.515  -0.474  1.00  0.00     0.053 C 
BRANCH   6   7
ATOM      7  C   UNL     1      13.372  77.142  -1.077  1.00  0.00     0.041 C 
ATOM      8  O   UNL     1      13.828  76.964  -2.237  1.00  0.00    -0.550 OA
ATOM      9  O   UNL     1      12.909  76.056  -0.345  1.00  0.00    -0.550 OA
ENDBRANCH   6   7
ENDBRANCH   5   6
ENDBRANCH   4   5
ENDBRANCH   3   4
ENDBRANCH   2   3
ENDBRANCH   1   2
BRANCH   1  10
ATOM     10  C   UNL     1       8.002  79.039   3.348  1.00  0.00     0.000 C 
BRANCH  10  11
ATOM     11  C   UNL     1       7.272  79.904   2.308  1.00  0.00    -0.000 C 
BRANCH  11  12
ATOM     12  C   UNL     1       5.974  79.249   1.804  1.00  0.00    -0.000 C 
BRANCH  12  13
ATOM     13  C   UNL     1       6.008  77.712   1.888  1.00  0.00    -0.000 C 
BRANCH  13  14
ATOM     14  C   UNL     1       5.561  76.978   0.611  1.00  0.00    -0.000 C 
BRANCH  14  15
ATOM     15  C   UNL     1       5.383  75.467   0.819  1.00  0.00    -0.003 C 
ATOM     16  C   UNL     1       5.000  74.773  -0.484  1.00  0.00     0.004 C 
ENDBRANCH  14  15
ENDBRANCH  13  14
ENDBRANCH  12  13
ENDBRANCH  11  12
ENDBRANCH  10  11
ENDBRANCH   1  10
TORSDOF 12
ENDMDL
MODEL 6
REMARK VINA RESULT:    -4.102      2.168      3.344
REMARK INTER + INTRA:          -8.107
REMARK INTER:                  -7.404
REMARK INTRA:                  -0.703
REMARK UNBOUND:                -1.127
REMARK SMILES CCCCCCCCCCCCCC(=O)[O-]
REMARK SMILES IDX 8 1 9 2 10 3 11 4 12 5 13 6 14 7 15 8 16 9 7 10 6 11 5 12
REMARK SMILES IDX 4 13 3 14 2 15 1 16
REMARK H PARENT
REMARK Flexibility Score: inf
ROOT
ATOM      1  C   UNL     1       9.286  78.599   3.175  1.00  0.00     0.000 C 
ENDROOT
BRANCH   1   2
ATOM      2  C   UNL     1       7.816  78.999   3.393  1.00  0.00     0.000 C 
BRANCH   2   3
ATOM      3  C   UNL     1       7.201  79.877   2.283  1.00  0.00     0.000 C 
BRANCH   3   4
ATOM      4  C   UNL     1       5.984  79.268   1.566  1.00  0.00     0.000 C 
BRANCH   4   5
ATOM      5  C   UNL     1       5.867  77.748   1.774  1.00  0.00     0.006 C 
BRANCH   5   6
ATOM      6  C   UNL     1       5.919  76.976   0.450  1.00  0.00     0.053 C 
BRANCH   6   7
ATOM      7  C   UNL     1       5.214  75.657   0.545  1.00  0.00     0.041 C 
ATOM      8  O   UNL     1       5.401  74.909   1.540  1.00  0.00    -0.550 OA
ATOM      9  O   UNL     1       4.327  75.268  -0.451  1.00  0.00    -0.550 OA
ENDBRANCH   6   7
ENDBRANCH   5   6
ENDBRANCH   4   5
ENDBRANCH   3   4
ENDBRANCH   2   3
ENDBRANCH   1   2
BRANCH   1  10
ATOM     10  C   UNL     1       9.962  79.407   2.052  1.00  0.00     0.000 C 
BRANCH  10  11
ATOM     11  C   UNL     1      11.236  80.125   2.530  1.00  0.00    -0.000 C 
BRANCH  11  12
ATOM     12  C   UNL     1      12.379  80.041   1.504  1.00  0.00    -0.000 C 
BRANCH  12  13
ATOM     13  C   UNL     1      12.040  79.138   0.303  1.00  0.00    -0.000 C 
BRANCH  13  14
ATOM     14  C   UNL     1      13.232  78.784  -0.604  1.00  0.00    -0.000 C 
BRANCH  14  15
ATOM     15  C   UNL     1      13.530  77.278  -0.641  1.00  0.00    -0.003 C 
ATOM     16  C   UNL     1      13.654  76.777  -2.077  1.00  0.00     0.004 C 
ENDBRANCH  14  15
ENDBRANCH  13  14
ENDBRANCH  12  13
ENDBRANCH  11  12
ENDBRANCH  10  11
ENDBRANCH   1  10
TORSDOF 12
ENDMDL
MODEL 7
REMARK VINA RESULT:    -3.662      3.722      7.235
REMARK INTER + INTRA:          -7.357
REMARK INTER:                  -6.825
REMARK INTRA:                  -0.532
REMARK UNBOUND:                -1.127
REMARK SMILES CCCCCCCCCCCCCC(=O)[O-]
REMARK SMILES IDX 8 1 9 2 10 3 11 4 12 5 13 6 14 7 15 8 16 9 7 10 6 11 5 12
REMARK SMILES IDX 4 13 3 14 2 15 1 16
REMARK H PARENT
REMARK Flexibility Score: inf
ROOT
ATOM      1  C   UNL     1       7.760  79.645   1.319  1.00  0.00     0.000 C 
ENDROOT
BRANCH   1   2
ATOM      2  C   UNL     1       8.599  79.978   2.566  1.00  0.00     0.000 C 
BRANCH   2   3
ATOM      3  C   UNL     1       9.975  79.284   2.636  1.00  0.00     0.000 C 
BRANCH   3   4
ATOM      4  C   UNL     1      10.989  79.731   1.569  1.00  0.00     0.000 C 
BRANCH   4   5
ATOM      5  C   UNL     1      11.471  78.570   0.680  1.00  0.00     0.006 C 
BRANCH   5   6
ATOM      6  C   UNL     1      12.218  79.066  -0.565  1.00  0.00     0.053 C 
BRANCH   6   7
ATOM      7  C   UNL     1      13.589  78.470  -0.666  1.00  0.00     0.041 C 
ATOM      8  O   UNL     1      14.471  78.760   0.184  1.00  0.00    -0.550 OA
ATOM      9  O   UNL     1      13.884  77.570  -1.683  1.00  0.00    -0.550 OA
ENDBRANCH   6   7
ENDBRANCH   5   6
ENDBRANCH   4   5
ENDBRANCH   3   4
ENDBRANCH   2   3
ENDBRANCH   1   2
BRANCH   1  10
ATOM     10  C   UNL     1       6.271  79.430   1.643  1.00  0.00     0.000 C 
BRANCH  10  11
ATOM     11  C   UNL     1       5.966  77.984   2.070  1.00  0.00    -0.000 C 
BRANCH  11  12
ATOM     12  C   UNL     1       5.711  77.056   0.869  1.00  0.00    -0.000 C 
BRANCH  12  13
ATOM     13  C   UNL     1       5.337  75.623   1.290  1.00  0.00    -0.000 C 
BRANCH  13  14
ATOM     14  C   UNL     1       5.345  74.586   0.152  1.00  0.00    -0.000 C 
BRANCH  14  15
ATOM     15  C   UNL     1       4.422  74.970  -1.014  1.00  0.00    -0.003 C 
ATOM     16  C   UNL     1       5.073  74.653  -2.357  1.00  0.00     0.004 C 
ENDBRANCH  14  15
ENDBRANCH  13  14
ENDBRANCH  12  13
ENDBRANCH  11  12
ENDBRANCH  10  11
ENDBRANCH   1  10
TORSDOF 12
ENDMDL
MODEL 8
REMARK VINA RESULT:    -3.412      2.939      6.815
REMARK INTER + INTRA:          -6.933
REMARK INTER:                  -6.145
REMARK INTRA:                  -0.788
REMARK UNBOUND:                -1.127
REMARK SMILES CCCCCCCCCCCCCC(=O)[O-]
REMARK SMILES IDX 8 1 9 2 10 3 11 4 12 5 13 6 14 7 15 8 16 9 7 10 6 11 5 12
REMARK SMILES IDX 4 13 3 14 2 15 1 16
REMARK H PARENT
REMARK Flexibility Score: inf
ROOT
ATOM      1  C   UNL     1      12.701  79.888   1.178  1.00  0.00     0.000 C 
ENDROOT
BRANCH   1   2
ATOM      2  C   UNL     1      14.154  80.019   0.684  1.00  0.00     0.000 C 
BRANCH   2   3
ATOM      3  C   UNL     1      14.320  80.125  -0.846  1.00  0.00     0.000 C 
BRANCH   3   4
ATOM      4  C   UNL     1      15.118  78.983  -1.499  1.00  0.00     0.000 C 
BRANCH   4   5
ATOM      5  C   UNL     1      15.022  77.663  -0.713  1.00  0.00     0.006 C 
BRANCH   5   6
ATOM      6  C   UNL     1      13.682  76.951  -0.939  1.00  0.00     0.053 C 
BRANCH   6   7
ATOM      7  C   UNL     1      13.518  75.771  -0.029  1.00  0.00     0.041 C 
ATOM      8  O   UNL     1      14.525  75.114   0.344  1.00  0.00    -0.550 OA
ATOM      9  O   UNL     1      12.256  75.416   0.429  1.00  0.00    -0.550 OA
ENDBRANCH   6   7
ENDBRANCH   5   6
ENDBRANCH   4   5
ENDBRANCH   3   4
ENDBRANCH   2   3
ENDBRANCH   1   2
BRANCH   1  10
ATOM     10  C   UNL     1      11.676  79.931   0.031  1.00  0.00     0.000 C 
BRANCH  10  11
ATOM     11  C   UNL     1      10.236  80.119   0.538  1.00  0.00    -0.000 C 
BRANCH  11  12
ATOM     12  C   UNL     1       9.206  80.124  -0.606  1.00  0.00    -0.000 C 
BRANCH  12  13
ATOM     13  C   UNL     1       7.761  79.932  -0.110  1.00  0.00    -0.000 C 
BRANCH  13  14
ATOM     14  C   UNL     1       7.573  80.046   1.414  1.00  0.00    -0.000 C 
BRANCH  14  15
ATOM     15  C   UNL     1       6.244  79.449   1.900  1.00  0.00    -0.003 C 
ATOM     16  C   UNL     1       6.115  77.986   1.488  1.00  0.00     0.004 C 
ENDBRANCH  14  15
ENDBRANCH  13  14
ENDBRANCH  12  13
ENDBRANCH  11  12
ENDBRANCH  10  11
ENDBRANCH   1  10
TORSDOF 12
ENDMDL
