MODEL 1
REMARK VINA RESULT:    -4.841      0.000      0.000
REMARK INTER + INTRA:         -13.308
REMARK INTER:                 -10.501
REMARK INTRA:                  -2.807
REMARK UNBOUND:                -2.807
REMARK SMILES CCCCCCCCCCCCCCCCCCCCCC(=O)[O-]
REMARK SMILES IDX 12 1 11 2 10 3 9 4 8 5 7 6 6 7 5 8 4 9 3 10 2 11 1 12 13 13
REMARK SMILES IDX 14 14 15 15 16 16 17 17 18 18 19 19 20 20 21 21 22 22 23 23
REMARK SMILES IDX 24 24
REMARK H PARENT
REMARK Flexibility Score: inf
ROOT
ATOM      1  C   UNL     1      -4.985   5.511  17.054  1.00  0.00     0.000 C 
ENDROOT
BRANCH   1   2
ATOM      2  C   UNL     1      -6.169   6.480  17.215  1.00  0.00     0.000 C 
BRANCH   2   3
ATOM      3  C   UNL     1      -6.229   7.544  16.105  1.00  0.00     0.000 C 
BRANCH   3   4
ATOM      4  C   UNL     1      -7.480   7.493  15.203  1.00  0.00    -0.000 C 
BRANCH   4   5
ATOM      5  C   UNL     1      -8.513   6.411  15.567  1.00  0.00    -0.000 C 
BRANCH   5   6
ATOM      6  C   UNL     1      -8.737   5.393  14.437  1.00  0.00    -0.000 C 
BRANCH   6   7
ATOM      7  C   UNL     1      -8.250   5.902  13.070  1.00  0.00    -0.000 C 
BRANCH   7   8
ATOM      8  C   UNL     1      -7.685   4.792  12.158  1.00  0.00    -0.000 C 
BRANCH   8   9
ATOM      9  C   UNL     1      -6.166   4.935  11.948  1.00  0.00    -0.000 C 
BRANCH   9  10
ATOM     10  C   UNL     1      -5.380   4.887  13.268  1.00  0.00    -0.000 C 
BRANCH  10  11
ATOM     11  C   UNL     1      -4.461   6.104  13.451  1.00  0.00    -0.003 C 
ATOM     12  C   UNL     1      -4.687   7.133  12.347  1.00  0.00     0.004 C 
ENDBRANCH  10  11
ENDBRANCH   9  10
ENDBRANCH   8   9
ENDBRANCH   7   8
ENDBRANCH   6   7
ENDBRANCH   5   6
ENDBRANCH   4   5
ENDBRANCH   3   4
ENDBRANCH   2   3
ENDBRANCH   1   2
BRANCH   1  13
ATOM     13  C   UNL     1      -5.433   4.060  16.807  1.00  0.00     0.000 C 
BRANCH  13  14
ATOM     14  C   UNL     1      -4.292   3.056  16.542  1.00  0.00     0.000 C 
BRANCH  14  15
ATOM     15  C   UNL     1      -3.019   3.664  15.929  1.00  0.00     0.000 C 
BRANCH  15  16
ATOM     16  C   UNL     1      -1.733   3.021  16.469  1.00  0.00     0.000 C 
BRANCH  16  17
ATOM     17  C   UNL     1      -0.942   4.011  17.339  1.00  0.00     0.000 C 
BRANCH  17  18
ATOM     18  C   UNL     1      -0.581   5.302  16.574  1.00  0.00     0.000 C 
BRANCH  18  19
ATOM     19  C   UNL     1       0.137   6.352  17.441  1.00  0.00     0.000 C 
BRANCH  19  20
ATOM     20  C   UNL     1      -0.237   6.257  18.929  1.00  0.00     0.006 C 
BRANCH  20  21
ATOM     21  C   UNL     1       0.372   7.397  19.756  1.00  0.00     0.053 C 
BRANCH  21  22
ATOM     22  C   UNL     1       0.559   7.010  21.192  1.00  0.00     0.041 C 
ATOM     23  O   UNL     1       1.714   6.986  21.696  1.00  0.00    -0.550 OA
ATOM     24  O   UNL     1      -0.542   6.671  21.971  1.00  0.00    -0.550 OA
ENDBRANCH  21  22
ENDBRANCH  20  21
ENDBRANCH  19  20
ENDBRANCH  18  19
ENDBRANCH  17  18
ENDBRANCH  16  17
ENDBRANCH  15  16
ENDBRANCH  14  15
ENDBRANCH  13  14
ENDBRANCH   1  13
TORSDOF 20
ENDMDL
MODEL 2
REMARK VINA RESULT:    -4.801      1.131      2.161
REMARK INTER + INTRA:         -13.221
REMARK INTER:                 -10.285
REMARK INTRA:                  -2.935
REMARK UNBOUND:                -2.807
REMARK SMILES CCCCCCCCCCCCCCCCCCCCCC(=O)[O-]
REMARK SMILES IDX 12 1 11 2 10 3 9 4 8 5 7 6 6 7 5 8 4 9 3 10 2 11 1 12 13 13
REMARK SMILES IDX 14 14 15 15 16 16 17 17 18 18 19 19 20 20 21 21 22 22 23 23
REMARK SMILES IDX 24 24
REMARK H PARENT
REMARK Flexibility Score: inf
ROOT
ATOM      1  C   UNL     1      -6.569   7.291  17.339  1.00  0.00     0.000 C 
ENDROOT
BRANCH   1   2
ATOM      2  C   UNL     1      -6.432   7.577  15.834  1.00  0.00     0.000 C 
BRANCH   2   3
ATOM      3  C   UNL     1      -7.675   7.160  15.027  1.00  0.00     0.000 C 
BRANCH   3   4
ATOM      4  C   UNL     1      -8.084   5.678  15.157  1.00  0.00    -0.000 C 
BRANCH   4   5
ATOM      5  C   UNL     1      -7.936   4.837  13.876  1.00  0.00    -0.000 C 
BRANCH   5   6
ATOM      6  C   UNL     1      -6.526   4.247  13.706  1.00  0.00    -0.000 C 
BRANCH   6   7
ATOM      7  C   UNL     1      -6.091   4.154  12.235  1.00  0.00    -0.000 C 
BRANCH   7   8
ATOM      8  C   UNL     1      -6.215   5.485  11.463  1.00  0.00    -0.000 C 
BRANCH   8   9
ATOM      9  C   UNL     1      -4.899   6.286  11.480  1.00  0.00    -0.000 C 
BRANCH   9  10
ATOM     10  C   UNL     1      -4.864   7.343  12.595  1.00  0.00    -0.000 C 
BRANCH  10  11
ATOM     11  C   UNL     1      -3.709   7.118  13.583  1.00  0.00    -0.003 C 
ATOM     12  C   UNL     1      -2.472   7.911  13.173  1.00  0.00     0.004 C 
ENDBRANCH  10  11
ENDBRANCH   9  10
ENDBRANCH   8   9
ENDBRANCH   7   8
ENDBRANCH   6   7
ENDBRANCH   5   6
ENDBRANCH   4   5
ENDBRANCH   3   4
ENDBRANCH   2   3
ENDBRANCH   1   2
BRANCH   1  13
ATOM     13  C   UNL     1      -5.828   6.015  17.773  1.00  0.00     0.000 C 
BRANCH  13  14
ATOM     14  C   UNL     1      -4.575   5.668  16.943  1.00  0.00     0.000 C 
BRANCH  14  15
ATOM     15  C   UNL     1      -4.412   4.176  16.603  1.00  0.00     0.000 C 
BRANCH  15  16
ATOM     16  C   UNL     1      -3.317   3.920  15.558  1.00  0.00     0.000 C 
BRANCH  16  17
ATOM     17  C   UNL     1      -2.183   3.062  16.143  1.00  0.00     0.000 C 
BRANCH  17  18
ATOM     18  C   UNL     1      -1.208   3.892  17.005  1.00  0.00     0.000 C 
BRANCH  18  19
ATOM     19  C   UNL     1      -0.852   5.259  16.394  1.00  0.00     0.000 C 
BRANCH  19  20
ATOM     20  C   UNL     1       0.105   6.078  17.275  1.00  0.00     0.006 C 
BRANCH  20  21
ATOM     21  C   UNL     1      -0.145   5.852  18.772  1.00  0.00     0.053 C 
BRANCH  21  22
ATOM     22  C   UNL     1       0.250   7.042  19.593  1.00  0.00     0.041 C 
ATOM     23  O   UNL     1       0.101   7.027  20.843  1.00  0.00    -0.550 OA
ATOM     24  O   UNL     1       0.777   8.171  18.973  1.00  0.00    -0.550 OA
ENDBRANCH  21  22
ENDBRANCH  20  21
ENDBRANCH  19  20
ENDBRANCH  18  19
ENDBRANCH  17  18
ENDBRANCH  16  17
ENDBRANCH  15  16
ENDBRANCH  14  15
ENDBRANCH  13  14
ENDBRANCH   1  13
TORSDOF 20
ENDMDL
MODEL 3
REMARK VINA RESULT:    -4.787      2.606      8.221
REMARK INTER + INTRA:         -13.191
REMARK INTER:                 -11.461
REMARK INTRA:                  -1.730
REMARK UNBOUND:                -2.807
REMARK SMILES CCCCCCCCCCCCCCCCCCCCCC(=O)[O-]
REMARK SMILES IDX 12 1 11 2 10 3 9 4 8 5 7 6 6 7 5 8 4 9 3 10 2 11 1 12 13 13
REMARK SMILES IDX 14 14 15 15 16 16 17 17 18 18 19 19 20 20 21 21 22 22 23 23
REMARK SMILES IDX 24 24
REMARK H PARENT
REMARK Flexibility Score: inf
ROOT
ATOM      1  C   UNL     1      -4.905   3.051  15.810  1.00  0.00     0.000 C 
ENDROOT
BRANCH   1   2
ATOM      2  C   UNL     1      -3.820   3.003  16.898  1.00  0.00     0.000 C 
BRANCH   2   3
ATOM      3  C   UNL     1      -2.428   2.651  16.343  1.00  0.00     0.000 C 
BRANCH   3   4
ATOM      4  C   UNL     1      -1.261   3.501  16.889  1.00  0.00    -0.000 C 
BRANCH   4   5
ATOM      5  C   UNL     1      -1.290   4.990  16.499  1.00  0.00    -0.000 C 
BRANCH   5   6
ATOM      6  C   UNL     1      -0.114   5.786  17.089  1.00  0.00    -0.000 C 
BRANCH   6   7
ATOM      7  C   UNL     1      -0.275   6.062  18.593  1.00  0.00    -0.000 C 
BRANCH   7   8
ATOM      8  C   UNL     1       0.555   7.261  19.099  1.00  0.00    -0.000 C 
BRANCH   8   9
ATOM      9  C   UNL     1       0.314   7.540  20.595  1.00  0.00    -0.000 C 
BRANCH   9  10
ATOM     10  C   UNL     1       1.353   6.857  21.498  1.00  0.00    -0.000 C 
BRANCH  10  11
ATOM     11  C   UNL     1       0.861   6.696  22.945  1.00  0.00    -0.003 C 
ATOM     12  C   UNL     1      -0.650   6.488  22.991  1.00  0.00     0.004 C 
ENDBRANCH  10  11
ENDBRANCH   9  10
ENDBRANCH   8   9
ENDBRANCH   7   8
ENDBRANCH   6   7
ENDBRANCH   5   6
ENDBRANCH   4   5
ENDBRANCH   3   4
ENDBRANCH   2   3
ENDBRANCH   1   2
BRANCH   1  13
ATOM     13  C   UNL     1      -4.460   3.826  14.557  1.00  0.00     0.000 C 
BRANCH  13  14
ATOM     14  C   UNL     1      -5.523   4.765  13.951  1.00  0.00     0.000 C 
BRANCH  14  15
ATOM     15  C   UNL     1      -6.509   4.092  12.981  1.00  0.00     0.000 C 
BRANCH  15  16
ATOM     16  C   UNL     1      -7.582   5.057  12.459  1.00  0.00     0.000 C 
BRANCH  16  17
ATOM     17  C   UNL     1      -8.749   5.179  13.452  1.00  0.00     0.000 C 
BRANCH  17  18
ATOM     18  C   UNL     1      -9.125   6.649  13.736  1.00  0.00     0.000 C 
BRANCH  18  19
ATOM     19  C   UNL     1      -8.160   7.358  14.702  1.00  0.00     0.000 C 
BRANCH  19  20
ATOM     20  C   UNL     1      -8.147   6.728  16.104  1.00  0.00     0.006 C 
BRANCH  20  21
ATOM     21  C   UNL     1      -6.743   6.710  16.721  1.00  0.00     0.053 C 
BRANCH  21  22
ATOM     22  C   UNL     1      -6.733   7.269  18.112  1.00  0.00     0.041 C 
ATOM     23  O   UNL     1      -6.943   6.516  19.099  1.00  0.00    -0.550 OA
ATOM     24  O   UNL     1      -6.497   8.625  18.315  1.00  0.00    -0.550 OA
ENDBRANCH  21  22
ENDBRANCH  20  21
ENDBRANCH  19  20
ENDBRANCH  18  19
ENDBRANCH  17  18
ENDBRANCH  16  17
ENDBRANCH  15  16
ENDBRANCH  14  15
ENDBRANCH  13  14
ENDBRANCH   1  13
TORSDOF 20
ENDMDL
MODEL 4
REMARK VINA RESULT:    -4.780      3.339      8.580
REMARK INTER + INTRA:         -13.176
REMARK INTER:                 -10.786
REMARK INTRA:                  -2.390
REMARK UNBOUND:                -2.807
REMARK SMILES CCCCCCCCCCCCCCCCCCCCCC(=O)[O-]
REMARK SMILES IDX 12 1 11 2 10 3 9 4 8 5 7 6 6 7 5 8 4 9 3 10 2 11 1 12 13 13
REMARK SMILES IDX 14 14 15 15 16 16 17 17 18 18 19 19 20 20 21 21 22 22 23 23
REMARK SMILES IDX 24 24
REMARK H PARENT
REMARK Flexibility Score: inf
ROOT
ATOM      1  C   UNL     1      -4.122   5.230  16.755  1.00  0.00     0.000 C 
ENDROOT
BRANCH   1   2
ATOM      2  C   UNL     1      -3.922   4.079  15.754  1.00  0.00     0.000 C 
BRANCH   2   3
ATOM      3  C   UNL     1      -2.982   2.981  16.283  1.00  0.00     0.000 C 
BRANCH   3   4
ATOM      4  C   UNL     1      -1.628   3.474  16.835  1.00  0.00    -0.000 C 
BRANCH   4   5
ATOM      5  C   UNL     1      -0.853   4.438  15.918  1.00  0.00    -0.000 C 
BRANCH   5   6
ATOM      6  C   UNL     1      -0.038   5.482  16.700  1.00  0.00    -0.000 C 
BRANCH   6   7
ATOM      7  C   UNL     1      -0.439   5.565  18.182  1.00  0.00    -0.000 C 
BRANCH   7   8
ATOM      8  C   UNL     1       0.232   6.728  18.944  1.00  0.00    -0.000 C 
BRANCH   8   9
ATOM      9  C   UNL     1      -0.107   6.705  20.446  1.00  0.00    -0.000 C 
BRANCH   9  10
ATOM     10  C   UNL     1       1.116   6.985  21.333  1.00  0.00    -0.000 C 
BRANCH  10  11
ATOM     11  C   UNL     1       0.875   6.614  22.804  1.00  0.00    -0.003 C 
ATOM     12  C   UNL     1      -0.617   6.527  23.111  1.00  0.00     0.004 C 
ENDBRANCH  10  11
ENDBRANCH   9  10
ENDBRANCH   8   9
ENDBRANCH   7   8
ENDBRANCH   6   7
ENDBRANCH   5   6
ENDBRANCH   4   5
ENDBRANCH   3   4
ENDBRANCH   2   3
ENDBRANCH   1   2
BRANCH   1  13
ATOM     13  C   UNL     1      -5.585   5.696  16.842  1.00  0.00     0.000 C 
BRANCH  13  14
ATOM     14  C   UNL     1      -5.857   7.115  16.301  1.00  0.00     0.000 C 
BRANCH  14  15
ATOM     15  C   UNL     1      -7.231   7.307  15.636  1.00  0.00     0.000 C 
BRANCH  15  16
ATOM     16  C   UNL     1      -7.998   5.988  15.466  1.00  0.00     0.000 C 
BRANCH  16  17
ATOM     17  C   UNL     1      -8.573   5.860  14.047  1.00  0.00     0.000 C 
BRANCH  17  18
ATOM     18  C   UNL     1      -8.219   4.507  13.392  1.00  0.00     0.000 C 
BRANCH  18  19
ATOM     19  C   UNL     1      -6.711   4.203  13.379  1.00  0.00     0.000 C 
BRANCH  19  20
ATOM     20  C   UNL     1      -5.961   4.942  12.259  1.00  0.00     0.006 C 
BRANCH  20  21
ATOM     21  C   UNL     1      -5.022   6.026  12.804  1.00  0.00     0.053 C 
BRANCH  21  22
ATOM     22  C   UNL     1      -5.498   7.405  12.459  1.00  0.00     0.041 C 
ATOM     23  O   UNL     1      -6.376   7.569  11.571  1.00  0.00    -0.550 OA
ATOM     24  O   UNL     1      -4.965   8.509  13.116  1.00  0.00    -0.550 OA
ENDBRANCH  21  22
ENDBRANCH  20  21
ENDBRANCH  19  20
ENDBRANCH  18  19
ENDBRANCH  17  18
ENDBRANCH  16  17
ENDBRANCH  15  16
ENDBRANCH  14  15
ENDBRANCH  13  14
ENDBRANCH   1  13
TORSDOF 20
ENDMDL
MODEL 5
REMARK VINA RESULT:    -4.742      3.785      9.013
REMARK INTER + INTRA:         -13.093
REMARK INTER:                 -11.196
REMARK INTRA:                  -1.897
REMARK UNBOUND:                -2.807
REMARK SMILES CCCCCCCCCCCCCCCCCCCCCC(=O)[O-]
REMARK SMILES IDX 12 1 11 2 10 3 9 4 8 5 7 6 6 7 5 8 4 9 3 10 2 11 1 12 13 13
REMARK SMILES IDX 14 14 15 15 16 16 17 17 18 18 19 19 20 20 21 21 22 22 23 23
REMARK SMILES IDX 24 24
REMARK H PARENT
REMARK Flexibility Score: inf
ROOT
ATOM      1  C   UNL     1      -2.627   3.053  16.557  1.00  0.00     0.000 C 
ENDROOT
BRANCH   1   2
ATOM      2  C   UNL     1      -1.227   3.690  16.573  1.00  0.00     0.000 C 
BRANCH   2   3
ATOM      3  C   UNL     1      -1.264   5.216  16.769  1.00  0.00     0.000 C 
BRANCH   3   4
ATOM      4  C   UNL     1      -0.092   5.810  17.579  1.00  0.00    -0.000 C 
BRANCH   4   5
ATOM      5  C   UNL     1       0.771   6.843  16.831  1.00  0.00    -0.000 C 
BRANCH   5   6
ATOM      6  C   UNL     1       0.993   8.133  17.638  1.00  0.00    -0.000 C 
BRANCH   6   7
ATOM      7  C   UNL     1       0.409   8.057  19.059  1.00  0.00    -0.000 C 
BRANCH   7   8
ATOM      8  C   UNL     1       1.448   8.307  20.173  1.00  0.00    -0.000 C 
BRANCH   8   9
ATOM      9  C   UNL     1       1.419   7.203  21.247  1.00  0.00    -0.000 C 
BRANCH   9  10
ATOM     10  C   UNL     1      -0.010   6.822  21.665  1.00  0.00    -0.000 C 
BRANCH  10  11
ATOM     11  C   UNL     1      -0.110   6.447  23.151  1.00  0.00    -0.003 C 
ATOM     12  C   UNL     1      -1.558   6.486  23.631  1.00  0.00     0.004 C 
ENDBRANCH  10  11
ENDBRANCH   9  10
ENDBRANCH   8   9
ENDBRANCH   7   8
ENDBRANCH   6   7
ENDBRANCH   5   6
ENDBRANCH   4   5
ENDBRANCH   3   4
ENDBRANCH   2   3
ENDBRANCH   1   2
BRANCH   1  13
ATOM     13  C   UNL     1      -3.599   3.774  15.607  1.00  0.00     0.000 C 
BRANCH  13  14
ATOM     14  C   UNL     1      -5.085   3.395  15.774  1.00  0.00     0.000 C 
BRANCH  14  15
ATOM     15  C   UNL     1      -6.002   4.544  16.227  1.00  0.00     0.000 C 
BRANCH  15  16
ATOM     16  C   UNL     1      -5.241   5.661  16.955  1.00  0.00     0.000 C 
BRANCH  16  17
ATOM     17  C   UNL     1      -5.742   7.047  16.520  1.00  0.00     0.000 C 
BRANCH  17  18
ATOM     18  C   UNL     1      -7.106   6.977  15.802  1.00  0.00     0.000 C 
BRANCH  18  19
ATOM     19  C   UNL     1      -7.179   7.842  14.530  1.00  0.00     0.000 C 
BRANCH  19  20
ATOM     20  C   UNL     1      -7.551   7.033  13.277  1.00  0.00     0.006 C 
BRANCH  20  21
ATOM     21  C   UNL     1      -6.494   5.975  12.932  1.00  0.00     0.053 C 
BRANCH  21  22
ATOM     22  C   UNL     1      -7.115   4.681  12.501  1.00  0.00     0.041 C 
ATOM     23  O   UNL     1      -7.925   4.084  13.258  1.00  0.00    -0.550 OA
ATOM     24  O   UNL     1      -6.794   4.133  11.264  1.00  0.00    -0.550 OA
ENDBRANCH  21  22
ENDBRANCH  20  21
ENDBRANCH  19  20
ENDBRANCH  18  19
ENDBRANCH  17  18
ENDBRANCH  16  17
ENDBRANCH  15  16
ENDBRANCH  14  15
ENDBRANCH  13  14
ENDBRANCH   1  13
TORSDOF 20
ENDMDL
MODEL 6
REMARK VINA RESULT:    -4.663      1.240      3.415
REMARK INTER + INTRA:         -12.922
REMARK INTER:                 -10.828
REMARK INTRA:                  -2.094
REMARK UNBOUND:                -2.807
REMARK SMILES CCCCCCCCCCCCCCCCCCCCCC(=O)[O-]
REMARK SMILES IDX 12 1 11 2 10 3 9 4 8 5 7 6 6 7 5 8 4 9 3 10 2 11 1 12 13 13
REMARK SMILES IDX 14 14 15 15 16 16 17 17 18 18 19 19 20 20 21 21 22 22 23 23
REMARK SMILES IDX 24 24
REMARK H PARENT
REMARK Flexibility Score: inf
ROOT
ATOM      1  C   UNL     1      -2.393   3.002  15.972  1.00  0.00     0.000 C 
ENDROOT
BRANCH   1   2
ATOM      2  C   UNL     1      -3.570   2.761  16.932  1.00  0.00     0.000 C 
BRANCH   2   3
ATOM      3  C   UNL     1      -4.939   3.029  16.282  1.00  0.00     0.000 C 
BRANCH   3   4
ATOM      4  C   UNL     1      -5.658   4.311  16.753  1.00  0.00    -0.000 C 
BRANCH   4   5
ATOM      5  C   UNL     1      -4.930   5.630  16.439  1.00  0.00    -0.000 C 
BRANCH   5   6
ATOM      6  C   UNL     1      -5.894   6.807  16.213  1.00  0.00    -0.000 C 
BRANCH   6   7
ATOM      7  C   UNL     1      -7.312   6.352  15.830  1.00  0.00    -0.000 C 
BRANCH   7   8
ATOM      8  C   UNL     1      -7.677   6.625  14.355  1.00  0.00    -0.000 C 
BRANCH   8   9
ATOM      9  C   UNL     1      -8.297   5.390  13.676  1.00  0.00    -0.000 C 
BRANCH   9  10
ATOM     10  C   UNL     1      -7.316   4.211  13.582  1.00  0.00    -0.000 C 
BRANCH  10  11
ATOM     11  C   UNL     1      -6.085   4.536  12.721  1.00  0.00    -0.003 C 
ATOM     12  C   UNL     1      -6.493   4.913  11.300  1.00  0.00     0.004 C 
ENDBRANCH  10  11
ENDBRANCH   9  10
ENDBRANCH   8   9
ENDBRANCH   7   8
ENDBRANCH   6   7
ENDBRANCH   5   6
ENDBRANCH   4   5
ENDBRANCH   3   4
ENDBRANCH   2   3
ENDBRANCH   1   2
BRANCH   1  13
ATOM     13  C   UNL     1      -1.200   3.695  16.653  1.00  0.00     0.000 C 
BRANCH  13  14
ATOM     14  C   UNL     1      -1.228   5.237  16.619  1.00  0.00     0.000 C 
BRANCH  14  15
ATOM     15  C   UNL     1      -0.223   5.927  17.558  1.00  0.00     0.000 C 
BRANCH  15  16
ATOM     16  C   UNL     1       0.905   6.641  16.801  1.00  0.00     0.000 C 
BRANCH  16  17
ATOM     17  C   UNL     1       1.036   8.104  17.252  1.00  0.00     0.000 C 
BRANCH  17  18
ATOM     18  C   UNL     1       0.589   8.307  18.715  1.00  0.00     0.000 C 
BRANCH  18  19
ATOM     19  C   UNL     1       1.742   8.665  19.669  1.00  0.00     0.000 C 
BRANCH  19  20
ATOM     20  C   UNL     1       1.744   7.816  20.951  1.00  0.00     0.006 C 
BRANCH  20  21
ATOM     21  C   UNL     1       0.424   7.060  21.150  1.00  0.00     0.053 C 
BRANCH  21  22
ATOM     22  C   UNL     1       0.248   6.603  22.566  1.00  0.00     0.041 C 
ATOM     23  O   UNL     1       1.246   6.491  23.325  1.00  0.00    -0.550 OA
ATOM     24  O   UNL     1      -1.022   6.294  23.045  1.00  0.00    -0.550 OA
ENDBRANCH  21  22
ENDBRANCH  20  21
ENDBRANCH  19  20
ENDBRANCH  18  19
ENDBRANCH  17  18
ENDBRANCH  16  17
ENDBRANCH  15  16
ENDBRANCH  14  15
ENDBRANCH  13  14
ENDBRANCH   1  13
TORSDOF 20
ENDMDL
MODEL 7
REMARK VINA RESULT:    -4.659      2.744      6.902
REMARK INTER + INTRA:         -12.913
REMARK INTER:                  -9.925
REMARK INTRA:                  -2.988
REMARK UNBOUND:                -2.807
REMARK SMILES CCCCCCCCCCCCCCCCCCCCCC(=O)[O-]
REMARK SMILES IDX 12 1 11 2 10 3 9 4 8 5 7 6 6 7 5 8 4 9 3 10 2 11 1 12 13 13
REMARK SMILES IDX 14 14 15 15 16 16 17 17 18 18 19 19 20 20 21 21 22 22 23 23
REMARK SMILES IDX 24 24
REMARK H PARENT
REMARK Flexibility Score: inf
ROOT
ATOM      1  C   UNL     1      -5.887   7.217  16.318  1.00  0.00     0.000 C 
ENDROOT
BRANCH   1   2
ATOM      2  C   UNL     1      -4.958   6.001  16.160  1.00  0.00     0.000 C 
BRANCH   2   3
ATOM      3  C   UNL     1      -5.431   4.775  16.962  1.00  0.00     0.000 C 
BRANCH   3   4
ATOM      4  C   UNL     1      -5.301   3.418  16.239  1.00  0.00    -0.000 C 
BRANCH   4   5
ATOM      5  C   UNL     1      -4.835   2.244  17.119  1.00  0.00    -0.000 C 
BRANCH   5   6
ATOM      6  C   UNL     1      -3.313   2.225  17.336  1.00  0.00    -0.000 C 
BRANCH   6   7
ATOM      7  C   UNL     1      -2.543   2.959  16.226  1.00  0.00    -0.000 C 
BRANCH   7   8
ATOM      8  C   UNL     1      -1.246   3.640  16.713  1.00  0.00    -0.000 C 
BRANCH   8   9
ATOM      9  C   UNL     1      -1.315   5.173  16.583  1.00  0.00    -0.000 C 
BRANCH   9  10
ATOM     10  C   UNL     1      -0.112   5.877  17.231  1.00  0.00    -0.000 C 
BRANCH  10  11
ATOM     11  C   UNL     1      -0.127   5.781  18.764  1.00  0.00    -0.003 C 
ATOM     12  C   UNL     1       0.255   7.114  19.401  1.00  0.00     0.004 C 
ENDBRANCH  10  11
ENDBRANCH   9  10
ENDBRANCH   8   9
ENDBRANCH   7   8
ENDBRANCH   6   7
ENDBRANCH   5   6
ENDBRANCH   4   5
ENDBRANCH   3   4
ENDBRANCH   2   3
ENDBRANCH   1   2
BRANCH   1  13
ATOM     13  C   UNL     1      -7.368   6.869  16.090  1.00  0.00     0.000 C 
BRANCH  13  14
ATOM     14  C   UNL     1      -7.972   7.397  14.773  1.00  0.00     0.000 C 
BRANCH  14  15
ATOM     15  C   UNL     1      -8.578   6.319  13.857  1.00  0.00     0.000 C 
BRANCH  15  16
ATOM     16  C   UNL     1      -8.030   4.915  14.147  1.00  0.00     0.000 C 
BRANCH  16  17
ATOM     17  C   UNL     1      -7.386   4.301  12.894  1.00  0.00     0.000 C 
BRANCH  17  18
ATOM     18  C   UNL     1      -5.859   4.519  12.854  1.00  0.00     0.000 C 
BRANCH  18  19
ATOM     19  C   UNL     1      -5.412   5.578  11.831  1.00  0.00     0.000 C 
BRANCH  19  20
ATOM     20  C   UNL     1      -5.044   6.921  12.482  1.00  0.00     0.006 C 
BRANCH  20  21
ATOM     21  C   UNL     1      -3.752   7.514  11.904  1.00  0.00     0.053 C 
BRANCH  21  22
ATOM     22  C   UNL     1      -2.808   7.957  12.979  1.00  0.00     0.041 C 
ATOM     23  O   UNL     1      -2.545   7.195  13.946  1.00  0.00    -0.550 OA
ATOM     24  O   UNL     1      -2.223   9.218  12.915  1.00  0.00    -0.550 OA
ENDBRANCH  21  22
ENDBRANCH  20  21
ENDBRANCH  19  20
ENDBRANCH  18  19
ENDBRANCH  17  18
ENDBRANCH  16  17
ENDBRANCH  15  16
ENDBRANCH  14  15
ENDBRANCH  13  14
ENDBRANCH   1  13
TORSDOF 20
ENDMDL
MODEL 8
REMARK VINA RESULT:    -4.658      1.123      2.414
REMARK INTER + INTRA:         -12.912
REMARK INTER:                 -10.095
REMARK INTRA:                  -2.817
REMARK UNBOUND:                -2.807
REMARK SMILES CCCCCCCCCCCCCCCCCCCCCC(=O)[O-]
REMARK SMILES IDX 12 1 11 2 10 3 9 4 8 5 7 6 6 7 5 8 4 9 3 10 2 11 1 12 13 13
REMARK SMILES IDX 14 14 15 15 16 16 17 17 18 18 19 19 20 20 21 21 22 22 23 23
REMARK SMILES IDX 24 24
REMARK H PARENT
REMARK Flexibility Score: inf
ROOT
ATOM      1  C   UNL     1      -5.379   5.527  17.453  1.00  0.00     0.000 C 
ENDROOT
BRANCH   1   2
ATOM      2  C   UNL     1      -6.206   6.821  17.365  1.00  0.00     0.000 C 
BRANCH   2   3
ATOM      3  C   UNL     1      -6.594   7.190  15.922  1.00  0.00     0.000 C 
BRANCH   3   4
ATOM      4  C   UNL     1      -5.991   8.506  15.388  1.00  0.00    -0.000 C 
BRANCH   4   5
ATOM      5  C   UNL     1      -5.181   8.380  14.085  1.00  0.00    -0.000 C 
BRANCH   5   6
ATOM      6  C   UNL     1      -4.654   6.956  13.843  1.00  0.00    -0.000 C 
BRANCH   6   7
ATOM      7  C   UNL     1      -4.863   6.479  12.396  1.00  0.00    -0.000 C 
BRANCH   7   8
ATOM      8  C   UNL     1      -6.036   7.177  11.675  1.00  0.00    -0.000 C 
BRANCH   8   9
ATOM      9  C   UNL     1      -7.259   6.252  11.533  1.00  0.00    -0.000 C 
BRANCH   9  10
ATOM     10  C   UNL     1      -8.345   6.541  12.581  1.00  0.00    -0.000 C 
BRANCH  10  11
ATOM     11  C   UNL     1      -8.628   5.331  13.485  1.00  0.00    -0.003 C 
ATOM     12  C   UNL     1      -7.604   4.223  13.255  1.00  0.00     0.004 C 
ENDBRANCH  10  11
ENDBRANCH   9  10
ENDBRANCH   8   9
ENDBRANCH   7   8
ENDBRANCH   6   7
ENDBRANCH   5   6
ENDBRANCH   4   5
ENDBRANCH   3   4
ENDBRANCH   2   3
ENDBRANCH   1   2
BRANCH   1  13
ATOM     13  C   UNL     1      -5.751   4.508  16.362  1.00  0.00     0.000 C 
BRANCH  13  14
ATOM     14  C   UNL     1      -5.271   3.064  16.620  1.00  0.00     0.000 C 
BRANCH  14  15
ATOM     15  C   UNL     1      -3.781   2.812  16.333  1.00  0.00     0.000 C 
BRANCH  15  16
ATOM     16  C   UNL     1      -3.216   3.749  15.256  1.00  0.00     0.000 C 
BRANCH  16  17
ATOM     17  C   UNL     1      -1.748   4.101  15.542  1.00  0.00     0.000 C 
BRANCH  17  18
ATOM     18  C   UNL     1      -1.604   5.110  16.702  1.00  0.00     0.000 C 
BRANCH  18  19
ATOM     19  C   UNL     1      -0.159   5.265  17.210  1.00  0.00     0.000 C 
BRANCH  19  20
ATOM     20  C   UNL     1       0.062   6.565  17.999  1.00  0.00     0.006 C 
BRANCH  20  21
ATOM     21  C   UNL     1      -0.098   6.362  19.511  1.00  0.00     0.053 C 
BRANCH  21  22
ATOM     22  C   UNL     1       0.665   7.384  20.299  1.00  0.00     0.041 C 
ATOM     23  O   UNL     1       0.710   8.580  19.908  1.00  0.00    -0.550 OA
ATOM     24  O   UNL     1       1.330   7.011  21.462  1.00  0.00    -0.550 OA
ENDBRANCH  21  22
ENDBRANCH  20  21
ENDBRANCH  19  20
ENDBRANCH  18  19
ENDBRANCH  17  18
ENDBRANCH  16  17
ENDBRANCH  15  16
ENDBRANCH  14  15
ENDBRANCH  13  14
ENDBRANCH   1  13
TORSDOF 20
ENDMDL
MODEL 9
REMARK VINA RESULT:    -4.621      3.350      7.716
REMARK INTER + INTRA:         -12.830
REMARK INTER:                  -9.887
REMARK INTRA:                  -2.943
REMARK UNBOUND:                -2.807
REMARK SMILES CCCCCCCCCCCCCCCCCCCCCC(=O)[O-]
REMARK SMILES IDX 12 1 11 2 10 3 9 4 8 5 7 6 6 7 5 8 4 9 3 10 2 11 1 12 13 13
REMARK SMILES IDX 14 14 15 15 16 16 17 17 18 18 19 19 20 20 21 21 22 22 23 23
REMARK SMILES IDX 24 24
REMARK H PARENT
REMARK Flexibility Score: inf
ROOT
ATOM      1  C   UNL     1      -6.102   6.560  17.139  1.00  0.00     0.000 C 
ENDROOT
BRANCH   1   2
ATOM      2  C   UNL     1      -4.917   5.617  16.868  1.00  0.00     0.000 C 
BRANCH   2   3
ATOM      3  C   UNL     1      -5.291   4.130  17.001  1.00  0.00     0.000 C 
BRANCH   3   4
ATOM      4  C   UNL     1      -4.488   3.161  16.108  1.00  0.00    -0.000 C 
BRANCH   4   5
ATOM      5  C   UNL     1      -3.119   2.730  16.665  1.00  0.00    -0.000 C 
BRANCH   5   6
ATOM      6  C   UNL     1      -1.942   3.434  15.969  1.00  0.00    -0.000 C 
BRANCH   6   7
ATOM      7  C   UNL     1      -1.042   4.203  16.951  1.00  0.00    -0.000 C 
BRANCH   7   8
ATOM      8  C   UNL     1      -0.695   5.634  16.487  1.00  0.00    -0.000 C 
BRANCH   8   9
ATOM      9  C   UNL     1       0.141   6.393  17.534  1.00  0.00    -0.000 C 
BRANCH   9  10
ATOM     10  C   UNL     1      -0.129   5.914  18.968  1.00  0.00    -0.000 C 
BRANCH  10  11
ATOM     11  C   UNL     1       0.223   6.976  20.021  1.00  0.00    -0.003 C 
ATOM     12  C   UNL     1       0.758   8.245  19.363  1.00  0.00     0.004 C 
ENDBRANCH  10  11
ENDBRANCH   9  10
ENDBRANCH   8   9
ENDBRANCH   7   8
ENDBRANCH   6   7
ENDBRANCH   5   6
ENDBRANCH   4   5
ENDBRANCH   3   4
ENDBRANCH   2   3
ENDBRANCH   1   2
BRANCH   1  13
ATOM     13  C   UNL     1      -6.292   7.612  16.033  1.00  0.00     0.000 C 
BRANCH  13  14
ATOM     14  C   UNL     1      -7.698   7.654  15.400  1.00  0.00     0.000 C 
BRANCH  14  15
ATOM     15  C   UNL     1      -8.526   6.368  15.566  1.00  0.00     0.000 C 
BRANCH  15  16
ATOM     16  C   UNL     1      -8.624   5.552  14.269  1.00  0.00     0.000 C 
BRANCH  16  17
ATOM     17  C   UNL     1      -7.491   4.518  14.178  1.00  0.00     0.000 C 
BRANCH  17  18
ATOM     18  C   UNL     1      -7.159   4.142  12.718  1.00  0.00     0.000 C 
BRANCH  18  19
ATOM     19  C   UNL     1      -5.714   4.480  12.307  1.00  0.00     0.000 C 
BRANCH  19  20
ATOM     20  C   UNL     1      -5.106   5.620  13.140  1.00  0.00     0.006 C 
BRANCH  20  21
ATOM     21  C   UNL     1      -4.723   6.830  12.278  1.00  0.00     0.053 C 
BRANCH  21  22
ATOM     22  C   UNL     1      -5.778   7.893  12.303  1.00  0.00     0.041 C 
ATOM     23  O   UNL     1      -6.954   7.628  11.937  1.00  0.00    -0.550 OA
ATOM     24  O   UNL     1      -5.459   9.180  12.725  1.00  0.00    -0.550 OA
ENDBRANCH  21  22
ENDBRANCH  20  21
ENDBRANCH  19  20
ENDBRANCH  18  19
ENDBRANCH  17  18
ENDBRANCH  16  17
ENDBRANCH  15  16
ENDBRANCH  14  15
ENDBRANCH  13  14
ENDBRANCH   1  13
TORSDOF 20
ENDMDL
