MODEL 1
REMARK VINA RESULT:    -5.530      0.000      0.000
REMARK INTER + INTRA:         -15.352
REMARK INTER:                 -11.995
REMARK INTRA:                  -3.357
REMARK UNBOUND:                -3.357
REMARK SMILES CCCCCCCCCCCCCCCCCCCCCC(=O)[O-]
REMARK SMILES IDX 12 1 11 2 10 3 9 4 8 5 7 6 6 7 5 8 4 9 3 10 2 11 1 12 13 13
REMARK SMILES IDX 14 14 15 15 16 16 17 17 18 18 19 19 20 20 21 21 22 22 23 23
REMARK SMILES IDX 24 24
REMARK H PARENT
REMARK Flexibility Score: inf
ROOT
ATOM      1  C   UNL     1     -18.230  56.594  -3.839  1.00  0.00     0.000 C 
ENDROOT
BRANCH   1   2
ATOM      2  C   UNL     1     -17.131  56.301  -2.797  1.00  0.00     0.000 C 
BRANCH   2   3
ATOM      3  C   UNL     1     -16.774  54.806  -2.722  1.00  0.00     0.000 C 
BRANCH   3   4
ATOM      4  C   UNL     1     -16.590  54.307  -1.277  1.00  0.00    -0.000 C 
BRANCH   4   5
ATOM      5  C   UNL     1     -17.917  53.999  -0.553  1.00  0.00    -0.000 C 
BRANCH   5   6
ATOM      6  C   UNL     1     -18.122  54.889   0.687  1.00  0.00    -0.000 C 
BRANCH   6   7
ATOM      7  C   UNL     1     -18.987  56.129   0.396  1.00  0.00    -0.000 C 
BRANCH   7   8
ATOM      8  C   UNL     1     -18.264  57.476   0.588  1.00  0.00    -0.000 C 
BRANCH   8   9
ATOM      9  C   UNL     1     -16.884  57.322   1.247  1.00  0.00    -0.000 C 
BRANCH   9  10
ATOM     10  C   UNL     1     -15.766  57.732   0.280  1.00  0.00    -0.000 C 
BRANCH  10  11
ATOM     11  C   UNL     1     -15.336  59.186   0.522  1.00  0.00    -0.003 C 
ATOM     12  C   UNL     1     -13.995  59.250   1.249  1.00  0.00     0.004 C 
ENDBRANCH  10  11
ENDBRANCH   9  10
ENDBRANCH   8   9
ENDBRANCH   7   8
ENDBRANCH   6   7
ENDBRANCH   5   6
ENDBRANCH   4   5
ENDBRANCH   3   4
ENDBRANCH   2   3
ENDBRANCH   1   2
BRANCH   1  13
ATOM     13  C   UNL     1     -19.652  56.618  -3.251  1.00  0.00     0.000 C 
BRANCH  13  14
ATOM     14  C   UNL     1     -20.232  55.211  -3.039  1.00  0.00     0.000 C 
BRANCH  14  15
ATOM     15  C   UNL     1     -21.502  55.206  -2.168  1.00  0.00     0.000 C 
BRANCH  15  16
ATOM     16  C   UNL     1     -21.821  53.871  -1.462  1.00  0.00     0.000 C 
BRANCH  16  17
ATOM     17  C   UNL     1     -22.131  53.975   0.043  1.00  0.00     0.000 C 
BRANCH  17  18
ATOM     18  C   UNL     1     -23.425  54.753   0.334  1.00  0.00     0.000 C 
BRANCH  18  19
ATOM     19  C   UNL     1     -23.238  55.845   1.401  1.00  0.00     0.000 C 
BRANCH  19  20
ATOM     20  C   UNL     1     -22.580  57.148   0.903  1.00  0.00     0.006 C 
BRANCH  20  21
ATOM     21  C   UNL     1     -21.808  57.917   1.992  1.00  0.00     0.053 C 
BRANCH  21  22
ATOM     22  C   UNL     1     -22.650  58.952   2.676  1.00  0.00     0.041 C 
ATOM     23  O   UNL     1     -23.211  59.859   2.008  1.00  0.00    -0.550 OA
ATOM     24  O   UNL     1     -22.857  58.886   4.050  1.00  0.00    -0.550 OA
ENDBRANCH  21  22
ENDBRANCH  20  21
ENDBRANCH  19  20
ENDBRANCH  18  19
ENDBRANCH  17  18
ENDBRANCH  16  17
ENDBRANCH  15  16
ENDBRANCH  14  15
ENDBRANCH  13  14
ENDBRANCH   1  13
TORSDOF 20
ENDMDL
MODEL 2
REMARK VINA RESULT:    -5.378      1.388      1.557
REMARK INTER + INTRA:         -15.022
REMARK INTER:                 -11.762
REMARK INTRA:                  -3.260
REMARK UNBOUND:                -3.357
REMARK SMILES CCCCCCCCCCCCCCCCCCCCCC(=O)[O-]
REMARK SMILES IDX 12 1 11 2 10 3 9 4 8 5 7 6 6 7 5 8 4 9 3 10 2 11 1 12 13 13
REMARK SMILES IDX 14 14 15 15 16 16 17 17 18 18 19 19 20 20 21 21 22 22 23 23
REMARK SMILES IDX 24 24
REMARK H PARENT
REMARK Flexibility Score: inf
ROOT
ATOM      1  C   UNL     1     -18.365  56.258  -3.897  1.00  0.00     0.000 C 
ENDROOT
BRANCH   1   2
ATOM      2  C   UNL     1     -17.206  56.209  -2.880  1.00  0.00     0.000 C 
BRANCH   2   3
ATOM      3  C   UNL     1     -16.632  54.791  -2.711  1.00  0.00     0.000 C 
BRANCH   3   4
ATOM      4  C   UNL     1     -16.513  54.366  -1.236  1.00  0.00    -0.000 C 
BRANCH   4   5
ATOM      5  C   UNL     1     -17.862  53.998  -0.584  1.00  0.00    -0.000 C 
BRANCH   5   6
ATOM      6  C   UNL     1     -18.124  54.803   0.702  1.00  0.00    -0.000 C 
BRANCH   6   7
ATOM      7  C   UNL     1     -19.003  56.044   0.461  1.00  0.00    -0.000 C 
BRANCH   7   8
ATOM      8  C   UNL     1     -18.248  57.387   0.518  1.00  0.00    -0.000 C 
BRANCH   8   9
ATOM      9  C   UNL     1     -16.830  57.248   1.093  1.00  0.00    -0.000 C 
BRANCH   9  10
ATOM     10  C   UNL     1     -15.783  57.778   0.104  1.00  0.00    -0.000 C 
BRANCH  10  11
ATOM     11  C   UNL     1     -15.303  59.178   0.512  1.00  0.00    -0.003 C 
ATOM     12  C   UNL     1     -13.969  59.109   1.251  1.00  0.00     0.004 C 
ENDBRANCH  10  11
ENDBRANCH   9  10
ENDBRANCH   8   9
ENDBRANCH   7   8
ENDBRANCH   6   7
ENDBRANCH   5   6
ENDBRANCH   4   5
ENDBRANCH   3   4
ENDBRANCH   2   3
ENDBRANCH   1   2
BRANCH   1  13
ATOM     13  C   UNL     1     -19.759  56.334  -3.248  1.00  0.00     0.000 C 
BRANCH  13  14
ATOM     14  C   UNL     1     -20.343  54.949  -2.929  1.00  0.00     0.000 C 
BRANCH  14  15
ATOM     15  C   UNL     1     -21.538  55.006  -1.959  1.00  0.00     0.000 C 
BRANCH  15  16
ATOM     16  C   UNL     1     -21.988  53.649  -1.376  1.00  0.00     0.000 C 
BRANCH  16  17
ATOM     17  C   UNL     1     -22.256  53.636   0.140  1.00  0.00     0.000 C 
BRANCH  17  18
ATOM     18  C   UNL     1     -23.533  54.399   0.528  1.00  0.00     0.000 C 
BRANCH  18  19
ATOM     19  C   UNL     1     -23.295  55.440   1.635  1.00  0.00     0.000 C 
BRANCH  19  20
ATOM     20  C   UNL     1     -22.614  56.745   1.179  1.00  0.00     0.006 C 
BRANCH  20  21
ATOM     21  C   UNL     1     -23.561  57.958   1.113  1.00  0.00     0.053 C 
BRANCH  21  22
ATOM     22  C   UNL     1     -24.136  58.170  -0.254  1.00  0.00     0.041 C 
ATOM     23  O   UNL     1     -23.521  57.761  -1.274  1.00  0.00    -0.550 OA
ATOM     24  O   UNL     1     -25.379  58.777  -0.402  1.00  0.00    -0.550 OA
ENDBRANCH  21  22
ENDBRANCH  20  21
ENDBRANCH  19  20
ENDBRANCH  18  19
ENDBRANCH  17  18
ENDBRANCH  16  17
ENDBRANCH  15  16
ENDBRANCH  14  15
ENDBRANCH  13  14
ENDBRANCH   1  13
TORSDOF 20
ENDMDL
MODEL 3
REMARK VINA RESULT:    -5.166      2.069      2.854
REMARK INTER + INTRA:         -14.562
REMARK INTER:                 -11.544
REMARK INTRA:                  -3.018
REMARK UNBOUND:                -3.357
REMARK SMILES CCCCCCCCCCCCCCCCCCCCCC(=O)[O-]
REMARK SMILES IDX 12 1 11 2 10 3 9 4 8 5 7 6 6 7 5 8 4 9 3 10 2 11 1 12 13 13
REMARK SMILES IDX 14 14 15 15 16 16 17 17 18 18 19 19 20 20 21 21 22 22 23 23
REMARK SMILES IDX 24 24
REMARK H PARENT
REMARK Flexibility Score: inf
ROOT
ATOM      1  C   UNL     1     -20.734  56.574  -3.590  1.00  0.00     0.000 C 
ENDROOT
BRANCH   1   2
ATOM      2  C   UNL     1     -19.462  56.529  -2.718  1.00  0.00     0.000 C 
BRANCH   2   3
ATOM      3  C   UNL     1     -18.185  56.824  -3.526  1.00  0.00     0.000 C 
BRANCH   3   4
ATOM      4  C   UNL     1     -17.259  55.600  -3.646  1.00  0.00    -0.000 C 
BRANCH   4   5
ATOM      5  C   UNL     1     -17.694  54.404  -2.773  1.00  0.00    -0.000 C 
BRANCH   5   6
ATOM      6  C   UNL     1     -16.917  54.342  -1.444  1.00  0.00    -0.000 C 
BRANCH   6   7
ATOM      7  C   UNL     1     -17.827  54.506  -0.213  1.00  0.00    -0.000 C 
BRANCH   7   8
ATOM      8  C   UNL     1     -17.452  55.681   0.711  1.00  0.00    -0.000 C 
BRANCH   8   9
ATOM      9  C   UNL     1     -16.480  56.672   0.050  1.00  0.00    -0.000 C 
BRANCH   9  10
ATOM     10  C   UNL     1     -16.358  57.956   0.879  1.00  0.00    -0.000 C 
BRANCH  10  11
ATOM     11  C   UNL     1     -15.332  58.915   0.258  1.00  0.00    -0.003 C 
ATOM     12  C   UNL     1     -14.139  59.122   1.187  1.00  0.00     0.004 C 
ENDBRANCH  10  11
ENDBRANCH   9  10
ENDBRANCH   8   9
ENDBRANCH   7   8
ENDBRANCH   6   7
ENDBRANCH   5   6
ENDBRANCH   4   5
ENDBRANCH   3   4
ENDBRANCH   2   3
ENDBRANCH   1   2
BRANCH   1  13
ATOM     13  C   UNL     1     -21.824  55.580  -3.150  1.00  0.00     0.000 C 
BRANCH  13  14
ATOM     14  C   UNL     1     -21.255  54.376  -2.382  1.00  0.00     0.000 C 
BRANCH  14  15
ATOM     15  C   UNL     1     -22.196  53.866  -1.275  1.00  0.00     0.000 C 
BRANCH  15  16
ATOM     16  C   UNL     1     -22.487  54.866  -0.135  1.00  0.00     0.000 C 
BRANCH  16  17
ATOM     17  C   UNL     1     -21.279  55.691   0.346  1.00  0.00     0.000 C 
BRANCH  17  18
ATOM     18  C   UNL     1     -21.685  57.038   0.966  1.00  0.00     0.000 C 
BRANCH  18  19
ATOM     19  C   UNL     1     -23.202  57.159   1.190  1.00  0.00     0.000 C 
BRANCH  19  20
ATOM     20  C   UNL     1     -23.898  58.287   0.401  1.00  0.00     0.006 C 
BRANCH  20  21
ATOM     21  C   UNL     1     -23.573  58.292  -1.105  1.00  0.00     0.053 C 
BRANCH  21  22
ATOM     22  C   UNL     1     -24.724  57.833  -1.947  1.00  0.00     0.041 C 
ATOM     23  O   UNL     1     -25.392  58.661  -2.619  1.00  0.00    -0.550 OA
ATOM     24  O   UNL     1     -25.030  56.478  -2.031  1.00  0.00    -0.550 OA
ENDBRANCH  21  22
ENDBRANCH  20  21
ENDBRANCH  19  20
ENDBRANCH  18  19
ENDBRANCH  17  18
ENDBRANCH  16  17
ENDBRANCH  15  16
ENDBRANCH  14  15
ENDBRANCH  13  14
ENDBRANCH   1  13
TORSDOF 20
ENDMDL
MODEL 4
REMARK VINA RESULT:    -5.141      2.568      5.195
REMARK INTER + INTRA:         -14.510
REMARK INTER:                 -11.250
REMARK INTRA:                  -3.259
REMARK UNBOUND:                -3.357
REMARK SMILES CCCCCCCCCCCCCCCCCCCCCC(=O)[O-]
REMARK SMILES IDX 12 1 11 2 10 3 9 4 8 5 7 6 6 7 5 8 4 9 3 10 2 11 1 12 13 13
REMARK SMILES IDX 14 14 15 15 16 16 17 17 18 18 19 19 20 20 21 21 22 22 23 23
REMARK SMILES IDX 24 24
REMARK H PARENT
REMARK Flexibility Score: inf
ROOT
ATOM      1  C   UNL     1     -16.707  55.235  -0.510  1.00  0.00     0.000 C 
ENDROOT
BRANCH   1   2
ATOM      2  C   UNL     1     -17.239  54.766  -1.880  1.00  0.00     0.000 C 
BRANCH   2   3
ATOM      3  C   UNL     1     -16.945  55.777  -3.003  1.00  0.00     0.000 C 
BRANCH   3   4
ATOM      4  C   UNL     1     -18.222  56.407  -3.589  1.00  0.00    -0.000 C 
BRANCH   4   5
ATOM      5  C   UNL     1     -19.520  55.690  -3.163  1.00  0.00    -0.000 C 
BRANCH   5   6
ATOM      6  C   UNL     1     -20.776  56.517  -3.495  1.00  0.00    -0.000 C 
BRANCH   6   7
ATOM      7  C   UNL     1     -22.074  55.857  -2.995  1.00  0.00    -0.000 C 
BRANCH   7   8
ATOM      8  C   UNL     1     -22.030  55.381  -1.529  1.00  0.00    -0.000 C 
BRANCH   8   9
ATOM      9  C   UNL     1     -22.326  53.879  -1.383  1.00  0.00    -0.000 C 
BRANCH   9  10
ATOM     10  C   UNL     1     -21.758  53.334  -0.067  1.00  0.00    -0.000 C 
BRANCH  10  11
ATOM     11  C   UNL     1     -20.260  53.027  -0.201  1.00  0.00    -0.003 C 
ATOM     12  C   UNL     1     -19.971  52.236  -1.475  1.00  0.00     0.004 C 
ENDBRANCH  10  11
ENDBRANCH   9  10
ENDBRANCH   8   9
ENDBRANCH   7   8
ENDBRANCH   6   7
ENDBRANCH   5   6
ENDBRANCH   4   5
ENDBRANCH   3   4
ENDBRANCH   2   3
ENDBRANCH   1   2
BRANCH   1  13
ATOM     13  C   UNL     1     -17.811  55.489   0.531  1.00  0.00     0.000 C 
BRANCH  13  14
ATOM     14  C   UNL     1     -18.520  56.838   0.330  1.00  0.00     0.000 C 
BRANCH  14  15
ATOM     15  C   UNL     1     -20.040  56.764   0.563  1.00  0.00     0.000 C 
BRANCH  15  16
ATOM     16  C   UNL     1     -20.605  57.755   1.602  1.00  0.00     0.000 C 
BRANCH  16  17
ATOM     17  C   UNL     1     -22.111  57.623   1.893  1.00  0.00     0.000 C 
BRANCH  17  18
ATOM     18  C   UNL     1     -22.988  58.021   0.695  1.00  0.00     0.000 C 
BRANCH  18  19
ATOM     19  C   UNL     1     -24.454  57.581   0.855  1.00  0.00     0.000 C 
BRANCH  19  20
ATOM     20  C   UNL     1     -24.729  56.089   0.579  1.00  0.00     0.006 C 
BRANCH  20  21
ATOM     21  C   UNL     1     -26.001  55.828  -0.249  1.00  0.00     0.053 C 
BRANCH  21  22
ATOM     22  C   UNL     1     -25.799  56.074  -1.714  1.00  0.00     0.041 C 
ATOM     23  O   UNL     1     -25.995  57.219  -2.199  1.00  0.00    -0.550 OA
ATOM     24  O   UNL     1     -25.345  55.049  -2.537  1.00  0.00    -0.550 OA
ENDBRANCH  21  22
ENDBRANCH  20  21
ENDBRANCH  19  20
ENDBRANCH  18  19
ENDBRANCH  17  18
ENDBRANCH  16  17
ENDBRANCH  15  16
ENDBRANCH  14  15
ENDBRANCH  13  14
ENDBRANCH   1  13
TORSDOF 20
ENDMDL
MODEL 5
REMARK VINA RESULT:    -5.110      2.472      5.150
REMARK INTER + INTRA:         -14.440
REMARK INTER:                 -10.684
REMARK INTRA:                  -3.756
REMARK UNBOUND:                -3.357
REMARK SMILES CCCCCCCCCCCCCCCCCCCCCC(=O)[O-]
REMARK SMILES IDX 12 1 11 2 10 3 9 4 8 5 7 6 6 7 5 8 4 9 3 10 2 11 1 12 13 13
REMARK SMILES IDX 14 14 15 15 16 16 17 17 18 18 19 19 20 20 21 21 22 22 23 23
REMARK SMILES IDX 24 24
REMARK H PARENT
REMARK Flexibility Score: inf
ROOT
ATOM      1  C   UNL     1     -17.193  54.756  -2.140  1.00  0.00     0.000 C 
ENDROOT
BRANCH   1   2
ATOM      2  C   UNL     1     -16.882  55.881  -3.150  1.00  0.00     0.000 C 
BRANCH   2   3
ATOM      3  C   UNL     1     -18.149  56.622  -3.613  1.00  0.00     0.000 C 
BRANCH   3   4
ATOM      4  C   UNL     1     -19.446  55.924  -3.165  1.00  0.00    -0.000 C 
BRANCH   4   5
ATOM      5  C   UNL     1     -20.730  56.661  -3.600  1.00  0.00    -0.000 C 
BRANCH   5   6
ATOM      6  C   UNL     1     -21.863  56.514  -2.567  1.00  0.00    -0.000 C 
BRANCH   6   7
ATOM      7  C   UNL     1     -22.739  55.272  -2.815  1.00  0.00    -0.000 C 
BRANCH   7   8
ATOM      8  C   UNL     1     -23.531  54.789  -1.584  1.00  0.00    -0.000 C 
BRANCH   8   9
ATOM      9  C   UNL     1     -22.654  54.645  -0.331  1.00  0.00    -0.000 C 
BRANCH   9  10
ATOM     10  C   UNL     1     -22.062  53.233  -0.234  1.00  0.00    -0.000 C 
BRANCH  10  11
ATOM     11  C   UNL     1     -20.558  53.247  -0.539  1.00  0.00    -0.003 C 
ATOM     12  C   UNL     1     -20.257  52.539  -1.858  1.00  0.00     0.004 C 
ENDBRANCH  10  11
ENDBRANCH   9  10
ENDBRANCH   8   9
ENDBRANCH   7   8
ENDBRANCH   6   7
ENDBRANCH   5   6
ENDBRANCH   4   5
ENDBRANCH   3   4
ENDBRANCH   2   3
ENDBRANCH   1   2
BRANCH   1  13
ATOM     13  C   UNL     1     -16.630  55.015  -0.731  1.00  0.00     0.000 C 
BRANCH  13  14
ATOM     14  C   UNL     1     -17.731  55.170   0.330  1.00  0.00     0.000 C 
BRANCH  14  15
ATOM     15  C   UNL     1     -18.325  56.590   0.382  1.00  0.00     0.000 C 
BRANCH  15  16
ATOM     16  C   UNL     1     -19.865  56.666   0.456  1.00  0.00     0.000 C 
BRANCH  16  17
ATOM     17  C   UNL     1     -20.431  57.815   1.311  1.00  0.00     0.000 C 
BRANCH  17  18
ATOM     18  C   UNL     1     -21.848  57.529   1.833  1.00  0.00     0.000 C 
BRANCH  18  19
ATOM     19  C   UNL     1     -22.877  58.576   1.372  1.00  0.00     0.000 C 
BRANCH  19  20
ATOM     20  C   UNL     1     -23.720  58.177   0.144  1.00  0.00     0.006 C 
BRANCH  20  21
ATOM     21  C   UNL     1     -23.570  59.130  -1.057  1.00  0.00     0.053 C 
BRANCH  21  22
ATOM     22  C   UNL     1     -24.664  58.965  -2.067  1.00  0.00     0.041 C 
ATOM     23  O   UNL     1     -25.245  57.857  -2.201  1.00  0.00    -0.550 OA
ATOM     24  O   UNL     1     -25.080  60.052  -2.829  1.00  0.00    -0.550 OA
ENDBRANCH  21  22
ENDBRANCH  20  21
ENDBRANCH  19  20
ENDBRANCH  18  19
ENDBRANCH  17  18
ENDBRANCH  16  17
ENDBRANCH  15  16
ENDBRANCH  14  15
ENDBRANCH  13  14
ENDBRANCH   1  13
TORSDOF 20
ENDMDL
MODEL 6
REMARK VINA RESULT:    -5.101      3.024      5.255
REMARK INTER + INTRA:         -14.421
REMARK INTER:                 -11.207
REMARK INTRA:                  -3.214
REMARK UNBOUND:                -3.357
REMARK SMILES CCCCCCCCCCCCCCCCCCCCCC(=O)[O-]
REMARK SMILES IDX 12 1 11 2 10 3 9 4 8 5 7 6 6 7 5 8 4 9 3 10 2 11 1 12 13 13
REMARK SMILES IDX 14 14 15 15 16 16 17 17 18 18 19 19 20 20 21 21 22 22 23 23
REMARK SMILES IDX 24 24
REMARK H PARENT
REMARK Flexibility Score: inf
ROOT
ATOM      1  C   UNL     1     -24.493  55.148  -2.421  1.00  0.00     0.000 C 
ENDROOT
BRANCH   1   2
ATOM      2  C   UNL     1     -23.334  56.157  -2.558  1.00  0.00     0.000 C 
BRANCH   2   3
ATOM      3  C   UNL     1     -22.095  55.541  -3.233  1.00  0.00     0.000 C 
BRANCH   3   4
ATOM      4  C   UNL     1     -20.855  56.450  -3.151  1.00  0.00    -0.000 C 
BRANCH   4   5
ATOM      5  C   UNL     1     -19.519  55.679  -3.160  1.00  0.00    -0.000 C 
BRANCH   5   6
ATOM      6  C   UNL     1     -18.352  56.546  -3.672  1.00  0.00    -0.000 C 
BRANCH   6   7
ATOM      7  C   UNL     1     -16.991  56.114  -3.096  1.00  0.00    -0.000 C 
BRANCH   7   8
ATOM      8  C   UNL     1     -17.034  54.839  -2.232  1.00  0.00    -0.000 C 
BRANCH   8   9
ATOM      9  C   UNL     1     -16.627  55.096  -0.772  1.00  0.00    -0.000 C 
BRANCH   9  10
ATOM     10  C   UNL     1     -17.838  54.982   0.163  1.00  0.00    -0.000 C 
BRANCH  10  11
ATOM     11  C   UNL     1     -18.471  56.358   0.410  1.00  0.00    -0.003 C 
ATOM     12  C   UNL     1     -17.412  57.458   0.420  1.00  0.00     0.004 C 
ENDBRANCH  10  11
ENDBRANCH   9  10
ENDBRANCH   8   9
ENDBRANCH   7   8
ENDBRANCH   6   7
ENDBRANCH   5   6
ENDBRANCH   4   5
ENDBRANCH   3   4
ENDBRANCH   2   3
ENDBRANCH   1   2
BRANCH   1  13
ATOM     13  C   UNL     1     -25.805  55.775  -1.916  1.00  0.00     0.000 C 
BRANCH  13  14
ATOM     14  C   UNL     1     -25.948  55.704  -0.387  1.00  0.00     0.000 C 
BRANCH  14  15
ATOM     15  C   UNL     1     -25.973  57.090   0.283  1.00  0.00     0.000 C 
BRANCH  15  16
ATOM     16  C   UNL     1     -24.595  57.749   0.502  1.00  0.00     0.000 C 
BRANCH  16  17
ATOM     17  C   UNL     1     -23.708  57.088   1.574  1.00  0.00     0.000 C 
BRANCH  17  18
ATOM     18  C   UNL     1     -22.682  56.110   0.979  1.00  0.00     0.000 C 
BRANCH  18  19
ATOM     19  C   UNL     1     -23.036  54.637   1.247  1.00  0.00     0.000 C 
BRANCH  19  20
ATOM     20  C   UNL     1     -22.572  53.639   0.167  1.00  0.00     0.006 C 
BRANCH  20  21
ATOM     21  C   UNL     1     -21.127  53.867  -0.318  1.00  0.00     0.053 C 
BRANCH  21  22
ATOM     22  C   UNL     1     -20.511  52.631  -0.900  1.00  0.00     0.041 C 
ATOM     23  O   UNL     1     -20.340  52.530  -2.142  1.00  0.00    -0.550 OA
ATOM     24  O   UNL     1     -20.079  51.607  -0.063  1.00  0.00    -0.550 OA
ENDBRANCH  21  22
ENDBRANCH  20  21
ENDBRANCH  19  20
ENDBRANCH  18  19
ENDBRANCH  17  18
ENDBRANCH  16  17
ENDBRANCH  15  16
ENDBRANCH  14  15
ENDBRANCH  13  14
ENDBRANCH   1  13
TORSDOF 20
ENDMDL
MODEL 7
REMARK VINA RESULT:    -5.073      1.458      3.257
REMARK INTER + INTRA:         -14.361
REMARK INTER:                 -10.818
REMARK INTRA:                  -3.543
REMARK UNBOUND:                -3.357
REMARK SMILES CCCCCCCCCCCCCCCCCCCCCC(=O)[O-]
REMARK SMILES IDX 12 1 11 2 10 3 9 4 8 5 7 6 6 7 5 8 4 9 3 10 2 11 1 12 13 13
REMARK SMILES IDX 14 14 15 15 16 16 17 17 18 18 19 19 20 20 21 21 22 22 23 23
REMARK SMILES IDX 24 24
REMARK H PARENT
REMARK Flexibility Score: inf
ROOT
ATOM      1  C   UNL     1     -22.014  55.250  -1.899  1.00  0.00     0.000 C 
ENDROOT
BRANCH   1   2
ATOM      2  C   UNL     1     -21.249  55.307  -3.237  1.00  0.00     0.000 C 
BRANCH   2   3
ATOM      3  C   UNL     1     -20.505  56.641  -3.433  1.00  0.00     0.000 C 
BRANCH   3   4
ATOM      4  C   UNL     1     -18.974  56.482  -3.394  1.00  0.00    -0.000 C 
BRANCH   4   5
ATOM      5  C   UNL     1     -18.496  55.028  -3.586  1.00  0.00    -0.000 C 
BRANCH   5   6
ATOM      6  C   UNL     1     -17.645  54.535  -2.400  1.00  0.00    -0.000 C 
BRANCH   6   7
ATOM      7  C   UNL     1     -18.487  53.863  -1.300  1.00  0.00    -0.000 C 
BRANCH   7   8
ATOM      8  C   UNL     1     -18.356  54.508   0.094  1.00  0.00    -0.000 C 
BRANCH   8   9
ATOM      9  C   UNL     1     -19.204  55.782   0.242  1.00  0.00    -0.000 C 
BRANCH   9  10
ATOM     10  C   UNL     1     -18.318  57.034   0.235  1.00  0.00    -0.000 C 
BRANCH  10  11
ATOM     11  C   UNL     1     -16.984  56.767   0.946  1.00  0.00    -0.003 C 
ATOM     12  C   UNL     1     -15.853  57.577   0.318  1.00  0.00     0.004 C 
ENDBRANCH  10  11
ENDBRANCH   9  10
ENDBRANCH   8   9
ENDBRANCH   7   8
ENDBRANCH   6   7
ENDBRANCH   5   6
ENDBRANCH   4   5
ENDBRANCH   3   4
ENDBRANCH   2   3
ENDBRANCH   1   2
BRANCH   1  13
ATOM     13  C   UNL     1     -22.386  53.823  -1.457  1.00  0.00     0.000 C 
BRANCH  13  14
ATOM     14  C   UNL     1     -22.211  53.603   0.053  1.00  0.00     0.000 C 
BRANCH  14  15
ATOM     15  C   UNL     1     -23.062  54.562   0.907  1.00  0.00     0.000 C 
BRANCH  15  16
ATOM     16  C   UNL     1     -24.498  54.086   1.213  1.00  0.00     0.000 C 
BRANCH  16  17
ATOM     17  C   UNL     1     -25.622  54.900   0.547  1.00  0.00     0.000 C 
BRANCH  17  18
ATOM     18  C   UNL     1     -25.105  56.158  -0.169  1.00  0.00     0.000 C 
BRANCH  18  19
ATOM     19  C   UNL     1     -25.772  57.450   0.335  1.00  0.00     0.000 C 
BRANCH  19  20
ATOM     20  C   UNL     1     -24.803  58.579   0.739  1.00  0.00     0.006 C 
BRANCH  20  21
ATOM     21  C   UNL     1     -23.314  58.195   0.638  1.00  0.00     0.053 C 
BRANCH  21  22
ATOM     22  C   UNL     1     -22.669  58.023   1.981  1.00  0.00     0.041 C 
ATOM     23  O   UNL     1     -23.372  57.809   3.002  1.00  0.00    -0.550 OA
ATOM     24  O   UNL     1     -21.283  58.050   2.096  1.00  0.00    -0.550 OA
ENDBRANCH  21  22
ENDBRANCH  20  21
ENDBRANCH  19  20
ENDBRANCH  18  19
ENDBRANCH  17  18
ENDBRANCH  16  17
ENDBRANCH  15  16
ENDBRANCH  14  15
ENDBRANCH  13  14
ENDBRANCH   1  13
TORSDOF 20
ENDMDL
MODEL 8
REMARK VINA RESULT:    -5.063      2.796      6.005
REMARK INTER + INTRA:         -14.339
REMARK INTER:                 -11.047
REMARK INTRA:                  -3.292
REMARK UNBOUND:                -3.357
REMARK SMILES CCCCCCCCCCCCCCCCCCCCCC(=O)[O-]
REMARK SMILES IDX 12 1 11 2 10 3 9 4 8 5 7 6 6 7 5 8 4 9 3 10 2 11 1 12 13 13
REMARK SMILES IDX 14 14 15 15 16 16 17 17 18 18 19 19 20 20 21 21 22 22 23 23
REMARK SMILES IDX 24 24
REMARK H PARENT
REMARK Flexibility Score: inf
ROOT
ATOM      1  C   UNL     1     -21.426  55.289  -2.975  1.00  0.00     0.000 C 
ENDROOT
BRANCH   1   2
ATOM      2  C   UNL     1     -22.101  55.161  -1.593  1.00  0.00     0.000 C 
BRANCH   2   3
ATOM      3  C   UNL     1     -22.165  53.703  -1.104  1.00  0.00     0.000 C 
BRANCH   3   4
ATOM      4  C   UNL     1     -22.508  53.589   0.393  1.00  0.00    -0.000 C 
BRANCH   4   5
ATOM      5  C   UNL     1     -23.403  54.733   0.913  1.00  0.00    -0.000 C 
BRANCH   5   6
ATOM      6  C   UNL     1     -24.889  54.508   0.574  1.00  0.00    -0.000 C 
BRANCH   6   7
ATOM      7  C   UNL     1     -25.675  55.824   0.436  1.00  0.00    -0.000 C 
BRANCH   7   8
ATOM      8  C   UNL     1     -25.064  56.837  -0.552  1.00  0.00    -0.000 C 
BRANCH   8   9
ATOM      9  C   UNL     1     -24.583  58.124   0.138  1.00  0.00    -0.000 C 
BRANCH   9  10
ATOM     10  C   UNL     1     -23.063  58.282   0.004  1.00  0.00    -0.000 C 
BRANCH  10  11
ATOM     11  C   UNL     1     -22.386  58.258   1.382  1.00  0.00    -0.003 C 
ATOM     12  C   UNL     1     -21.056  57.510   1.330  1.00  0.00     0.004 C 
ENDBRANCH  10  11
ENDBRANCH   9  10
ENDBRANCH   8   9
ENDBRANCH   7   8
ENDBRANCH   6   7
ENDBRANCH   5   6
ENDBRANCH   4   5
ENDBRANCH   3   4
ENDBRANCH   2   3
ENDBRANCH   1   2
BRANCH   1  13
ATOM     13  C   UNL     1     -20.700  56.630  -3.188  1.00  0.00     0.000 C 
BRANCH  13  14
ATOM     14  C   UNL     1     -19.177  56.467  -3.314  1.00  0.00     0.000 C 
BRANCH  14  15
ATOM     15  C   UNL     1     -18.735  54.999  -3.453  1.00  0.00     0.000 C 
BRANCH  15  16
ATOM     16  C   UNL     1     -17.819  54.469  -2.329  1.00  0.00     0.000 C 
BRANCH  16  17
ATOM     17  C   UNL     1     -18.541  53.766  -1.164  1.00  0.00     0.000 C 
BRANCH  17  18
ATOM     18  C   UNL     1     -18.634  54.641   0.096  1.00  0.00     0.000 C 
BRANCH  18  19
ATOM     19  C   UNL     1     -17.355  55.458   0.352  1.00  0.00     0.000 C 
BRANCH  19  20
ATOM     20  C   UNL     1     -17.493  56.980   0.150  1.00  0.00     0.006 C 
BRANCH  20  21
ATOM     21  C   UNL     1     -16.666  57.822   1.140  1.00  0.00     0.053 C 
BRANCH  21  22
ATOM     22  C   UNL     1     -15.448  58.425   0.508  1.00  0.00     0.041 C 
ATOM     23  O   UNL     1     -15.349  58.497  -0.744  1.00  0.00    -0.550 OA
ATOM     24  O   UNL     1     -14.439  58.956   1.306  1.00  0.00    -0.550 OA
ENDBRANCH  21  22
ENDBRANCH  20  21
ENDBRANCH  19  20
ENDBRANCH  18  19
ENDBRANCH  17  18
ENDBRANCH  16  17
ENDBRANCH  15  16
ENDBRANCH  14  15
ENDBRANCH  13  14
ENDBRANCH   1  13
TORSDOF 20
ENDMDL
MODEL 9
REMARK VINA RESULT:    -5.020      2.486      5.203
REMARK INTER + INTRA:         -14.247
REMARK INTER:                 -10.927
REMARK INTRA:                  -3.319
REMARK UNBOUND:                -3.357
REMARK SMILES CCCCCCCCCCCCCCCCCCCCCC(=O)[O-]
REMARK SMILES IDX 12 1 11 2 10 3 9 4 8 5 7 6 6 7 5 8 4 9 3 10 2 11 1 12 13 13
REMARK SMILES IDX 14 14 15 15 16 16 17 17 18 18 19 19 20 20 21 21 22 22 23 23
REMARK SMILES IDX 24 24
REMARK H PARENT
REMARK Flexibility Score: inf
ROOT
ATOM      1  C   UNL     1     -17.442  55.748  -1.345  1.00  0.00     0.000 C 
ENDROOT
BRANCH   1   2
ATOM      2  C   UNL     1     -17.857  56.583  -0.116  1.00  0.00     0.000 C 
BRANCH   2   3
ATOM      3  C   UNL     1     -19.289  56.267   0.354  1.00  0.00     0.000 C 
BRANCH   3   4
ATOM      4  C   UNL     1     -19.884  57.374   1.242  1.00  0.00    -0.000 C 
BRANCH   4   5
ATOM      5  C   UNL     1     -21.427  57.393   1.260  1.00  0.00    -0.000 C 
BRANCH   5   6
ATOM      6  C   UNL     1     -22.032  56.255   0.417  1.00  0.00    -0.000 C 
BRANCH   6   7
ATOM      7  C   UNL     1     -22.961  55.337   1.232  1.00  0.00    -0.000 C 
BRANCH   7   8
ATOM      8  C   UNL     1     -23.002  53.874   0.751  1.00  0.00    -0.000 C 
BRANCH   8   9
ATOM      9  C   UNL     1     -21.866  53.537  -0.228  1.00  0.00    -0.000 C 
BRANCH   9  10
ATOM     10  C   UNL     1     -20.771  52.716   0.464  1.00  0.00    -0.000 C 
BRANCH  10  11
ATOM     11  C   UNL     1     -19.842  52.061  -0.567  1.00  0.00    -0.003 C 
ATOM     12  C   UNL     1     -20.152  52.552  -1.979  1.00  0.00     0.004 C 
ENDBRANCH  10  11
ENDBRANCH   9  10
ENDBRANCH   8   9
ENDBRANCH   7   8
ENDBRANCH   6   7
ENDBRANCH   5   6
ENDBRANCH   4   5
ENDBRANCH   3   4
ENDBRANCH   2   3
ENDBRANCH   1   2
BRANCH   1  13
ATOM     13  C   UNL     1     -17.025  56.596  -2.560  1.00  0.00     0.000 C 
BRANCH  13  14
ATOM     14  C   UNL     1     -18.113  56.658  -3.643  1.00  0.00     0.000 C 
BRANCH  14  15
ATOM     15  C   UNL     1     -19.310  55.733  -3.352  1.00  0.00     0.000 C 
BRANCH  15  16
ATOM     16  C   UNL     1     -20.675  56.436  -3.202  1.00  0.00     0.000 C 
BRANCH  16  17
ATOM     17  C   UNL     1     -21.908  55.519  -3.306  1.00  0.00     0.000 C 
BRANCH  17  18
ATOM     18  C   UNL     1     -23.127  56.069  -2.549  1.00  0.00     0.000 C 
BRANCH  18  19
ATOM     19  C   UNL     1     -24.321  55.097  -2.552  1.00  0.00     0.000 C 
BRANCH  19  20
ATOM     20  C   UNL     1     -25.496  55.492  -1.635  1.00  0.00     0.006 C 
BRANCH  20  21
ATOM     21  C   UNL     1     -25.418  56.935  -1.101  1.00  0.00     0.053 C 
BRANCH  21  22
ATOM     22  C   UNL     1     -26.070  57.927  -2.017  1.00  0.00     0.041 C 
ATOM     23  O   UNL     1     -26.970  57.559  -2.816  1.00  0.00    -0.550 OA
ATOM     24  O   UNL     1     -25.718  59.271  -1.952  1.00  0.00    -0.550 OA
ENDBRANCH  21  22
ENDBRANCH  20  21
ENDBRANCH  19  20
ENDBRANCH  18  19
ENDBRANCH  17  18
ENDBRANCH  16  17
ENDBRANCH  15  16
ENDBRANCH  14  15
ENDBRANCH  13  14
ENDBRANCH   1  13
TORSDOF 20
ENDMDL
