MODEL 1
REMARK VINA RESULT:    -5.739      0.000      0.000
REMARK INTER + INTRA:         -19.915
REMARK INTER:                 -14.463
REMARK INTRA:                  -5.452
REMARK UNBOUND:                -5.452
REMARK SMILES CCCCCCCCCCCCCCCCCCCCCCCCCCCC(=O)[O-]
REMARK SMILES IDX 15 1 16 2 17 3 18 4 19 5 20 6 21 7 22 8 23 9 24 10 25 11
REMARK SMILES IDX 26 12 27 13 28 14 29 15 30 16 14 17 13 18 12 19 11 20 10 21
REMARK SMILES IDX 9 22 8 23 7 24 6 25 5 26 4 27 3 28 2 29 1 30
REMARK H PARENT
REMARK Flexibility Score: inf
ROOT
ATOM      1  C   UNL     1     -14.926   0.851 -19.474  1.00  0.00     0.000 C 
ENDROOT
BRANCH   1   2
ATOM      2  C   UNL     1     -15.110   2.357 -19.733  1.00  0.00     0.000 C 
BRANCH   2   3
ATOM      3  C   UNL     1     -16.309   2.721 -20.627  1.00  0.00     0.000 C 
BRANCH   3   4
ATOM      4  C   UNL     1     -17.086   3.947 -20.124  1.00  0.00     0.000 C 
BRANCH   4   5
ATOM      5  C   UNL     1     -17.561   4.813 -21.301  1.00  0.00     0.000 C 
BRANCH   5   6
ATOM      6  C   UNL     1     -17.678   4.022 -22.613  1.00  0.00     0.000 C 
BRANCH   6   7
ATOM      7  C   UNL     1     -18.091   4.907 -23.802  1.00  0.00     0.000 C 
BRANCH   7   8
ATOM      8  C   UNL     1     -17.428   4.468 -25.117  1.00  0.00     0.000 C 
BRANCH   8   9
ATOM      9  C   UNL     1     -16.677   5.617 -25.811  1.00  0.00     0.000 C 
BRANCH   9  10
ATOM     10  C   UNL     1     -17.120   7.000 -25.305  1.00  0.00     0.000 C 
BRANCH  10  11
ATOM     11  C   UNL     1     -15.938   7.848 -24.800  1.00  0.00     0.000 C 
BRANCH  11  12
ATOM     12  C   UNL     1     -16.344   8.828 -23.685  1.00  0.00     0.006 C 
BRANCH  12  13
ATOM     13  C   UNL     1     -17.585   8.394 -22.888  1.00  0.00     0.053 C 
BRANCH  13  14
ATOM     14  C   UNL     1     -18.787   9.219 -23.232  1.00  0.00     0.041 C 
ATOM     15  O   UNL     1     -18.685  10.467 -23.362  1.00  0.00    -0.550 OA
ATOM     16  O   UNL     1     -20.027   8.612 -23.379  1.00  0.00    -0.550 OA
ENDBRANCH  13  14
ENDBRANCH  12  13
ENDBRANCH  11  12
ENDBRANCH  10  11
ENDBRANCH   9  10
ENDBRANCH   8   9
ENDBRANCH   7   8
ENDBRANCH   6   7
ENDBRANCH   5   6
ENDBRANCH   4   5
ENDBRANCH   3   4
ENDBRANCH   2   3
ENDBRANCH   1   2
BRANCH   1  17
ATOM     17  C   UNL     1     -14.164   0.136 -20.600  1.00  0.00     0.000 C 
BRANCH  17  18
ATOM     18  C   UNL     1     -14.823  -1.209 -20.943  1.00  0.00     0.000 C 
BRANCH  18  19
ATOM     19  C   UNL     1     -15.825  -1.095 -22.112  1.00  0.00     0.000 C 
BRANCH  19  20
ATOM     20  C   UNL     1     -15.236  -0.445 -23.376  1.00  0.00     0.000 C 
BRANCH  20  21
ATOM     21  C   UNL     1     -15.881   0.908 -23.713  1.00  0.00     0.000 C 
BRANCH  21  22
ATOM     22  C   UNL     1     -14.891   1.905 -24.339  1.00  0.00    -0.000 C 
BRANCH  22  23
ATOM     23  C   UNL     1     -14.043   2.672 -23.301  1.00  0.00    -0.000 C 
BRANCH  23  24
ATOM     24  C   UNL     1     -14.200   4.197 -23.433  1.00  0.00    -0.000 C 
BRANCH  24  25
ATOM     25  C   UNL     1     -13.671   4.957 -22.206  1.00  0.00    -0.000 C 
BRANCH  25  26
ATOM     26  C   UNL     1     -14.517   6.197 -21.871  1.00  0.00    -0.000 C 
BRANCH  26  27
ATOM     27  C   UNL     1     -14.364   6.650 -20.407  1.00  0.00    -0.000 C 
BRANCH  27  28
ATOM     28  C   UNL     1     -15.371   7.720 -19.944  1.00  0.00    -0.000 C 
BRANCH  28  29
ATOM     29  C   UNL     1     -14.791   9.141 -19.968  1.00  0.00    -0.003 C 
ATOM     30  C   UNL     1     -13.266   9.114 -19.975  1.00  0.00     0.004 C 
ENDBRANCH  28  29
ENDBRANCH  27  28
ENDBRANCH  26  27
ENDBRANCH  25  26
ENDBRANCH  24  25
ENDBRANCH  23  24
ENDBRANCH  22  23
ENDBRANCH  21  22
ENDBRANCH  20  21
ENDBRANCH  19  20
ENDBRANCH  18  19
ENDBRANCH  17  18
ENDBRANCH   1  17
TORSDOF 26
ENDMDL
MODEL 2
REMARK VINA RESULT:    -5.442      2.132      6.162
REMARK INTER + INTRA:         -19.165
REMARK INTER:                 -14.217
REMARK INTRA:                  -4.948
REMARK UNBOUND:                -5.452
REMARK SMILES CCCCCCCCCCCCCCCCCCCCCCCCCCCC(=O)[O-]
REMARK SMILES IDX 15 1 16 2 17 3 18 4 19 5 20 6 21 7 22 8 23 9 24 10 25 11
REMARK SMILES IDX 26 12 27 13 28 14 29 15 30 16 14 17 13 18 12 19 11 20 10 21
REMARK SMILES IDX 9 22 8 23 7 24 6 25 5 26 4 27 3 28 2 29 1 30
REMARK H PARENT
REMARK Flexibility Score: inf
ROOT
ATOM      1  C   UNL     1     -17.749   4.152 -21.329  1.00  0.00     0.000 C 
ENDROOT
BRANCH   1   2
ATOM      2  C   UNL     1     -16.676   3.910 -20.252  1.00  0.00     0.000 C 
BRANCH   2   3
ATOM      3  C   UNL     1     -16.110   2.479 -20.207  1.00  0.00     0.000 C 
BRANCH   3   4
ATOM      4  C   UNL     1     -14.576   2.436 -20.264  1.00  0.00     0.000 C 
BRANCH   4   5
ATOM      5  C   UNL     1     -14.094   1.194 -21.029  1.00  0.00     0.000 C 
BRANCH   5   6
ATOM      6  C   UNL     1     -14.513  -0.121 -20.354  1.00  0.00     0.000 C 
BRANCH   6   7
ATOM      7  C   UNL     1     -14.749  -1.256 -21.366  1.00  0.00     0.000 C 
BRANCH   7   8
ATOM      8  C   UNL     1     -15.590  -0.804 -22.570  1.00  0.00     0.000 C 
BRANCH   8   9
ATOM      9  C   UNL     1     -17.057  -0.532 -22.196  1.00  0.00     0.000 C 
BRANCH   9  10
ATOM     10  C   UNL     1     -17.755   0.405 -23.196  1.00  0.00     0.000 C 
BRANCH  10  11
ATOM     11  C   UNL     1     -16.790   1.433 -23.811  1.00  0.00     0.000 C 
BRANCH  11  12
ATOM     12  C   UNL     1     -17.514   2.493 -24.661  1.00  0.00     0.006 C 
BRANCH  12  13
ATOM     13  C   UNL     1     -17.541   2.182 -26.166  1.00  0.00     0.053 C 
BRANCH  13  14
ATOM     14  C   UNL     1     -18.445   3.112 -26.914  1.00  0.00     0.041 C 
ATOM     15  O   UNL     1     -19.091   4.000 -26.298  1.00  0.00    -0.550 OA
ATOM     16  O   UNL     1     -18.597   2.979 -28.288  1.00  0.00    -0.550 OA
ENDBRANCH  13  14
ENDBRANCH  12  13
ENDBRANCH  11  12
ENDBRANCH  10  11
ENDBRANCH   9  10
ENDBRANCH   8   9
ENDBRANCH   7   8
ENDBRANCH   6   7
ENDBRANCH   5   6
ENDBRANCH   4   5
ENDBRANCH   3   4
ENDBRANCH   2   3
ENDBRANCH   1   2
BRANCH   1  17
ATOM     17  C   UNL     1     -17.863   5.628 -21.743  1.00  0.00     0.000 C 
BRANCH  17  18
ATOM     18  C   UNL     1     -17.383   6.555 -20.615  1.00  0.00     0.000 C 
BRANCH  18  19
ATOM     19  C   UNL     1     -17.468   8.047 -21.001  1.00  0.00     0.000 C 
BRANCH  19  20
ATOM     20  C   UNL     1     -16.194   8.847 -20.683  1.00  0.00     0.000 C 
BRANCH  20  21
ATOM     21  C   UNL     1     -15.188   8.060 -19.827  1.00  0.00     0.000 C 
BRANCH  21  22
ATOM     22  C   UNL     1     -13.757   8.109 -20.388  1.00  0.00    -0.000 C 
BRANCH  22  23
ATOM     23  C   UNL     1     -13.225   6.735 -20.851  1.00  0.00    -0.000 C 
BRANCH  23  24
ATOM     24  C   UNL     1     -14.291   5.922 -21.605  1.00  0.00    -0.000 C 
BRANCH  24  25
ATOM     25  C   UNL     1     -13.695   5.055 -22.726  1.00  0.00    -0.000 C 
BRANCH  25  26
ATOM     26  C   UNL     1     -14.758   4.575 -23.729  1.00  0.00    -0.000 C 
BRANCH  26  27
ATOM     27  C   UNL     1     -15.174   5.668 -24.731  1.00  0.00    -0.000 C 
BRANCH  27  28
ATOM     28  C   UNL     1     -16.657   6.081 -24.672  1.00  0.00    -0.000 C 
BRANCH  28  29
ATOM     29  C   UNL     1     -16.893   7.537 -25.098  1.00  0.00    -0.003 C 
ATOM     30  C   UNL     1     -15.963   8.487 -24.350  1.00  0.00     0.004 C 
ENDBRANCH  28  29
ENDBRANCH  27  28
ENDBRANCH  26  27
ENDBRANCH  25  26
ENDBRANCH  24  25
ENDBRANCH  23  24
ENDBRANCH  22  23
ENDBRANCH  21  22
ENDBRANCH  20  21
ENDBRANCH  19  20
ENDBRANCH  18  19
ENDBRANCH  17  18
ENDBRANCH   1  17
TORSDOF 26
ENDMDL
MODEL 3
REMARK VINA RESULT:    -5.438      1.347      2.616
REMARK INTER + INTRA:         -19.156
REMARK INTER:                 -14.090
REMARK INTRA:                  -5.066
REMARK UNBOUND:                -5.452
REMARK SMILES CCCCCCCCCCCCCCCCCCCCCCCCCCCC(=O)[O-]
REMARK SMILES IDX 15 1 16 2 17 3 18 4 19 5 20 6 21 7 22 8 23 9 24 10 25 11
REMARK SMILES IDX 26 12 27 13 28 14 29 15 30 16 14 17 13 18 12 19 11 20 10 21
REMARK SMILES IDX 9 22 8 23 7 24 6 25 5 26 4 27 3 28 2 29 1 30
REMARK H PARENT
REMARK Flexibility Score: inf
ROOT
ATOM      1  C   UNL     1     -16.718   3.350 -20.630  1.00  0.00     0.000 C 
ENDROOT
BRANCH   1   2
ATOM      2  C   UNL     1     -17.151   4.814 -20.430  1.00  0.00     0.000 C 
BRANCH   2   3
ATOM      3  C   UNL     1     -17.622   5.533 -21.707  1.00  0.00     0.000 C 
BRANCH   3   4
ATOM      4  C   UNL     1     -18.247   4.582 -22.739  1.00  0.00     0.000 C 
BRANCH   4   5
ATOM      5  C   UNL     1     -18.367   5.266 -24.109  1.00  0.00     0.000 C 
BRANCH   5   6
ATOM      6  C   UNL     1     -17.002   5.549 -24.754  1.00  0.00     0.000 C 
BRANCH   6   7
ATOM      7  C   UNL     1     -16.958   6.910 -25.471  1.00  0.00     0.000 C 
BRANCH   7   8
ATOM      8  C   UNL     1     -15.741   7.753 -25.056  1.00  0.00     0.000 C 
BRANCH   8   9
ATOM      9  C   UNL     1     -16.127   8.947 -24.166  1.00  0.00     0.000 C 
BRANCH   9  10
ATOM     10  C   UNL     1     -17.382   9.677 -24.672  1.00  0.00     0.000 C 
BRANCH  10  11
ATOM     11  C   UNL     1     -18.587   9.495 -23.731  1.00  0.00     0.000 C 
BRANCH  11  12
ATOM     12  C   UNL     1     -18.185   9.487 -22.245  1.00  0.00     0.006 C 
BRANCH  12  13
ATOM     13  C   UNL     1     -18.996   8.509 -21.381  1.00  0.00     0.053 C 
BRANCH  13  14
ATOM     14  C   UNL     1     -20.145   9.185 -20.699  1.00  0.00     0.041 C 
ATOM     15  O   UNL     1     -21.319   8.760 -20.863  1.00  0.00    -0.550 OA
ATOM     16  O   UNL     1     -19.924  10.303 -19.906  1.00  0.00    -0.550 OA
ENDBRANCH  13  14
ENDBRANCH  12  13
ENDBRANCH  11  12
ENDBRANCH  10  11
ENDBRANCH   9  10
ENDBRANCH   8   9
ENDBRANCH   7   8
ENDBRANCH   6   7
ENDBRANCH   5   6
ENDBRANCH   4   5
ENDBRANCH   3   4
ENDBRANCH   2   3
ENDBRANCH   1   2
BRANCH   1  17
ATOM     17  C   UNL     1     -15.809   2.833 -19.504  1.00  0.00     0.000 C 
BRANCH  17  18
ATOM     18  C   UNL     1     -14.514   2.234 -20.073  1.00  0.00     0.000 C 
BRANCH  18  19
ATOM     19  C   UNL     1     -14.633   0.720 -20.345  1.00  0.00     0.000 C 
BRANCH  19  20
ATOM     20  C   UNL     1     -14.153   0.298 -21.744  1.00  0.00     0.000 C 
BRANCH  20  21
ATOM     21  C   UNL     1     -15.074   0.794 -22.870  1.00  0.00     0.000 C 
BRANCH  21  22
ATOM     22  C   UNL     1     -14.379   1.783 -23.821  1.00  0.00    -0.000 C 
BRANCH  22  23
ATOM     23  C   UNL     1     -14.835   3.246 -23.637  1.00  0.00    -0.000 C 
BRANCH  23  24
ATOM     24  C   UNL     1     -13.675   4.170 -23.224  1.00  0.00    -0.000 C 
BRANCH  24  25
ATOM     25  C   UNL     1     -14.155   5.440 -22.503  1.00  0.00    -0.000 C 
BRANCH  25  26
ATOM     26  C   UNL     1     -13.439   5.662 -21.160  1.00  0.00    -0.000 C 
BRANCH  26  27
ATOM     27  C   UNL     1     -14.014   6.845 -20.362  1.00  0.00    -0.000 C 
BRANCH  27  28
ATOM     28  C   UNL     1     -14.857   7.841 -21.180  1.00  0.00    -0.000 C 
BRANCH  28  29
ATOM     29  C   UNL     1     -14.840   9.262 -20.601  1.00  0.00    -0.003 C 
ATOM     30  C   UNL     1     -13.535   9.540 -19.862  1.00  0.00     0.004 C 
ENDBRANCH  28  29
ENDBRANCH  27  28
ENDBRANCH  26  27
ENDBRANCH  25  26
ENDBRANCH  24  25
ENDBRANCH  23  24
ENDBRANCH  22  23
ENDBRANCH  21  22
ENDBRANCH  20  21
ENDBRANCH  19  20
ENDBRANCH  18  19
ENDBRANCH  17  18
ENDBRANCH   1  17
TORSDOF 26
ENDMDL
MODEL 4
REMARK VINA RESULT:    -5.383      2.162      5.843
REMARK INTER + INTRA:         -19.017
REMARK INTER:                 -14.530
REMARK INTRA:                  -4.487
REMARK UNBOUND:                -5.452
REMARK SMILES CCCCCCCCCCCCCCCCCCCCCCCCCCCC(=O)[O-]
REMARK SMILES IDX 15 1 16 2 17 3 18 4 19 5 20 6 21 7 22 8 23 9 24 10 25 11
REMARK SMILES IDX 26 12 27 13 28 14 29 15 30 16 14 17 13 18 12 19 11 20 10 21
REMARK SMILES IDX 9 22 8 23 7 24 6 25 5 26 4 27 3 28 2 29 1 30
REMARK H PARENT
REMARK Flexibility Score: inf
ROOT
ATOM      1  C   UNL     1     -16.595   2.050 -25.502  1.00  0.00     0.000 C 
ENDROOT
BRANCH   1   2
ATOM      2  C   UNL     1     -17.603   3.099 -26.005  1.00  0.00     0.000 C 
BRANCH   2   3
ATOM      3  C   UNL     1     -17.641   4.406 -25.192  1.00  0.00     0.000 C 
BRANCH   3   4
ATOM      4  C   UNL     1     -17.142   5.623 -25.985  1.00  0.00     0.000 C 
BRANCH   4   5
ATOM      5  C   UNL     1     -15.866   6.200 -25.355  1.00  0.00     0.000 C 
BRANCH   5   6
ATOM      6  C   UNL     1     -16.055   7.634 -24.834  1.00  0.00     0.000 C 
BRANCH   6   7
ATOM      7  C   UNL     1     -17.487   8.157 -25.048  1.00  0.00     0.000 C 
BRANCH   7   8
ATOM      8  C   UNL     1     -18.136   8.641 -23.742  1.00  0.00     0.000 C 
BRANCH   8   9
ATOM      9  C   UNL     1     -18.441   7.487 -22.772  1.00  0.00     0.000 C 
BRANCH   9  10
ATOM     10  C   UNL     1     -18.527   7.953 -21.310  1.00  0.00     0.000 C 
BRANCH  10  11
ATOM     11  C   UNL     1     -17.468   9.017 -20.968  1.00  0.00     0.000 C 
BRANCH  11  12
ATOM     12  C   UNL     1     -16.096   8.404 -20.636  1.00  0.00     0.006 C 
BRANCH  12  13
ATOM     13  C   UNL     1     -14.902   9.304 -20.993  1.00  0.00     0.053 C 
BRANCH  13  14
ATOM     14  C   UNL     1     -13.661   8.906 -20.255  1.00  0.00     0.041 C 
ATOM     15  O   UNL     1     -13.242   7.720 -20.312  1.00  0.00    -0.550 OA
ATOM     16  O   UNL     1     -12.983   9.838 -19.480  1.00  0.00    -0.550 OA
ENDBRANCH  13  14
ENDBRANCH  12  13
ENDBRANCH  11  12
ENDBRANCH  10  11
ENDBRANCH   9  10
ENDBRANCH   8   9
ENDBRANCH   7   8
ENDBRANCH   6   7
ENDBRANCH   5   6
ENDBRANCH   4   5
ENDBRANCH   3   4
ENDBRANCH   2   3
ENDBRANCH   1   2
BRANCH   1  17
ATOM     17  C   UNL     1     -16.105   2.324 -24.072  1.00  0.00     0.000 C 
BRANCH  17  18
ATOM     18  C   UNL     1     -14.742   1.660 -23.820  1.00  0.00     0.000 C 
BRANCH  18  19
ATOM     19  C   UNL     1     -13.728   2.623 -23.167  1.00  0.00     0.000 C 
BRANCH  19  20
ATOM     20  C   UNL     1     -14.057   4.111 -23.378  1.00  0.00     0.000 C 
BRANCH  20  21
ATOM     21  C   UNL     1     -14.311   4.863 -22.062  1.00  0.00     0.000 C 
BRANCH  21  22
ATOM     22  C   UNL     1     -15.803   5.135 -21.805  1.00  0.00    -0.000 C 
BRANCH  22  23
ATOM     23  C   UNL     1     -16.330   4.514 -20.493  1.00  0.00    -0.000 C 
BRANCH  23  24
ATOM     24  C   UNL     1     -16.205   2.981 -20.483  1.00  0.00    -0.000 C 
BRANCH  24  25
ATOM     25  C   UNL     1     -15.060   2.484 -19.586  1.00  0.00    -0.000 C 
BRANCH  25  26
ATOM     26  C   UNL     1     -15.136   0.971 -19.316  1.00  0.00    -0.000 C 
BRANCH  26  27
ATOM     27  C   UNL     1     -14.363   0.137 -20.353  1.00  0.00    -0.000 C 
BRANCH  27  28
ATOM     28  C   UNL     1     -14.062  -1.314 -19.934  1.00  0.00    -0.000 C 
BRANCH  28  29
ATOM     29  C   UNL     1     -14.159  -2.310 -21.099  1.00  0.00    -0.003 C 
ATOM     30  C   UNL     1     -14.630  -1.619 -22.375  1.00  0.00     0.004 C 
ENDBRANCH  28  29
ENDBRANCH  27  28
ENDBRANCH  26  27
ENDBRANCH  25  26
ENDBRANCH  24  25
ENDBRANCH  23  24
ENDBRANCH  22  23
ENDBRANCH  21  22
ENDBRANCH  20  21
ENDBRANCH  19  20
ENDBRANCH  18  19
ENDBRANCH  17  18
ENDBRANCH   1  17
TORSDOF 26
ENDMDL
MODEL 5
REMARK VINA RESULT:    -5.373      2.837      5.407
REMARK INTER + INTRA:         -18.992
REMARK INTER:                 -14.397
REMARK INTRA:                  -4.595
REMARK UNBOUND:                -5.452
REMARK SMILES CCCCCCCCCCCCCCCCCCCCCCCCCCCC(=O)[O-]
REMARK SMILES IDX 15 1 16 2 17 3 18 4 19 5 20 6 21 7 22 8 23 9 24 10 25 11
REMARK SMILES IDX 26 12 27 13 28 14 29 15 30 16 14 17 13 18 12 19 11 20 10 21
REMARK SMILES IDX 9 22 8 23 7 24 6 25 5 26 4 27 3 28 2 29 1 30
REMARK H PARENT
REMARK Flexibility Score: inf
ROOT
ATOM      1  C   UNL     1     -17.501   2.624 -24.040  1.00  0.00     0.000 C 
ENDROOT
BRANCH   1   2
ATOM      2  C   UNL     1     -16.682   3.543 -24.963  1.00  0.00     0.000 C 
BRANCH   2   3
ATOM      3  C   UNL     1     -15.634   4.415 -24.248  1.00  0.00     0.000 C 
BRANCH   3   4
ATOM      4  C   UNL     1     -14.465   3.603 -23.672  1.00  0.00     0.000 C 
BRANCH   4   5
ATOM      5  C   UNL     1     -13.464   4.520 -22.953  1.00  0.00     0.000 C 
BRANCH   5   6
ATOM      6  C   UNL     1     -14.142   5.706 -22.250  1.00  0.00     0.000 C 
BRANCH   6   7
ATOM      7  C   UNL     1     -13.359   6.190 -21.017  1.00  0.00     0.000 C 
BRANCH   7   8
ATOM      8  C   UNL     1     -14.119   7.264 -20.224  1.00  0.00     0.000 C 
BRANCH   8   9
ATOM      9  C   UNL     1     -13.431   8.639 -20.284  1.00  0.00     0.000 C 
BRANCH   9  10
ATOM     10  C   UNL     1     -14.435   9.793 -20.444  1.00  0.00     0.000 C 
BRANCH  10  11
ATOM     11  C   UNL     1     -15.011  10.263 -19.096  1.00  0.00     0.000 C 
BRANCH  11  12
ATOM     12  C   UNL     1     -14.902  11.787 -18.903  1.00  0.00     0.006 C 
BRANCH  12  13
ATOM     13  C   UNL     1     -15.128  12.255 -17.457  1.00  0.00     0.053 C 
BRANCH  13  14
ATOM     14  C   UNL     1     -14.075  13.221 -17.010  1.00  0.00     0.041 C 
ATOM     15  O   UNL     1     -13.843  13.384 -15.783  1.00  0.00    -0.550 OA
ATOM     16  O   UNL     1     -13.369  13.963 -17.948  1.00  0.00    -0.550 OA
ENDBRANCH  13  14
ENDBRANCH  12  13
ENDBRANCH  11  12
ENDBRANCH  10  11
ENDBRANCH   9  10
ENDBRANCH   8   9
ENDBRANCH   7   8
ENDBRANCH   6   7
ENDBRANCH   5   6
ENDBRANCH   4   5
ENDBRANCH   3   4
ENDBRANCH   2   3
ENDBRANCH   1   2
BRANCH   1  17
ATOM     17  C   UNL     1     -17.049   1.156 -24.098  1.00  0.00     0.000 C 
BRANCH  17  18
ATOM     18  C   UNL     1     -17.578   0.370 -22.888  1.00  0.00     0.000 C 
BRANCH  18  19
ATOM     19  C   UNL     1     -16.453  -0.350 -22.115  1.00  0.00     0.000 C 
BRANCH  19  20
ATOM     20  C   UNL     1     -15.036   0.071 -22.541  1.00  0.00     0.000 C 
BRANCH  20  21
ATOM     21  C   UNL     1     -14.302   0.885 -21.465  1.00  0.00     0.000 C 
BRANCH  21  22
ATOM     22  C   UNL     1     -14.756   0.537 -20.036  1.00  0.00    -0.000 C 
BRANCH  22  23
ATOM     23  C   UNL     1     -15.315   1.744 -19.252  1.00  0.00    -0.000 C 
BRANCH  23  24
ATOM     24  C   UNL     1     -15.386   3.016 -20.115  1.00  0.00    -0.000 C 
BRANCH  24  25
ATOM     25  C   UNL     1     -16.796   3.280 -20.669  1.00  0.00    -0.000 C 
BRANCH  25  26
ATOM     26  C   UNL     1     -17.315   4.684 -20.319  1.00  0.00    -0.000 C 
BRANCH  26  27
ATOM     27  C   UNL     1     -17.812   5.465 -21.549  1.00  0.00    -0.000 C 
BRANCH  27  28
ATOM     28  C   UNL     1     -17.337   6.928 -21.633  1.00  0.00    -0.000 C 
BRANCH  28  29
ATOM     29  C   UNL     1     -17.543   7.548 -23.023  1.00  0.00    -0.003 C 
ATOM     30  C   UNL     1     -16.439   8.549 -23.348  1.00  0.00     0.004 C 
ENDBRANCH  28  29
ENDBRANCH  27  28
ENDBRANCH  26  27
ENDBRANCH  25  26
ENDBRANCH  24  25
ENDBRANCH  23  24
ENDBRANCH  22  23
ENDBRANCH  21  22
ENDBRANCH  20  21
ENDBRANCH  19  20
ENDBRANCH  18  19
ENDBRANCH  17  18
ENDBRANCH   1  17
TORSDOF 26
ENDMDL
MODEL 6
REMARK VINA RESULT:    -5.368      1.885      5.991
REMARK INTER + INTRA:         -18.980
REMARK INTER:                 -14.474
REMARK INTRA:                  -4.506
REMARK UNBOUND:                -5.452
REMARK SMILES CCCCCCCCCCCCCCCCCCCCCCCCCCCC(=O)[O-]
REMARK SMILES IDX 15 1 16 2 17 3 18 4 19 5 20 6 21 7 22 8 23 9 24 10 25 11
REMARK SMILES IDX 26 12 27 13 28 14 29 15 30 16 14 17 13 18 12 19 11 20 10 21
REMARK SMILES IDX 9 22 8 23 7 24 6 25 5 26 4 27 3 28 2 29 1 30
REMARK H PARENT
REMARK Flexibility Score: inf
ROOT
ATOM      1  C   UNL     1     -14.498   8.470 -19.876  1.00  0.00     0.000 C 
ENDROOT
BRANCH   1   2
ATOM      2  C   UNL     1     -15.381   9.361 -20.767  1.00  0.00     0.000 C 
BRANCH   2   3
ATOM      3  C   UNL     1     -16.880   9.015 -20.753  1.00  0.00     0.000 C 
BRANCH   3   4
ATOM      4  C   UNL     1     -17.150   7.503 -20.792  1.00  0.00     0.000 C 
BRANCH   4   5
ATOM      5  C   UNL     1     -18.474   7.203 -21.510  1.00  0.00     0.000 C 
BRANCH   5   6
ATOM      6  C   UNL     1     -19.336   8.458 -21.718  1.00  0.00     0.000 C 
BRANCH   6   7
ATOM      7  C   UNL     1     -19.524   8.808 -23.205  1.00  0.00     0.000 C 
BRANCH   7   8
ATOM      8  C   UNL     1     -18.580   9.929 -23.667  1.00  0.00     0.000 C 
BRANCH   8   9
ATOM      9  C   UNL     1     -17.708   9.510 -24.863  1.00  0.00     0.000 C 
BRANCH   9  10
ATOM     10  C   UNL     1     -16.244   9.258 -24.464  1.00  0.00     0.000 C 
BRANCH  10  11
ATOM     11  C   UNL     1     -15.981   7.787 -24.093  1.00  0.00     0.000 C 
BRANCH  11  12
ATOM     12  C   UNL     1     -16.348   6.814 -25.227  1.00  0.00     0.006 C 
BRANCH  12  13
ATOM     13  C   UNL     1     -15.875   5.370 -24.993  1.00  0.00     0.053 C 
BRANCH  13  14
ATOM     14  C   UNL     1     -17.010   4.394 -25.047  1.00  0.00     0.041 C 
ATOM     15  O   UNL     1     -17.987   4.513 -24.261  1.00  0.00    -0.550 OA
ATOM     16  O   UNL     1     -16.975   3.335 -25.944  1.00  0.00    -0.550 OA
ENDBRANCH  13  14
ENDBRANCH  12  13
ENDBRANCH  11  12
ENDBRANCH  10  11
ENDBRANCH   9  10
ENDBRANCH   8   9
ENDBRANCH   7   8
ENDBRANCH   6   7
ENDBRANCH   5   6
ENDBRANCH   4   5
ENDBRANCH   3   4
ENDBRANCH   2   3
ENDBRANCH   1   2
BRANCH   1  17
ATOM     17  C   UNL     1     -13.070   8.303 -20.418  1.00  0.00     0.000 C 
BRANCH  17  18
ATOM     18  C   UNL     1     -12.756   6.824 -20.697  1.00  0.00     0.000 C 
BRANCH  18  19
ATOM     19  C   UNL     1     -13.913   6.101 -21.418  1.00  0.00     0.000 C 
BRANCH  19  20
ATOM     20  C   UNL     1     -14.510   4.930 -20.619  1.00  0.00     0.000 C 
BRANCH  20  21
ATOM     21  C   UNL     1     -15.606   4.175 -21.387  1.00  0.00     0.000 C 
BRANCH  21  22
ATOM     22  C   UNL     1     -16.392   3.194 -20.500  1.00  0.00    -0.000 C 
BRANCH  22  23
ATOM     23  C   UNL     1     -15.511   2.425 -19.492  1.00  0.00    -0.000 C 
BRANCH  23  24
ATOM     24  C   UNL     1     -14.619   1.376 -20.180  1.00  0.00    -0.000 C 
BRANCH  24  25
ATOM     25  C   UNL     1     -14.778  -0.028 -19.575  1.00  0.00    -0.000 C 
BRANCH  25  26
ATOM     26  C   UNL     1     -14.907  -1.122 -20.648  1.00  0.00    -0.000 C 
BRANCH  26  27
ATOM     27  C   UNL     1     -14.533  -0.628 -22.057  1.00  0.00    -0.000 C 
BRANCH  27  28
ATOM     28  C   UNL     1     -15.708  -0.515 -23.046  1.00  0.00    -0.000 C 
BRANCH  28  29
ATOM     29  C   UNL     1     -15.907   0.910 -23.583  1.00  0.00    -0.003 C 
ATOM     30  C   UNL     1     -14.569   1.579 -23.880  1.00  0.00     0.004 C 
ENDBRANCH  28  29
ENDBRANCH  27  28
ENDBRANCH  26  27
ENDBRANCH  25  26
ENDBRANCH  24  25
ENDBRANCH  23  24
ENDBRANCH  22  23
ENDBRANCH  21  22
ENDBRANCH  20  21
ENDBRANCH  19  20
ENDBRANCH  18  19
ENDBRANCH  17  18
ENDBRANCH   1  17
TORSDOF 26
ENDMDL
MODEL 7
REMARK VINA RESULT:    -5.334      2.059      5.678
REMARK INTER + INTRA:         -18.893
REMARK INTER:                 -13.653
REMARK INTRA:                  -5.240
REMARK UNBOUND:                -5.452
REMARK SMILES CCCCCCCCCCCCCCCCCCCCCCCCCCCC(=O)[O-]
REMARK SMILES IDX 15 1 16 2 17 3 18 4 19 5 20 6 21 7 22 8 23 9 24 10 25 11
REMARK SMILES IDX 26 12 27 13 28 14 29 15 30 16 14 17 13 18 12 19 11 20 10 21
REMARK SMILES IDX 9 22 8 23 7 24 6 25 5 26 4 27 3 28 2 29 1 30
REMARK H PARENT
REMARK Flexibility Score: inf
ROOT
ATOM      1  C   UNL     1     -17.652   3.901 -21.801  1.00  0.00     0.000 C 
ENDROOT
BRANCH   1   2
ATOM      2  C   UNL     1     -16.843   4.214 -20.530  1.00  0.00     0.000 C 
BRANCH   2   3
ATOM      3  C   UNL     1     -16.383   2.981 -19.731  1.00  0.00     0.000 C 
BRANCH   3   4
ATOM      4  C   UNL     1     -14.875   2.716 -19.848  1.00  0.00     0.000 C 
BRANCH   4   5
ATOM      5  C   UNL     1     -14.610   1.344 -20.485  1.00  0.00     0.000 C 
BRANCH   5   6
ATOM      6  C   UNL     1     -13.955   1.448 -21.871  1.00  0.00     0.000 C 
BRANCH   6   7
ATOM      7  C   UNL     1     -14.987   1.574 -23.006  1.00  0.00     0.000 C 
BRANCH   7   8
ATOM      8  C   UNL     1     -14.876   2.911 -23.755  1.00  0.00     0.000 C 
BRANCH   8   9
ATOM      9  C   UNL     1     -13.730   3.790 -23.225  1.00  0.00     0.000 C 
BRANCH   9  10
ATOM     10  C   UNL     1     -14.206   5.193 -22.813  1.00  0.00     0.000 C 
BRANCH  10  11
ATOM     11  C   UNL     1     -13.607   5.647 -21.470  1.00  0.00     0.000 C 
BRANCH  11  12
ATOM     12  C   UNL     1     -14.215   6.969 -20.966  1.00  0.00     0.006 C 
BRANCH  12  13
ATOM     13  C   UNL     1     -13.175   8.002 -20.504  1.00  0.00     0.053 C 
BRANCH  13  14
ATOM     14  C   UNL     1     -13.810   9.151 -19.783  1.00  0.00     0.041 C 
ATOM     15  O   UNL     1     -13.100  10.095 -19.344  1.00  0.00    -0.550 OA
ATOM     16  O   UNL     1     -15.181   9.166 -19.569  1.00  0.00    -0.550 OA
ENDBRANCH  13  14
ENDBRANCH  12  13
ENDBRANCH  11  12
ENDBRANCH  10  11
ENDBRANCH   9  10
ENDBRANCH   8   9
ENDBRANCH   7   8
ENDBRANCH   6   7
ENDBRANCH   5   6
ENDBRANCH   4   5
ENDBRANCH   3   4
ENDBRANCH   2   3
ENDBRANCH   1   2
BRANCH   1  17
ATOM     17  C   UNL     1     -17.858   5.130 -22.700  1.00  0.00     0.000 C 
BRANCH  17  18
ATOM     18  C   UNL     1     -18.159   4.709 -24.147  1.00  0.00     0.000 C 
BRANCH  18  19
ATOM     19  C   UNL     1     -17.814   5.814 -25.168  1.00  0.00     0.000 C 
BRANCH  19  20
ATOM     20  C   UNL     1     -16.304   6.044 -25.350  1.00  0.00     0.000 C 
BRANCH  20  21
ATOM     21  C   UNL     1     -15.895   7.515 -25.179  1.00  0.00     0.000 C 
BRANCH  21  22
ATOM     22  C   UNL     1     -16.664   8.224 -24.052  1.00  0.00    -0.000 C 
BRANCH  22  23
ATOM     23  C   UNL     1     -17.206   9.614 -24.449  1.00  0.00    -0.000 C 
BRANCH  23  24
ATOM     24  C   UNL     1     -18.451   9.519 -25.347  1.00  0.00    -0.000 C 
BRANCH  24  25
ATOM     25  C   UNL     1     -19.631   8.818 -24.655  1.00  0.00    -0.000 C 
BRANCH  25  26
ATOM     26  C   UNL     1     -20.583   9.808 -23.963  1.00  0.00    -0.000 C 
BRANCH  26  27
ATOM     27  C   UNL     1     -20.372   9.879 -22.439  1.00  0.00    -0.000 C 
BRANCH  27  28
ATOM     28  C   UNL     1     -19.948   8.557 -21.774  1.00  0.00    -0.000 C 
BRANCH  28  29
ATOM     29  C   UNL     1     -18.592   8.650 -21.060  1.00  0.00    -0.003 C 
ATOM     30  C   UNL     1     -18.247  10.097 -20.721  1.00  0.00     0.004 C 
ENDBRANCH  28  29
ENDBRANCH  27  28
ENDBRANCH  26  27
ENDBRANCH  25  26
ENDBRANCH  24  25
ENDBRANCH  23  24
ENDBRANCH  22  23
ENDBRANCH  21  22
ENDBRANCH  20  21
ENDBRANCH  19  20
ENDBRANCH  18  19
ENDBRANCH  17  18
ENDBRANCH   1  17
TORSDOF 26
ENDMDL
MODEL 8
REMARK VINA RESULT:    -5.319      4.359      8.070
REMARK INTER + INTRA:         -18.856
REMARK INTER:                 -14.587
REMARK INTRA:                  -4.268
REMARK UNBOUND:                -5.452
REMARK SMILES CCCCCCCCCCCCCCCCCCCCCCCCCCCC(=O)[O-]
REMARK SMILES IDX 15 1 16 2 17 3 18 4 19 5 20 6 21 7 22 8 23 9 24 10 25 11
REMARK SMILES IDX 26 12 27 13 28 14 29 15 30 16 14 17 13 18 12 19 11 20 10 21
REMARK SMILES IDX 9 22 8 23 7 24 6 25 5 26 4 27 3 28 2 29 1 30
REMARK H PARENT
REMARK Flexibility Score: inf
ROOT
ATOM      1  C   UNL     1     -16.202   3.151 -19.918  1.00  0.00     0.000 C 
ENDROOT
BRANCH   1   2
ATOM      2  C   UNL     1     -17.242   4.157 -20.442  1.00  0.00     0.000 C 
BRANCH   2   3
ATOM      3  C   UNL     1     -17.643   3.968 -21.916  1.00  0.00     0.000 C 
BRANCH   3   4
ATOM      4  C   UNL     1     -17.536   2.511 -22.389  1.00  0.00     0.000 C 
BRANCH   4   5
ATOM      5  C   UNL     1     -16.708   2.415 -23.679  1.00  0.00     0.000 C 
BRANCH   5   6
ATOM      6  C   UNL     1     -15.312   3.041 -23.539  1.00  0.00     0.000 C 
BRANCH   6   7
ATOM      7  C   UNL     1     -14.191   1.987 -23.515  1.00  0.00     0.000 C 
BRANCH   7   8
ATOM      8  C   UNL     1     -14.109   1.247 -22.171  1.00  0.00     0.000 C 
BRANCH   8   9
ATOM      9  C   UNL     1     -14.520  -0.231 -22.285  1.00  0.00     0.000 C 
BRANCH   9  10
ATOM     10  C   UNL     1     -15.250  -0.738 -21.029  1.00  0.00     0.000 C 
BRANCH  10  11
ATOM     11  C   UNL     1     -14.424  -0.533 -19.746  1.00  0.00     0.000 C 
BRANCH  11  12
ATOM     12  C   UNL     1     -13.880  -1.854 -19.173  1.00  0.00     0.006 C 
BRANCH  12  13
ATOM     13  C   UNL     1     -13.199  -2.757 -20.214  1.00  0.00     0.053 C 
BRANCH  13  14
ATOM     14  C   UNL     1     -12.373  -3.829 -19.570  1.00  0.00     0.041 C 
ATOM     15  O   UNL     1     -11.130  -3.874 -19.765  1.00  0.00    -0.550 OA
ATOM     16  O   UNL     1     -12.982  -4.795 -18.780  1.00  0.00    -0.550 OA
ENDBRANCH  13  14
ENDBRANCH  12  13
ENDBRANCH  11  12
ENDBRANCH  10  11
ENDBRANCH   9  10
ENDBRANCH   8   9
ENDBRANCH   7   8
ENDBRANCH   6   7
ENDBRANCH   5   6
ENDBRANCH   4   5
ENDBRANCH   3   4
ENDBRANCH   2   3
ENDBRANCH   1   2
BRANCH   1  17
ATOM     17  C   UNL     1     -14.783   3.738 -19.841  1.00  0.00     0.000 C 
BRANCH  17  18
ATOM     18  C   UNL     1     -14.781   5.225 -20.228  1.00  0.00     0.000 C 
BRANCH  18  19
ATOM     19  C   UNL     1     -13.375   5.732 -20.611  1.00  0.00     0.000 C 
BRANCH  19  20
ATOM     20  C   UNL     1     -13.372   7.126 -21.264  1.00  0.00     0.000 C 
BRANCH  20  21
ATOM     21  C   UNL     1     -13.510   8.267 -20.245  1.00  0.00     0.000 C 
BRANCH  21  22
ATOM     22  C   UNL     1     -14.430   9.399 -20.734  1.00  0.00    -0.000 C 
BRANCH  22  23
ATOM     23  C   UNL     1     -15.748   9.515 -19.937  1.00  0.00    -0.000 C 
BRANCH  23  24
ATOM     24  C   UNL     1     -16.987   9.332 -20.831  1.00  0.00    -0.000 C 
BRANCH  24  25
ATOM     25  C   UNL     1     -17.183   7.875 -21.282  1.00  0.00    -0.000 C 
BRANCH  25  26
ATOM     26  C   UNL     1     -17.612   7.766 -22.755  1.00  0.00    -0.000 C 
BRANCH  26  27
ATOM     27  C   UNL     1     -16.865   8.752 -23.672  1.00  0.00    -0.000 C 
BRANCH  27  28
ATOM     28  C   UNL     1     -15.931   8.104 -24.710  1.00  0.00    -0.000 C 
BRANCH  28  29
ATOM     29  C   UNL     1     -15.764   6.591 -24.506  1.00  0.00    -0.003 C 
ATOM     30  C   UNL     1     -16.321   5.811 -25.693  1.00  0.00     0.004 C 
ENDBRANCH  28  29
ENDBRANCH  27  28
ENDBRANCH  26  27
ENDBRANCH  25  26
ENDBRANCH  24  25
ENDBRANCH  23  24
ENDBRANCH  22  23
ENDBRANCH  21  22
ENDBRANCH  20  21
ENDBRANCH  19  20
ENDBRANCH  18  19
ENDBRANCH  17  18
ENDBRANCH   1  17
TORSDOF 26
ENDMDL
MODEL 9
REMARK VINA RESULT:    -5.297      4.138      7.474
REMARK INTER + INTRA:         -18.801
REMARK INTER:                 -14.194
REMARK INTRA:                  -4.607
REMARK UNBOUND:                -5.452
REMARK SMILES CCCCCCCCCCCCCCCCCCCCCCCCCCCC(=O)[O-]
REMARK SMILES IDX 15 1 16 2 17 3 18 4 19 5 20 6 21 7 22 8 23 9 24 10 25 11
REMARK SMILES IDX 26 12 27 13 28 14 29 15 30 16 14 17 13 18 12 19 11 20 10 21
REMARK SMILES IDX 9 22 8 23 7 24 6 25 5 26 4 27 3 28 2 29 1 30
REMARK H PARENT
REMARK Flexibility Score: inf
ROOT
ATOM      1  C   UNL     1     -16.384   5.595 -22.698  1.00  0.00     0.000 C 
ENDROOT
BRANCH   1   2
ATOM      2  C   UNL     1     -15.725   4.943 -23.926  1.00  0.00     0.000 C 
BRANCH   2   3
ATOM      3  C   UNL     1     -14.754   3.791 -23.609  1.00  0.00     0.000 C 
BRANCH   3   4
ATOM      4  C   UNL     1     -15.121   2.481 -24.322  1.00  0.00     0.000 C 
BRANCH   4   5
ATOM      5  C   UNL     1     -16.592   2.491 -24.762  1.00  0.00     0.000 C 
BRANCH   5   6
ATOM      6  C   UNL     1     -17.356   1.235 -24.315  1.00  0.00     0.000 C 
BRANCH   6   7
ATOM      7  C   UNL     1     -17.281   1.006 -22.795  1.00  0.00     0.000 C 
BRANCH   7   8
ATOM      8  C   UNL     1     -17.043  -0.469 -22.435  1.00  0.00     0.000 C 
BRANCH   8   9
ATOM      9  C   UNL     1     -15.556  -0.860 -22.499  1.00  0.00     0.000 C 
BRANCH   9  10
ATOM     10  C   UNL     1     -14.649   0.158 -21.788  1.00  0.00     0.000 C 
BRANCH  10  11
ATOM     11  C   UNL     1     -14.447  -0.173 -20.298  1.00  0.00     0.000 C 
BRANCH  11  12
ATOM     12  C   UNL     1     -14.498  -1.685 -20.014  1.00  0.00     0.006 C 
BRANCH  12  13
ATOM     13  C   UNL     1     -13.131  -2.311 -19.695  1.00  0.00     0.053 C 
BRANCH  13  14
ATOM     14  C   UNL     1     -13.047  -3.735 -20.152  1.00  0.00     0.041 C 
ATOM     15  O   UNL     1     -13.246  -4.026 -21.360  1.00  0.00    -0.550 OA
ATOM     16  O   UNL     1     -12.778  -4.744 -19.236  1.00  0.00    -0.550 OA
ENDBRANCH  13  14
ENDBRANCH  12  13
ENDBRANCH  11  12
ENDBRANCH  10  11
ENDBRANCH   9  10
ENDBRANCH   8   9
ENDBRANCH   7   8
ENDBRANCH   6   7
ENDBRANCH   5   6
ENDBRANCH   4   5
ENDBRANCH   3   4
ENDBRANCH   2   3
ENDBRANCH   1   2
BRANCH   1  17
ATOM     17  C   UNL     1     -17.829   5.124 -22.470  1.00  0.00     0.000 C 
BRANCH  17  18
ATOM     18  C   UNL     1     -17.874   3.936 -21.496  1.00  0.00     0.000 C 
BRANCH  18  19
ATOM     19  C   UNL     1     -17.001   4.165 -20.245  1.00  0.00     0.000 C 
BRANCH  19  20
ATOM     20  C   UNL     1     -15.925   3.086 -20.030  1.00  0.00     0.000 C 
BRANCH  20  21
ATOM     21  C   UNL     1     -14.495   3.642 -20.099  1.00  0.00     0.000 C 
BRANCH  21  22
ATOM     22  C   UNL     1     -14.429   5.161 -19.861  1.00  0.00    -0.000 C 
BRANCH  22  23
ATOM     23  C   UNL     1     -13.385   5.882 -20.741  1.00  0.00    -0.000 C 
BRANCH  23  24
ATOM     24  C   UNL     1     -13.468   7.413 -20.606  1.00  0.00    -0.000 C 
BRANCH  24  25
ATOM     25  C   UNL     1     -14.739   7.876 -19.876  1.00  0.00    -0.000 C 
BRANCH  25  26
ATOM     26  C   UNL     1     -15.263   9.223 -20.402  1.00  0.00    -0.000 C 
BRANCH  26  27
ATOM     27  C   UNL     1     -15.489   9.226 -21.925  1.00  0.00    -0.000 C 
BRANCH  27  28
ATOM     28  C   UNL     1     -16.940   8.967 -22.373  1.00  0.00    -0.000 C 
BRANCH  28  29
ATOM     29  C   UNL     1     -17.159   9.215 -23.872  1.00  0.00    -0.003 C 
ATOM     30  C   UNL     1     -16.035   8.604 -24.702  1.00  0.00     0.004 C 
ENDBRANCH  28  29
ENDBRANCH  27  28
ENDBRANCH  26  27
ENDBRANCH  25  26
ENDBRANCH  24  25
ENDBRANCH  23  24
ENDBRANCH  22  23
ENDBRANCH  21  22
ENDBRANCH  20  21
ENDBRANCH  19  20
ENDBRANCH  18  19
ENDBRANCH  17  18
ENDBRANCH   1  17
TORSDOF 26
ENDMDL
