MODEL 1
REMARK VINA RESULT:    -7.891      0.000      0.000
REMARK INTER + INTRA:          -9.422
REMARK INTER:                  -9.506
REMARK INTRA:                   0.084
REMARK UNBOUND:                 0.084
REMARK SMILES O=c1c(O)c(-c2ccc(O)c(O)c2)oc2cc(O)cc(O)c12
REMARK SMILES IDX 5 1 3 2 2 3 1 4 22 5 20 6 19 7 17 8 16 9 15 10 14 11 6 12
REMARK SMILES IDX 7 13 8 14 9 15 13 16 11 17 10 18 12 20 4 22 21 24 18 26
REMARK H PARENT 10 19 12 21 4 23 21 25 18 27
REMARK Flexibility Score: inf
ROOT
ATOM      1  C   UNL     1     127.736 -12.502 193.100  1.00  0.00     0.180 A 
ATOM      2  C   UNL     1     127.940 -11.152 193.434  1.00  0.00     0.208 A 
ATOM      3  C   UNL     1     129.021 -10.812 194.263  1.00  0.00     0.238 A 
ATOM      4  O   UNL     1     129.230  -9.596 194.514  1.00  0.00    -0.285 OA
ATOM      5  C   UNL     1     129.873 -11.825 194.761  1.00  0.00     0.111 A 
ATOM      6  C   UNL     1     130.974 -11.599 195.641  1.00  0.00     0.134 A 
ATOM      7  C   UNL     1     131.828 -12.660 195.965  1.00  0.00     0.093 A 
ATOM      8  C   UNL     1     131.584 -13.952 195.493  1.00  0.00     0.123 A 
ATOM      9  C   UNL     1     130.478 -14.194 194.683  1.00  0.00     0.094 A 
ATOM     10  C   UNL     1     129.628 -13.150 194.312  1.00  0.00     0.146 A 
ATOM     11  O   UNL     1     128.591 -13.422 193.529  1.00  0.00    -0.452 OA
ENDROOT
BRANCH   1  12
ATOM     12  C   UNL     1     126.605 -12.941 192.251  1.00  0.00     0.025 A 
ATOM     13  C   UNL     1     125.316 -12.402 192.413  1.00  0.00     0.016 A 
ATOM     14  C   UNL     1     124.259 -12.850 191.616  1.00  0.00     0.051 A 
ATOM     15  C   UNL     1     124.468 -13.850 190.659  1.00  0.00     0.157 A 
ATOM     16  C   UNL     1     126.805 -13.959 191.305  1.00  0.00     0.062 A 
ATOM     17  C   UNL     1     125.748 -14.410 190.505  1.00  0.00     0.158 A 
BRANCH  15  18
ATOM     18  O   UNL     1     123.411 -14.293 189.865  1.00  0.00    -0.504 OA
ATOM     19  H   UNL     1     123.209 -13.869 188.967  1.00  0.00     0.293 HD
ENDBRANCH  15  18
BRANCH  17  20
ATOM     20  O   UNL     1     125.988 -15.412 189.566  1.00  0.00    -0.504 OA
ATOM     21  H   UNL     1     125.758 -16.382 189.744  1.00  0.00     0.293 HD
ENDBRANCH  17  20
ENDBRANCH   1  12
BRANCH   2  22
ATOM     22  O   UNL     1     127.099 -10.164 192.913  1.00  0.00    -0.502 OA
ATOM     23  H   UNL     1     127.449  -9.280 192.563  1.00  0.00     0.293 HD
ENDBRANCH   2  22
BRANCH   6  24
ATOM     24  O   UNL     1     131.254 -10.367 196.241  1.00  0.00    -0.507 OA
ATOM     25  H   UNL     1     131.938 -10.225 196.968  1.00  0.00     0.293 HD
ENDBRANCH   6  24
BRANCH   8  26
ATOM     26  O   UNL     1     132.430 -15.005 195.834  1.00  0.00    -0.508 OA
ATOM     27  H   UNL     1     133.386 -15.045 195.502  1.00  0.00     0.293 HD
ENDBRANCH   8  26
TORSDOF 6
ENDMDL
MODEL 2
REMARK VINA RESULT:    -7.633      4.685     10.708
REMARK INTER + INTRA:          -9.111
REMARK INTER:                  -9.326
REMARK INTRA:                   0.215
REMARK UNBOUND:                 0.084
REMARK SMILES O=c1c(O)c(-c2ccc(O)c(O)c2)oc2cc(O)cc(O)c12
REMARK SMILES IDX 5 1 3 2 2 3 1 4 22 5 20 6 19 7 17 8 16 9 15 10 14 11 6 12
REMARK SMILES IDX 7 13 8 14 9 15 13 16 11 17 10 18 12 20 4 22 21 24 18 26
REMARK H PARENT 10 19 12 21 4 23 21 25 18 27
REMARK Flexibility Score: inf
ROOT
ATOM      1  C   UNL     1     122.814 -14.539 188.126  1.00  0.00     0.180 A 
ATOM      2  C   UNL     1     123.280 -14.835 186.834  1.00  0.00     0.208 A 
ATOM      3  C   UNL     1     122.347 -15.093 185.817  1.00  0.00     0.238 A 
ATOM      4  O   UNL     1     122.768 -15.304 184.650  1.00  0.00    -0.285 OA
ATOM      5  C   UNL     1     120.963 -15.069 186.108  1.00  0.00     0.111 A 
ATOM      6  C   UNL     1     119.930 -15.356 185.164  1.00  0.00     0.134 A 
ATOM      7  C   UNL     1     118.591 -15.174 185.530  1.00  0.00     0.093 A 
ATOM      8  C   UNL     1     118.245 -14.779 186.825  1.00  0.00     0.123 A 
ATOM      9  C   UNL     1     119.242 -14.555 187.770  1.00  0.00     0.094 A 
ATOM     10  C   UNL     1     120.589 -14.693 187.425  1.00  0.00     0.146 A 
ATOM     11  O   UNL     1     121.509 -14.459 188.353  1.00  0.00    -0.452 OA
ENDROOT
BRANCH   1  12
ATOM     12  C   UNL     1     123.737 -14.280 189.256  1.00  0.00     0.025 A 
ATOM     13  C   UNL     1     123.460 -13.287 190.213  1.00  0.00     0.016 A 
ATOM     14  C   UNL     1     124.357 -13.044 191.257  1.00  0.00     0.051 A 
ATOM     15  C   UNL     1     125.547 -13.776 191.353  1.00  0.00     0.157 A 
ATOM     16  C   UNL     1     124.941 -14.996 189.344  1.00  0.00     0.062 A 
ATOM     17  C   UNL     1     125.842 -14.755 190.389  1.00  0.00     0.158 A 
BRANCH  15  18
ATOM     18  O   UNL     1     126.438 -13.531 192.396  1.00  0.00    -0.504 OA
ATOM     19  H   UNL     1     126.518 -12.615 192.821  1.00  0.00     0.293 HD
ENDBRANCH  15  18
BRANCH  17  20
ATOM     20  O   UNL     1     127.021 -15.496 190.452  1.00  0.00    -0.504 OA
ATOM     21  H   UNL     1     127.127 -16.286 191.076  1.00  0.00     0.293 HD
ENDBRANCH  17  20
ENDBRANCH   1  12
BRANCH   2  22
ATOM     22  O   UNL     1     124.652 -14.832 186.562  1.00  0.00    -0.502 OA
ATOM     23  H   UNL     1     125.153 -15.666 186.283  1.00  0.00     0.293 HD
ENDBRANCH   2  22
BRANCH   6  24
ATOM     24  O   UNL     1     120.164 -15.843 183.876  1.00  0.00    -0.507 OA
ATOM     25  H   UNL     1     120.849 -15.470 183.236  1.00  0.00     0.293 HD
ENDBRANCH   6  24
BRANCH   8  26
ATOM     26  O   UNL     1     116.908 -14.616 187.185  1.00  0.00    -0.508 OA
ATOM     27  H   UNL     1     116.342 -15.399 187.488  1.00  0.00     0.293 HD
ENDBRANCH   8  26
TORSDOF 6
ENDMDL
MODEL 3
REMARK VINA RESULT:    -7.573      2.717      6.897
REMARK INTER + INTRA:          -9.039
REMARK INTER:                  -8.711
REMARK INTRA:                  -0.328
REMARK UNBOUND:                 0.084
REMARK SMILES O=c1c(O)c(-c2ccc(O)c(O)c2)oc2cc(O)cc(O)c12
REMARK SMILES IDX 5 1 3 2 2 3 1 4 22 5 20 6 19 7 17 8 16 9 15 10 14 11 6 12
REMARK SMILES IDX 7 13 8 14 9 15 13 16 11 17 10 18 12 20 4 22 21 24 18 26
REMARK H PARENT 10 19 12 21 4 23 21 25 18 27
REMARK Flexibility Score: inf
ROOT
ATOM      1  C   UNL     1     129.266 -11.364 193.344  1.00  0.00     0.180 A 
ATOM      2  C   UNL     1     127.878 -11.498 193.519  1.00  0.00     0.208 A 
ATOM      3  C   UNL     1     127.026 -11.221 192.437  1.00  0.00     0.238 A 
ATOM      4  O   UNL     1     125.788 -11.395 192.583  1.00  0.00    -0.285 OA
ATOM      5  C   UNL     1     127.571 -10.799 191.201  1.00  0.00     0.111 A 
ATOM      6  C   UNL     1     126.799 -10.453 190.051  1.00  0.00     0.134 A 
ATOM      7  C   UNL     1     127.449 -10.175 188.843  1.00  0.00     0.093 A 
ATOM      8  C   UNL     1     128.844 -10.167 188.759  1.00  0.00     0.123 A 
ATOM      9  C   UNL     1     129.605 -10.445 189.890  1.00  0.00     0.094 A 
ATOM     10  C   UNL     1     128.986 -10.762 191.101  1.00  0.00     0.146 A 
ATOM     11  O   UNL     1     129.750 -11.031 192.154  1.00  0.00    -0.452 OA
ENDROOT
BRANCH   1  12
ATOM     12  C   UNL     1     130.226 -11.615 194.443  1.00  0.00     0.025 A 
ATOM     13  C   UNL     1     130.544 -10.614 195.379  1.00  0.00     0.016 A 
ATOM     14  C   UNL     1     131.471 -10.865 196.394  1.00  0.00     0.051 A 
ATOM     15  C   UNL     1     132.104 -12.112 196.482  1.00  0.00     0.157 A 
ATOM     16  C   UNL     1     130.879 -12.855 194.523  1.00  0.00     0.062 A 
ATOM     17  C   UNL     1     131.808 -13.111 195.539  1.00  0.00     0.158 A 
BRANCH  15  18
ATOM     18  O   UNL     1     133.027 -12.360 197.496  1.00  0.00    -0.504 OA
ATOM     19  H   UNL     1     132.958 -11.904 198.399  1.00  0.00     0.293 HD
ENDBRANCH  15  18
BRANCH  17  20
ATOM     20  O   UNL     1     132.425 -14.359 195.594  1.00  0.00    -0.504 OA
ATOM     21  H   UNL     1     132.562 -14.854 196.468  1.00  0.00     0.293 HD
ENDBRANCH  17  20
ENDBRANCH   1  12
BRANCH   2  22
ATOM     22  O   UNL     1     127.362 -11.938 194.741  1.00  0.00    -0.502 OA
ATOM     23  H   UNL     1     126.613 -11.453 195.222  1.00  0.00     0.293 HD
ENDBRANCH   2  22
BRANCH   6  24
ATOM     24  O   UNL     1     125.406 -10.342 190.050  1.00  0.00    -0.507 OA
ATOM     25  H   UNL     1     124.864  -9.908 189.318  1.00  0.00     0.293 HD
ENDBRANCH   6  24
BRANCH   8  26
ATOM     26  O   UNL     1     129.482  -9.873 187.556  1.00  0.00    -0.508 OA
ATOM     27  H   UNL     1     130.273  -9.241 187.516  1.00  0.00     0.293 HD
ENDBRANCH   8  26
TORSDOF 6
ENDMDL
MODEL 4
REMARK VINA RESULT:    -7.435      6.632      9.422
REMARK INTER + INTRA:          -8.872
REMARK INTER:                  -8.538
REMARK INTRA:                  -0.335
REMARK UNBOUND:                 0.084
REMARK SMILES O=c1c(O)c(-c2ccc(O)c(O)c2)oc2cc(O)cc(O)c12
REMARK SMILES IDX 5 1 3 2 2 3 1 4 22 5 20 6 19 7 17 8 16 9 15 10 14 11 6 12
REMARK SMILES IDX 7 13 8 14 9 15 13 16 11 17 10 18 12 20 4 22 21 24 18 26
REMARK H PARENT 10 19 12 21 4 23 21 25 18 27
REMARK Flexibility Score: inf
ROOT
ATOM      1  C   UNL     1     122.373 -14.314 186.458  1.00  0.00     0.180 A 
ATOM      2  C   UNL     1     123.186 -15.198 187.187  1.00  0.00     0.208 A 
ATOM      3  C   UNL     1     124.415 -14.737 187.687  1.00  0.00     0.238 A 
ATOM      4  O   UNL     1     125.114 -15.517 188.385  1.00  0.00    -0.285 OA
ATOM      5  C   UNL     1     124.822 -13.406 187.438  1.00  0.00     0.111 A 
ATOM      6  C   UNL     1     126.065 -12.845 187.861  1.00  0.00     0.134 A 
ATOM      7  C   UNL     1     126.305 -11.478 187.672  1.00  0.00     0.093 A 
ATOM      8  C   UNL     1     125.376 -10.667 187.017  1.00  0.00     0.123 A 
ATOM      9  C   UNL     1     124.187 -11.217 186.547  1.00  0.00     0.094 A 
ATOM     10  C   UNL     1     123.902 -12.569 186.753  1.00  0.00     0.146 A 
ATOM     11  O   UNL     1     122.751 -13.052 186.298  1.00  0.00    -0.452 OA
ENDROOT
BRANCH   1  12
ATOM     12  C   UNL     1     121.075 -14.733 185.879  1.00  0.00     0.025 A 
ATOM     13  C   UNL     1     120.996 -15.297 184.594  1.00  0.00     0.016 A 
ATOM     14  C   UNL     1     119.758 -15.663 184.059  1.00  0.00     0.051 A 
ATOM     15  C   UNL     1     118.582 -15.458 184.790  1.00  0.00     0.157 A 
ATOM     16  C   UNL     1     119.891 -14.510 186.601  1.00  0.00     0.062 A 
ATOM     17  C   UNL     1     118.649 -14.875 186.067  1.00  0.00     0.158 A 
BRANCH  15  18
ATOM     18  O   UNL     1     117.349 -15.825 184.254  1.00  0.00    -0.504 OA
ATOM     19  H   UNL     1     116.942 -15.327 183.471  1.00  0.00     0.293 HD
ENDBRANCH  15  18
BRANCH  17  20
ATOM     20  O   UNL     1     117.497 -14.650 186.819  1.00  0.00    -0.504 OA
ATOM     21  H   UNL     1     116.571 -14.701 186.412  1.00  0.00     0.293 HD
ENDBRANCH  17  20
ENDBRANCH   1  12
BRANCH   2  22
ATOM     22  O   UNL     1     122.755 -16.504 187.441  1.00  0.00    -0.502 OA
ATOM     23  H   UNL     1     123.395 -17.251 187.684  1.00  0.00     0.293 HD
ENDBRANCH   2  22
BRANCH   6  24
ATOM     24  O   UNL     1     127.097 -13.586 188.443  1.00  0.00    -0.507 OA
ATOM     25  H   UNL     1     127.538 -14.388 188.018  1.00  0.00     0.293 HD
ENDBRANCH   6  24
BRANCH   8  26
ATOM     26  O   UNL     1     125.631  -9.311 186.819  1.00  0.00    -0.508 OA
ATOM     27  H   UNL     1     125.046  -8.744 186.217  1.00  0.00     0.293 HD
ENDBRANCH   8  26
TORSDOF 6
ENDMDL
MODEL 5
REMARK VINA RESULT:    -7.416      3.250      8.922
REMARK INTER + INTRA:          -8.849
REMARK INTER:                  -8.522
REMARK INTRA:                  -0.327
REMARK UNBOUND:                 0.084
REMARK SMILES O=c1c(O)c(-c2ccc(O)c(O)c2)oc2cc(O)cc(O)c12
REMARK SMILES IDX 5 1 3 2 2 3 1 4 22 5 20 6 19 7 17 8 16 9 15 10 14 11 6 12
REMARK SMILES IDX 7 13 8 14 9 15 13 16 11 17 10 18 12 20 4 22 21 24 18 26
REMARK H PARENT 10 19 12 21 4 23 21 25 18 27
REMARK Flexibility Score: inf
ROOT
ATOM      1  C   UNL     1     124.980 -13.596 189.484  1.00  0.00     0.180 A 
ATOM      2  C   UNL     1     125.707 -13.815 188.301  1.00  0.00     0.208 A 
ATOM      3  C   UNL     1     125.040 -14.331 187.179  1.00  0.00     0.238 A 
ATOM      4  O   UNL     1     125.683 -14.474 186.106  1.00  0.00    -0.285 OA
ATOM      5  C   UNL     1     123.661 -14.636 187.257  1.00  0.00     0.111 A 
ATOM      6  C   UNL     1     122.893 -15.201 186.194  1.00  0.00     0.134 A 
ATOM      7  C   UNL     1     121.508 -15.340 186.341  1.00  0.00     0.093 A 
ATOM      8  C   UNL     1     120.871 -14.995 187.536  1.00  0.00     0.123 A 
ATOM      9  C   UNL     1     121.620 -14.500 188.600  1.00  0.00     0.094 A 
ATOM     10  C   UNL     1     122.998 -14.315 188.471  1.00  0.00     0.146 A 
ATOM     11  O   UNL     1     123.673 -13.830 189.507  1.00  0.00    -0.452 OA
ENDROOT
BRANCH   1  12
ATOM     12  C   UNL     1     125.618 -13.077 190.716  1.00  0.00     0.025 A 
ATOM     13  C   UNL     1     126.275 -13.935 191.616  1.00  0.00     0.016 A 
ATOM     14  C   UNL     1     126.849 -13.426 192.784  1.00  0.00     0.051 A 
ATOM     15  C   UNL     1     126.764 -12.059 193.078  1.00  0.00     0.157 A 
ATOM     16  C   UNL     1     125.516 -11.711 191.025  1.00  0.00     0.062 A 
ATOM     17  C   UNL     1     126.090 -11.198 192.195  1.00  0.00     0.158 A 
BRANCH  15  18
ATOM     18  O   UNL     1     127.338 -11.555 194.243  1.00  0.00    -0.504 OA
ATOM     19  H   UNL     1     127.568 -12.158 195.025  1.00  0.00     0.293 HD
ENDBRANCH  15  18
BRANCH  17  20
ATOM     20  O   UNL     1     125.981  -9.834 192.461  1.00  0.00    -0.504 OA
ATOM     21  H   UNL     1     125.220  -9.274 192.097  1.00  0.00     0.293 HD
ENDBRANCH  17  20
ENDBRANCH   1  12
BRANCH   2  22
ATOM     22  O   UNL     1     127.064 -13.486 188.238  1.00  0.00    -0.502 OA
ATOM     23  H   UNL     1     127.756 -14.104 187.833  1.00  0.00     0.293 HD
ENDBRANCH   2  22
BRANCH   6  24
ATOM     24  O   UNL     1     123.443 -15.663 184.995  1.00  0.00    -0.507 OA
ATOM     25  H   UNL     1     124.431 -15.739 184.807  1.00  0.00     0.293 HD
ENDBRANCH   6  24
BRANCH   8  26
ATOM     26  O   UNL     1     119.494 -15.152 187.679  1.00  0.00    -0.508 OA
ATOM     27  H   UNL     1     118.955 -14.561 188.300  1.00  0.00     0.293 HD
ENDBRANCH   8  26
TORSDOF 6
ENDMDL
MODEL 6
REMARK VINA RESULT:    -7.384      2.224      3.441
REMARK INTER + INTRA:          -8.811
REMARK INTER:                  -8.480
REMARK INTRA:                  -0.331
REMARK UNBOUND:                 0.084
REMARK SMILES O=c1c(O)c(-c2ccc(O)c(O)c2)oc2cc(O)cc(O)c12
REMARK SMILES IDX 5 1 3 2 2 3 1 4 22 5 20 6 19 7 17 8 16 9 15 10 14 11 6 12
REMARK SMILES IDX 7 13 8 14 9 15 13 16 11 17 10 18 12 20 4 22 21 24 18 26
REMARK H PARENT 10 19 12 21 4 23 21 25 18 27
REMARK Flexibility Score: inf
ROOT
ATOM      1  C   UNL     1     125.816 -13.041 190.542  1.00  0.00     0.180 A 
ATOM      2  C   UNL     1     125.690 -11.654 190.728  1.00  0.00     0.208 A 
ATOM      3  C   UNL     1     126.407 -11.038 191.767  1.00  0.00     0.238 A 
ATOM      4  O   UNL     1     126.332  -9.788 191.895  1.00  0.00    -0.285 OA
ATOM      5  C   UNL     1     127.227 -11.819 192.616  1.00  0.00     0.111 A 
ATOM      6  C   UNL     1     127.966 -11.307 193.725  1.00  0.00     0.134 A 
ATOM      7  C   UNL     1     128.846 -12.148 194.415  1.00  0.00     0.093 A 
ATOM      8  C   UNL     1     128.965 -13.499 194.078  1.00  0.00     0.123 A 
ATOM      9  C   UNL     1     128.204 -14.022 193.037  1.00  0.00     0.094 A 
ATOM     10  C   UNL     1     127.344 -13.199 192.305  1.00  0.00     0.146 A 
ATOM     11  O   UNL     1     126.644 -13.736 191.313  1.00  0.00    -0.452 OA
ENDROOT
BRANCH   1  12
ATOM     12  C   UNL     1     125.073 -13.765 189.485  1.00  0.00     0.025 A 
ATOM     13  C   UNL     1     123.763 -14.229 189.697  1.00  0.00     0.016 A 
ATOM     14  C   UNL     1     123.091 -14.931 188.693  1.00  0.00     0.051 A 
ATOM     15  C   UNL     1     123.719 -15.191 187.469  1.00  0.00     0.157 A 
ATOM     16  C   UNL     1     125.707 -14.047 188.264  1.00  0.00     0.062 A 
ATOM     17  C   UNL     1     125.037 -14.749 187.255  1.00  0.00     0.158 A 
BRANCH  15  18
ATOM     18  O   UNL     1     123.046 -15.890 186.469  1.00  0.00    -0.504 OA
ATOM     19  H   UNL     1     122.979 -15.530 185.524  1.00  0.00     0.293 HD
ENDBRANCH  15  18
BRANCH  17  20
ATOM     20  O   UNL     1     125.693 -14.999 186.051  1.00  0.00    -0.504 OA
ATOM     21  H   UNL     1     125.655 -15.902 185.594  1.00  0.00     0.293 HD
ENDBRANCH  17  20
ENDBRANCH   1  12
BRANCH   2  22
ATOM     22  O   UNL     1     124.891 -10.897 189.864  1.00  0.00    -0.502 OA
ATOM     23  H   UNL     1     125.282 -10.303 189.143  1.00  0.00     0.293 HD
ENDBRANCH   2  22
BRANCH   6  24
ATOM     24  O   UNL     1     127.851  -9.997 194.201  1.00  0.00    -0.507 OA
ATOM     25  H   UNL     1     127.769  -9.179 193.617  1.00  0.00     0.293 HD
ENDBRANCH   6  24
BRANCH   8  26
ATOM     26  O   UNL     1     129.832 -14.333 194.782  1.00  0.00    -0.508 OA
ATOM     27  H   UNL     1     130.697 -14.665 194.371  1.00  0.00     0.293 HD
ENDBRANCH   8  26
TORSDOF 6
ENDMDL
MODEL 7
REMARK VINA RESULT:    -7.192      1.976      7.390
REMARK INTER + INTRA:          -8.579
REMARK INTER:                  -8.512
REMARK INTRA:                  -0.067
REMARK UNBOUND:                 0.084
REMARK SMILES O=c1c(O)c(-c2ccc(O)c(O)c2)oc2cc(O)cc(O)c12
REMARK SMILES IDX 5 1 3 2 2 3 1 4 22 5 20 6 19 7 17 8 16 9 15 10 14 11 6 12
REMARK SMILES IDX 7 13 8 14 9 15 13 16 11 17 10 18 12 20 4 22 21 24 18 26
REMARK H PARENT 10 19 12 21 4 23 21 25 18 27
REMARK Flexibility Score: inf
ROOT
ATOM      1  C   UNL     1     128.147 -12.065 192.728  1.00  0.00     0.180 A 
ATOM      2  C   UNL     1     127.738 -13.399 192.557  1.00  0.00     0.208 A 
ATOM      3  C   UNL     1     126.759 -13.692 191.595  1.00  0.00     0.238 A 
ATOM      4  O   UNL     1     126.435 -14.894 191.408  1.00  0.00    -0.285 OA
ATOM      5  C   UNL     1     126.189 -12.648 190.828  1.00  0.00     0.111 A 
ATOM      6  C   UNL     1     125.160 -12.826 189.854  1.00  0.00     0.134 A 
ATOM      7  C   UNL     1     124.764 -11.740 189.063  1.00  0.00     0.093 A 
ATOM      8  C   UNL     1     125.314 -10.470 189.255  1.00  0.00     0.123 A 
ATOM      9  C   UNL     1     126.275 -10.274 190.243  1.00  0.00     0.094 A 
ATOM     10  C   UNL     1     126.716 -11.345 191.023  1.00  0.00     0.146 A 
ATOM     11  O   UNL     1     127.642 -11.117 191.948  1.00  0.00    -0.452 OA
ENDROOT
BRANCH   1  12
ATOM     12  C   UNL     1     129.157 -11.674 193.738  1.00  0.00     0.025 A 
ATOM     13  C   UNL     1     130.439 -12.250 193.752  1.00  0.00     0.016 A 
ATOM     14  C   UNL     1     131.368 -11.883 194.730  1.00  0.00     0.051 A 
ATOM     15  C   UNL     1     131.027 -10.948 195.715  1.00  0.00     0.157 A 
ATOM     16  C   UNL     1     128.812 -10.753 194.740  1.00  0.00     0.062 A 
ATOM     17  C   UNL     1     129.740 -10.382 195.721  1.00  0.00     0.158 A 
BRANCH  15  18
ATOM     18  O   UNL     1     131.955 -10.583 196.687  1.00  0.00    -0.504 OA
ATOM     19  H   UNL     1     131.953  -9.658 197.102  1.00  0.00     0.293 HD
ENDBRANCH  15  18
BRANCH  17  20
ATOM     20  O   UNL     1     129.366  -9.454 196.692  1.00  0.00    -0.504 OA
ATOM     21  H   UNL     1     129.537  -9.608 197.678  1.00  0.00     0.293 HD
ENDBRANCH  17  20
ENDBRANCH   1  12
BRANCH   2  22
ATOM     22  O   UNL     1     128.329 -14.418 193.309  1.00  0.00    -0.502 OA
ATOM     23  H   UNL     1     129.319 -14.430 193.526  1.00  0.00     0.293 HD
ENDBRANCH   2  22
BRANCH   6  24
ATOM     24  O   UNL     1     124.482 -14.030 189.645  1.00  0.00    -0.507 OA
ATOM     25  H   UNL     1     123.905 -14.491 190.333  1.00  0.00     0.293 HD
ENDBRANCH   6  24
BRANCH   8  26
ATOM     26  O   UNL     1     124.902  -9.392 188.473  1.00  0.00    -0.508 OA
ATOM     27  H   UNL     1     125.079  -9.362 187.476  1.00  0.00     0.293 HD
ENDBRANCH   8  26
TORSDOF 6
ENDMDL
MODEL 8
REMARK VINA RESULT:    -7.081      5.638      9.139
REMARK INTER + INTRA:          -8.446
REMARK INTER:                  -8.852
REMARK INTRA:                   0.407
REMARK UNBOUND:                 0.084
REMARK SMILES O=c1c(O)c(-c2ccc(O)c(O)c2)oc2cc(O)cc(O)c12
REMARK SMILES IDX 5 1 3 2 2 3 1 4 22 5 20 6 19 7 17 8 16 9 15 10 14 11 6 12
REMARK SMILES IDX 7 13 8 14 9 15 13 16 11 17 10 18 12 20 4 22 21 24 18 26
REMARK H PARENT 10 19 12 21 4 23 21 25 18 27
REMARK Flexibility Score: inf
ROOT
ATOM      1  C   UNL     1     121.956 -14.725 186.857  1.00  0.00     0.180 A 
ATOM      2  C   UNL     1     123.233 -14.924 186.304  1.00  0.00     0.208 A 
ATOM      3  C   UNL     1     124.364 -14.590 187.067  1.00  0.00     0.238 A 
ATOM      4  O   UNL     1     125.505 -14.821 186.589  1.00  0.00    -0.285 OA
ATOM      5  C   UNL     1     124.204 -14.046 188.363  1.00  0.00     0.111 A 
ATOM      6  C   UNL     1     125.278 -13.634 189.208  1.00  0.00     0.134 A 
ATOM      7  C   UNL     1     125.008 -13.232 190.522  1.00  0.00     0.093 A 
ATOM      8  C   UNL     1     123.697 -13.165 191.000  1.00  0.00     0.123 A 
ATOM      9  C   UNL     1     122.638 -13.508 190.165  1.00  0.00     0.094 A 
ATOM     10  C   UNL     1     122.878 -13.948 188.861  1.00  0.00     0.146 A 
ATOM     11  O   UNL     1     121.840 -14.275 188.100  1.00  0.00    -0.452 OA
ENDROOT
BRANCH   1  12
ATOM     12  C   UNL     1     120.717 -15.030 186.106  1.00  0.00     0.025 A 
ATOM     13  C   UNL     1     120.738 -15.249 184.717  1.00  0.00     0.016 A 
ATOM     14  C   UNL     1     119.552 -15.513 184.025  1.00  0.00     0.051 A 
ATOM     15  C   UNL     1     118.329 -15.547 184.705  1.00  0.00     0.157 A 
ATOM     16  C   UNL     1     119.485 -15.044 186.780  1.00  0.00     0.062 A 
ATOM     17  C   UNL     1     118.295 -15.307 186.090  1.00  0.00     0.158 A 
BRANCH  15  18
ATOM     18  O   UNL     1     117.148 -15.811 184.013  1.00  0.00    -0.504 OA
ATOM     19  H   UNL     1     116.837 -15.219 183.252  1.00  0.00     0.293 HD
ENDBRANCH  15  18
BRANCH  17  20
ATOM     20  O   UNL     1     117.093 -15.327 186.796  1.00  0.00    -0.504 OA
ATOM     21  H   UNL     1     116.224 -15.627 186.370  1.00  0.00     0.293 HD
ENDBRANCH  17  20
ENDBRANCH   1  12
BRANCH   2  22
ATOM     22  O   UNL     1     123.369 -15.483 185.030  1.00  0.00    -0.502 OA
ATOM     23  H   UNL     1     122.733 -16.185 184.673  1.00  0.00     0.293 HD
ENDBRANCH   2  22
BRANCH   6  24
ATOM     24  O   UNL     1     126.614 -13.575 188.800  1.00  0.00    -0.507 OA
ATOM     25  H   UNL     1     127.335 -14.215 189.099  1.00  0.00     0.293 HD
ENDBRANCH   6  24
BRANCH   8  26
ATOM     26  O   UNL     1     123.437 -12.749 192.304  1.00  0.00    -0.508 OA
ATOM     27  H   UNL     1     122.592 -13.026 192.790  1.00  0.00     0.293 HD
ENDBRANCH   8  26
TORSDOF 6
ENDMDL
MODEL 9
REMARK VINA RESULT:    -7.068      3.135      8.674
REMARK INTER + INTRA:          -8.431
REMARK INTER:                  -8.109
REMARK INTRA:                  -0.322
REMARK UNBOUND:                 0.084
REMARK SMILES O=c1c(O)c(-c2ccc(O)c(O)c2)oc2cc(O)cc(O)c12
REMARK SMILES IDX 5 1 3 2 2 3 1 4 22 5 20 6 19 7 17 8 16 9 15 10 14 11 6 12
REMARK SMILES IDX 7 13 8 14 9 15 13 16 11 17 10 18 12 20 4 22 21 24 18 26
REMARK H PARENT 10 19 12 21 4 23 21 25 18 27
REMARK Flexibility Score: inf
ROOT
ATOM      1  C   UNL     1     124.799 -13.388 189.696  1.00  0.00     0.180 A 
ATOM      2  C   UNL     1     123.456 -13.786 189.803  1.00  0.00     0.208 A 
ATOM      3  C   UNL     1     122.778 -14.211 188.650  1.00  0.00     0.238 A 
ATOM      4  O   UNL     1     121.592 -14.618 188.761  1.00  0.00    -0.285 OA
ATOM      5  C   UNL     1     123.445 -14.217 187.402  1.00  0.00     0.111 A 
ATOM      6  C   UNL     1     122.843 -14.590 186.162  1.00  0.00     0.134 A 
ATOM      7  C   UNL     1     123.634 -14.683 185.011  1.00  0.00     0.093 A 
ATOM      8  C   UNL     1     124.992 -14.355 185.041  1.00  0.00     0.123 A 
ATOM      9  C   UNL     1     125.575 -13.933 186.233  1.00  0.00     0.094 A 
ATOM     10  C   UNL     1     124.820 -13.864 187.406  1.00  0.00     0.146 A 
ATOM     11  O   UNL     1     125.417 -13.467 188.523  1.00  0.00    -0.452 OA
ENDROOT
BRANCH   1  12
ATOM     12  C   UNL     1     125.574 -12.904 190.862  1.00  0.00     0.025 A 
ATOM     13  C   UNL     1     126.263 -13.795 191.702  1.00  0.00     0.016 A 
ATOM     14  C   UNL     1     126.968 -13.318 192.811  1.00  0.00     0.051 A 
ATOM     15  C   UNL     1     126.983 -11.949 193.105  1.00  0.00     0.157 A 
ATOM     16  C   UNL     1     125.574 -11.534 191.172  1.00  0.00     0.062 A 
ATOM     17  C   UNL     1     126.279 -11.053 192.282  1.00  0.00     0.158 A 
BRANCH  15  18
ATOM     18  O   UNL     1     127.688 -11.476 194.210  1.00  0.00    -0.504 OA
ATOM     19  H   UNL     1     128.383 -10.744 194.122  1.00  0.00     0.293 HD
ENDBRANCH  15  18
BRANCH  17  20
ATOM     20  O   UNL     1     126.268  -9.685 192.551  1.00  0.00    -0.504 OA
ATOM     21  H   UNL     1     127.036  -9.223 193.021  1.00  0.00     0.293 HD
ENDBRANCH  17  20
ENDBRANCH   1  12
BRANCH   2  22
ATOM     22  O   UNL     1     122.822 -13.793 191.049  1.00  0.00    -0.502 OA
ATOM     23  H   UNL     1     122.678 -12.950 191.592  1.00  0.00     0.293 HD
ENDBRANCH   2  22
BRANCH   6  24
ATOM     24  O   UNL     1     121.478 -14.849 186.004  1.00  0.00    -0.507 OA
ATOM     25  H   UNL     1     121.055 -15.763 186.072  1.00  0.00     0.293 HD
ENDBRANCH   6  24
BRANCH   8  26
ATOM     26  O   UNL     1     125.768 -14.436 183.887  1.00  0.00    -0.508 OA
ATOM     27  H   UNL     1     125.946 -13.622 183.310  1.00  0.00     0.293 HD
ENDBRANCH   8  26
TORSDOF 6
ENDMDL
