MODEL 1
REMARK VINA RESULT:    -3.641      0.000      0.000
REMARK INTER + INTRA:          -7.365
REMARK INTER:                  -6.194
REMARK INTRA:                  -1.171
REMARK UNBOUND:                -1.171
REMARK SMILES CCCCCCCCCCCCCC(=O)[O-]
REMARK SMILES IDX 8 1 9 2 10 3 11 4 12 5 13 6 14 7 15 8 16 9 7 10 6 11 5 12
REMARK SMILES IDX 4 13 3 14 2 15 1 16
REMARK H PARENT
REMARK Flexibility Score: inf
ROOT
ATOM      1  C   UNL     1     -19.963  21.182  46.128  1.00  0.00     0.000 C 
ENDROOT
BRANCH   1   2
ATOM      2  C   UNL     1     -18.560  21.566  45.646  1.00  0.00     0.000 C 
BRANCH   2   3
ATOM      3  C   UNL     1     -18.080  20.618  44.537  1.00  0.00     0.000 C 
BRANCH   3   4
ATOM      4  C   UNL     1     -17.190  21.318  43.493  1.00  0.00     0.000 C 
BRANCH   4   5
ATOM      5  C   UNL     1     -17.867  22.471  42.725  1.00  0.00     0.006 C 
BRANCH   5   6
ATOM      6  C   UNL     1     -17.076  23.788  42.725  1.00  0.00     0.053 C 
BRANCH   6   7
ATOM      7  C   UNL     1     -17.977  24.983  42.671  1.00  0.00     0.041 C 
ATOM      8  O   UNL     1     -17.611  26.077  43.176  1.00  0.00    -0.550 OA
ATOM      9  O   UNL     1     -19.208  24.897  42.033  1.00  0.00    -0.550 OA
ENDBRANCH   6   7
ENDBRANCH   5   6
ENDBRANCH   4   5
ENDBRANCH   3   4
ENDBRANCH   2   3
ENDBRANCH   1   2
BRANCH   1  10
ATOM     10  C   UNL     1     -20.929  22.367  46.014  1.00  0.00     0.000 C 
BRANCH  10  11
ATOM     11  C   UNL     1     -20.250  23.566  45.334  1.00  0.00    -0.000 C 
BRANCH  11  12
ATOM     12  C   UNL     1     -21.258  24.619  44.846  1.00  0.00    -0.000 C 
BRANCH  12  13
ATOM     13  C   UNL     1     -22.624  24.497  45.538  1.00  0.00    -0.000 C 
BRANCH  13  14
ATOM     14  C   UNL     1     -23.728  24.185  44.516  1.00  0.00    -0.000 C 
BRANCH  14  15
ATOM     15  C   UNL     1     -25.016  23.670  45.177  1.00  0.00    -0.003 C 
ATOM     16  C   UNL     1     -25.009  22.157  45.391  1.00  0.00     0.004 C 
ENDBRANCH  14  15
ENDBRANCH  13  14
ENDBRANCH  12  13
ENDBRANCH  11  12
ENDBRANCH  10  11
ENDBRANCH   1  10
TORSDOF 12
ENDMDL
MODEL 2
REMARK VINA RESULT:    -3.613      2.121      4.960
REMARK INTER + INTRA:          -7.319
REMARK INTER:                  -5.900
REMARK INTRA:                  -1.419
REMARK UNBOUND:                -1.171
REMARK SMILES CCCCCCCCCCCCCC(=O)[O-]
REMARK SMILES IDX 8 1 9 2 10 3 11 4 12 5 13 6 14 7 15 8 16 9 7 10 6 11 5 12
REMARK SMILES IDX 4 13 3 14 2 15 1 16
REMARK H PARENT
REMARK Flexibility Score: inf
ROOT
ATOM      1  C   UNL     1     -17.932  19.866  45.823  1.00  0.00     0.000 C 
ENDROOT
BRANCH   1   2
ATOM      2  C   UNL     1     -19.346  20.256  46.268  1.00  0.00     0.000 C 
BRANCH   2   3
ATOM      3  C   UNL     1     -19.808  21.543  45.570  1.00  0.00     0.000 C 
BRANCH   3   4
ATOM      4  C   UNL     1     -19.441  22.816  46.354  1.00  0.00     0.000 C 
BRANCH   4   5
ATOM      5  C   UNL     1     -20.342  24.037  46.077  1.00  0.00     0.006 C 
BRANCH   5   6
ATOM      6  C   UNL     1     -21.732  23.690  45.521  1.00  0.00     0.053 C 
BRANCH   6   7
ATOM      7  C   UNL     1     -22.353  24.848  44.802  1.00  0.00     0.041 C 
ATOM      8  O   UNL     1     -21.825  25.989  44.864  1.00  0.00    -0.550 OA
ATOM      9  O   UNL     1     -23.495  24.658  44.035  1.00  0.00    -0.550 OA
ENDBRANCH   6   7
ENDBRANCH   5   6
ENDBRANCH   4   5
ENDBRANCH   3   4
ENDBRANCH   2   3
ENDBRANCH   1   2
BRANCH   1  10
ATOM     10  C   UNL     1     -17.667  20.308  44.379  1.00  0.00     0.000 C 
BRANCH  10  11
ATOM     11  C   UNL     1     -16.327  21.053  44.269  1.00  0.00    -0.000 C 
BRANCH  11  12
ATOM     12  C   UNL     1     -16.380  22.226  43.277  1.00  0.00    -0.000 C 
BRANCH  12  13
ATOM     13  C   UNL     1     -17.792  22.469  42.722  1.00  0.00    -0.000 C 
BRANCH  13  14
ATOM     14  C   UNL     1     -17.909  23.879  42.123  1.00  0.00    -0.000 C 
BRANCH  14  15
ATOM     15  C   UNL     1     -19.141  24.639  42.637  1.00  0.00    -0.003 C 
ATOM     16  C   UNL     1     -19.291  26.021  42.004  1.00  0.00     0.004 C 
ENDBRANCH  14  15
ENDBRANCH  13  14
ENDBRANCH  12  13
ENDBRANCH  11  12
ENDBRANCH  10  11
ENDBRANCH   1  10
TORSDOF 12
ENDMDL
MODEL 3
REMARK VINA RESULT:    -3.598      3.319      6.372
REMARK INTER + INTRA:          -7.293
REMARK INTER:                  -5.725
REMARK INTRA:                  -1.568
REMARK UNBOUND:                -1.171
REMARK SMILES CCCCCCCCCCCCCC(=O)[O-]
REMARK SMILES IDX 8 1 9 2 10 3 11 4 12 5 13 6 14 7 15 8 16 9 7 10 6 11 5 12
REMARK SMILES IDX 4 13 3 14 2 15 1 16
REMARK H PARENT
REMARK Flexibility Score: inf
ROOT
ATOM      1  C   UNL     1     -16.998  20.597  44.340  1.00  0.00     0.000 C 
ENDROOT
BRANCH   1   2
ATOM      2  C   UNL     1     -18.254  21.257  44.920  1.00  0.00     0.000 C 
BRANCH   2   3
ATOM      3  C   UNL     1     -18.651  22.496  44.104  1.00  0.00     0.000 C 
BRANCH   3   4
ATOM      4  C   UNL     1     -18.038  22.506  42.692  1.00  0.00     0.000 C 
BRANCH   4   5
ATOM      5  C   UNL     1     -17.653  23.901  42.157  1.00  0.00     0.006 C 
BRANCH   5   6
ATOM      6  C   UNL     1     -17.904  25.053  43.142  1.00  0.00     0.053 C 
BRANCH   6   7
ATOM      7  C   UNL     1     -19.032  25.933  42.700  1.00  0.00     0.041 C 
ATOM      8  O   UNL     1     -18.854  26.783  41.788  1.00  0.00    -0.550 OA
ATOM      9  O   UNL     1     -20.290  25.791  43.272  1.00  0.00    -0.550 OA
ENDBRANCH   6   7
ENDBRANCH   5   6
ENDBRANCH   4   5
ENDBRANCH   3   4
ENDBRANCH   2   3
ENDBRANCH   1   2
BRANCH   1  10
ATOM     10  C   UNL     1     -15.770  20.890  45.209  1.00  0.00     0.000 C 
BRANCH  10  11
ATOM     11  C   UNL     1     -14.994  22.104  44.674  1.00  0.00    -0.000 C 
BRANCH  11  12
ATOM     12  C   UNL     1     -14.468  21.888  43.246  1.00  0.00    -0.000 C 
BRANCH  12  13
ATOM     13  C   UNL     1     -13.406  22.923  42.843  1.00  0.00    -0.000 C 
BRANCH  13  14
ATOM     14  C   UNL     1     -13.988  24.345  42.877  1.00  0.00    -0.000 C 
BRANCH  14  15
ATOM     15  C   UNL     1     -13.760  25.107  41.563  1.00  0.00    -0.003 C 
ATOM     16  C   UNL     1     -13.315  24.196  40.420  1.00  0.00     0.004 C 
ENDBRANCH  14  15
ENDBRANCH  13  14
ENDBRANCH  12  13
ENDBRANCH  11  12
ENDBRANCH  10  11
ENDBRANCH   1  10
TORSDOF 12
ENDMDL
MODEL 4
REMARK VINA RESULT:    -3.544      0.993      1.723
REMARK INTER + INTRA:          -7.200
REMARK INTER:                  -6.106
REMARK INTRA:                  -1.094
REMARK UNBOUND:                -1.171
REMARK SMILES CCCCCCCCCCCCCC(=O)[O-]
REMARK SMILES IDX 8 1 9 2 10 3 11 4 12 5 13 6 14 7 15 8 16 9 7 10 6 11 5 12
REMARK SMILES IDX 4 13 3 14 2 15 1 16
REMARK H PARENT
REMARK Flexibility Score: inf
ROOT
ATOM      1  C   UNL     1     -18.422  20.144  45.119  1.00  0.00     0.000 C 
ENDROOT
BRANCH   1   2
ATOM      2  C   UNL     1     -17.374  21.258  45.013  1.00  0.00     0.000 C 
BRANCH   2   3
ATOM      3  C   UNL     1     -16.897  21.430  43.564  1.00  0.00     0.000 C 
BRANCH   3   4
ATOM      4  C   UNL     1     -17.922  22.160  42.677  1.00  0.00     0.000 C 
BRANCH   4   5
ATOM      5  C   UNL     1     -17.692  23.678  42.526  1.00  0.00     0.006 C 
BRANCH   5   6
ATOM      6  C   UNL     1     -18.503  24.546  43.499  1.00  0.00     0.053 C 
BRANCH   6   7
ATOM      7  C   UNL     1     -19.051  25.771  42.834  1.00  0.00     0.041 C 
ATOM      8  O   UNL     1     -19.250  25.783  41.591  1.00  0.00    -0.550 OA
ATOM      9  O   UNL     1     -19.375  26.888  43.594  1.00  0.00    -0.550 OA
ENDBRANCH   6   7
ENDBRANCH   5   6
ENDBRANCH   4   5
ENDBRANCH   3   4
ENDBRANCH   2   3
ENDBRANCH   1   2
BRANCH   1  10
ATOM     10  C   UNL     1     -19.631  20.601  45.943  1.00  0.00     0.000 C 
BRANCH  10  11
ATOM     11  C   UNL     1     -19.826  22.122  45.836  1.00  0.00    -0.000 C 
BRANCH  11  12
ATOM     12  C   UNL     1     -21.264  22.559  46.161  1.00  0.00    -0.000 C 
BRANCH  12  13
ATOM     13  C   UNL     1     -21.607  23.941  45.584  1.00  0.00    -0.000 C 
BRANCH  13  14
ATOM     14  C   UNL     1     -23.112  24.227  45.709  1.00  0.00    -0.000 C 
BRANCH  14  15
ATOM     15  C   UNL     1     -23.957  23.363  44.761  1.00  0.00    -0.003 C 
ATOM     16  C   UNL     1     -25.018  22.543  45.494  1.00  0.00     0.004 C 
ENDBRANCH  14  15
ENDBRANCH  13  14
ENDBRANCH  12  13
ENDBRANCH  11  12
ENDBRANCH  10  11
ENDBRANCH   1  10
TORSDOF 12
ENDMDL
MODEL 5
REMARK VINA RESULT:    -3.533      2.397      5.731
REMARK INTER + INTRA:          -7.182
REMARK INTER:                  -5.665
REMARK INTRA:                  -1.517
REMARK UNBOUND:                -1.171
REMARK SMILES CCCCCCCCCCCCCC(=O)[O-]
REMARK SMILES IDX 8 1 9 2 10 3 11 4 12 5 13 6 14 7 15 8 16 9 7 10 6 11 5 12
REMARK SMILES IDX 4 13 3 14 2 15 1 16
REMARK H PARENT
REMARK Flexibility Score: inf
ROOT
ATOM      1  C   UNL     1     -18.280  21.383  45.459  1.00  0.00     0.000 C 
ENDROOT
BRANCH   1   2
ATOM      2  C   UNL     1     -19.540  20.637  45.914  1.00  0.00     0.000 C 
BRANCH   2   3
ATOM      3  C   UNL     1     -20.693  21.615  46.181  1.00  0.00     0.000 C 
BRANCH   3   4
ATOM      4  C   UNL     1     -20.505  22.971  45.476  1.00  0.00     0.000 C 
BRANCH   4   5
ATOM      5  C   UNL     1     -21.565  24.038  45.818  1.00  0.00     0.006 C 
BRANCH   5   6
ATOM      6  C   UNL     1     -22.925  23.469  46.252  1.00  0.00     0.053 C 
BRANCH   6   7
ATOM      7  C   UNL     1     -23.880  23.361  45.103  1.00  0.00     0.041 C 
ATOM      8  O   UNL     1     -24.762  22.463  45.094  1.00  0.00    -0.550 OA
ATOM      9  O   UNL     1     -23.817  24.275  44.059  1.00  0.00    -0.550 OA
ENDBRANCH   6   7
ENDBRANCH   5   6
ENDBRANCH   4   5
ENDBRANCH   3   4
ENDBRANCH   2   3
ENDBRANCH   1   2
BRANCH   1  10
ATOM     10  C   UNL     1     -17.590  20.647  44.305  1.00  0.00     0.000 C 
BRANCH  10  11
ATOM     11  C   UNL     1     -17.016  21.642  43.284  1.00  0.00    -0.000 C 
BRANCH  11  12
ATOM     12  C   UNL     1     -18.110  22.374  42.490  1.00  0.00    -0.000 C 
BRANCH  12  13
ATOM     13  C   UNL     1     -17.960  23.902  42.547  1.00  0.00    -0.000 C 
BRANCH  13  14
ATOM     14  C   UNL     1     -16.563  24.297  43.050  1.00  0.00    -0.000 C 
BRANCH  14  15
ATOM     15  C   UNL     1     -16.609  25.394  44.123  1.00  0.00    -0.003 C 
ATOM     16  C   UNL     1     -17.281  24.932  45.415  1.00  0.00     0.004 C 
ENDBRANCH  14  15
ENDBRANCH  13  14
ENDBRANCH  12  13
ENDBRANCH  11  12
ENDBRANCH  10  11
ENDBRANCH   1  10
TORSDOF 12
ENDMDL
MODEL 6
REMARK VINA RESULT:    -3.508      2.676      5.116
REMARK INTER + INTRA:          -7.140
REMARK INTER:                  -5.556
REMARK INTRA:                  -1.584
REMARK UNBOUND:                -1.171
REMARK SMILES CCCCCCCCCCCCCC(=O)[O-]
REMARK SMILES IDX 8 1 9 2 10 3 11 4 12 5 13 6 14 7 15 8 16 9 7 10 6 11 5 12
REMARK SMILES IDX 4 13 3 14 2 15 1 16
REMARK H PARENT
REMARK Flexibility Score: inf
ROOT
ATOM      1  C   UNL     1     -18.196  21.798  44.900  1.00  0.00     0.000 C 
ENDROOT
BRANCH   1   2
ATOM      2  C   UNL     1     -18.904  20.592  45.529  1.00  0.00     0.000 C 
BRANCH   2   3
ATOM      3  C   UNL     1     -20.186  21.024  46.255  1.00  0.00     0.000 C 
BRANCH   3   4
ATOM      4  C   UNL     1     -20.647  22.441  45.870  1.00  0.00     0.000 C 
BRANCH   4   5
ATOM      5  C   UNL     1     -22.079  22.806  46.311  1.00  0.00     0.006 C 
BRANCH   5   6
ATOM      6  C   UNL     1     -22.840  23.706  45.326  1.00  0.00     0.053 C 
BRANCH   6   7
ATOM      7  C   UNL     1     -23.654  24.747  46.031  1.00  0.00     0.041 C 
ATOM      8  O   UNL     1     -24.753  25.126  45.550  1.00  0.00    -0.550 OA
ATOM      9  O   UNL     1     -23.214  25.272  47.240  1.00  0.00    -0.550 OA
ENDBRANCH   6   7
ENDBRANCH   5   6
ENDBRANCH   4   5
ENDBRANCH   3   4
ENDBRANCH   2   3
ENDBRANCH   1   2
BRANCH   1  10
ATOM     10  C   UNL     1     -17.553  21.422  43.560  1.00  0.00     0.000 C 
BRANCH  10  11
ATOM     11  C   UNL     1     -18.019  22.368  42.442  1.00  0.00    -0.000 C 
BRANCH  11  12
ATOM     12  C   UNL     1     -17.776  23.848  42.778  1.00  0.00    -0.000 C 
BRANCH  12  13
ATOM     13  C   UNL     1     -18.905  24.762  42.277  1.00  0.00    -0.000 C 
BRANCH  13  14
ATOM     14  C   UNL     1     -19.869  25.118  43.420  1.00  0.00    -0.000 C 
BRANCH  14  15
ATOM     15  C   UNL     1     -19.136  25.590  44.685  1.00  0.00    -0.003 C 
ATOM     16  C   UNL     1     -20.074  26.224  45.711  1.00  0.00     0.004 C 
ENDBRANCH  14  15
ENDBRANCH  13  14
ENDBRANCH  12  13
ENDBRANCH  11  12
ENDBRANCH  10  11
ENDBRANCH   1  10
TORSDOF 12
ENDMDL
MODEL 7
REMARK VINA RESULT:    -3.508      1.510      3.071
REMARK INTER + INTRA:          -7.139
REMARK INTER:                  -5.694
REMARK INTRA:                  -1.445
REMARK UNBOUND:                -1.171
REMARK SMILES CCCCCCCCCCCCCC(=O)[O-]
REMARK SMILES IDX 8 1 9 2 10 3 11 4 12 5 13 6 14 7 15 8 16 9 7 10 6 11 5 12
REMARK SMILES IDX 4 13 3 14 2 15 1 16
REMARK H PARENT
REMARK Flexibility Score: inf
ROOT
ATOM      1  C   UNL     1     -17.311  21.411  44.396  1.00  0.00     0.000 C 
ENDROOT
BRANCH   1   2
ATOM      2  C   UNL     1     -17.434  21.695  42.894  1.00  0.00     0.000 C 
BRANCH   2   3
ATOM      3  C   UNL     1     -18.226  22.986  42.641  1.00  0.00     0.000 C 
BRANCH   3   4
ATOM      4  C   UNL     1     -17.651  24.200  43.393  1.00  0.00     0.000 C 
BRANCH   4   5
ATOM      5  C   UNL     1     -17.979  25.571  42.768  1.00  0.00     0.006 C 
BRANCH   5   6
ATOM      6  C   UNL     1     -19.393  25.681  42.176  1.00  0.00     0.053 C 
BRANCH   6   7
ATOM      7  C   UNL     1     -20.048  26.981  42.527  1.00  0.00     0.041 C 
ATOM      8  O   UNL     1     -19.379  28.047  42.532  1.00  0.00    -0.550 OA
ATOM      9  O   UNL     1     -21.407  27.020  42.814  1.00  0.00    -0.550 OA
ENDBRANCH   6   7
ENDBRANCH   5   6
ENDBRANCH   4   5
ENDBRANCH   3   4
ENDBRANCH   2   3
ENDBRANCH   1   2
BRANCH   1  10
ATOM     10  C   UNL     1     -18.080  20.142  44.782  1.00  0.00     0.000 C 
BRANCH  10  11
ATOM     11  C   UNL     1     -19.109  20.437  45.884  1.00  0.00    -0.000 C 
BRANCH  11  12
ATOM     12  C   UNL     1     -19.298  21.942  46.132  1.00  0.00    -0.000 C 
BRANCH  12  13
ATOM     13  C   UNL     1     -20.734  22.413  45.856  1.00  0.00    -0.000 C 
BRANCH  13  14
ATOM     14  C   UNL     1     -20.743  23.847  45.305  1.00  0.00    -0.000 C 
BRANCH  14  15
ATOM     15  C   UNL     1     -22.163  24.374  45.053  1.00  0.00    -0.003 C 
ATOM     16  C   UNL     1     -23.247  23.418  45.550  1.00  0.00     0.004 C 
ENDBRANCH  14  15
ENDBRANCH  13  14
ENDBRANCH  12  13
ENDBRANCH  11  12
ENDBRANCH  10  11
ENDBRANCH   1  10
TORSDOF 12
ENDMDL
MODEL 8
REMARK VINA RESULT:    -3.507      2.322      5.089
REMARK INTER + INTRA:          -7.138
REMARK INTER:                  -5.447
REMARK INTRA:                  -1.691
REMARK UNBOUND:                -1.171
REMARK SMILES CCCCCCCCCCCCCC(=O)[O-]
REMARK SMILES IDX 8 1 9 2 10 3 11 4 12 5 13 6 14 7 15 8 16 9 7 10 6 11 5 12
REMARK SMILES IDX 4 13 3 14 2 15 1 16
REMARK H PARENT
REMARK Flexibility Score: inf
ROOT
ATOM      1  C   UNL     1     -19.165  22.042  46.052  1.00  0.00     0.000 C 
ENDROOT
BRANCH   1   2
ATOM      2  C   UNL     1     -20.354  22.858  45.530  1.00  0.00     0.000 C 
BRANCH   2   3
ATOM      3  C   UNL     1     -19.988  24.344  45.404  1.00  0.00     0.000 C 
BRANCH   3   4
ATOM      4  C   UNL     1     -20.448  24.964  44.072  1.00  0.00     0.000 C 
BRANCH   4   5
ATOM      5  C   UNL     1     -19.848  26.349  43.755  1.00  0.00     0.006 C 
BRANCH   5   6
ATOM      6  C   UNL     1     -19.482  26.562  42.278  1.00  0.00     0.053 C 
BRANCH   6   7
ATOM      7  C   UNL     1     -18.424  27.609  42.108  1.00  0.00     0.041 C 
ATOM      8  O   UNL     1     -18.630  28.604  41.365  1.00  0.00    -0.550 OA
ATOM      9  O   UNL     1     -17.223  27.501  42.797  1.00  0.00    -0.550 OA
ENDBRANCH   6   7
ENDBRANCH   5   6
ENDBRANCH   4   5
ENDBRANCH   3   4
ENDBRANCH   2   3
ENDBRANCH   1   2
BRANCH   1  10
ATOM     10  C   UNL     1     -19.176  20.622  45.475  1.00  0.00     0.000 C 
BRANCH  10  11
ATOM     11  C   UNL     1     -17.815  20.271  44.853  1.00  0.00    -0.000 C 
BRANCH  11  12
ATOM     12  C   UNL     1     -17.170  21.462  44.127  1.00  0.00    -0.000 C 
BRANCH  12  13
ATOM     13  C   UNL     1     -17.820  21.747  42.764  1.00  0.00    -0.000 C 
BRANCH  13  14
ATOM     14  C   UNL     1     -17.768  23.248  42.437  1.00  0.00    -0.000 C 
BRANCH  14  15
ATOM     15  C   UNL     1     -16.830  24.024  43.373  1.00  0.00    -0.003 C 
ATOM     16  C   UNL     1     -15.519  24.424  42.698  1.00  0.00     0.004 C 
ENDBRANCH  14  15
ENDBRANCH  13  14
ENDBRANCH  12  13
ENDBRANCH  11  12
ENDBRANCH  10  11
ENDBRANCH   1  10
TORSDOF 12
ENDMDL
MODEL 9
REMARK VINA RESULT:    -3.469      3.287      5.915
REMARK INTER + INTRA:          -7.073
REMARK INTER:                  -5.675
REMARK INTRA:                  -1.398
REMARK UNBOUND:                -1.171
REMARK SMILES CCCCCCCCCCCCCC(=O)[O-]
REMARK SMILES IDX 8 1 9 2 10 3 11 4 12 5 13 6 14 7 15 8 16 9 7 10 6 11 5 12
REMARK SMILES IDX 4 13 3 14 2 15 1 16
REMARK H PARENT
REMARK Flexibility Score: inf
ROOT
ATOM      1  C   UNL     1     -18.792  21.159  45.131  1.00  0.00     0.000 C 
ENDROOT
BRANCH   1   2
ATOM      2  C   UNL     1     -18.736  22.504  44.398  1.00  0.00     0.000 C 
BRANCH   2   3
ATOM      3  C   UNL     1     -17.996  22.371  43.059  1.00  0.00     0.000 C 
BRANCH   3   4
ATOM      4  C   UNL     1     -18.041  23.659  42.218  1.00  0.00     0.000 C 
BRANCH   4   5
ATOM      5  C   UNL     1     -19.218  24.605  42.532  1.00  0.00     0.006 C 
BRANCH   5   6
ATOM      6  C   UNL     1     -19.082  26.013  41.933  1.00  0.00     0.053 C 
BRANCH   6   7
ATOM      7  C   UNL     1     -19.975  27.002  42.618  1.00  0.00     0.041 C 
ATOM      8  O   UNL     1     -20.794  26.617  43.493  1.00  0.00    -0.550 OA
ATOM      9  O   UNL     1     -19.879  28.353  42.312  1.00  0.00    -0.550 OA
ENDBRANCH   6   7
ENDBRANCH   5   6
ENDBRANCH   4   5
ENDBRANCH   3   4
ENDBRANCH   2   3
ENDBRANCH   1   2
BRANCH   1  10
ATOM     10  C   UNL     1     -17.616  20.262  44.728  1.00  0.00     0.000 C 
BRANCH  10  11
ATOM     11  C   UNL     1     -16.620  20.107  45.888  1.00  0.00    -0.000 C 
BRANCH  11  12
ATOM     12  C   UNL     1     -15.156  20.214  45.430  1.00  0.00    -0.000 C 
BRANCH  12  13
ATOM     13  C   UNL     1     -14.772  21.639  45.004  1.00  0.00    -0.000 C 
BRANCH  13  14
ATOM     14  C   UNL     1     -14.440  21.691  43.504  1.00  0.00    -0.000 C 
BRANCH  14  15
ATOM     15  C   UNL     1     -14.182  23.120  43.005  1.00  0.00    -0.003 C 
ATOM     16  C   UNL     1     -14.867  24.181  43.866  1.00  0.00     0.004 C 
ENDBRANCH  14  15
ENDBRANCH  13  14
ENDBRANCH  12  13
ENDBRANCH  11  12
ENDBRANCH  10  11
ENDBRANCH   1  10
TORSDOF 12
ENDMDL
