MODEL 1
REMARK VINA RESULT:    -1.450      0.000      0.000
REMARK INTER + INTRA:          -9.826
REMARK INTER:                  -3.655
REMARK INTRA:                  -6.171
REMARK UNBOUND:                -6.171
REMARK SMILES CCCCCCCCCCCCCCCCCCCCCCCCCCCC(=O)[O-]
REMARK SMILES IDX 15 1 16 2 17 3 18 4 19 5 20 6 21 7 22 8 23 9 24 10 25 11
REMARK SMILES IDX 26 12 27 13 28 14 29 15 30 16 14 17 13 18 12 19 11 20 10 21
REMARK SMILES IDX 9 22 8 23 7 24 6 25 5 26 4 27 3 28 2 29 1 30
REMARK H PARENT
REMARK Flexibility Score: inf
ROOT
ATOM      1  C   UNL     1      41.958  50.013  19.435  1.00  0.00     0.000 C 
ENDROOT
BRANCH   1   2
ATOM      2  C   UNL     1      41.266  51.207  18.750  1.00  0.00     0.000 C 
BRANCH   2   3
ATOM      3  C   UNL     1      42.152  51.890  17.700  1.00  0.00     0.000 C 
BRANCH   3   4
ATOM      4  C   UNL     1      41.436  53.037  16.971  1.00  0.00     0.000 C 
BRANCH   4   5
ATOM      5  C   UNL     1      39.919  52.953  17.186  1.00  0.00     0.000 C 
BRANCH   5   6
ATOM      6  C   UNL     1      39.165  52.549  15.910  1.00  0.00     0.000 C 
BRANCH   6   7
ATOM      7  C   UNL     1      38.566  51.133  16.005  1.00  0.00     0.000 C 
BRANCH   7   8
ATOM      8  C   UNL     1      39.598  50.039  15.667  1.00  0.00     0.000 C 
BRANCH   8   9
ATOM      9  C   UNL     1      39.524  48.799  16.581  1.00  0.00     0.000 C 
BRANCH   9  10
ATOM     10  C   UNL     1      40.623  47.749  16.323  1.00  0.00     0.000 C 
BRANCH  10  11
ATOM     11  C   UNL     1      40.948  46.921  17.579  1.00  0.00     0.000 C 
BRANCH  11  12
ATOM     12  C   UNL     1      39.916  47.123  18.700  1.00  0.00     0.006 C 
BRANCH  12  13
ATOM     13  C   UNL     1      40.366  46.502  20.027  1.00  0.00     0.053 C 
BRANCH  13  14
ATOM     14  C   UNL     1      39.356  45.508  20.506  1.00  0.00     0.041 C 
ATOM     15  O   UNL     1      39.724  44.384  20.937  1.00  0.00    -0.550 OA
ATOM     16  O   UNL     1      38.000  45.799  20.417  1.00  0.00    -0.550 OA
ENDBRANCH  13  14
ENDBRANCH  12  13
ENDBRANCH  11  12
ENDBRANCH  10  11
ENDBRANCH   9  10
ENDBRANCH   8   9
ENDBRANCH   7   8
ENDBRANCH   6   7
ENDBRANCH   5   6
ENDBRANCH   4   5
ENDBRANCH   3   4
ENDBRANCH   2   3
ENDBRANCH   1   2
BRANCH   1  17
ATOM     17  C   UNL     1      42.173  50.254  20.939  1.00  0.00     0.000 C 
BRANCH  17  18
ATOM     18  C   UNL     1      41.939  51.721  21.343  1.00  0.00     0.000 C 
BRANCH  18  19
ATOM     19  C   UNL     1      41.068  51.869  22.611  1.00  0.00     0.000 C 
BRANCH  19  20
ATOM     20  C   UNL     1      40.042  53.025  22.534  1.00  0.00     0.000 C 
BRANCH  20  21
ATOM     21  C   UNL     1      40.004  53.737  21.170  1.00  0.00     0.000 C 
BRANCH  21  22
ATOM     22  C   UNL     1      38.619  53.645  20.494  1.00  0.00    -0.000 C 
BRANCH  22  23
ATOM     23  C   UNL     1      37.549  53.036  21.418  1.00  0.00    -0.000 C 
BRANCH  23  24
ATOM     24  C   UNL     1      36.889  51.772  20.835  1.00  0.00    -0.000 C 
BRANCH  24  25
ATOM     25  C   UNL     1      37.819  51.016  19.874  1.00  0.00    -0.000 C 
BRANCH  25  26
ATOM     26  C   UNL     1      37.967  49.544  20.289  1.00  0.00    -0.000 C 
BRANCH  26  27
ATOM     27  C   UNL     1      38.597  49.386  21.684  1.00  0.00    -0.000 C 
BRANCH  27  28
ATOM     28  C   UNL     1      37.738  48.524  22.625  1.00  0.00    -0.000 C 
BRANCH  28  29
ATOM     29  C   UNL     1      37.055  49.352  23.724  1.00  0.00    -0.003 C 
ATOM     30  C   UNL     1      37.915  50.513  24.219  1.00  0.00     0.004 C 
ENDBRANCH  28  29
ENDBRANCH  27  28
ENDBRANCH  26  27
ENDBRANCH  25  26
ENDBRANCH  24  25
ENDBRANCH  23  24
ENDBRANCH  22  23
ENDBRANCH  21  22
ENDBRANCH  20  21
ENDBRANCH  19  20
ENDBRANCH  18  19
ENDBRANCH  17  18
ENDBRANCH   1  17
TORSDOF 26
ENDMDL
MODEL 2
REMARK VINA RESULT:    -1.405      3.305      6.721
REMARK INTER + INTRA:          -9.712
REMARK INTER:                  -3.796
REMARK INTRA:                  -5.916
REMARK UNBOUND:                -6.171
REMARK SMILES CCCCCCCCCCCCCCCCCCCCCCCCCCCC(=O)[O-]
REMARK SMILES IDX 15 1 16 2 17 3 18 4 19 5 20 6 21 7 22 8 23 9 24 10 25 11
REMARK SMILES IDX 26 12 27 13 28 14 29 15 30 16 14 17 13 18 12 19 11 20 10 21
REMARK SMILES IDX 9 22 8 23 7 24 6 25 5 26 4 27 3 28 2 29 1 30
REMARK H PARENT
REMARK Flexibility Score: inf
ROOT
ATOM      1  C   UNL     1      39.483  50.043  20.430  1.00  0.00     0.000 C 
ENDROOT
BRANCH   1   2
ATOM      2  C   UNL     1      38.601  50.962  19.563  1.00  0.00     0.000 C 
BRANCH   2   3
ATOM      3  C   UNL     1      37.602  51.783  20.389  1.00  0.00     0.000 C 
BRANCH   3   4
ATOM      4  C   UNL     1      38.142  53.169  20.773  1.00  0.00     0.000 C 
BRANCH   4   5
ATOM      5  C   UNL     1      38.038  53.391  22.288  1.00  0.00     0.000 C 
BRANCH   5   6
ATOM      6  C   UNL     1      37.767  52.087  23.056  1.00  0.00     0.000 C 
BRANCH   6   7
ATOM      7  C   UNL     1      38.997  51.605  23.848  1.00  0.00     0.000 C 
BRANCH   7   8
ATOM      8  C   UNL     1      40.115  52.666  23.892  1.00  0.00     0.000 C 
BRANCH   8   9
ATOM      9  C   UNL     1      41.424  52.231  23.202  1.00  0.00     0.000 C 
BRANCH   9  10
ATOM     10  C   UNL     1      41.685  52.911  21.843  1.00  0.00     0.000 C 
BRANCH  10  11
ATOM     11  C   UNL     1      42.562  52.051  20.916  1.00  0.00     0.000 C 
BRANCH  11  12
ATOM     12  C   UNL     1      42.253  52.288  19.429  1.00  0.00     0.006 C 
BRANCH  12  13
ATOM     13  C   UNL     1      41.490  53.597  19.192  1.00  0.00     0.053 C 
BRANCH  13  14
ATOM     14  C   UNL     1      40.844  53.587  17.843  1.00  0.00     0.041 C 
ATOM     15  O   UNL     1      41.486  53.197  16.834  1.00  0.00    -0.550 OA
ATOM     16  O   UNL     1      39.550  54.068  17.690  1.00  0.00    -0.550 OA
ENDBRANCH  13  14
ENDBRANCH  12  13
ENDBRANCH  11  12
ENDBRANCH  10  11
ENDBRANCH   9  10
ENDBRANCH   8   9
ENDBRANCH   7   8
ENDBRANCH   6   7
ENDBRANCH   5   6
ENDBRANCH   4   5
ENDBRANCH   3   4
ENDBRANCH   2   3
ENDBRANCH   1   2
BRANCH   1  17
ATOM     17  C   UNL     1      38.863  48.647  20.609  1.00  0.00     0.000 C 
BRANCH  17  18
ATOM     18  C   UNL     1      37.935  48.565  21.836  1.00  0.00     0.000 C 
BRANCH  18  19
ATOM     19  C   UNL     1      37.803  47.133  22.400  1.00  0.00     0.000 C 
BRANCH  19  20
ATOM     20  C   UNL     1      37.187  47.073  23.819  1.00  0.00     0.000 C 
BRANCH  20  21
ATOM     21  C   UNL     1      37.346  48.375  24.624  1.00  0.00     0.000 C 
BRANCH  21  22
ATOM     22  C   UNL     1      37.718  48.117  26.100  1.00  0.00    -0.000 C 
BRANCH  22  23
ATOM     23  C   UNL     1      37.952  46.624  26.397  1.00  0.00    -0.000 C 
BRANCH  23  24
ATOM     24  C   UNL     1      39.365  46.324  26.931  1.00  0.00    -0.000 C 
BRANCH  24  25
ATOM     25  C   UNL     1      40.314  47.524  26.784  1.00  0.00    -0.000 C 
BRANCH  25  26
ATOM     26  C   UNL     1      41.454  47.213  25.802  1.00  0.00    -0.000 C 
BRANCH  26  27
ATOM     27  C   UNL     1      40.981  47.192  24.338  1.00  0.00    -0.000 C 
BRANCH  27  28
ATOM     28  C   UNL     1      41.077  48.572  23.667  1.00  0.00    -0.000 C 
BRANCH  28  29
ATOM     29  C   UNL     1      42.155  48.623  22.574  1.00  0.00    -0.003 C 
ATOM     30  C   UNL     1      43.511  49.098  23.093  1.00  0.00     0.004 C 
ENDBRANCH  28  29
ENDBRANCH  27  28
ENDBRANCH  26  27
ENDBRANCH  25  26
ENDBRANCH  24  25
ENDBRANCH  23  24
ENDBRANCH  22  23
ENDBRANCH  21  22
ENDBRANCH  20  21
ENDBRANCH  19  20
ENDBRANCH  18  19
ENDBRANCH  17  18
ENDBRANCH   1  17
TORSDOF 26
ENDMDL
MODEL 3
REMARK VINA RESULT:    -1.387     10.763     14.643
REMARK INTER + INTRA:          -9.666
REMARK INTER:                  -3.640
REMARK INTRA:                  -6.026
REMARK UNBOUND:                -6.171
REMARK SMILES CCCCCCCCCCCCCCCCCCCCCCCCCCCC(=O)[O-]
REMARK SMILES IDX 15 1 16 2 17 3 18 4 19 5 20 6 21 7 22 8 23 9 24 10 25 11
REMARK SMILES IDX 26 12 27 13 28 14 29 15 30 16 14 17 13 18 12 19 11 20 10 21
REMARK SMILES IDX 9 22 8 23 7 24 6 25 5 26 4 27 3 28 2 29 1 30
REMARK H PARENT
REMARK Flexibility Score: inf
ROOT
ATOM      1  C   UNL     1      40.390  35.998  19.954  1.00  0.00     0.000 C 
ENDROOT
BRANCH   1   2
ATOM      2  C   UNL     1      39.228  35.038  20.273  1.00  0.00     0.000 C 
BRANCH   2   3
ATOM      3  C   UNL     1      38.017  35.750  20.890  1.00  0.00     0.000 C 
BRANCH   3   4
ATOM      4  C   UNL     1      37.459  35.019  22.121  1.00  0.00     0.000 C 
BRANCH   4   5
ATOM      5  C   UNL     1      38.563  34.215  22.820  1.00  0.00     0.000 C 
BRANCH   5   6
ATOM      6  C   UNL     1      39.104  34.923  24.072  1.00  0.00     0.000 C 
BRANCH   6   7
ATOM      7  C   UNL     1      40.469  35.592  23.826  1.00  0.00     0.000 C 
BRANCH   7   8
ATOM      8  C   UNL     1      41.495  34.617  23.214  1.00  0.00     0.000 C 
BRANCH   8   9
ATOM      9  C   UNL     1      42.914  35.203  23.074  1.00  0.00     0.000 C 
BRANCH   9  10
ATOM     10  C   UNL     1      42.989  36.736  23.218  1.00  0.00     0.000 C 
BRANCH  10  11
ATOM     11  C   UNL     1      43.316  37.435  21.886  1.00  0.00     0.000 C 
BRANCH  11  12
ATOM     12  C   UNL     1      42.424  38.660  21.631  1.00  0.00     0.006 C 
BRANCH  12  13
ATOM     13  C   UNL     1      43.202  39.835  21.027  1.00  0.00     0.053 C 
BRANCH  13  14
ATOM     14  C   UNL     1      42.634  40.206  19.694  1.00  0.00     0.041 C 
ATOM     15  O   UNL     1      42.021  41.296  19.546  1.00  0.00    -0.550 OA
ATOM     16  O   UNL     1      42.726  39.319  18.629  1.00  0.00    -0.550 OA
ENDBRANCH  13  14
ENDBRANCH  12  13
ENDBRANCH  11  12
ENDBRANCH  10  11
ENDBRANCH   9  10
ENDBRANCH   8   9
ENDBRANCH   7   8
ENDBRANCH   6   7
ENDBRANCH   5   6
ENDBRANCH   4   5
ENDBRANCH   3   4
ENDBRANCH   2   3
ENDBRANCH   1   2
BRANCH   1  17
ATOM     17  C   UNL     1      41.664  35.245  19.534  1.00  0.00     0.000 C 
BRANCH  17  18
ATOM     18  C   UNL     1      42.234  35.749  18.195  1.00  0.00     0.000 C 
BRANCH  18  19
ATOM     19  C   UNL     1      41.164  36.400  17.289  1.00  0.00     0.000 C 
BRANCH  19  20
ATOM     20  C   UNL     1      40.634  35.465  16.175  1.00  0.00     0.000 C 
BRANCH  20  21
ATOM     21  C   UNL     1      39.391  34.653  16.581  1.00  0.00     0.000 C 
BRANCH  21  22
ATOM     22  C   UNL     1      38.076  35.302  16.097  1.00  0.00    -0.000 C 
BRANCH  22  23
ATOM     23  C   UNL     1      37.061  35.502  17.237  1.00  0.00    -0.000 C 
BRANCH  23  24
ATOM     24  C   UNL     1      36.916  36.972  17.672  1.00  0.00    -0.000 C 
BRANCH  24  25
ATOM     25  C   UNL     1      37.779  37.921  16.826  1.00  0.00    -0.000 C 
BRANCH  25  26
ATOM     26  C   UNL     1      38.518  38.936  17.713  1.00  0.00    -0.000 C 
BRANCH  26  27
ATOM     27  C   UNL     1      37.968  38.973  19.149  1.00  0.00    -0.000 C 
BRANCH  27  28
ATOM     28  C   UNL     1      39.046  39.336  20.184  1.00  0.00    -0.000 C 
BRANCH  28  29
ATOM     29  C   UNL     1      38.451  39.709  21.551  1.00  0.00    -0.003 C 
ATOM     30  C   UNL     1      38.913  38.785  22.676  1.00  0.00     0.004 C 
ENDBRANCH  28  29
ENDBRANCH  27  28
ENDBRANCH  26  27
ENDBRANCH  25  26
ENDBRANCH  24  25
ENDBRANCH  23  24
ENDBRANCH  22  23
ENDBRANCH  21  22
ENDBRANCH  20  21
ENDBRANCH  19  20
ENDBRANCH  18  19
ENDBRANCH  17  18
ENDBRANCH   1  17
TORSDOF 26
ENDMDL
MODEL 4
REMARK VINA RESULT:    -1.383     10.951     14.292
REMARK INTER + INTRA:          -9.658
REMARK INTER:                  -3.552
REMARK INTRA:                  -6.106
REMARK UNBOUND:                -6.171
REMARK SMILES CCCCCCCCCCCCCCCCCCCCCCCCCCCC(=O)[O-]
REMARK SMILES IDX 15 1 16 2 17 3 18 4 19 5 20 6 21 7 22 8 23 9 24 10 25 11
REMARK SMILES IDX 26 12 27 13 28 14 29 15 30 16 14 17 13 18 12 19 11 20 10 21
REMARK SMILES IDX 9 22 8 23 7 24 6 25 5 26 4 27 3 28 2 29 1 30
REMARK H PARENT
REMARK Flexibility Score: inf
ROOT
ATOM      1  C   UNL     1      41.283  39.207  19.410  1.00  0.00     0.000 C 
ENDROOT
BRANCH   1   2
ATOM      2  C   UNL     1      41.239  38.921  20.923  1.00  0.00     0.000 C 
BRANCH   2   3
ATOM      3  C   UNL     1      42.395  38.030  21.396  1.00  0.00     0.000 C 
BRANCH   3   4
ATOM      4  C   UNL     1      41.914  36.770  22.133  1.00  0.00     0.000 C 
BRANCH   4   5
ATOM      5  C   UNL     1      40.600  36.257  21.528  1.00  0.00     0.000 C 
BRANCH   5   6
ATOM      6  C   UNL     1      40.369  34.764  21.805  1.00  0.00     0.000 C 
BRANCH   6   7
ATOM      7  C   UNL     1      39.013  34.496  22.486  1.00  0.00     0.000 C 
BRANCH   7   8
ATOM      8  C   UNL     1      39.053  34.787  23.999  1.00  0.00     0.000 C 
BRANCH   8   9
ATOM      9  C   UNL     1      37.753  35.402  24.556  1.00  0.00     0.000 C 
BRANCH   9  10
ATOM     10  C   UNL     1      36.880  36.112  23.502  1.00  0.00     0.000 C 
BRANCH  10  11
ATOM     11  C   UNL     1      36.875  37.641  23.679  1.00  0.00     0.000 C 
BRANCH  11  12
ATOM     12  C   UNL     1      38.091  38.312  23.020  1.00  0.00     0.006 C 
BRANCH  12  13
ATOM     13  C   UNL     1      39.118  38.800  24.049  1.00  0.00     0.053 C 
BRANCH  13  14
ATOM     14  C   UNL     1      38.914  40.254  24.338  1.00  0.00     0.041 C 
ATOM     15  O   UNL     1      39.148  40.712  25.487  1.00  0.00    -0.550 OA
ATOM     16  O   UNL     1      38.406  41.092  23.354  1.00  0.00    -0.550 OA
ENDBRANCH  13  14
ENDBRANCH  12  13
ENDBRANCH  11  12
ENDBRANCH  10  11
ENDBRANCH   9  10
ENDBRANCH   8   9
ENDBRANCH   7   8
ENDBRANCH   6   7
ENDBRANCH   5   6
ENDBRANCH   4   5
ENDBRANCH   3   4
ENDBRANCH   2   3
ENDBRANCH   1   2
BRANCH   1  17
ATOM     17  C   UNL     1      41.921  38.051  18.620  1.00  0.00     0.000 C 
BRANCH  17  18
ATOM     18  C   UNL     1      41.385  37.952  17.180  1.00  0.00     0.000 C 
BRANCH  18  19
ATOM     19  C   UNL     1      40.197  38.902  16.910  1.00  0.00     0.000 C 
BRANCH  19  20
ATOM     20  C   UNL     1      39.037  38.244  16.122  1.00  0.00     0.000 C 
BRANCH  20  21
ATOM     21  C   UNL     1      37.646  38.503  16.725  1.00  0.00     0.000 C 
BRANCH  21  22
ATOM     22  C   UNL     1      37.708  39.354  18.012  1.00  0.00    -0.000 C 
BRANCH  22  23
ATOM     23  C   UNL     1      37.105  38.630  19.229  1.00  0.00    -0.000 C 
BRANCH  23  24
ATOM     24  C   UNL     1      37.896  37.375  19.644  1.00  0.00    -0.000 C 
BRANCH  24  25
ATOM     25  C   UNL     1      37.011  36.121  19.714  1.00  0.00    -0.000 C 
BRANCH  25  26
ATOM     26  C   UNL     1      37.533  35.021  18.776  1.00  0.00    -0.000 C 
BRANCH  26  27
ATOM     27  C   UNL     1      38.942  35.326  18.238  1.00  0.00    -0.000 C 
BRANCH  27  28
ATOM     28  C   UNL     1      39.867  34.098  18.276  1.00  0.00    -0.000 C 
BRANCH  28  29
ATOM     29  C   UNL     1      41.030  34.204  17.277  1.00  0.00    -0.003 C 
ATOM     30  C   UNL     1      40.565  34.445  15.842  1.00  0.00     0.004 C 
ENDBRANCH  28  29
ENDBRANCH  27  28
ENDBRANCH  26  27
ENDBRANCH  25  26
ENDBRANCH  24  25
ENDBRANCH  23  24
ENDBRANCH  22  23
ENDBRANCH  21  22
ENDBRANCH  20  21
ENDBRANCH  19  20
ENDBRANCH  18  19
ENDBRANCH  17  18
ENDBRANCH   1  17
TORSDOF 26
ENDMDL
MODEL 5
REMARK VINA RESULT:    -1.337     10.981     14.209
REMARK INTER + INTRA:          -9.541
REMARK INTER:                  -3.407
REMARK INTRA:                  -6.133
REMARK UNBOUND:                -6.171
REMARK SMILES CCCCCCCCCCCCCCCCCCCCCCCCCCCC(=O)[O-]
REMARK SMILES IDX 15 1 16 2 17 3 18 4 19 5 20 6 21 7 22 8 23 9 24 10 25 11
REMARK SMILES IDX 26 12 27 13 28 14 29 15 30 16 14 17 13 18 12 19 11 20 10 21
REMARK SMILES IDX 9 22 8 23 7 24 6 25 5 26 4 27 3 28 2 29 1 30
REMARK H PARENT
REMARK Flexibility Score: inf
ROOT
ATOM      1  C   UNL     1      42.580  39.425  20.591  1.00  0.00     0.000 C 
ENDROOT
BRANCH   1   2
ATOM      2  C   UNL     1      41.669  38.191  20.443  1.00  0.00     0.000 C 
BRANCH   2   3
ATOM      3  C   UNL     1      41.653  37.629  19.015  1.00  0.00     0.000 C 
BRANCH   3   4
ATOM      4  C   UNL     1      42.353  36.265  18.904  1.00  0.00     0.000 C 
BRANCH   4   5
ATOM      5  C   UNL     1      42.020  35.593  17.565  1.00  0.00     0.000 C 
BRANCH   5   6
ATOM      6  C   UNL     1      41.432  34.184  17.744  1.00  0.00     0.000 C 
BRANCH   6   7
ATOM      7  C   UNL     1      39.902  34.203  17.913  1.00  0.00     0.000 C 
BRANCH   7   8
ATOM      8  C   UNL     1      39.185  34.792  16.681  1.00  0.00     0.000 C 
BRANCH   8   9
ATOM      9  C   UNL     1      37.813  35.423  16.993  1.00  0.00     0.000 C 
BRANCH   9  10
ATOM     10  C   UNL     1      37.239  35.052  18.375  1.00  0.00     0.000 C 
BRANCH  10  11
ATOM     11  C   UNL     1      36.896  36.292  19.219  1.00  0.00     0.000 C 
BRANCH  11  12
ATOM     12  C   UNL     1      37.811  37.487  18.906  1.00  0.00     0.006 C 
BRANCH  12  13
ATOM     13  C   UNL     1      37.983  38.422  20.110  1.00  0.00     0.053 C 
BRANCH  13  14
ATOM     14  C   UNL     1      38.047  39.846  19.658  1.00  0.00     0.041 C 
ATOM     15  O   UNL     1      39.159  40.405  19.472  1.00  0.00    -0.550 OA
ATOM     16  O   UNL     1      36.876  40.577  19.502  1.00  0.00    -0.550 OA
ENDBRANCH  13  14
ENDBRANCH  12  13
ENDBRANCH  11  12
ENDBRANCH  10  11
ENDBRANCH   9  10
ENDBRANCH   8   9
ENDBRANCH   7   8
ENDBRANCH   6   7
ENDBRANCH   5   6
ENDBRANCH   4   5
ENDBRANCH   3   4
ENDBRANCH   2   3
ENDBRANCH   1   2
BRANCH   1  17
ATOM     17  C   UNL     1      44.057  39.037  20.768  1.00  0.00     0.000 C 
BRANCH  17  18
ATOM     18  C   UNL     1      44.288  38.135  21.995  1.00  0.00     0.000 C 
BRANCH  18  19
ATOM     19  C   UNL     1      45.085  36.853  21.663  1.00  0.00     0.000 C 
BRANCH  19  20
ATOM     20  C   UNL     1      44.327  35.543  21.989  1.00  0.00     0.000 C 
BRANCH  20  21
ATOM     21  C   UNL     1      43.129  35.733  22.936  1.00  0.00     0.000 C 
BRANCH  21  22
ATOM     22  C   UNL     1      42.251  34.468  23.042  1.00  0.00    -0.000 C 
BRANCH  22  23
ATOM     23  C   UNL     1      41.835  33.921  21.664  1.00  0.00    -0.000 C 
BRANCH  23  24
ATOM     24  C   UNL     1      40.308  33.875  21.463  1.00  0.00    -0.000 C 
BRANCH  24  25
ATOM     25  C   UNL     1      39.679  35.276  21.430  1.00  0.00    -0.000 C 
BRANCH  25  26
ATOM     26  C   UNL     1      38.573  35.413  22.488  1.00  0.00    -0.000 C 
BRANCH  26  27
ATOM     27  C   UNL     1      39.026  36.231  23.710  1.00  0.00    -0.000 C 
BRANCH  27  28
ATOM     28  C   UNL     1      39.666  37.574  23.317  1.00  0.00    -0.000 C 
BRANCH  28  29
ATOM     29  C   UNL     1      40.719  38.044  24.331  1.00  0.00    -0.003 C 
ATOM     30  C   UNL     1      41.111  39.510  24.149  1.00  0.00     0.004 C 
ENDBRANCH  28  29
ENDBRANCH  27  28
ENDBRANCH  26  27
ENDBRANCH  25  26
ENDBRANCH  24  25
ENDBRANCH  23  24
ENDBRANCH  22  23
ENDBRANCH  21  22
ENDBRANCH  20  21
ENDBRANCH  19  20
ENDBRANCH  18  19
ENDBRANCH  17  18
ENDBRANCH   1  17
TORSDOF 26
ENDMDL
MODEL 6
REMARK VINA RESULT:    -1.331      3.517      4.414
REMARK INTER + INTRA:          -9.524
REMARK INTER:                  -3.613
REMARK INTRA:                  -5.911
REMARK UNBOUND:                -6.171
REMARK SMILES CCCCCCCCCCCCCCCCCCCCCCCCCCCC(=O)[O-]
REMARK SMILES IDX 15 1 16 2 17 3 18 4 19 5 20 6 21 7 22 8 23 9 24 10 25 11
REMARK SMILES IDX 26 12 27 13 28 14 29 15 30 16 14 17 13 18 12 19 11 20 10 21
REMARK SMILES IDX 9 22 8 23 7 24 6 25 5 26 4 27 3 28 2 29 1 30
REMARK H PARENT
REMARK Flexibility Score: inf
ROOT
ATOM      1  C   UNL     1      43.171  50.385  19.307  1.00  0.00     0.000 C 
ENDROOT
BRANCH   1   2
ATOM      2  C   UNL     1      42.133  50.851  18.268  1.00  0.00     0.000 C 
BRANCH   2   3
ATOM      3  C   UNL     1      42.682  51.920  17.313  1.00  0.00     0.000 C 
BRANCH   3   4
ATOM      4  C   UNL     1      41.648  53.006  16.977  1.00  0.00     0.000 C 
BRANCH   4   5
ATOM      5  C   UNL     1      40.222  52.472  17.165  1.00  0.00     0.000 C 
BRANCH   5   6
ATOM      6  C   UNL     1      39.366  52.618  15.897  1.00  0.00     0.000 C 
BRANCH   6   7
ATOM      7  C   UNL     1      38.477  51.387  15.643  1.00  0.00     0.000 C 
BRANCH   7   8
ATOM      8  C   UNL     1      39.026  50.119  16.326  1.00  0.00     0.000 C 
BRANCH   8   9
ATOM      9  C   UNL     1      39.654  49.101  15.352  1.00  0.00     0.000 C 
BRANCH   9  10
ATOM     10  C   UNL     1      41.130  49.379  15.003  1.00  0.00     0.000 C 
BRANCH  10  11
ATOM     11  C   UNL     1      41.289  50.071  13.637  1.00  0.00     0.000 C 
BRANCH  11  12
ATOM     12  C   UNL     1      42.176  51.324  13.714  1.00  0.00     0.006 C 
BRANCH  12  13
ATOM     13  C   UNL     1      43.661  50.980  13.874  1.00  0.00     0.053 C 
BRANCH  13  14
ATOM     14  C   UNL     1      44.503  52.201  13.682  1.00  0.00     0.041 C 
ATOM     15  O   UNL     1      45.721  52.093  13.383  1.00  0.00    -0.550 OA
ATOM     16  O   UNL     1      43.957  53.461  13.894  1.00  0.00    -0.550 OA
ENDBRANCH  13  14
ENDBRANCH  12  13
ENDBRANCH  11  12
ENDBRANCH  10  11
ENDBRANCH   9  10
ENDBRANCH   8   9
ENDBRANCH   7   8
ENDBRANCH   6   7
ENDBRANCH   5   6
ENDBRANCH   4   5
ENDBRANCH   3   4
ENDBRANCH   2   3
ENDBRANCH   1   2
BRANCH   1  17
ATOM     17  C   UNL     1      42.820  50.859  20.728  1.00  0.00     0.000 C 
BRANCH  17  18
ATOM     18  C   UNL     1      42.351  52.325  20.764  1.00  0.00     0.000 C 
BRANCH  18  19
ATOM     19  C   UNL     1      41.764  52.740  22.131  1.00  0.00     0.000 C 
BRANCH  19  20
ATOM     20  C   UNL     1      40.491  53.615  22.027  1.00  0.00     0.000 C 
BRANCH  20  21
ATOM     21  C   UNL     1      40.199  54.125  20.605  1.00  0.00     0.000 C 
BRANCH  21  22
ATOM     22  C   UNL     1      38.762  53.797  20.143  1.00  0.00    -0.000 C 
BRANCH  22  23
ATOM     23  C   UNL     1      37.909  53.174  21.262  1.00  0.00    -0.000 C 
BRANCH  23  24
ATOM     24  C   UNL     1      37.332  51.795  20.892  1.00  0.00    -0.000 C 
BRANCH  24  25
ATOM     25  C   UNL     1      38.164  51.081  19.816  1.00  0.00    -0.000 C 
BRANCH  25  26
ATOM     26  C   UNL     1      39.201  50.141  20.451  1.00  0.00    -0.000 C 
BRANCH  26  27
ATOM     27  C   UNL     1      38.717  49.546  21.785  1.00  0.00    -0.000 C 
BRANCH  27  28
ATOM     28  C   UNL     1      39.686  49.834  22.945  1.00  0.00    -0.000 C 
BRANCH  28  29
ATOM     29  C   UNL     1      39.069  50.748  24.015  1.00  0.00    -0.003 C 
ATOM     30  C   UNL     1      40.086  51.226  25.051  1.00  0.00     0.004 C 
ENDBRANCH  28  29
ENDBRANCH  27  28
ENDBRANCH  26  27
ENDBRANCH  25  26
ENDBRANCH  24  25
ENDBRANCH  23  24
ENDBRANCH  22  23
ENDBRANCH  21  22
ENDBRANCH  20  21
ENDBRANCH  19  20
ENDBRANCH  18  19
ENDBRANCH  17  18
ENDBRANCH   1  17
TORSDOF 26
ENDMDL
MODEL 7
REMARK VINA RESULT:    -1.328      2.102      5.770
REMARK INTER + INTRA:          -9.518
REMARK INTER:                  -3.620
REMARK INTRA:                  -5.898
REMARK UNBOUND:                -6.171
REMARK SMILES CCCCCCCCCCCCCCCCCCCCCCCCCCCC(=O)[O-]
REMARK SMILES IDX 15 1 16 2 17 3 18 4 19 5 20 6 21 7 22 8 23 9 24 10 25 11
REMARK SMILES IDX 26 12 27 13 28 14 29 15 30 16 14 17 13 18 12 19 11 20 10 21
REMARK SMILES IDX 9 22 8 23 7 24 6 25 5 26 4 27 3 28 2 29 1 30
REMARK H PARENT
REMARK Flexibility Score: inf
ROOT
ATOM      1  C   UNL     1      45.320  52.469  18.659  1.00  0.00     0.000 C 
ENDROOT
BRANCH   1   2
ATOM      2  C   UNL     1      44.952  51.663  19.919  1.00  0.00     0.000 C 
BRANCH   2   3
ATOM      3  C   UNL     1      43.580  52.044  20.492  1.00  0.00     0.000 C 
BRANCH   3   4
ATOM      4  C   UNL     1      42.619  50.848  20.583  1.00  0.00     0.000 C 
BRANCH   4   5
ATOM      5  C   UNL     1      41.179  51.327  20.813  1.00  0.00     0.000 C 
BRANCH   5   6
ATOM      6  C   UNL     1      41.077  52.857  20.912  1.00  0.00     0.000 C 
BRANCH   6   7
ATOM      7  C   UNL     1      39.768  53.316  21.583  1.00  0.00     0.000 C 
BRANCH   7   8
ATOM      8  C   UNL     1      38.705  53.749  20.554  1.00  0.00     0.000 C 
BRANCH   8   9
ATOM      9  C   UNL     1      37.271  53.304  20.906  1.00  0.00     0.000 C 
BRANCH   9  10
ATOM     10  C   UNL     1      37.185  51.959  21.654  1.00  0.00     0.000 C 
BRANCH  10  11
ATOM     11  C   UNL     1      36.894  50.780  20.708  1.00  0.00     0.000 C 
BRANCH  11  12
ATOM     12  C   UNL     1      37.751  49.545  21.029  1.00  0.00     0.006 C 
BRANCH  12  13
ATOM     13  C   UNL     1      38.321  49.582  22.452  1.00  0.00     0.053 C 
BRANCH  13  14
ATOM     14  C   UNL     1      37.671  48.537  23.302  1.00  0.00     0.041 C 
ATOM     15  O   UNL     1      37.355  47.423  22.809  1.00  0.00    -0.550 OA
ATOM     16  O   UNL     1      37.356  48.817  24.626  1.00  0.00    -0.550 OA
ENDBRANCH  13  14
ENDBRANCH  12  13
ENDBRANCH  11  12
ENDBRANCH  10  11
ENDBRANCH   9  10
ENDBRANCH   8   9
ENDBRANCH   7   8
ENDBRANCH   6   7
ENDBRANCH   5   6
ENDBRANCH   4   5
ENDBRANCH   3   4
ENDBRANCH   2   3
ENDBRANCH   1   2
BRANCH   1  17
ATOM     17  C   UNL     1      44.157  53.352  18.175  1.00  0.00     0.000 C 
BRANCH  17  18
ATOM     18  C   UNL     1      43.977  53.308  16.646  1.00  0.00     0.000 C 
BRANCH  18  19
ATOM     19  C   UNL     1      42.532  52.972  16.216  1.00  0.00     0.000 C 
BRANCH  19  20
ATOM     20  C   UNL     1      41.534  52.876  17.397  1.00  0.00     0.000 C 
BRANCH  20  21
ATOM     21  C   UNL     1      40.117  53.369  17.059  1.00  0.00     0.000 C 
BRANCH  21  22
ATOM     22  C   UNL     1      39.143  52.210  16.758  1.00  0.00    -0.000 C 
BRANCH  22  23
ATOM     23  C   UNL     1      39.129  51.146  17.870  1.00  0.00    -0.000 C 
BRANCH  23  24
ATOM     24  C   UNL     1      39.485  49.734  17.367  1.00  0.00    -0.000 C 
BRANCH  24  25
ATOM     25  C   UNL     1      39.789  49.708  15.861  1.00  0.00    -0.000 C 
BRANCH  25  26
ATOM     26  C   UNL     1      41.289  49.491  15.602  1.00  0.00    -0.000 C 
BRANCH  26  27
ATOM     27  C   UNL     1      41.984  48.749  16.758  1.00  0.00    -0.000 C 
BRANCH  27  28
ATOM     28  C   UNL     1      43.112  49.578  17.396  1.00  0.00    -0.000 C 
BRANCH  28  29
ATOM     29  C   UNL     1      44.508  49.118  16.949  1.00  0.00    -0.003 C 
ATOM     30  C   UNL     1      45.016  49.864  15.717  1.00  0.00     0.004 C 
ENDBRANCH  28  29
ENDBRANCH  27  28
ENDBRANCH  26  27
ENDBRANCH  25  26
ENDBRANCH  24  25
ENDBRANCH  23  24
ENDBRANCH  22  23
ENDBRANCH  21  22
ENDBRANCH  20  21
ENDBRANCH  19  20
ENDBRANCH  18  19
ENDBRANCH  17  18
ENDBRANCH   1  17
TORSDOF 26
ENDMDL
MODEL 8
REMARK VINA RESULT:    -1.303     12.071     14.472
REMARK INTER + INTRA:          -9.454
REMARK INTER:                  -3.671
REMARK INTRA:                  -5.783
REMARK UNBOUND:                -6.171
REMARK SMILES CCCCCCCCCCCCCCCCCCCCCCCCCCCC(=O)[O-]
REMARK SMILES IDX 15 1 16 2 17 3 18 4 19 5 20 6 21 7 22 8 23 9 24 10 25 11
REMARK SMILES IDX 26 12 27 13 28 14 29 15 30 16 14 17 13 18 12 19 11 20 10 21
REMARK SMILES IDX 9 22 8 23 7 24 6 25 5 26 4 27 3 28 2 29 1 30
REMARK H PARENT
REMARK Flexibility Score: inf
ROOT
ATOM      1  C   UNL     1      40.183  38.292  17.989  1.00  0.00     0.000 C 
ENDROOT
BRANCH   1   2
ATOM      2  C   UNL     1      38.731  38.693  17.666  1.00  0.00     0.000 C 
BRANCH   2   3
ATOM      3  C   UNL     1      37.846  37.491  17.306  1.00  0.00     0.000 C 
BRANCH   3   4
ATOM      4  C   UNL     1      37.102  36.914  18.521  1.00  0.00     0.000 C 
BRANCH   4   5
ATOM      5  C   UNL     1      37.317  35.398  18.617  1.00  0.00     0.000 C 
BRANCH   5   6
ATOM      6  C   UNL     1      38.375  34.889  17.626  1.00  0.00     0.000 C 
BRANCH   6   7
ATOM      7  C   UNL     1      39.557  34.200  18.332  1.00  0.00     0.000 C 
BRANCH   7   8
ATOM      8  C   UNL     1      40.727  33.915  17.369  1.00  0.00     0.000 C 
BRANCH   8   9
ATOM      9  C   UNL     1      41.757  35.058  17.274  1.00  0.00     0.000 C 
BRANCH   9  10
ATOM     10  C   UNL     1      41.847  35.722  15.885  1.00  0.00     0.000 C 
BRANCH  10  11
ATOM     11  C   UNL     1      40.890  35.080  14.865  1.00  0.00     0.000 C 
BRANCH  11  12
ATOM     12  C   UNL     1      39.718  36.004  14.496  1.00  0.00     0.006 C 
BRANCH  12  13
ATOM     13  C   UNL     1      40.183  37.421  14.136  1.00  0.00     0.053 C 
BRANCH  13  14
ATOM     14  C   UNL     1      40.821  37.431  12.783  1.00  0.00     0.041 C 
ATOM     15  O   UNL     1      40.227  36.922  11.796  1.00  0.00    -0.550 OA
ATOM     16  O   UNL     1      42.101  37.947  12.623  1.00  0.00    -0.550 OA
ENDBRANCH  13  14
ENDBRANCH  12  13
ENDBRANCH  11  12
ENDBRANCH  10  11
ENDBRANCH   9  10
ENDBRANCH   8   9
ENDBRANCH   7   8
ENDBRANCH   6   7
ENDBRANCH   5   6
ENDBRANCH   4   5
ENDBRANCH   3   4
ENDBRANCH   2   3
ENDBRANCH   1   2
BRANCH   1  17
ATOM     17  C   UNL     1      40.665  38.886  19.324  1.00  0.00     0.000 C 
BRANCH  17  18
ATOM     18  C   UNL     1      39.945  38.271  20.538  1.00  0.00     0.000 C 
BRANCH  18  19
ATOM     19  C   UNL     1      40.167  36.747  20.665  1.00  0.00     0.000 C 
BRANCH  19  20
ATOM     20  C   UNL     1      41.651  36.344  20.847  1.00  0.00     0.000 C 
BRANCH  20  21
ATOM     21  C   UNL     1      42.130  36.369  22.309  1.00  0.00     0.000 C 
BRANCH  21  22
ATOM     22  C   UNL     1      41.279  35.466  23.227  1.00  0.00    -0.000 C 
BRANCH  22  23
ATOM     23  C   UNL     1      40.822  36.188  24.507  1.00  0.00    -0.000 C 
BRANCH  23  24
ATOM     24  C   UNL     1      40.663  37.709  24.325  1.00  0.00    -0.000 C 
BRANCH  24  25
ATOM     25  C   UNL     1      39.198  38.125  24.124  1.00  0.00    -0.000 C 
BRANCH  25  26
ATOM     26  C   UNL     1      38.278  37.419  25.133  1.00  0.00    -0.000 C 
BRANCH  26  27
ATOM     27  C   UNL     1      37.068  36.750  24.458  1.00  0.00    -0.000 C 
BRANCH  27  28
ATOM     28  C   UNL     1      37.058  36.949  22.933  1.00  0.00    -0.000 C 
BRANCH  28  29
ATOM     29  C   UNL     1      36.948  35.622  22.166  1.00  0.00    -0.003 C 
ATOM     30  C   UNL     1      37.830  34.519  22.751  1.00  0.00     0.004 C 
ENDBRANCH  28  29
ENDBRANCH  27  28
ENDBRANCH  26  27
ENDBRANCH  25  26
ENDBRANCH  24  25
ENDBRANCH  23  24
ENDBRANCH  22  23
ENDBRANCH  21  22
ENDBRANCH  20  21
ENDBRANCH  19  20
ENDBRANCH  18  19
ENDBRANCH  17  18
ENDBRANCH   1  17
TORSDOF 26
ENDMDL
MODEL 9
REMARK VINA RESULT:    -1.202      9.737     14.520
REMARK INTER + INTRA:          -9.201
REMARK INTER:                  -3.694
REMARK INTRA:                  -5.507
REMARK UNBOUND:                -6.171
REMARK SMILES CCCCCCCCCCCCCCCCCCCCCCCCCCCC(=O)[O-]
REMARK SMILES IDX 15 1 16 2 17 3 18 4 19 5 20 6 21 7 22 8 23 9 24 10 25 11
REMARK SMILES IDX 26 12 27 13 28 14 29 15 30 16 14 17 13 18 12 19 11 20 10 21
REMARK SMILES IDX 9 22 8 23 7 24 6 25 5 26 4 27 3 28 2 29 1 30
REMARK H PARENT
REMARK Flexibility Score: inf
ROOT
ATOM      1  C   UNL     1      41.794  35.272  19.776  1.00  0.00     0.000 C 
ENDROOT
BRANCH   1   2
ATOM      2  C   UNL     1      42.710  35.313  21.014  1.00  0.00     0.000 C 
BRANCH   2   3
ATOM      3  C   UNL     1      42.418  34.184  22.011  1.00  0.00     0.000 C 
BRANCH   3   4
ATOM      4  C   UNL     1      41.314  34.547  23.017  1.00  0.00     0.000 C 
BRANCH   4   5
ATOM      5  C   UNL     1      39.988  33.879  22.630  1.00  0.00     0.000 C 
BRANCH   5   6
ATOM      6  C   UNL     1      38.851  34.218  23.606  1.00  0.00     0.000 C 
BRANCH   6   7
ATOM      7  C   UNL     1      37.650  34.878  22.903  1.00  0.00     0.000 C 
BRANCH   7   8
ATOM      8  C   UNL     1      38.046  35.538  21.567  1.00  0.00     0.000 C 
BRANCH   8   9
ATOM      9  C   UNL     1      37.784  37.057  21.513  1.00  0.00     0.000 C 
BRANCH   9  10
ATOM     10  C   UNL     1      39.056  37.920  21.396  1.00  0.00     0.000 C 
BRANCH  10  11
ATOM     11  C   UNL     1      39.954  37.811  22.641  1.00  0.00     0.000 C 
BRANCH  11  12
ATOM     12  C   UNL     1      41.341  38.437  22.421  1.00  0.00     0.006 C 
BRANCH  12  13
ATOM     13  C   UNL     1      41.548  39.706  23.257  1.00  0.00     0.053 C 
BRANCH  13  14
ATOM     14  C   UNL     1      41.576  39.372  24.714  1.00  0.00     0.041 C 
ATOM     15  O   UNL     1      41.124  40.186  25.561  1.00  0.00    -0.550 OA
ATOM     16  O   UNL     1      42.158  38.186  25.143  1.00  0.00    -0.550 OA
ENDBRANCH  13  14
ENDBRANCH  12  13
ENDBRANCH  11  12
ENDBRANCH  10  11
ENDBRANCH   9  10
ENDBRANCH   8   9
ENDBRANCH   7   8
ENDBRANCH   6   7
ENDBRANCH   5   6
ENDBRANCH   4   5
ENDBRANCH   3   4
ENDBRANCH   2   3
ENDBRANCH   1   2
BRANCH   1  17
ATOM     17  C   UNL     1      41.634  36.657  19.127  1.00  0.00     0.000 C 
BRANCH  17  18
ATOM     18  C   UNL     1      40.975  36.587  17.737  1.00  0.00     0.000 C 
BRANCH  18  19
ATOM     19  C   UNL     1      40.929  35.154  17.161  1.00  0.00     0.000 C 
BRANCH  19  20
ATOM     20  C   UNL     1      39.498  34.643  16.867  1.00  0.00     0.000 C 
BRANCH  20  21
ATOM     21  C   UNL     1      38.579  34.613  18.101  1.00  0.00     0.000 C 
BRANCH  21  22
ATOM     22  C   UNL     1      37.276  35.414  17.888  1.00  0.00    -0.000 C 
BRANCH  22  23
ATOM     23  C   UNL     1      37.211  36.078  16.500  1.00  0.00    -0.000 C 
BRANCH  23  24
ATOM     24  C   UNL     1      37.295  37.615  16.556  1.00  0.00    -0.000 C 
BRANCH  24  25
ATOM     25  C   UNL     1      37.690  38.130  17.949  1.00  0.00    -0.000 C 
BRANCH  25  26
ATOM     26  C   UNL     1      37.094  39.522  18.215  1.00  0.00    -0.000 C 
BRANCH  26  27
ATOM     27  C   UNL     1      38.177  40.595  18.426  1.00  0.00    -0.000 C 
BRANCH  27  28
ATOM     28  C   UNL     1      39.574  40.114  18.001  1.00  0.00    -0.000 C 
BRANCH  28  29
ATOM     29  C   UNL     1      40.626  40.311  19.104  1.00  0.00    -0.003 C 
ATOM     30  C   UNL     1      40.191  41.312  20.172  1.00  0.00     0.004 C 
ENDBRANCH  28  29
ENDBRANCH  27  28
ENDBRANCH  26  27
ENDBRANCH  25  26
ENDBRANCH  24  25
ENDBRANCH  23  24
ENDBRANCH  22  23
ENDBRANCH  21  22
ENDBRANCH  20  21
ENDBRANCH  19  20
ENDBRANCH  18  19
ENDBRANCH  17  18
ENDBRANCH   1  17
TORSDOF 26
ENDMDL
