MODEL 1
REMARK VINA RESULT:    -4.382      0.000      0.000
REMARK INTER + INTRA:         -15.326
REMARK INTER:                 -11.554
REMARK INTRA:                  -3.772
REMARK UNBOUND:                -3.772
REMARK SMILES CCCCCCCCCCCCCCCCCCCCCCCCCCCCCC(=O)[O-]
REMARK SMILES IDX 16 1 17 2 18 3 19 4 20 5 21 6 22 7 23 8 24 9 25 10 26 11
REMARK SMILES IDX 27 12 28 13 29 14 30 15 31 16 32 17 15 18 14 19 13 20 12 21
REMARK SMILES IDX 11 22 10 23 9 24 8 25 7 26 6 27 5 28 4 29 3 30 2 31 1 32
REMARK H PARENT
REMARK Flexibility Score: inf
ROOT
ATOM      1  C   UNL     1      12.613  23.052 -20.924  1.00  0.00     0.000 C 
ENDROOT
BRANCH   1   2
ATOM      2  C   UNL     1      11.890  22.198 -19.868  1.00  0.00     0.000 C 
BRANCH   2   3
ATOM      3  C   UNL     1      12.765  21.917 -18.634  1.00  0.00     0.000 C 
BRANCH   3   4
ATOM      4  C   UNL     1      13.854  20.866 -18.913  1.00  0.00     0.000 C 
BRANCH   4   5
ATOM      5  C   UNL     1      15.234  21.289 -18.380  1.00  0.00     0.000 C 
BRANCH   5   6
ATOM      6  C   UNL     1      16.291  20.183 -18.526  1.00  0.00     0.000 C 
BRANCH   6   7
ATOM      7  C   UNL     1      15.685  18.925 -19.167  1.00  0.00     0.000 C 
BRANCH   7   8
ATOM      8  C   UNL     1      16.559  17.675 -18.968  1.00  0.00     0.000 C 
BRANCH   8   9
ATOM      9  C   UNL     1      16.069  16.787 -17.811  1.00  0.00     0.000 C 
BRANCH   9  10
ATOM     10  C   UNL     1      17.175  16.468 -16.789  1.00  0.00     0.000 C 
BRANCH  10  11
ATOM     11  C   UNL     1      18.036  17.671 -16.357  1.00  0.00     0.000 C 
BRANCH  11  12
ATOM     12  C   UNL     1      17.319  18.593 -15.359  1.00  0.00     0.000 C 
BRANCH  12  13
ATOM     13  C   UNL     1      18.072  18.644 -14.022  1.00  0.00     0.006 C 
BRANCH  13  14
ATOM     14  C   UNL     1      19.595  18.664 -14.212  1.00  0.00     0.053 C 
BRANCH  14  15
ATOM     15  C   UNL     1      20.256  19.652 -13.299  1.00  0.00     0.041 C 
ATOM     16  O   UNL     1      21.479  19.538 -13.019  1.00  0.00    -0.550 OA
ATOM     17  O   UNL     1      19.524  20.703 -12.762  1.00  0.00    -0.550 OA
ENDBRANCH  14  15
ENDBRANCH  13  14
ENDBRANCH  12  13
ENDBRANCH  11  12
ENDBRANCH  10  11
ENDBRANCH   9  10
ENDBRANCH   8   9
ENDBRANCH   7   8
ENDBRANCH   6   7
ENDBRANCH   5   6
ENDBRANCH   4   5
ENDBRANCH   3   4
ENDBRANCH   2   3
ENDBRANCH   1   2
BRANCH   1  18
ATOM     18  C   UNL     1      12.589  22.416 -22.327  1.00  0.00     0.000 C 
BRANCH  18  19
ATOM     19  C   UNL     1      12.635  23.414 -23.499  1.00  0.00     0.000 C 
BRANCH  19  20
ATOM     20  C   UNL     1      13.356  22.853 -24.736  1.00  0.00     0.000 C 
BRANCH  20  21
ATOM     21  C   UNL     1      12.399  22.534 -25.900  1.00  0.00     0.000 C 
BRANCH  21  22
ATOM     22  C   UNL     1      13.075  22.138 -27.227  1.00  0.00     0.000 C 
BRANCH  22  23
ATOM     23  C   UNL     1      12.540  20.817 -27.806  1.00  0.00     0.000 C 
BRANCH  23  24
ATOM     24  C   UNL     1      12.016  19.850 -26.727  1.00  0.00    -0.000 C 
BRANCH  24  25
ATOM     25  C   UNL     1      12.750  18.499 -26.629  1.00  0.00    -0.000 C 
BRANCH  25  26
ATOM     26  C   UNL     1      13.006  18.055 -25.179  1.00  0.00    -0.000 C 
BRANCH  26  27
ATOM     27  C   UNL     1      12.892  19.210 -24.167  1.00  0.00    -0.000 C 
BRANCH  27  28
ATOM     28  C   UNL     1      13.731  19.053 -22.885  1.00  0.00    -0.000 C 
BRANCH  28  29
ATOM     29  C   UNL     1      12.880  18.734 -21.644  1.00  0.00    -0.000 C 
BRANCH  29  30
ATOM     30  C   UNL     1      12.945  17.249 -21.238  1.00  0.00    -0.000 C 
BRANCH  30  31
ATOM     31  C   UNL     1      14.238  16.516 -21.643  1.00  0.00    -0.003 C 
ATOM     32  C   UNL     1      14.017  15.458 -22.723  1.00  0.00     0.004 C 
ENDBRANCH  30  31
ENDBRANCH  29  30
ENDBRANCH  28  29
ENDBRANCH  27  28
ENDBRANCH  26  27
ENDBRANCH  25  26
ENDBRANCH  24  25
ENDBRANCH  23  24
ENDBRANCH  22  23
ENDBRANCH  21  22
ENDBRANCH  20  21
ENDBRANCH  19  20
ENDBRANCH  18  19
ENDBRANCH   1  18
TORSDOF 28
ENDMDL
MODEL 2
REMARK VINA RESULT:    -4.263      1.703      2.759
REMARK INTER + INTRA:         -15.012
REMARK INTER:                 -11.017
REMARK INTRA:                  -3.995
REMARK UNBOUND:                -3.772
REMARK SMILES CCCCCCCCCCCCCCCCCCCCCCCCCCCCCC(=O)[O-]
REMARK SMILES IDX 16 1 17 2 18 3 19 4 20 5 21 6 22 7 23 8 24 9 25 10 26 11
REMARK SMILES IDX 27 12 28 13 29 14 30 15 31 16 32 17 15 18 14 19 13 20 12 21
REMARK SMILES IDX 11 22 10 23 9 24 8 25 7 26 6 27 5 28 4 29 3 30 2 31 1 32
REMARK H PARENT
REMARK Flexibility Score: inf
ROOT
ATOM      1  C   UNL     1      13.090  21.935 -19.034  1.00  0.00     0.000 C 
ENDROOT
BRANCH   1   2
ATOM      2  C   UNL     1      14.153  21.149 -18.247  1.00  0.00     0.000 C 
BRANCH   2   3
ATOM      3  C   UNL     1      15.588  21.518 -18.659  1.00  0.00     0.000 C 
BRANCH   3   4
ATOM      4  C   UNL     1      16.585  20.374 -18.402  1.00  0.00     0.000 C 
BRANCH   4   5
ATOM      5  C   UNL     1      17.788  20.817 -17.551  1.00  0.00     0.000 C 
BRANCH   5   6
ATOM      6  C   UNL     1      18.338  19.687 -16.666  1.00  0.00     0.000 C 
BRANCH   6   7
ATOM      7  C   UNL     1      17.820  18.319 -17.138  1.00  0.00     0.000 C 
BRANCH   7   8
ATOM      8  C   UNL     1      16.941  17.622 -16.085  1.00  0.00     0.000 C 
BRANCH   8   9
ATOM      9  C   UNL     1      17.076  18.251 -14.688  1.00  0.00     0.000 C 
BRANCH   9  10
ATOM     10  C   UNL     1      17.382  17.216 -13.590  1.00  0.00     0.000 C 
BRANCH  10  11
ATOM     11  C   UNL     1      18.526  17.596 -12.631  1.00  0.00     0.000 C 
BRANCH  11  12
ATOM     12  C   UNL     1      19.069  19.012 -12.877  1.00  0.00     0.000 C 
BRANCH  12  13
ATOM     13  C   UNL     1      20.341  18.969 -13.737  1.00  0.00     0.006 C 
BRANCH  13  14
ATOM     14  C   UNL     1      21.122  17.661 -13.557  1.00  0.00     0.053 C 
BRANCH  14  15
ATOM     15  C   UNL     1      21.280  16.925 -14.852  1.00  0.00     0.041 C 
ATOM     16  O   UNL     1      20.265  16.582 -15.516  1.00  0.00    -0.550 OA
ATOM     17  O   UNL     1      22.548  16.622 -15.331  1.00  0.00    -0.550 OA
ENDBRANCH  14  15
ENDBRANCH  13  14
ENDBRANCH  12  13
ENDBRANCH  11  12
ENDBRANCH  10  11
ENDBRANCH   9  10
ENDBRANCH   8   9
ENDBRANCH   7   8
ENDBRANCH   6   7
ENDBRANCH   5   6
ENDBRANCH   4   5
ENDBRANCH   3   4
ENDBRANCH   2   3
ENDBRANCH   1   2
BRANCH   1  18
ATOM     18  C   UNL     1      13.667  22.648 -20.272  1.00  0.00     0.000 C 
BRANCH  18  19
ATOM     19  C   UNL     1      12.621  23.183 -21.266  1.00  0.00     0.000 C 
BRANCH  19  20
ATOM     20  C   UNL     1      12.822  22.649 -22.694  1.00  0.00     0.000 C 
BRANCH  20  21
ATOM     21  C   UNL     1      12.632  23.730 -23.776  1.00  0.00     0.000 C 
BRANCH  21  22
ATOM     22  C   UNL     1      12.499  23.208 -25.220  1.00  0.00     0.000 C 
BRANCH  22  23
ATOM     23  C   UNL     1      13.340  21.948 -25.486  1.00  0.00     0.000 C 
BRANCH  23  24
ATOM     24  C   UNL     1      12.638  20.936 -26.413  1.00  0.00    -0.000 C 
BRANCH  24  25
ATOM     25  C   UNL     1      12.609  19.480 -25.910  1.00  0.00    -0.000 C 
BRANCH  25  26
ATOM     26  C   UNL     1      12.092  19.350 -24.467  1.00  0.00    -0.000 C 
BRANCH  26  27
ATOM     27  C   UNL     1      13.158  18.816 -23.493  1.00  0.00    -0.000 C 
BRANCH  27  28
ATOM     28  C   UNL     1      12.864  19.045 -21.998  1.00  0.00    -0.000 C 
BRANCH  28  29
ATOM     29  C   UNL     1      14.134  19.068 -21.131  1.00  0.00    -0.000 C 
BRANCH  29  30
ATOM     30  C   UNL     1      14.180  17.920 -20.104  1.00  0.00    -0.000 C 
BRANCH  30  31
ATOM     31  C   UNL     1      15.394  16.980 -20.226  1.00  0.00    -0.003 C 
ATOM     32  C   UNL     1      16.542  17.583 -21.036  1.00  0.00     0.004 C 
ENDBRANCH  30  31
ENDBRANCH  29  30
ENDBRANCH  28  29
ENDBRANCH  27  28
ENDBRANCH  26  27
ENDBRANCH  25  26
ENDBRANCH  24  25
ENDBRANCH  23  24
ENDBRANCH  22  23
ENDBRANCH  21  22
ENDBRANCH  20  21
ENDBRANCH  19  20
ENDBRANCH  18  19
ENDBRANCH   1  18
TORSDOF 28
ENDMDL
MODEL 3
REMARK VINA RESULT:    -4.226      2.032      9.044
REMARK INTER + INTRA:         -14.914
REMARK INTER:                 -10.984
REMARK INTRA:                  -3.931
REMARK UNBOUND:                -3.772
REMARK SMILES CCCCCCCCCCCCCCCCCCCCCCCCCCCCCC(=O)[O-]
REMARK SMILES IDX 16 1 17 2 18 3 19 4 20 5 21 6 22 7 23 8 24 9 25 10 26 11
REMARK SMILES IDX 27 12 28 13 29 14 30 15 31 16 32 17 15 18 14 19 13 20 12 21
REMARK SMILES IDX 11 22 10 23 9 24 8 25 7 26 6 27 5 28 4 29 3 30 2 31 1 32
REMARK H PARENT
REMARK Flexibility Score: inf
ROOT
ATOM      1  C   UNL     1      13.759  19.289 -22.758  1.00  0.00     0.000 C 
ENDROOT
BRANCH   1   2
ATOM      2  C   UNL     1      12.623  19.114 -23.781  1.00  0.00     0.000 C 
BRANCH   2   3
ATOM      3  C   UNL     1      12.981  18.120 -24.900  1.00  0.00     0.000 C 
BRANCH   3   4
ATOM      4  C   UNL     1      12.654  18.668 -26.300  1.00  0.00     0.000 C 
BRANCH   4   5
ATOM      5  C   UNL     1      12.100  20.103 -26.260  1.00  0.00     0.000 C 
BRANCH   5   6
ATOM      6  C   UNL     1      12.654  20.986 -27.389  1.00  0.00     0.000 C 
BRANCH   6   7
ATOM      7  C   UNL     1      13.021  22.383 -26.864  1.00  0.00     0.000 C 
BRANCH   7   8
ATOM      8  C   UNL     1      13.533  22.358 -25.414  1.00  0.00     0.000 C 
BRANCH   8   9
ATOM      9  C   UNL     1      12.760  23.321 -24.495  1.00  0.00     0.000 C 
BRANCH   9  10
ATOM     10  C   UNL     1      12.260  22.648 -23.205  1.00  0.00     0.000 C 
BRANCH  10  11
ATOM     11  C   UNL     1      12.634  23.374 -21.899  1.00  0.00     0.000 C 
BRANCH  11  12
ATOM     12  C   UNL     1      12.644  22.443 -20.677  1.00  0.00     0.000 C 
BRANCH  12  13
ATOM     13  C   UNL     1      14.046  22.368 -20.056  1.00  0.00     0.006 C 
BRANCH  13  14
ATOM     14  C   UNL     1      14.089  21.457 -18.823  1.00  0.00     0.053 C 
BRANCH  14  15
ATOM     15  C   UNL     1      15.463  21.391 -18.227  1.00  0.00     0.041 C 
ATOM     16  O   UNL     1      16.347  22.217 -18.577  1.00  0.00    -0.550 OA
ATOM     17  O   UNL     1      15.765  20.420 -17.281  1.00  0.00    -0.550 OA
ENDBRANCH  14  15
ENDBRANCH  13  14
ENDBRANCH  12  13
ENDBRANCH  11  12
ENDBRANCH  10  11
ENDBRANCH   9  10
ENDBRANCH   8   9
ENDBRANCH   7   8
ENDBRANCH   6   7
ENDBRANCH   5   6
ENDBRANCH   4   5
ENDBRANCH   3   4
ENDBRANCH   2   3
ENDBRANCH   1   2
BRANCH   1  18
ATOM     18  C   UNL     1      13.350  18.870 -21.334  1.00  0.00     0.000 C 
BRANCH  18  19
ATOM     19  C   UNL     1      14.037  17.599 -20.802  1.00  0.00     0.000 C 
BRANCH  19  20
ATOM     20  C   UNL     1      14.963  17.872 -19.605  1.00  0.00     0.000 C 
BRANCH  20  21
ATOM     21  C   UNL     1      16.392  17.333 -19.811  1.00  0.00     0.000 C 
BRANCH  21  22
ATOM     22  C   UNL     1      16.989  16.561 -18.619  1.00  0.00     0.000 C 
BRANCH  22  23
ATOM     23  C   UNL     1      17.544  17.482 -17.520  1.00  0.00     0.000 C 
BRANCH  23  24
ATOM     24  C   UNL     1      16.796  17.346 -16.180  1.00  0.00    -0.000 C 
BRANCH  24  25
ATOM     25  C   UNL     1      16.954  15.991 -15.464  1.00  0.00    -0.000 C 
BRANCH  25  26
ATOM     26  C   UNL     1      17.834  16.072 -14.204  1.00  0.00    -0.000 C 
BRANCH  26  27
ATOM     27  C   UNL     1      18.086  17.518 -13.740  1.00  0.00    -0.000 C 
BRANCH  27  28
ATOM     28  C   UNL     1      19.561  17.962 -13.725  1.00  0.00    -0.000 C 
BRANCH  28  29
ATOM     29  C   UNL     1      19.872  19.054 -14.763  1.00  0.00    -0.000 C 
BRANCH  29  30
ATOM     30  C   UNL     1      20.753  18.548 -15.920  1.00  0.00    -0.000 C 
BRANCH  30  31
ATOM     31  C   UNL     1      21.425  17.182 -15.683  1.00  0.00    -0.003 C 
ATOM     32  C   UNL     1      20.812  16.057 -16.518  1.00  0.00     0.004 C 
ENDBRANCH  30  31
ENDBRANCH  29  30
ENDBRANCH  28  29
ENDBRANCH  27  28
ENDBRANCH  26  27
ENDBRANCH  25  26
ENDBRANCH  24  25
ENDBRANCH  23  24
ENDBRANCH  22  23
ENDBRANCH  21  22
ENDBRANCH  20  21
ENDBRANCH  19  20
ENDBRANCH  18  19
ENDBRANCH   1  18
TORSDOF 28
ENDMDL
MODEL 4
REMARK VINA RESULT:    -4.197      2.856      9.647
REMARK INTER + INTRA:         -14.839
REMARK INTER:                 -11.234
REMARK INTRA:                  -3.605
REMARK UNBOUND:                -3.772
REMARK SMILES CCCCCCCCCCCCCCCCCCCCCCCCCCCCCC(=O)[O-]
REMARK SMILES IDX 16 1 17 2 18 3 19 4 20 5 21 6 22 7 23 8 24 9 25 10 26 11
REMARK SMILES IDX 27 12 28 13 29 14 30 15 31 16 32 17 15 18 14 19 13 20 12 21
REMARK SMILES IDX 11 22 10 23 9 24 8 25 7 26 6 27 5 28 4 29 3 30 2 31 1 32
REMARK H PARENT
REMARK Flexibility Score: inf
ROOT
ATOM      1  C   UNL     1      13.615  21.033 -19.333  1.00  0.00     0.000 C 
ENDROOT
BRANCH   1   2
ATOM      2  C   UNL     1      12.377  21.915 -19.092  1.00  0.00     0.000 C 
BRANCH   2   3
ATOM      3  C   UNL     1      12.139  22.925 -20.228  1.00  0.00     0.000 C 
BRANCH   3   4
ATOM      4  C   UNL     1      11.962  22.240 -21.595  1.00  0.00     0.000 C 
BRANCH   4   5
ATOM      5  C   UNL     1      13.081  22.601 -22.587  1.00  0.00     0.000 C 
BRANCH   5   6
ATOM      6  C   UNL     1      12.544  22.987 -23.974  1.00  0.00     0.000 C 
BRANCH   6   7
ATOM      7  C   UNL     1      13.659  22.930 -25.030  1.00  0.00     0.000 C 
BRANCH   7   8
ATOM      8  C   UNL     1      13.161  22.426 -26.395  1.00  0.00     0.000 C 
BRANCH   8   9
ATOM      9  C   UNL     1      12.073  21.344 -26.267  1.00  0.00     0.000 C 
BRANCH   9  10
ATOM     10  C   UNL     1      12.532  19.969 -26.783  1.00  0.00     0.000 C 
BRANCH  10  11
ATOM     11  C   UNL     1      12.444  18.822 -25.758  1.00  0.00     0.000 C 
BRANCH  11  12
ATOM     12  C   UNL     1      12.534  19.309 -24.303  1.00  0.00     0.000 C 
BRANCH  12  13
ATOM     13  C   UNL     1      13.359  18.335 -23.450  1.00  0.00     0.006 C 
BRANCH  13  14
ATOM     14  C   UNL     1      14.138  19.050 -22.338  1.00  0.00     0.053 C 
BRANCH  14  15
ATOM     15  C   UNL     1      15.121  18.137 -21.671  1.00  0.00     0.041 C 
ATOM     16  O   UNL     1      15.661  18.472 -20.583  1.00  0.00    -0.550 OA
ATOM     17  O   UNL     1      15.437  16.913 -22.248  1.00  0.00    -0.550 OA
ENDBRANCH  14  15
ENDBRANCH  13  14
ENDBRANCH  12  13
ENDBRANCH  11  12
ENDBRANCH  10  11
ENDBRANCH   9  10
ENDBRANCH   8   9
ENDBRANCH   7   8
ENDBRANCH   6   7
ENDBRANCH   5   6
ENDBRANCH   4   5
ENDBRANCH   3   4
ENDBRANCH   2   3
ENDBRANCH   1   2
BRANCH   1  18
ATOM     18  C   UNL     1      14.637  21.110 -18.184  1.00  0.00     0.000 C 
BRANCH  18  19
ATOM     19  C   UNL     1      16.020  21.662 -18.575  1.00  0.00     0.000 C 
BRANCH  19  20
ATOM     20  C   UNL     1      17.181  20.862 -17.962  1.00  0.00     0.000 C 
BRANCH  20  21
ATOM     21  C   UNL     1      16.708  19.676 -17.099  1.00  0.00     0.000 C 
BRANCH  21  22
ATOM     22  C   UNL     1      17.828  18.815 -16.483  1.00  0.00     0.000 C 
BRANCH  22  23
ATOM     23  C   UNL     1      19.057  19.636 -16.058  1.00  0.00     0.000 C 
BRANCH  23  24
ATOM     24  C   UNL     1      20.343  18.793 -15.953  1.00  0.00    -0.000 C 
BRANCH  24  25
ATOM     25  C   UNL     1      20.552  18.062 -14.613  1.00  0.00    -0.000 C 
BRANCH  25  26
ATOM     26  C   UNL     1      20.169  18.916 -13.393  1.00  0.00    -0.000 C 
BRANCH  26  27
ATOM     27  C   UNL     1      19.430  18.114 -12.306  1.00  0.00    -0.000 C 
BRANCH  27  28
ATOM     28  C   UNL     1      18.850  16.761 -12.760  1.00  0.00    -0.000 C 
BRANCH  28  29
ATOM     29  C   UNL     1      17.333  16.810 -13.009  1.00  0.00    -0.000 C 
BRANCH  29  30
ATOM     30  C   UNL     1      16.934  16.258 -14.391  1.00  0.00    -0.000 C 
BRANCH  30  31
ATOM     31  C   UNL     1      17.710  15.006 -14.845  1.00  0.00    -0.003 C 
ATOM     32  C   UNL     1      18.428  15.195 -16.181  1.00  0.00     0.004 C 
ENDBRANCH  30  31
ENDBRANCH  29  30
ENDBRANCH  28  29
ENDBRANCH  27  28
ENDBRANCH  26  27
ENDBRANCH  25  26
ENDBRANCH  24  25
ENDBRANCH  23  24
ENDBRANCH  22  23
ENDBRANCH  21  22
ENDBRANCH  20  21
ENDBRANCH  19  20
ENDBRANCH  18  19
ENDBRANCH   1  18
TORSDOF 28
ENDMDL
MODEL 5
REMARK VINA RESULT:    -4.157      3.301      4.694
REMARK INTER + INTRA:         -14.734
REMARK INTER:                 -10.775
REMARK INTRA:                  -3.959
REMARK UNBOUND:                -3.772
REMARK SMILES CCCCCCCCCCCCCCCCCCCCCCCCCCCCCC(=O)[O-]
REMARK SMILES IDX 16 1 17 2 18 3 19 4 20 5 21 6 22 7 23 8 24 9 25 10 26 11
REMARK SMILES IDX 27 12 28 13 29 14 30 15 31 16 32 17 15 18 14 19 13 20 12 21
REMARK SMILES IDX 11 22 10 23 9 24 8 25 7 26 6 27 5 28 4 29 3 30 2 31 1 32
REMARK H PARENT
REMARK Flexibility Score: inf
ROOT
ATOM      1  C   UNL     1      12.977  21.520 -18.488  1.00  0.00     0.000 C 
ENDROOT
BRANCH   1   2
ATOM      2  C   UNL     1      14.325  20.822 -18.741  1.00  0.00     0.000 C 
BRANCH   2   3
ATOM      3  C   UNL     1      15.496  21.815 -18.840  1.00  0.00     0.000 C 
BRANCH   3   4
ATOM      4  C   UNL     1      16.785  21.269 -18.200  1.00  0.00     0.000 C 
BRANCH   4   5
ATOM      5  C   UNL     1      16.521  20.082 -17.257  1.00  0.00     0.000 C 
BRANCH   5   6
ATOM      6  C   UNL     1      17.803  19.321 -16.887  1.00  0.00     0.000 C 
BRANCH   6   7
ATOM      7  C   UNL     1      17.662  18.642 -15.515  1.00  0.00     0.000 C 
BRANCH   7   8
ATOM      8  C   UNL     1      18.102  17.169 -15.532  1.00  0.00     0.000 C 
BRANCH   8   9
ATOM      9  C   UNL     1      19.500  16.960 -14.923  1.00  0.00     0.000 C 
BRANCH   9  10
ATOM     10  C   UNL     1      20.635  17.162 -15.943  1.00  0.00     0.000 C 
BRANCH  10  11
ATOM     11  C   UNL     1      20.470  16.391 -17.267  1.00  0.00     0.000 C 
BRANCH  11  12
ATOM     12  C   UNL     1      21.580  15.354 -17.500  1.00  0.00     0.000 C 
BRANCH  12  13
ATOM     13  C   UNL     1      21.114  13.951 -17.085  1.00  0.00     0.006 C 
BRANCH  13  14
ATOM     14  C   UNL     1      20.355  13.234 -18.210  1.00  0.00     0.053 C 
BRANCH  14  15
ATOM     15  C   UNL     1      21.279  12.453 -19.094  1.00  0.00     0.041 C 
ATOM     16  O   UNL     1      22.416  12.107 -18.677  1.00  0.00    -0.550 OA
ATOM     17  O   UNL     1      20.883  12.103 -20.379  1.00  0.00    -0.550 OA
ENDBRANCH  14  15
ENDBRANCH  13  14
ENDBRANCH  12  13
ENDBRANCH  11  12
ENDBRANCH  10  11
ENDBRANCH   9  10
ENDBRANCH   8   9
ENDBRANCH   7   8
ENDBRANCH   6   7
ENDBRANCH   5   6
ENDBRANCH   4   5
ENDBRANCH   3   4
ENDBRANCH   2   3
ENDBRANCH   1   2
BRANCH   1  18
ATOM     18  C   UNL     1      12.122  21.650 -19.762  1.00  0.00     0.000 C 
BRANCH  18  19
ATOM     19  C   UNL     1      12.237  23.000 -20.493  1.00  0.00     0.000 C 
BRANCH  19  20
ATOM     20  C   UNL     1      13.202  22.955 -21.689  1.00  0.00     0.000 C 
BRANCH  20  21
ATOM     21  C   UNL     1      12.478  22.965 -23.050  1.00  0.00     0.000 C 
BRANCH  21  22
ATOM     22  C   UNL     1      13.385  22.807 -24.286  1.00  0.00     0.000 C 
BRANCH  22  23
ATOM     23  C   UNL     1      13.109  21.516 -25.075  1.00  0.00     0.000 C 
BRANCH  23  24
ATOM     24  C   UNL     1      12.365  20.448 -24.250  1.00  0.00    -0.000 C 
BRANCH  24  25
ATOM     25  C   UNL     1      13.230  19.281 -23.737  1.00  0.00    -0.000 C 
BRANCH  25  26
ATOM     26  C   UNL     1      13.765  19.507 -22.312  1.00  0.00    -0.000 C 
BRANCH  26  27
ATOM     27  C   UNL     1      14.396  18.243 -21.699  1.00  0.00    -0.000 C 
BRANCH  27  28
ATOM     28  C   UNL     1      13.759  17.756 -20.385  1.00  0.00    -0.000 C 
BRANCH  28  29
ATOM     29  C   UNL     1      14.784  17.169 -19.399  1.00  0.00    -0.000 C 
BRANCH  29  30
ATOM     30  C   UNL     1      16.239  17.346 -19.873  1.00  0.00    -0.000 C 
BRANCH  30  31
ATOM     31  C   UNL     1      17.289  16.553 -19.072  1.00  0.00    -0.003 C 
ATOM     32  C   UNL     1      16.912  15.085 -18.874  1.00  0.00     0.004 C 
ENDBRANCH  30  31
ENDBRANCH  29  30
ENDBRANCH  28  29
ENDBRANCH  27  28
ENDBRANCH  26  27
ENDBRANCH  25  26
ENDBRANCH  24  25
ENDBRANCH  23  24
ENDBRANCH  22  23
ENDBRANCH  21  22
ENDBRANCH  20  21
ENDBRANCH  19  20
ENDBRANCH  18  19
ENDBRANCH   1  18
TORSDOF 28
ENDMDL
MODEL 6
REMARK VINA RESULT:    -4.140      2.973      9.828
REMARK INTER + INTRA:         -14.687
REMARK INTER:                 -11.040
REMARK INTRA:                  -3.647
REMARK UNBOUND:                -3.772
REMARK SMILES CCCCCCCCCCCCCCCCCCCCCCCCCCCCCC(=O)[O-]
REMARK SMILES IDX 16 1 17 2 18 3 19 4 20 5 21 6 22 7 23 8 24 9 25 10 26 11
REMARK SMILES IDX 27 12 28 13 29 14 30 15 31 16 32 17 15 18 14 19 13 20 12 21
REMARK SMILES IDX 11 22 10 23 9 24 8 25 7 26 6 27 5 28 4 29 3 30 2 31 1 32
REMARK H PARENT
REMARK Flexibility Score: inf
ROOT
ATOM      1  C   UNL     1      15.689  21.226 -17.863  1.00  0.00     0.000 C 
ENDROOT
BRANCH   1   2
ATOM      2  C   UNL     1      14.260  21.042 -18.404  1.00  0.00     0.000 C 
BRANCH   2   3
ATOM      3  C   UNL     1      13.855  22.147 -19.395  1.00  0.00     0.000 C 
BRANCH   3   4
ATOM      4  C   UNL     1      12.331  22.230 -19.592  1.00  0.00     0.000 C 
BRANCH   4   5
ATOM      5  C   UNL     1      11.926  22.238 -21.076  1.00  0.00     0.000 C 
BRANCH   5   6
ATOM      6  C   UNL     1      13.041  22.766 -21.993  1.00  0.00     0.000 C 
BRANCH   6   7
ATOM      7  C   UNL     1      12.526  22.959 -23.428  1.00  0.00     0.000 C 
BRANCH   7   8
ATOM      8  C   UNL     1      13.600  22.668 -24.490  1.00  0.00     0.000 C 
BRANCH   8   9
ATOM      9  C   UNL     1      13.104  21.712 -25.590  1.00  0.00     0.000 C 
BRANCH   9  10
ATOM     10  C   UNL     1      12.236  20.566 -25.042  1.00  0.00     0.000 C 
BRANCH  10  11
ATOM     11  C   UNL     1      12.885  19.169 -25.094  1.00  0.00     0.000 C 
BRANCH  11  12
ATOM     12  C   UNL     1      12.932  18.478 -23.723  1.00  0.00     0.000 C 
BRANCH  12  13
ATOM     13  C   UNL     1      13.812  19.265 -22.741  1.00  0.00     0.006 C 
BRANCH  13  14
ATOM     14  C   UNL     1      13.485  18.941 -21.278  1.00  0.00     0.053 C 
BRANCH  14  15
ATOM     15  C   UNL     1      14.507  18.030 -20.668  1.00  0.00     0.041 C 
ATOM     16  O   UNL     1      15.722  18.139 -20.982  1.00  0.00    -0.550 OA
ATOM     17  O   UNL     1      14.119  17.063 -19.749  1.00  0.00    -0.550 OA
ENDBRANCH  14  15
ENDBRANCH  13  14
ENDBRANCH  12  13
ENDBRANCH  11  12
ENDBRANCH  10  11
ENDBRANCH   9  10
ENDBRANCH   8   9
ENDBRANCH   7   8
ENDBRANCH   6   7
ENDBRANCH   5   6
ENDBRANCH   4   5
ENDBRANCH   3   4
ENDBRANCH   2   3
ENDBRANCH   1   2
BRANCH   1  18
ATOM     18  C   UNL     1      16.605  20.029 -18.177  1.00  0.00     0.000 C 
BRANCH  18  19
ATOM     19  C   UNL     1      17.084  19.232 -16.950  1.00  0.00     0.000 C 
BRANCH  19  20
ATOM     20  C   UNL     1      18.480  19.656 -16.466  1.00  0.00     0.000 C 
BRANCH  20  21
ATOM     21  C   UNL     1      19.558  18.584 -16.716  1.00  0.00     0.000 C 
BRANCH  21  22
ATOM     22  C   UNL     1      20.751  18.600 -15.741  1.00  0.00     0.000 C 
BRANCH  22  23
ATOM     23  C   UNL     1      20.579  19.611 -14.594  1.00  0.00     0.000 C 
BRANCH  23  24
ATOM     24  C   UNL     1      20.809  18.991 -13.202  1.00  0.00    -0.000 C 
BRANCH  24  25
ATOM     25  C   UNL     1      19.576  18.948 -12.279  1.00  0.00    -0.000 C 
BRANCH  25  26
ATOM     26  C   UNL     1      18.807  17.618 -12.361  1.00  0.00    -0.000 C 
BRANCH  26  27
ATOM     27  C   UNL     1      17.728  17.615 -13.460  1.00  0.00    -0.000 C 
BRANCH  27  28
ATOM     28  C   UNL     1      17.775  16.421 -14.432  1.00  0.00    -0.000 C 
BRANCH  28  29
ATOM     29  C   UNL     1      16.380  15.954 -14.880  1.00  0.00    -0.000 C 
BRANCH  29  30
ATOM     30  C   UNL     1      15.312  16.115 -13.782  1.00  0.00    -0.000 C 
BRANCH  30  31
ATOM     31  C   UNL     1      14.194  15.055 -13.796  1.00  0.00    -0.003 C 
ATOM     32  C   UNL     1      14.711  13.639 -14.051  1.00  0.00     0.004 C 
ENDBRANCH  30  31
ENDBRANCH  29  30
ENDBRANCH  28  29
ENDBRANCH  27  28
ENDBRANCH  26  27
ENDBRANCH  25  26
ENDBRANCH  24  25
ENDBRANCH  23  24
ENDBRANCH  22  23
ENDBRANCH  21  22
ENDBRANCH  20  21
ENDBRANCH  19  20
ENDBRANCH  18  19
ENDBRANCH   1  18
TORSDOF 28
ENDMDL
MODEL 7
REMARK VINA RESULT:    -4.125      2.939      6.343
REMARK INTER + INTRA:         -14.650
REMARK INTER:                  -9.918
REMARK INTRA:                  -4.732
REMARK UNBOUND:                -3.772
REMARK SMILES CCCCCCCCCCCCCCCCCCCCCCCCCCCCCC(=O)[O-]
REMARK SMILES IDX 16 1 17 2 18 3 19 4 20 5 21 6 22 7 23 8 24 9 25 10 26 11
REMARK SMILES IDX 27 12 28 13 29 14 30 15 31 16 32 17 15 18 14 19 13 20 12 21
REMARK SMILES IDX 11 22 10 23 9 24 8 25 7 26 6 27 5 28 4 29 3 30 2 31 1 32
REMARK H PARENT
REMARK Flexibility Score: inf
ROOT
ATOM      1  C   UNL     1      18.386  19.865 -17.075  1.00  0.00     0.000 C 
ENDROOT
BRANCH   1   2
ATOM      2  C   UNL     1      18.979  19.850 -15.656  1.00  0.00     0.000 C 
BRANCH   2   3
ATOM      3  C   UNL     1      20.274  19.024 -15.562  1.00  0.00     0.000 C 
BRANCH   3   4
ATOM      4  C   UNL     1      20.242  17.777 -16.463  1.00  0.00     0.000 C 
BRANCH   4   5
ATOM      5  C   UNL     1      20.784  16.523 -15.757  1.00  0.00     0.000 C 
BRANCH   5   6
ATOM      6  C   UNL     1      21.040  16.749 -14.258  1.00  0.00     0.000 C 
BRANCH   6   7
ATOM      7  C   UNL     1      20.129  15.853 -13.404  1.00  0.00     0.000 C 
BRANCH   7   8
ATOM      8  C   UNL     1      19.514  16.599 -12.208  1.00  0.00     0.000 C 
BRANCH   8   9
ATOM      9  C   UNL     1      18.352  17.521 -12.617  1.00  0.00     0.000 C 
BRANCH   9  10
ATOM     10  C   UNL     1      17.199  16.766 -13.303  1.00  0.00     0.000 C 
BRANCH  10  11
ATOM     11  C   UNL     1      16.929  17.170 -14.765  1.00  0.00     0.000 C 
BRANCH  11  12
ATOM     12  C   UNL     1      16.775  15.963 -15.703  1.00  0.00     0.000 C 
BRANCH  12  13
ATOM     13  C   UNL     1      16.363  16.413 -17.112  1.00  0.00     0.006 C 
BRANCH  13  14
ATOM     14  C   UNL     1      17.372  15.975 -18.182  1.00  0.00     0.053 C 
BRANCH  14  15
ATOM     15  C   UNL     1      16.902  14.762 -18.926  1.00  0.00     0.041 C 
ATOM     16  O   UNL     1      15.712  14.690 -19.335  1.00  0.00    -0.550 OA
ATOM     17  O   UNL     1      17.779  13.714 -19.174  1.00  0.00    -0.550 OA
ENDBRANCH  14  15
ENDBRANCH  13  14
ENDBRANCH  12  13
ENDBRANCH  11  12
ENDBRANCH  10  11
ENDBRANCH   9  10
ENDBRANCH   8   9
ENDBRANCH   7   8
ENDBRANCH   6   7
ENDBRANCH   5   6
ENDBRANCH   4   5
ENDBRANCH   3   4
ENDBRANCH   2   3
ENDBRANCH   1   2
BRANCH   1  18
ATOM     18  C   UNL     1      16.846  19.875 -17.081  1.00  0.00     0.000 C 
BRANCH  18  19
ATOM     19  C   UNL     1      16.202  20.988 -17.927  1.00  0.00     0.000 C 
BRANCH  19  20
ATOM     20  C   UNL     1      14.862  20.568 -18.552  1.00  0.00     0.000 C 
BRANCH  20  21
ATOM     21  C   UNL     1      14.132  21.729 -19.253  1.00  0.00     0.000 C 
BRANCH  21  22
ATOM     22  C   UNL     1      12.592  21.659 -19.228  1.00  0.00     0.000 C 
BRANCH  22  23
ATOM     23  C   UNL     1      11.948  22.050 -20.569  1.00  0.00     0.000 C 
BRANCH  23  24
ATOM     24  C   UNL     1      12.717  23.162 -21.309  1.00  0.00    -0.000 C 
BRANCH  24  25
ATOM     25  C   UNL     1      12.668  23.095 -22.847  1.00  0.00    -0.000 C 
BRANCH  25  26
ATOM     26  C   UNL     1      13.726  22.151 -23.445  1.00  0.00    -0.000 C 
BRANCH  26  27
ATOM     27  C   UNL     1      13.119  21.077 -24.367  1.00  0.00    -0.000 C 
BRANCH  27  28
ATOM     28  C   UNL     1      13.052  19.657 -23.775  1.00  0.00    -0.000 C 
BRANCH  28  29
ATOM     29  C   UNL     1      13.887  19.499 -22.493  1.00  0.00    -0.000 C 
BRANCH  29  30
ATOM     30  C   UNL     1      13.704  18.123 -21.824  1.00  0.00    -0.000 C 
BRANCH  30  31
ATOM     31  C   UNL     1      14.665  17.830 -20.656  1.00  0.00    -0.003 C 
ATOM     32  C   UNL     1      16.139  17.936 -21.049  1.00  0.00     0.004 C 
ENDBRANCH  30  31
ENDBRANCH  29  30
ENDBRANCH  28  29
ENDBRANCH  27  28
ENDBRANCH  26  27
ENDBRANCH  25  26
ENDBRANCH  24  25
ENDBRANCH  23  24
ENDBRANCH  22  23
ENDBRANCH  21  22
ENDBRANCH  20  21
ENDBRANCH  19  20
ENDBRANCH  18  19
ENDBRANCH   1  18
TORSDOF 28
ENDMDL
MODEL 8
REMARK VINA RESULT:    -4.109      3.719      8.867
REMARK INTER + INTRA:         -14.606
REMARK INTER:                 -10.339
REMARK INTRA:                  -4.267
REMARK UNBOUND:                -3.772
REMARK SMILES CCCCCCCCCCCCCCCCCCCCCCCCCCCCCC(=O)[O-]
REMARK SMILES IDX 16 1 17 2 18 3 19 4 20 5 21 6 22 7 23 8 24 9 25 10 26 11
REMARK SMILES IDX 27 12 28 13 29 14 30 15 31 16 32 17 15 18 14 19 13 20 12 21
REMARK SMILES IDX 11 22 10 23 9 24 8 25 7 26 6 27 5 28 4 29 3 30 2 31 1 32
REMARK H PARENT
REMARK Flexibility Score: inf
ROOT
ATOM      1  C   UNL     1      14.233  21.447 -18.987  1.00  0.00     0.000 C 
ENDROOT
BRANCH   1   2
ATOM      2  C   UNL     1      12.816  21.666 -18.428  1.00  0.00     0.000 C 
BRANCH   2   3
ATOM      3  C   UNL     1      11.981  22.629 -19.289  1.00  0.00     0.000 C 
BRANCH   3   4
ATOM      4  C   UNL     1      12.715  23.058 -20.572  1.00  0.00     0.000 C 
BRANCH   4   5
ATOM      5  C   UNL     1      12.049  22.510 -21.846  1.00  0.00     0.000 C 
BRANCH   5   6
ATOM      6  C   UNL     1      12.721  23.016 -23.132  1.00  0.00     0.000 C 
BRANCH   6   7
ATOM      7  C   UNL     1      13.470  21.878 -23.843  1.00  0.00     0.000 C 
BRANCH   7   8
ATOM      8  C   UNL     1      12.616  20.608 -23.997  1.00  0.00     0.000 C 
BRANCH   8   9
ATOM      9  C   UNL     1      13.330  19.347 -23.482  1.00  0.00     0.000 C 
BRANCH   9  10
ATOM     10  C   UNL     1      13.031  19.050 -22.001  1.00  0.00     0.000 C 
BRANCH  10  11
ATOM     11  C   UNL     1      13.908  17.957 -21.361  1.00  0.00     0.000 C 
BRANCH  11  12
ATOM     12  C   UNL     1      15.399  18.111 -21.698  1.00  0.00     0.000 C 
BRANCH  12  13
ATOM     13  C   UNL     1      16.071  16.739 -21.850  1.00  0.00     0.006 C 
BRANCH  13  14
ATOM     14  C   UNL     1      15.055  15.620 -22.115  1.00  0.00     0.053 C 
BRANCH  14  15
ATOM     15  C   UNL     1      15.265  14.984 -23.456  1.00  0.00     0.041 C 
ATOM     16  O   UNL     1      16.089  15.479 -24.271  1.00  0.00    -0.550 OA
ATOM     17  O   UNL     1      14.555  13.842 -23.805  1.00  0.00    -0.550 OA
ENDBRANCH  14  15
ENDBRANCH  13  14
ENDBRANCH  12  13
ENDBRANCH  11  12
ENDBRANCH  10  11
ENDBRANCH   9  10
ENDBRANCH   8   9
ENDBRANCH   7   8
ENDBRANCH   6   7
ENDBRANCH   5   6
ENDBRANCH   4   5
ENDBRANCH   3   4
ENDBRANCH   2   3
ENDBRANCH   1   2
BRANCH   1  18
ATOM     18  C   UNL     1      14.830  20.085 -18.587  1.00  0.00     0.000 C 
BRANCH  18  19
ATOM     19  C   UNL     1      16.367  20.040 -18.516  1.00  0.00     0.000 C 
BRANCH  19  20
ATOM     20  C   UNL     1      16.976  21.294 -17.867  1.00  0.00     0.000 C 
BRANCH  20  21
ATOM     21  C   UNL     1      18.418  21.076 -17.369  1.00  0.00     0.000 C 
BRANCH  21  22
ATOM     22  C   UNL     1      18.598  19.963 -16.319  1.00  0.00     0.000 C 
BRANCH  22  23
ATOM     23  C   UNL     1      19.727  18.978 -16.671  1.00  0.00     0.000 C 
BRANCH  23  24
ATOM     24  C   UNL     1      20.344  18.298 -15.435  1.00  0.00    -0.000 C 
BRANCH  24  25
ATOM     25  C   UNL     1      21.308  17.131 -15.727  1.00  0.00    -0.000 C 
BRANCH  25  26
ATOM     26  C   UNL     1      20.648  15.988 -16.517  1.00  0.00    -0.000 C 
BRANCH  26  27
ATOM     27  C   UNL     1      19.785  15.068 -15.635  1.00  0.00    -0.000 C 
BRANCH  27  28
ATOM     28  C   UNL     1      18.277  15.071 -15.950  1.00  0.00    -0.000 C 
BRANCH  28  29
ATOM     29  C   UNL     1      17.530  16.253 -15.309  1.00  0.00    -0.000 C 
BRANCH  29  30
ATOM     30  C   UNL     1      16.546  16.936 -16.276  1.00  0.00    -0.000 C 
BRANCH  30  31
ATOM     31  C   UNL     1      16.662  16.496 -17.748  1.00  0.00    -0.003 C 
ATOM     32  C   UNL     1      15.319  16.113 -18.370  1.00  0.00     0.004 C 
ENDBRANCH  30  31
ENDBRANCH  29  30
ENDBRANCH  28  29
ENDBRANCH  27  28
ENDBRANCH  26  27
ENDBRANCH  25  26
ENDBRANCH  24  25
ENDBRANCH  23  24
ENDBRANCH  22  23
ENDBRANCH  21  22
ENDBRANCH  20  21
ENDBRANCH  19  20
ENDBRANCH  18  19
ENDBRANCH   1  18
TORSDOF 28
ENDMDL
MODEL 9
REMARK VINA RESULT:    -4.016      2.706      5.531
REMARK INTER + INTRA:         -14.361
REMARK INTER:                 -10.164
REMARK INTRA:                  -4.197
REMARK UNBOUND:                -3.772
REMARK SMILES CCCCCCCCCCCCCCCCCCCCCCCCCCCCCC(=O)[O-]
REMARK SMILES IDX 16 1 17 2 18 3 19 4 20 5 21 6 22 7 23 8 24 9 25 10 26 11
REMARK SMILES IDX 27 12 28 13 29 14 30 15 31 16 32 17 15 18 14 19 13 20 12 21
REMARK SMILES IDX 11 22 10 23 9 24 8 25 7 26 6 27 5 28 4 29 3 30 2 31 1 32
REMARK H PARENT
REMARK Flexibility Score: inf
ROOT
ATOM      1  C   UNL     1      16.585  20.347 -17.166  1.00  0.00     0.000 C 
ENDROOT
BRANCH   1   2
ATOM      2  C   UNL     1      17.262  19.232 -16.350  1.00  0.00     0.000 C 
BRANCH   2   3
ATOM      3  C   UNL     1      17.192  17.862 -17.047  1.00  0.00     0.000 C 
BRANCH   3   4
ATOM      4  C   UNL     1      18.566  17.173 -17.126  1.00  0.00     0.000 C 
BRANCH   4   5
ATOM      5  C   UNL     1      19.719  18.101 -16.708  1.00  0.00     0.000 C 
BRANCH   5   6
ATOM      6  C   UNL     1      20.801  17.375 -15.893  1.00  0.00     0.000 C 
BRANCH   6   7
ATOM      7  C   UNL     1      21.170  18.175 -14.634  1.00  0.00     0.000 C 
BRANCH   7   8
ATOM      8  C   UNL     1      20.407  19.507 -14.531  1.00  0.00     0.000 C 
BRANCH   8   9
ATOM      9  C   UNL     1      19.530  19.592 -13.270  1.00  0.00     0.000 C 
BRANCH   9  10
ATOM     10  C   UNL     1      19.765  18.425 -12.294  1.00  0.00     0.000 C 
BRANCH  10  11
ATOM     11  C   UNL     1      18.556  17.496 -12.079  1.00  0.00     0.000 C 
BRANCH  11  12
ATOM     12  C   UNL     1      17.690  17.336 -13.338  1.00  0.00     0.000 C 
BRANCH  12  13
ATOM     13  C   UNL     1      16.917  16.009 -13.306  1.00  0.00     0.006 C 
BRANCH  13  14
ATOM     14  C   UNL     1      15.403  16.215 -13.440  1.00  0.00     0.053 C 
BRANCH  14  15
ATOM     15  C   UNL     1      14.794  15.249 -14.410  1.00  0.00     0.041 C 
ATOM     16  O   UNL     1      15.328  15.056 -15.535  1.00  0.00    -0.550 OA
ATOM     17  O   UNL     1      13.639  14.555 -14.070  1.00  0.00    -0.550 OA
ENDBRANCH  14  15
ENDBRANCH  13  14
ENDBRANCH  12  13
ENDBRANCH  11  12
ENDBRANCH  10  11
ENDBRANCH   9  10
ENDBRANCH   8   9
ENDBRANCH   7   8
ENDBRANCH   6   7
ENDBRANCH   5   6
ENDBRANCH   4   5
ENDBRANCH   3   4
ENDBRANCH   2   3
ENDBRANCH   1   2
BRANCH   1  18
ATOM     18  C   UNL     1      16.365  19.960 -18.640  1.00  0.00     0.000 C 
BRANCH  18  19
ATOM     19  C   UNL     1      14.927  20.146 -19.158  1.00  0.00     0.000 C 
BRANCH  19  20
ATOM     20  C   UNL     1      14.100  21.116 -18.298  1.00  0.00     0.000 C 
BRANCH  20  21
ATOM     21  C   UNL     1      13.150  22.000 -19.129  1.00  0.00     0.000 C 
BRANCH  21  22
ATOM     22  C   UNL     1      13.763  22.624 -20.398  1.00  0.00     0.000 C 
BRANCH  22  23
ATOM     23  C   UNL     1      12.728  23.352 -21.273  1.00  0.00     0.000 C 
BRANCH  23  24
ATOM     24  C   UNL     1      12.420  22.612 -22.588  1.00  0.00    -0.000 C 
BRANCH  24  25
ATOM     25  C   UNL     1      13.604  21.858 -23.223  1.00  0.00    -0.000 C 
BRANCH  25  26
ATOM     26  C   UNL     1      13.249  20.422 -23.647  1.00  0.00    -0.000 C 
BRANCH  26  27
ATOM     27  C   UNL     1      13.796  19.357 -22.678  1.00  0.00    -0.000 C 
BRANCH  27  28
ATOM     28  C   UNL     1      12.800  18.854 -21.617  1.00  0.00    -0.000 C 
BRANCH  28  29
ATOM     29  C   UNL     1      12.275  17.437 -21.906  1.00  0.00    -0.000 C 
BRANCH  29  30
ATOM     30  C   UNL     1      12.880  16.371 -20.972  1.00  0.00    -0.000 C 
BRANCH  30  31
ATOM     31  C   UNL     1      13.995  16.877 -20.038  1.00  0.00    -0.003 C 
ATOM     32  C   UNL     1      14.316  15.905 -18.903  1.00  0.00     0.004 C 
ENDBRANCH  30  31
ENDBRANCH  29  30
ENDBRANCH  28  29
ENDBRANCH  27  28
ENDBRANCH  26  27
ENDBRANCH  25  26
ENDBRANCH  24  25
ENDBRANCH  23  24
ENDBRANCH  22  23
ENDBRANCH  21  22
ENDBRANCH  20  21
ENDBRANCH  19  20
ENDBRANCH  18  19
ENDBRANCH   1  18
TORSDOF 28
ENDMDL
