MODEL 1
REMARK VINA RESULT:    -4.309      0.000      0.000
REMARK INTER + INTRA:         -15.467
REMARK INTER:                 -10.859
REMARK INTRA:                  -4.609
REMARK UNBOUND:                -4.609
REMARK SMILES CCCCCCCCCCCCCCCCCCCCCCCCCCCC(=O)[O-]
REMARK SMILES IDX 15 1 16 2 17 3 18 4 19 5 20 6 21 7 22 8 23 9 24 10 25 11
REMARK SMILES IDX 26 12 27 13 28 14 29 15 30 16 14 17 13 18 12 19 11 20 10 21
REMARK SMILES IDX 9 22 8 23 7 24 6 25 5 26 4 27 3 28 2 29 1 30
REMARK H PARENT
REMARK Flexibility Score: inf
ROOT
ATOM      1  C   UNL     1      47.467  -7.049  72.274  1.00  0.00     0.000 C 
ENDROOT
BRANCH   1   2
ATOM      2  C   UNL     1      46.777  -5.811  72.873  1.00  0.00     0.000 C 
BRANCH   2   3
ATOM      3  C   UNL     1      47.682  -4.568  72.860  1.00  0.00     0.000 C 
BRANCH   3   4
ATOM      4  C   UNL     1      49.167  -4.924  72.672  1.00  0.00     0.000 C 
BRANCH   4   5
ATOM      5  C   UNL     1      49.976  -3.787  72.027  1.00  0.00     0.000 C 
BRANCH   5   6
ATOM      6  C   UNL     1      49.664  -2.397  72.619  1.00  0.00     0.000 C 
BRANCH   6   7
ATOM      7  C   UNL     1      50.613  -1.311  72.082  1.00  0.00     0.000 C 
BRANCH   7   8
ATOM      8  C   UNL     1      51.810  -1.054  73.011  1.00  0.00     0.000 C 
BRANCH   8   9
ATOM      9  C   UNL     1      52.952  -2.065  72.803  1.00  0.00     0.000 C 
BRANCH   9  10
ATOM     10  C   UNL     1      53.390  -2.740  74.112  1.00  0.00     0.000 C 
BRANCH  10  11
ATOM     11  C   UNL     1      52.834  -4.167  74.259  1.00  0.00     0.000 C 
BRANCH  11  12
ATOM     12  C   UNL     1      53.623  -5.012  75.270  1.00  0.00     0.006 C 
BRANCH  12  13
ATOM     13  C   UNL     1      54.270  -6.248  74.633  1.00  0.00     0.053 C 
BRANCH  13  14
ATOM     14  C   UNL     1      55.705  -5.977  74.301  1.00  0.00     0.041 C 
ATOM     15  O   UNL     1      56.002  -5.170  73.380  1.00  0.00    -0.550 OA
ATOM     16  O   UNL     1      56.714  -6.623  75.003  1.00  0.00    -0.550 OA
ENDBRANCH  13  14
ENDBRANCH  12  13
ENDBRANCH  11  12
ENDBRANCH  10  11
ENDBRANCH   9  10
ENDBRANCH   8   9
ENDBRANCH   7   8
ENDBRANCH   6   7
ENDBRANCH   5   6
ENDBRANCH   4   5
ENDBRANCH   3   4
ENDBRANCH   2   3
ENDBRANCH   1   2
BRANCH   1  17
ATOM     17  C   UNL     1      46.475  -8.163  71.904  1.00  0.00     0.000 C 
BRANCH  17  18
ATOM     18  C   UNL     1      45.538  -8.527  73.069  1.00  0.00     0.000 C 
BRANCH  18  19
ATOM     19  C   UNL     1      46.183  -9.487  74.087  1.00  0.00     0.000 C 
BRANCH  19  20
ATOM     20  C   UNL     1      45.972  -9.114  75.566  1.00  0.00     0.000 C 
BRANCH  20  21
ATOM     21  C   UNL     1      47.291  -8.832  76.307  1.00  0.00     0.000 C 
BRANCH  21  22
ATOM     22  C   UNL     1      47.971  -7.535  75.838  1.00  0.00    -0.000 C 
BRANCH  22  23
ATOM     23  C   UNL     1      49.416  -7.766  75.368  1.00  0.00    -0.000 C 
BRANCH  23  24
ATOM     24  C   UNL     1      50.294  -6.542  75.662  1.00  0.00    -0.000 C 
BRANCH  24  25
ATOM     25  C   UNL     1      49.522  -5.504  76.491  1.00  0.00    -0.000 C 
BRANCH  25  26
ATOM     26  C   UNL     1      50.339  -4.975  77.680  1.00  0.00    -0.000 C 
BRANCH  26  27
ATOM     27  C   UNL     1      50.499  -6.021  78.794  1.00  0.00    -0.000 C 
BRANCH  27  28
ATOM     28  C   UNL     1      49.136  -6.402  79.390  1.00  0.00    -0.000 C 
BRANCH  28  29
ATOM     29  C   UNL     1      48.932  -7.923  79.475  1.00  0.00    -0.003 C 
ATOM     30  C   UNL     1      50.076  -8.710  78.833  1.00  0.00     0.004 C 
ENDBRANCH  28  29
ENDBRANCH  27  28
ENDBRANCH  26  27
ENDBRANCH  25  26
ENDBRANCH  24  25
ENDBRANCH  23  24
ENDBRANCH  22  23
ENDBRANCH  21  22
ENDBRANCH  20  21
ENDBRANCH  19  20
ENDBRANCH  18  19
ENDBRANCH  17  18
ENDBRANCH   1  17
TORSDOF 26
ENDMDL
MODEL 2
REMARK VINA RESULT:    -4.270      4.104      6.440
REMARK INTER + INTRA:         -15.369
REMARK INTER:                 -10.022
REMARK INTRA:                  -5.347
REMARK UNBOUND:                -4.609
REMARK SMILES CCCCCCCCCCCCCCCCCCCCCCCCCCCC(=O)[O-]
REMARK SMILES IDX 15 1 16 2 17 3 18 4 19 5 20 6 21 7 22 8 23 9 24 10 25 11
REMARK SMILES IDX 26 12 27 13 28 14 29 15 30 16 14 17 13 18 12 19 11 20 10 21
REMARK SMILES IDX 9 22 8 23 7 24 6 25 5 26 4 27 3 28 2 29 1 30
REMARK H PARENT
REMARK Flexibility Score: inf
ROOT
ATOM      1  C   UNL     1      49.275  -2.131  76.617  1.00  0.00     0.000 C 
ENDROOT
BRANCH   1   2
ATOM      2  C   UNL     1      50.242  -3.266  76.239  1.00  0.00     0.000 C 
BRANCH   2   3
ATOM      3  C   UNL     1      51.639  -2.748  75.861  1.00  0.00     0.000 C 
BRANCH   3   4
ATOM      4  C   UNL     1      52.068  -3.188  74.451  1.00  0.00     0.000 C 
BRANCH   4   5
ATOM      5  C   UNL     1      52.426  -2.002  73.540  1.00  0.00     0.000 C 
BRANCH   5   6
ATOM      6  C   UNL     1      51.299  -0.955  73.421  1.00  0.00     0.000 C 
BRANCH   6   7
ATOM      7  C   UNL     1      50.580  -1.028  72.063  1.00  0.00     0.000 C 
BRANCH   7   8
ATOM      8  C   UNL     1      49.060  -1.204  72.203  1.00  0.00     0.000 C 
BRANCH   8   9
ATOM      9  C   UNL     1      48.679  -2.445  73.030  1.00  0.00     0.000 C 
BRANCH   9  10
ATOM     10  C   UNL     1      49.166  -3.754  72.389  1.00  0.00     0.000 C 
BRANCH  10  11
ATOM     11  C   UNL     1      48.728  -5.000  73.179  1.00  0.00     0.000 C 
BRANCH  11  12
ATOM     12  C   UNL     1      47.406  -4.792  73.935  1.00  0.00     0.006 C 
BRANCH  12  13
ATOM     13  C   UNL     1      46.241  -5.575  73.316  1.00  0.00     0.053 C 
BRANCH  13  14
ATOM     14  C   UNL     1      46.162  -6.949  73.905  1.00  0.00     0.041 C 
ATOM     15  O   UNL     1      46.590  -7.166  75.071  1.00  0.00    -0.550 OA
ATOM     16  O   UNL     1      45.624  -7.993  73.163  1.00  0.00    -0.550 OA
ENDBRANCH  13  14
ENDBRANCH  12  13
ENDBRANCH  11  12
ENDBRANCH  10  11
ENDBRANCH   9  10
ENDBRANCH   8   9
ENDBRANCH   7   8
ENDBRANCH   6   7
ENDBRANCH   5   6
ENDBRANCH   4   5
ENDBRANCH   3   4
ENDBRANCH   2   3
ENDBRANCH   1   2
BRANCH   1  17
ATOM     17  C   UNL     1      47.858  -2.635  76.934  1.00  0.00     0.000 C 
BRANCH  17  18
ATOM     18  C   UNL     1      47.865  -4.003  77.638  1.00  0.00     0.000 C 
BRANCH  18  19
ATOM     19  C   UNL     1      47.466  -3.922  79.123  1.00  0.00     0.000 C 
BRANCH  19  20
ATOM     20  C   UNL     1      48.389  -4.684  80.093  1.00  0.00     0.000 C 
BRANCH  20  21
ATOM     21  C   UNL     1      49.565  -5.377  79.382  1.00  0.00     0.000 C 
BRANCH  21  22
ATOM     22  C   UNL     1      50.914  -4.696  79.664  1.00  0.00    -0.000 C 
BRANCH  22  23
ATOM     23  C   UNL     1      50.784  -3.509  80.632  1.00  0.00    -0.000 C 
BRANCH  23  24
ATOM     24  C   UNL     1      50.958  -2.174  79.896  1.00  0.00    -0.000 C 
BRANCH  24  25
ATOM     25  C   UNL     1      50.268  -1.036  80.662  1.00  0.00    -0.000 C 
BRANCH  25  26
ATOM     26  C   UNL     1      48.915  -0.646  80.045  1.00  0.00    -0.000 C 
BRANCH  26  27
ATOM     27  C   UNL     1      47.742  -0.875  81.011  1.00  0.00    -0.000 C 
BRANCH  27  28
ATOM     28  C   UNL     1      48.106  -0.430  82.434  1.00  0.00    -0.000 C 
BRANCH  28  29
ATOM     29  C   UNL     1      47.647  -1.433  83.503  1.00  0.00    -0.003 C 
ATOM     30  C   UNL     1      48.150  -2.853  83.237  1.00  0.00     0.004 C 
ENDBRANCH  28  29
ENDBRANCH  27  28
ENDBRANCH  26  27
ENDBRANCH  25  26
ENDBRANCH  24  25
ENDBRANCH  23  24
ENDBRANCH  22  23
ENDBRANCH  21  22
ENDBRANCH  20  21
ENDBRANCH  19  20
ENDBRANCH  18  19
ENDBRANCH  17  18
ENDBRANCH   1  17
TORSDOF 26
ENDMDL
MODEL 3
REMARK VINA RESULT:    -4.269      2.740      6.784
REMARK INTER + INTRA:         -15.365
REMARK INTER:                 -10.009
REMARK INTRA:                  -5.356
REMARK UNBOUND:                -4.609
REMARK SMILES CCCCCCCCCCCCCCCCCCCCCCCCCCCC(=O)[O-]
REMARK SMILES IDX 15 1 16 2 17 3 18 4 19 5 20 6 21 7 22 8 23 9 24 10 25 11
REMARK SMILES IDX 26 12 27 13 28 14 29 15 30 16 14 17 13 18 12 19 11 20 10 21
REMARK SMILES IDX 9 22 8 23 7 24 6 25 5 26 4 27 3 28 2 29 1 30
REMARK H PARENT
REMARK Flexibility Score: inf
ROOT
ATOM      1  C   UNL     1      50.654  -3.296  76.533  1.00  0.00     0.000 C 
ENDROOT
BRANCH   1   2
ATOM      2  C   UNL     1      49.517  -2.282  76.748  1.00  0.00     0.000 C 
BRANCH   2   3
ATOM      3  C   UNL     1      48.147  -2.960  76.918  1.00  0.00     0.000 C 
BRANCH   3   4
ATOM      4  C   UNL     1      47.483  -2.616  78.262  1.00  0.00     0.000 C 
BRANCH   4   5
ATOM      5  C   UNL     1      47.479  -3.799  79.245  1.00  0.00     0.000 C 
BRANCH   5   6
ATOM      6  C   UNL     1      48.732  -3.856  80.143  1.00  0.00     0.000 C 
BRANCH   6   7
ATOM      7  C   UNL     1      49.671  -5.012  79.754  1.00  0.00     0.000 C 
BRANCH   7   8
ATOM      8  C   UNL     1      51.156  -4.628  79.844  1.00  0.00     0.000 C 
BRANCH   8   9
ATOM      9  C   UNL     1      52.092  -5.772  79.412  1.00  0.00     0.000 C 
BRANCH   9  10
ATOM     10  C   UNL     1      51.346  -6.909  78.697  1.00  0.00     0.000 C 
BRANCH  10  11
ATOM     11  C   UNL     1      52.172  -8.204  78.619  1.00  0.00     0.000 C 
BRANCH  11  12
ATOM     12  C   UNL     1      52.408  -8.673  77.175  1.00  0.00     0.006 C 
BRANCH  12  13
ATOM     13  C   UNL     1      53.839  -8.404  76.691  1.00  0.00     0.053 C 
BRANCH  13  14
ATOM     14  C   UNL     1      54.829  -9.117  77.559  1.00  0.00     0.041 C 
ATOM     15  O   UNL     1      54.840 -10.376  77.606  1.00  0.00    -0.550 OA
ATOM     16  O   UNL     1      55.732  -8.390  78.324  1.00  0.00    -0.550 OA
ENDBRANCH  13  14
ENDBRANCH  12  13
ENDBRANCH  11  12
ENDBRANCH  10  11
ENDBRANCH   9  10
ENDBRANCH   8   9
ENDBRANCH   7   8
ENDBRANCH   6   7
ENDBRANCH   5   6
ENDBRANCH   4   5
ENDBRANCH   3   4
ENDBRANCH   2   3
ENDBRANCH   1   2
BRANCH   1  17
ATOM     17  C   UNL     1      50.154  -4.646  75.997  1.00  0.00     0.000 C 
BRANCH  17  18
ATOM     18  C   UNL     1      51.256  -5.432  75.265  1.00  0.00     0.000 C 
BRANCH  18  19
ATOM     19  C   UNL     1      52.678  -5.023  75.696  1.00  0.00     0.000 C 
BRANCH  19  20
ATOM     20  C   UNL     1      53.694  -4.878  74.548  1.00  0.00     0.000 C 
BRANCH  20  21
ATOM     21  C   UNL     1      53.851  -3.425  74.066  1.00  0.00     0.000 C 
BRANCH  21  22
ATOM     22  C   UNL     1      53.059  -3.135  72.782  1.00  0.00    -0.000 C 
BRANCH  22  23
ATOM     23  C   UNL     1      52.677  -1.652  72.647  1.00  0.00    -0.000 C 
BRANCH  23  24
ATOM     24  C   UNL     1      51.504  -1.298  73.570  1.00  0.00    -0.000 C 
BRANCH  24  25
ATOM     25  C   UNL     1      50.443  -0.482  72.816  1.00  0.00    -0.000 C 
BRANCH  25  26
ATOM     26  C   UNL     1      49.378  -1.369  72.154  1.00  0.00    -0.000 C 
BRANCH  26  27
ATOM     27  C   UNL     1      48.963  -2.552  73.044  1.00  0.00    -0.000 C 
BRANCH  27  28
ATOM     28  C   UNL     1      49.405  -3.886  72.425  1.00  0.00    -0.000 C 
BRANCH  28  29
ATOM     29  C   UNL     1      48.396  -5.017  72.679  1.00  0.00    -0.003 C 
ATOM     30  C   UNL     1      47.288  -4.615  73.654  1.00  0.00     0.004 C 
ENDBRANCH  28  29
ENDBRANCH  27  28
ENDBRANCH  26  27
ENDBRANCH  25  26
ENDBRANCH  24  25
ENDBRANCH  23  24
ENDBRANCH  22  23
ENDBRANCH  21  22
ENDBRANCH  20  21
ENDBRANCH  19  20
ENDBRANCH  18  19
ENDBRANCH  17  18
ENDBRANCH   1  17
TORSDOF 26
ENDMDL
MODEL 4
REMARK VINA RESULT:    -4.268      1.778      4.253
REMARK INTER + INTRA:         -15.363
REMARK INTER:                 -10.519
REMARK INTRA:                  -4.844
REMARK UNBOUND:                -4.609
REMARK SMILES CCCCCCCCCCCCCCCCCCCCCCCCCCCC(=O)[O-]
REMARK SMILES IDX 15 1 16 2 17 3 18 4 19 5 20 6 21 7 22 8 23 9 24 10 25 11
REMARK SMILES IDX 26 12 27 13 28 14 29 15 30 16 14 17 13 18 12 19 11 20 10 21
REMARK SMILES IDX 9 22 8 23 7 24 6 25 5 26 4 27 3 28 2 29 1 30
REMARK H PARENT
REMARK Flexibility Score: inf
ROOT
ATOM      1  C   UNL     1      50.484  -4.483  74.036  1.00  0.00     0.000 C 
ENDROOT
BRANCH   1   2
ATOM      2  C   UNL     1      49.971  -3.879  72.717  1.00  0.00     0.000 C 
BRANCH   2   3
ATOM      3  C   UNL     1      48.979  -2.726  72.943  1.00  0.00     0.000 C 
BRANCH   3   4
ATOM      4  C   UNL     1      49.393  -1.441  72.207  1.00  0.00     0.000 C 
BRANCH   4   5
ATOM      5  C   UNL     1      50.428  -0.614  72.988  1.00  0.00     0.000 C 
BRANCH   5   6
ATOM      6  C   UNL     1      51.522   0.005  72.093  1.00  0.00     0.000 C 
BRANCH   6   7
ATOM      7  C   UNL     1      52.870  -0.723  72.239  1.00  0.00     0.000 C 
BRANCH   7   8
ATOM      8  C   UNL     1      52.899  -1.688  73.434  1.00  0.00     0.000 C 
BRANCH   8   9
ATOM      9  C   UNL     1      53.575  -3.029  73.099  1.00  0.00     0.000 C 
BRANCH   9  10
ATOM     10  C   UNL     1      54.192  -3.705  74.334  1.00  0.00     0.000 C 
BRANCH  10  11
ATOM     11  C   UNL     1      54.457  -5.205  74.119  1.00  0.00     0.000 C 
BRANCH  11  12
ATOM     12  C   UNL     1      55.951  -5.560  74.179  1.00  0.00     0.006 C 
BRANCH  12  13
ATOM     13  C   UNL     1      56.317  -6.737  73.266  1.00  0.00     0.053 C 
BRANCH  13  14
ATOM     14  C   UNL     1      55.835  -8.027  73.854  1.00  0.00     0.041 C 
ATOM     15  O   UNL     1      55.964  -8.248  75.088  1.00  0.00    -0.550 OA
ATOM     16  O   UNL     1      55.253  -8.988  73.038  1.00  0.00    -0.550 OA
ENDBRANCH  13  14
ENDBRANCH  12  13
ENDBRANCH  11  12
ENDBRANCH  10  11
ENDBRANCH   9  10
ENDBRANCH   8   9
ENDBRANCH   7   8
ENDBRANCH   6   7
ENDBRANCH   5   6
ENDBRANCH   4   5
ENDBRANCH   3   4
ENDBRANCH   2   3
ENDBRANCH   1   2
BRANCH   1  17
ATOM     17  C   UNL     1      50.254  -3.560  75.242  1.00  0.00     0.000 C 
BRANCH  17  18
ATOM     18  C   UNL     1      51.038  -4.013  76.486  1.00  0.00     0.000 C 
BRANCH  18  19
ATOM     19  C   UNL     1      51.522  -5.472  76.398  1.00  0.00     0.000 C 
BRANCH  19  20
ATOM     20  C   UNL     1      51.299  -6.315  77.667  1.00  0.00     0.000 C 
BRANCH  20  21
ATOM     21  C   UNL     1      50.323  -5.658  78.659  1.00  0.00     0.000 C 
BRANCH  21  22
ATOM     22  C   UNL     1      49.341  -6.664  79.281  1.00  0.00    -0.000 C 
BRANCH  22  23
ATOM     23  C   UNL     1      49.738  -8.123  79.004  1.00  0.00    -0.000 C 
BRANCH  23  24
ATOM     24  C   UNL     1      48.599  -9.084  79.369  1.00  0.00    -0.000 C 
BRANCH  24  25
ATOM     25  C   UNL     1      48.133  -9.871  78.135  1.00  0.00    -0.000 C 
BRANCH  25  26
ATOM     26  C   UNL     1      47.554  -8.961  77.039  1.00  0.00    -0.000 C 
BRANCH  26  27
ATOM     27  C   UNL     1      48.334  -9.064  75.719  1.00  0.00    -0.000 C 
BRANCH  27  28
ATOM     28  C   UNL     1      48.820  -7.682  75.260  1.00  0.00    -0.000 C 
BRANCH  28  29
ATOM     29  C   UNL     1      47.929  -6.541  75.775  1.00  0.00    -0.003 C 
ATOM     30  C   UNL     1      47.144  -5.853  74.657  1.00  0.00     0.004 C 
ENDBRANCH  28  29
ENDBRANCH  27  28
ENDBRANCH  26  27
ENDBRANCH  25  26
ENDBRANCH  24  25
ENDBRANCH  23  24
ENDBRANCH  22  23
ENDBRANCH  21  22
ENDBRANCH  20  21
ENDBRANCH  19  20
ENDBRANCH  18  19
ENDBRANCH  17  18
ENDBRANCH   1  17
TORSDOF 26
ENDMDL
MODEL 5
REMARK VINA RESULT:    -4.223      4.023      7.695
REMARK INTER + INTRA:         -15.251
REMARK INTER:                 -10.386
REMARK INTRA:                  -4.865
REMARK UNBOUND:                -4.609
REMARK SMILES CCCCCCCCCCCCCCCCCCCCCCCCCCCC(=O)[O-]
REMARK SMILES IDX 15 1 16 2 17 3 18 4 19 5 20 6 21 7 22 8 23 9 24 10 25 11
REMARK SMILES IDX 26 12 27 13 28 14 29 15 30 16 14 17 13 18 12 19 11 20 10 21
REMARK SMILES IDX 9 22 8 23 7 24 6 25 5 26 4 27 3 28 2 29 1 30
REMARK H PARENT
REMARK Flexibility Score: inf
ROOT
ATOM      1  C   UNL     1      49.145  -3.485  72.646  1.00  0.00     0.000 C 
ENDROOT
BRANCH   1   2
ATOM      2  C   UNL     1      48.213  -4.471  73.371  1.00  0.00     0.000 C 
BRANCH   2   3
ATOM      3  C   UNL     1      48.430  -5.925  72.922  1.00  0.00     0.000 C 
BRANCH   3   4
ATOM      4  C   UNL     1      48.768  -6.860  74.097  1.00  0.00     0.000 C 
BRANCH   4   5
ATOM      5  C   UNL     1      48.544  -6.200  75.468  1.00  0.00     0.000 C 
BRANCH   5   6
ATOM      6  C   UNL     1      48.828  -7.141  76.657  1.00  0.00     0.000 C 
BRANCH   6   7
ATOM      7  C   UNL     1      50.287  -7.044  77.137  1.00  0.00     0.000 C 
BRANCH   7   8
ATOM      8  C   UNL     1      50.412  -6.434  78.542  1.00  0.00     0.000 C 
BRANCH   8   9
ATOM      9  C   UNL     1      49.130  -6.599  79.378  1.00  0.00     0.000 C 
BRANCH   9  10
ATOM     10  C   UNL     1      48.643  -5.272  79.981  1.00  0.00     0.000 C 
BRANCH  10  11
ATOM     11  C   UNL     1      49.713  -4.169  79.929  1.00  0.00     0.000 C 
BRANCH  11  12
ATOM     12  C   UNL     1      49.625  -3.198  81.117  1.00  0.00     0.006 C 
BRANCH  12  13
ATOM     13  C   UNL     1      48.280  -3.279  81.850  1.00  0.00     0.053 C 
BRANCH  13  14
ATOM     14  C   UNL     1      48.401  -2.711  83.231  1.00  0.00     0.041 C 
ATOM     15  O   UNL     1      49.281  -1.846  83.486  1.00  0.00    -0.550 OA
ATOM     16  O   UNL     1      47.548  -3.145  84.237  1.00  0.00    -0.550 OA
ENDBRANCH  13  14
ENDBRANCH  12  13
ENDBRANCH  11  12
ENDBRANCH  10  11
ENDBRANCH   9  10
ENDBRANCH   8   9
ENDBRANCH   7   8
ENDBRANCH   6   7
ENDBRANCH   5   6
ENDBRANCH   4   5
ENDBRANCH   3   4
ENDBRANCH   2   3
ENDBRANCH   1   2
BRANCH   1  17
ATOM     17  C   UNL     1      48.652  -2.032  72.725  1.00  0.00     0.000 C 
BRANCH  17  18
ATOM     18  C   UNL     1      49.602  -1.050  72.017  1.00  0.00     0.000 C 
BRANCH  18  19
ATOM     19  C   UNL     1      50.735  -0.542  72.927  1.00  0.00     0.000 C 
BRANCH  19  20
ATOM     20  C   UNL     1      52.093  -0.334  72.230  1.00  0.00     0.000 C 
BRANCH  20  21
ATOM     21  C   UNL     1      53.186  -1.284  72.750  1.00  0.00     0.000 C 
BRANCH  21  22
ATOM     22  C   UNL     1      52.849  -2.765  72.511  1.00  0.00    -0.000 C 
BRANCH  22  23
ATOM     23  C   UNL     1      53.325  -3.669  73.658  1.00  0.00    -0.000 C 
BRANCH  23  24
ATOM     24  C   UNL     1      52.147  -4.117  74.533  1.00  0.00    -0.000 C 
BRANCH  24  25
ATOM     25  C   UNL     1      51.861  -3.084  75.633  1.00  0.00    -0.000 C 
BRANCH  25  26
ATOM     26  C   UNL     1      50.552  -3.370  76.386  1.00  0.00    -0.000 C 
BRANCH  26  27
ATOM     27  C   UNL     1      49.563  -2.196  76.312  1.00  0.00    -0.000 C 
BRANCH  27  28
ATOM     28  C   UNL     1      48.136  -2.658  76.643  1.00  0.00    -0.000 C 
BRANCH  28  29
ATOM     29  C   UNL     1      47.081  -1.587  76.328  1.00  0.00    -0.003 C 
ATOM     30  C   UNL     1      47.691  -0.302  75.766  1.00  0.00     0.004 C 
ENDBRANCH  28  29
ENDBRANCH  27  28
ENDBRANCH  26  27
ENDBRANCH  25  26
ENDBRANCH  24  25
ENDBRANCH  23  24
ENDBRANCH  22  23
ENDBRANCH  21  22
ENDBRANCH  20  21
ENDBRANCH  19  20
ENDBRANCH  18  19
ENDBRANCH  17  18
ENDBRANCH   1  17
TORSDOF 26
ENDMDL
MODEL 6
REMARK VINA RESULT:    -4.211      2.786      6.983
REMARK INTER + INTRA:         -15.219
REMARK INTER:                  -9.660
REMARK INTRA:                  -5.559
REMARK UNBOUND:                -4.609
REMARK SMILES CCCCCCCCCCCCCCCCCCCCCCCCCCCC(=O)[O-]
REMARK SMILES IDX 15 1 16 2 17 3 18 4 19 5 20 6 21 7 22 8 23 9 24 10 25 11
REMARK SMILES IDX 26 12 27 13 28 14 29 15 30 16 14 17 13 18 12 19 11 20 10 21
REMARK SMILES IDX 9 22 8 23 7 24 6 25 5 26 4 27 3 28 2 29 1 30
REMARK H PARENT
REMARK Flexibility Score: inf
ROOT
ATOM      1  C   UNL     1      46.201  -5.752  73.550  1.00  0.00     0.000 C 
ENDROOT
BRANCH   1   2
ATOM      2  C   UNL     1      46.794  -6.306  72.243  1.00  0.00     0.000 C 
BRANCH   2   3
ATOM      3  C   UNL     1      46.435  -7.783  72.013  1.00  0.00     0.000 C 
BRANCH   3   4
ATOM      4  C   UNL     1      45.770  -8.425  73.242  1.00  0.00     0.000 C 
BRANCH   4   5
ATOM      5  C   UNL     1      46.173  -9.896  73.438  1.00  0.00     0.000 C 
BRANCH   5   6
ATOM      6  C   UNL     1      46.220 -10.329  74.919  1.00  0.00     0.000 C 
BRANCH   6   7
ATOM      7  C   UNL     1      45.993  -9.146  75.876  1.00  0.00     0.000 C 
BRANCH   7   8
ATOM      8  C   UNL     1      47.209  -8.862  76.770  1.00  0.00     0.000 C 
BRANCH   8   9
ATOM      9  C   UNL     1      47.978  -7.597  76.345  1.00  0.00     0.000 C 
BRANCH   9  10
ATOM     10  C   UNL     1      49.377  -7.914  75.794  1.00  0.00     0.000 C 
BRANCH  10  11
ATOM     11  C   UNL     1      49.387  -8.087  74.266  1.00  0.00     0.000 C 
BRANCH  11  12
ATOM     12  C   UNL     1      49.742  -9.518  73.831  1.00  0.00     0.006 C 
BRANCH  12  13
ATOM     13  C   UNL     1      49.981  -9.636  72.320  1.00  0.00     0.053 C 
BRANCH  13  14
ATOM     14  C   UNL     1      50.974 -10.719  72.030  1.00  0.00     0.041 C 
ATOM     15  O   UNL     1      52.174 -10.427  71.778  1.00  0.00    -0.550 OA
ATOM     16  O   UNL     1      50.573 -12.048  72.028  1.00  0.00    -0.550 OA
ENDBRANCH  13  14
ENDBRANCH  12  13
ENDBRANCH  11  12
ENDBRANCH  10  11
ENDBRANCH   9  10
ENDBRANCH   8   9
ENDBRANCH   7   8
ENDBRANCH   6   7
ENDBRANCH   5   6
ENDBRANCH   4   5
ENDBRANCH   3   4
ENDBRANCH   2   3
ENDBRANCH   1   2
BRANCH   1  17
ATOM     17  C   UNL     1      47.102  -4.698  74.213  1.00  0.00     0.000 C 
BRANCH  17  18
ATOM     18  C   UNL     1      48.166  -4.145  73.250  1.00  0.00     0.000 C 
BRANCH  18  19
ATOM     19  C   UNL     1      49.597  -4.241  73.811  1.00  0.00     0.000 C 
BRANCH  19  20
ATOM     20  C   UNL     1      49.693  -4.424  75.337  1.00  0.00     0.000 C 
BRANCH  20  21
ATOM     21  C   UNL     1      50.649  -3.419  76.003  1.00  0.00     0.000 C 
BRANCH  21  22
ATOM     22  C   UNL     1      50.338  -1.962  75.624  1.00  0.00    -0.000 C 
BRANCH  22  23
ATOM     23  C   UNL     1      49.001  -1.475  76.205  1.00  0.00    -0.000 C 
BRANCH  23  24
ATOM     24  C   UNL     1      48.099  -0.896  75.108  1.00  0.00    -0.000 C 
BRANCH  24  25
ATOM     25  C   UNL     1      48.908  -0.009  74.149  1.00  0.00    -0.000 C 
BRANCH  25  26
ATOM     26  C   UNL     1      48.507  -0.209  72.680  1.00  0.00    -0.000 C 
BRANCH  26  27
ATOM     27  C   UNL     1      49.586  -0.947  71.872  1.00  0.00    -0.000 C 
BRANCH  27  28
ATOM     28  C   UNL     1      50.989  -0.612  72.396  1.00  0.00    -0.000 C 
BRANCH  28  29
ATOM     29  C   UNL     1      51.942  -1.816  72.345  1.00  0.00    -0.003 C 
ATOM     30  C   UNL     1      53.153  -1.653  73.265  1.00  0.00     0.004 C 
ENDBRANCH  28  29
ENDBRANCH  27  28
ENDBRANCH  26  27
ENDBRANCH  25  26
ENDBRANCH  24  25
ENDBRANCH  23  24
ENDBRANCH  22  23
ENDBRANCH  21  22
ENDBRANCH  20  21
ENDBRANCH  19  20
ENDBRANCH  18  19
ENDBRANCH  17  18
ENDBRANCH   1  17
TORSDOF 26
ENDMDL
MODEL 7
REMARK VINA RESULT:    -4.187      3.463      6.867
REMARK INTER + INTRA:         -15.160
REMARK INTER:                 -10.184
REMARK INTRA:                  -4.976
REMARK UNBOUND:                -4.609
REMARK SMILES CCCCCCCCCCCCCCCCCCCCCCCCCCCC(=O)[O-]
REMARK SMILES IDX 15 1 16 2 17 3 18 4 19 5 20 6 21 7 22 8 23 9 24 10 25 11
REMARK SMILES IDX 26 12 27 13 28 14 29 15 30 16 14 17 13 18 12 19 11 20 10 21
REMARK SMILES IDX 9 22 8 23 7 24 6 25 5 26 4 27 3 28 2 29 1 30
REMARK H PARENT
REMARK Flexibility Score: inf
ROOT
ATOM      1  C   UNL     1      49.071  -4.510  75.974  1.00  0.00     0.000 C 
ENDROOT
BRANCH   1   2
ATOM      2  C   UNL     1      50.023  -3.406  76.465  1.00  0.00     0.000 C 
BRANCH   2   3
ATOM      3  C   UNL     1      49.469  -1.994  76.211  1.00  0.00     0.000 C 
BRANCH   3   4
ATOM      4  C   UNL     1      47.933  -1.970  76.131  1.00  0.00     0.000 C 
BRANCH   4   5
ATOM      5  C   UNL     1      47.300  -0.959  77.101  1.00  0.00     0.000 C 
BRANCH   5   6
ATOM      6  C   UNL     1      46.487  -1.619  78.234  1.00  0.00     0.000 C 
BRANCH   6   7
ATOM      7  C   UNL     1      47.173  -2.885  78.777  1.00  0.00     0.000 C 
BRANCH   7   8
ATOM      8  C   UNL     1      47.409  -2.828  80.295  1.00  0.00     0.000 C 
BRANCH   8   9
ATOM      9  C   UNL     1      48.103  -4.092  80.835  1.00  0.00     0.000 C 
BRANCH   9  10
ATOM     10  C   UNL     1      48.580  -5.030  79.715  1.00  0.00     0.000 C 
BRANCH  10  11
ATOM     11  C   UNL     1      50.103  -5.245  79.729  1.00  0.00     0.000 C 
BRANCH  11  12
ATOM     12  C   UNL     1      50.879  -3.980  80.126  1.00  0.00     0.006 C 
BRANCH  12  13
ATOM     13  C   UNL     1      52.235  -4.295  80.773  1.00  0.00     0.053 C 
BRANCH  13  14
ATOM     14  C   UNL     1      52.553  -3.292  81.838  1.00  0.00     0.041 C 
ATOM     15  O   UNL     1      53.589  -2.579  81.748  1.00  0.00    -0.550 OA
ATOM     16  O   UNL     1      51.712  -3.152  82.934  1.00  0.00    -0.550 OA
ENDBRANCH  13  14
ENDBRANCH  12  13
ENDBRANCH  11  12
ENDBRANCH  10  11
ENDBRANCH   9  10
ENDBRANCH   8   9
ENDBRANCH   7   8
ENDBRANCH   6   7
ENDBRANCH   5   6
ENDBRANCH   4   5
ENDBRANCH   3   4
ENDBRANCH   2   3
ENDBRANCH   1   2
BRANCH   1  17
ATOM     17  C   UNL     1      49.522  -5.139  74.647  1.00  0.00     0.000 C 
BRANCH  17  18
ATOM     18  C   UNL     1      48.627  -4.724  73.466  1.00  0.00     0.000 C 
BRANCH  18  19
ATOM     19  C   UNL     1      49.304  -3.715  72.520  1.00  0.00     0.000 C 
BRANCH  19  20
ATOM     20  C   UNL     1      48.787  -2.268  72.626  1.00  0.00     0.000 C 
BRANCH  20  21
ATOM     21  C   UNL     1      49.711  -1.249  71.936  1.00  0.00     0.000 C 
BRANCH  21  22
ATOM     22  C   UNL     1      50.745  -0.639  72.896  1.00  0.00    -0.000 C 
BRANCH  22  23
ATOM     23  C   UNL     1      52.131  -0.485  72.249  1.00  0.00    -0.000 C 
BRANCH  23  24
ATOM     24  C   UNL     1      53.173  -1.355  72.963  1.00  0.00    -0.000 C 
BRANCH  24  25
ATOM     25  C   UNL     1      52.492  -2.359  73.906  1.00  0.00    -0.000 C 
BRANCH  25  26
ATOM     26  C   UNL     1      52.935  -3.807  73.644  1.00  0.00    -0.000 C 
BRANCH  26  27
ATOM     27  C   UNL     1      53.237  -4.573  74.942  1.00  0.00    -0.000 C 
BRANCH  27  28
ATOM     28  C   UNL     1      53.230  -6.089  74.700  1.00  0.00    -0.000 C 
BRANCH  28  29
ATOM     29  C   UNL     1      53.042  -6.894  75.996  1.00  0.00    -0.003 C 
ATOM     30  C   UNL     1      52.502  -6.044  77.147  1.00  0.00     0.004 C 
ENDBRANCH  28  29
ENDBRANCH  27  28
ENDBRANCH  26  27
ENDBRANCH  25  26
ENDBRANCH  24  25
ENDBRANCH  23  24
ENDBRANCH  22  23
ENDBRANCH  21  22
ENDBRANCH  20  21
ENDBRANCH  19  20
ENDBRANCH  18  19
ENDBRANCH  17  18
ENDBRANCH   1  17
TORSDOF 26
ENDMDL
MODEL 8
REMARK VINA RESULT:    -4.185      1.409      3.292
REMARK INTER + INTRA:         -15.154
REMARK INTER:                 -11.177
REMARK INTRA:                  -3.977
REMARK UNBOUND:                -4.609
REMARK SMILES CCCCCCCCCCCCCCCCCCCCCCCCCCCC(=O)[O-]
REMARK SMILES IDX 15 1 16 2 17 3 18 4 19 5 20 6 21 7 22 8 23 9 24 10 25 11
REMARK SMILES IDX 26 12 27 13 28 14 29 15 30 16 14 17 13 18 12 19 11 20 10 21
REMARK SMILES IDX 9 22 8 23 7 24 6 25 5 26 4 27 3 28 2 29 1 30
REMARK H PARENT
REMARK Flexibility Score: inf
ROOT
ATOM      1  C   UNL     1      48.026  -4.732  72.710  1.00  0.00     0.000 C 
ENDROOT
BRANCH   1   2
ATOM      2  C   UNL     1      49.454  -4.257  73.029  1.00  0.00     0.000 C 
BRANCH   2   3
ATOM      3  C   UNL     1      49.831  -2.974  72.270  1.00  0.00     0.000 C 
BRANCH   3   4
ATOM      4  C   UNL     1      48.717  -1.914  72.316  1.00  0.00     0.000 C 
BRANCH   4   5
ATOM      5  C   UNL     1      49.261  -0.483  72.459  1.00  0.00     0.000 C 
BRANCH   5   6
ATOM      6  C   UNL     1      50.618  -0.410  73.190  1.00  0.00     0.000 C 
BRANCH   6   7
ATOM      7  C   UNL     1      51.722   0.190  72.303  1.00  0.00     0.000 C 
BRANCH   7   8
ATOM      8  C   UNL     1      52.951  -0.724  72.180  1.00  0.00     0.000 C 
BRANCH   8   9
ATOM      9  C   UNL     1      53.060  -1.732  73.339  1.00  0.00     0.000 C 
BRANCH   9  10
ATOM     10  C   UNL     1      53.467  -3.136  72.866  1.00  0.00     0.000 C 
BRANCH  10  11
ATOM     11  C   UNL     1      52.986  -4.245  73.816  1.00  0.00     0.000 C 
BRANCH  11  12
ATOM     12  C   UNL     1      54.096  -4.753  74.749  1.00  0.00     0.006 C 
BRANCH  12  13
ATOM     13  C   UNL     1      54.178  -6.285  74.793  1.00  0.00     0.053 C 
BRANCH  13  14
ATOM     14  C   UNL     1      55.379  -6.766  74.040  1.00  0.00     0.041 C 
ATOM     15  O   UNL     1      56.102  -5.949  73.409  1.00  0.00    -0.550 OA
ATOM     16  O   UNL     1      55.695  -8.119  74.027  1.00  0.00    -0.550 OA
ENDBRANCH  13  14
ENDBRANCH  12  13
ENDBRANCH  11  12
ENDBRANCH  10  11
ENDBRANCH   9  10
ENDBRANCH   8   9
ENDBRANCH   7   8
ENDBRANCH   6   7
ENDBRANCH   5   6
ENDBRANCH   4   5
ENDBRANCH   3   4
ENDBRANCH   2   3
ENDBRANCH   1   2
BRANCH   1  17
ATOM     17  C   UNL     1      47.120  -4.773  73.951  1.00  0.00     0.000 C 
BRANCH  17  18
ATOM     18  C   UNL     1      47.923  -4.836  75.262  1.00  0.00     0.000 C 
BRANCH  18  19
ATOM     19  C   UNL     1      48.137  -6.273  75.772  1.00  0.00     0.000 C 
BRANCH  19  20
ATOM     20  C   UNL     1      49.587  -6.787  75.696  1.00  0.00     0.000 C 
BRANCH  20  21
ATOM     21  C   UNL     1      50.602  -5.811  76.316  1.00  0.00     0.000 C 
BRANCH  21  22
ATOM     22  C   UNL     1      51.145  -6.298  77.669  1.00  0.00    -0.000 C 
BRANCH  22  23
ATOM     23  C   UNL     1      50.430  -5.642  78.861  1.00  0.00    -0.000 C 
BRANCH  23  24
ATOM     24  C   UNL     1      49.313  -6.545  79.401  1.00  0.00    -0.000 C 
BRANCH  24  25
ATOM     25  C   UNL     1      49.595  -8.018  79.069  1.00  0.00    -0.000 C 
BRANCH  25  26
ATOM     26  C   UNL     1      48.413  -8.937  79.412  1.00  0.00    -0.000 C 
BRANCH  26  27
ATOM     27  C   UNL     1      47.709  -9.482  78.160  1.00  0.00    -0.000 C 
BRANCH  27  28
ATOM     28  C   UNL     1      48.704 -10.205  77.241  1.00  0.00    -0.000 C 
BRANCH  28  29
ATOM     29  C   UNL     1      48.054 -10.699  75.939  1.00  0.00    -0.003 C 
ATOM     30  C   UNL     1      46.935  -9.779  75.450  1.00  0.00     0.004 C 
ENDBRANCH  28  29
ENDBRANCH  27  28
ENDBRANCH  26  27
ENDBRANCH  25  26
ENDBRANCH  24  25
ENDBRANCH  23  24
ENDBRANCH  22  23
ENDBRANCH  21  22
ENDBRANCH  20  21
ENDBRANCH  19  20
ENDBRANCH  18  19
ENDBRANCH  17  18
ENDBRANCH   1  17
TORSDOF 26
ENDMDL
MODEL 9
REMARK VINA RESULT:    -4.129      1.402      2.737
REMARK INTER + INTRA:         -15.014
REMARK INTER:                 -10.133
REMARK INTRA:                  -4.881
REMARK UNBOUND:                -4.609
REMARK SMILES CCCCCCCCCCCCCCCCCCCCCCCCCCCC(=O)[O-]
REMARK SMILES IDX 15 1 16 2 17 3 18 4 19 5 20 6 21 7 22 8 23 9 24 10 25 11
REMARK SMILES IDX 26 12 27 13 28 14 29 15 30 16 14 17 13 18 12 19 11 20 10 21
REMARK SMILES IDX 9 22 8 23 7 24 6 25 5 26 4 27 3 28 2 29 1 30
REMARK H PARENT
REMARK Flexibility Score: inf
ROOT
ATOM      1  C   UNL     1      48.951  -4.830  72.964  1.00  0.00     0.000 C 
ENDROOT
BRANCH   1   2
ATOM      2  C   UNL     1      49.709  -3.664  72.306  1.00  0.00     0.000 C 
BRANCH   2   3
ATOM      3  C   UNL     1      49.079  -2.297  72.625  1.00  0.00     0.000 C 
BRANCH   3   4
ATOM      4  C   UNL     1      49.803  -1.137  71.921  1.00  0.00     0.000 C 
BRANCH   4   5
ATOM      5  C   UNL     1      50.848  -0.454  72.818  1.00  0.00     0.000 C 
BRANCH   5   6
ATOM      6  C   UNL     1      52.279  -0.507  72.245  1.00  0.00     0.000 C 
BRANCH   6   7
ATOM      7  C   UNL     1      53.072  -1.714  72.776  1.00  0.00     0.000 C 
BRANCH   7   8
ATOM      8  C   UNL     1      52.574  -2.197  74.147  1.00  0.00     0.000 C 
BRANCH   8   9
ATOM      9  C   UNL     1      53.257  -3.499  74.604  1.00  0.00     0.000 C 
BRANCH   9  10
ATOM     10  C   UNL     1      52.264  -4.660  74.769  1.00  0.00     0.000 C 
BRANCH  10  11
ATOM     11  C   UNL     1      52.401  -5.370  76.127  1.00  0.00     0.000 C 
BRANCH  11  12
ATOM     12  C   UNL     1      53.305  -6.611  76.061  1.00  0.00     0.006 C 
BRANCH  12  13
ATOM     13  C   UNL     1      52.977  -7.520  74.870  1.00  0.00     0.053 C 
BRANCH  13  14
ATOM     14  C   UNL     1      54.235  -7.986  74.205  1.00  0.00     0.041 C 
ATOM     15  O   UNL     1      54.436  -9.217  74.018  1.00  0.00    -0.550 OA
ATOM     16  O   UNL     1      55.190  -7.063  73.801  1.00  0.00    -0.550 OA
ENDBRANCH  13  14
ENDBRANCH  12  13
ENDBRANCH  11  12
ENDBRANCH  10  11
ENDBRANCH   9  10
ENDBRANCH   8   9
ENDBRANCH   7   8
ENDBRANCH   6   7
ENDBRANCH   5   6
ENDBRANCH   4   5
ENDBRANCH   3   4
ENDBRANCH   2   3
ENDBRANCH   1   2
BRANCH   1  17
ATOM     17  C   UNL     1      47.502  -4.470  73.328  1.00  0.00     0.000 C 
BRANCH  17  18
ATOM     18  C   UNL     1      46.592  -5.708  73.413  1.00  0.00     0.000 C 
BRANCH  18  19
ATOM     19  C   UNL     1      46.849  -6.725  72.285  1.00  0.00     0.000 C 
BRANCH  19  20
ATOM     20  C   UNL     1      47.223  -8.143  72.754  1.00  0.00     0.000 C 
BRANCH  20  21
ATOM     21  C   UNL     1      48.724  -8.448  72.605  1.00  0.00     0.000 C 
BRANCH  21  22
ATOM     22  C   UNL     1      49.333  -9.069  73.872  1.00  0.00    -0.000 C 
BRANCH  22  23
ATOM     23  C   UNL     1      48.684  -8.536  75.160  1.00  0.00    -0.000 C 
BRANCH  23  24
ATOM     24  C   UNL     1      49.359  -7.239  75.623  1.00  0.00    -0.000 C 
BRANCH  24  25
ATOM     25  C   UNL     1      48.433  -6.446  76.557  1.00  0.00    -0.000 C 
BRANCH  25  26
ATOM     26  C   UNL     1      49.131  -6.024  77.860  1.00  0.00    -0.000 C 
BRANCH  26  27
ATOM     27  C   UNL     1      49.200  -7.167  78.885  1.00  0.00    -0.000 C 
BRANCH  27  28
ATOM     28  C   UNL     1      50.598  -7.801  78.907  1.00  0.00    -0.000 C 
BRANCH  28  29
ATOM     29  C   UNL     1      50.566  -9.313  78.631  1.00  0.00    -0.003 C 
ATOM     30  C   UNL     1      51.474  -9.722  77.470  1.00  0.00     0.004 C 
ENDBRANCH  28  29
ENDBRANCH  27  28
ENDBRANCH  26  27
ENDBRANCH  25  26
ENDBRANCH  24  25
ENDBRANCH  23  24
ENDBRANCH  22  23
ENDBRANCH  21  22
ENDBRANCH  20  21
ENDBRANCH  19  20
ENDBRANCH  18  19
ENDBRANCH  17  18
ENDBRANCH   1  17
TORSDOF 26
ENDMDL
