MODEL 1
REMARK VINA RESULT:    -3.822      0.000      0.000
REMARK INTER + INTRA:         -14.873
REMARK INTER:                 -10.079
REMARK INTRA:                  -4.794
REMARK UNBOUND:                -4.794
REMARK SMILES CCCCCCCCCCCCCCCCCCCCCCCCCCCCCC(=O)[O-]
REMARK SMILES IDX 16 1 17 2 18 3 19 4 20 5 21 6 22 7 23 8 24 9 25 10 26 11
REMARK SMILES IDX 27 12 28 13 29 14 30 15 31 16 32 17 15 18 14 19 13 20 12 21
REMARK SMILES IDX 11 22 10 23 9 24 8 25 7 26 6 27 5 28 4 29 3 30 2 31 1 32
REMARK H PARENT
REMARK Flexibility Score: inf
ROOT
ATOM      1  C   UNL     1      -0.033 -12.238   5.788  1.00  0.00     0.000 C 
ENDROOT
BRANCH   1   2
ATOM      2  C   UNL     1      -1.289 -13.011   5.334  1.00  0.00     0.000 C 
BRANCH   2   3
ATOM      3  C   UNL     1      -1.476 -14.414   5.944  1.00  0.00     0.000 C 
BRANCH   3   4
ATOM      4  C   UNL     1      -2.935 -14.880   6.102  1.00  0.00     0.000 C 
BRANCH   4   5
ATOM      5  C   UNL     1      -3.948 -13.870   5.542  1.00  0.00     0.000 C 
BRANCH   5   6
ATOM      6  C   UNL     1      -5.270 -13.927   6.323  1.00  0.00     0.000 C 
BRANCH   6   7
ATOM      7  C   UNL     1      -6.098 -12.639   6.184  1.00  0.00     0.000 C 
BRANCH   7   8
ATOM      8  C   UNL     1      -6.923 -12.333   7.446  1.00  0.00     0.000 C 
BRANCH   8   9
ATOM      9  C   UNL     1      -8.159 -11.467   7.145  1.00  0.00     0.000 C 
BRANCH   9  10
ATOM     10  C   UNL     1      -8.373 -11.221   5.635  1.00  0.00     0.000 C 
BRANCH  10  11
ATOM     11  C   UNL     1      -9.073  -9.879   5.364  1.00  0.00     0.000 C 
BRANCH  11  12
ATOM     12  C   UNL     1      -9.876  -9.896   4.052  1.00  0.00     0.000 C 
BRANCH  12  13
ATOM     13  C   UNL     1      -9.821 -11.268   3.359  1.00  0.00     0.006 C 
BRANCH  13  14
ATOM     14  C   UNL     1      -9.608 -11.147   1.842  1.00  0.00     0.053 C 
BRANCH  14  15
ATOM     15  C   UNL     1     -10.493 -12.075   1.066  1.00  0.00     0.041 C 
ATOM     16  O   UNL     1     -11.707 -11.791   0.878  1.00  0.00    -0.550 OA
ATOM     17  O   UNL     1      -9.975 -13.258   0.551  1.00  0.00    -0.550 OA
ENDBRANCH  14  15
ENDBRANCH  13  14
ENDBRANCH  12  13
ENDBRANCH  11  12
ENDBRANCH  10  11
ENDBRANCH   9  10
ENDBRANCH   8   9
ENDBRANCH   7   8
ENDBRANCH   6   7
ENDBRANCH   5   6
ENDBRANCH   4   5
ENDBRANCH   3   4
ENDBRANCH   2   3
ENDBRANCH   1   2
BRANCH   1  18
ATOM     18  C   UNL     1       1.240 -13.098   5.922  1.00  0.00     0.000 C 
BRANCH  18  19
ATOM     19  C   UNL     1       1.903 -13.005   7.307  1.00  0.00     0.000 C 
BRANCH  19  20
ATOM     20  C   UNL     1       0.878 -12.967   8.453  1.00  0.00     0.000 C 
BRANCH  20  21
ATOM     21  C   UNL     1       1.197 -11.882   9.492  1.00  0.00     0.000 C 
BRANCH  21  22
ATOM     22  C   UNL     1       0.214 -10.710   9.384  1.00  0.00     0.000 C 
BRANCH  22  23
ATOM     23  C   UNL     1       0.905  -9.457   8.827  1.00  0.00     0.000 C 
BRANCH  23  24
ATOM     24  C   UNL     1      -0.079  -8.473   8.171  1.00  0.00    -0.000 C 
BRANCH  24  25
ATOM     25  C   UNL     1      -0.328  -8.699   6.666  1.00  0.00    -0.000 C 
BRANCH  25  26
ATOM     26  C   UNL     1      -1.756  -8.387   6.187  1.00  0.00    -0.000 C 
BRANCH  26  27
ATOM     27  C   UNL     1      -2.826  -8.753   7.226  1.00  0.00    -0.000 C 
BRANCH  27  28
ATOM     28  C   UNL     1      -3.354 -10.177   6.992  1.00  0.00    -0.000 C 
BRANCH  28  29
ATOM     29  C   UNL     1      -3.651 -10.912   8.315  1.00  0.00    -0.000 C 
BRANCH  29  30
ATOM     30  C   UNL     1      -2.671 -12.059   8.617  1.00  0.00    -0.000 C 
BRANCH  30  31
ATOM     31  C   UNL     1      -3.001 -12.798   9.921  1.00  0.00    -0.003 C 
ATOM     32  C   UNL     1      -3.796 -14.071   9.645  1.00  0.00     0.004 C 
ENDBRANCH  30  31
ENDBRANCH  29  30
ENDBRANCH  28  29
ENDBRANCH  27  28
ENDBRANCH  26  27
ENDBRANCH  25  26
ENDBRANCH  24  25
ENDBRANCH  23  24
ENDBRANCH  22  23
ENDBRANCH  21  22
ENDBRANCH  20  21
ENDBRANCH  19  20
ENDBRANCH  18  19
ENDBRANCH   1  18
TORSDOF 28
ENDMDL
MODEL 2
REMARK VINA RESULT:    -3.800      1.323      4.199
REMARK INTER + INTRA:         -14.813
REMARK INTER:                  -9.929
REMARK INTRA:                  -4.885
REMARK UNBOUND:                -4.794
REMARK SMILES CCCCCCCCCCCCCCCCCCCCCCCCCCCCCC(=O)[O-]
REMARK SMILES IDX 16 1 17 2 18 3 19 4 20 5 21 6 22 7 23 8 24 9 25 10 26 11
REMARK SMILES IDX 27 12 28 13 29 14 30 15 31 16 32 17 15 18 14 19 13 20 12 21
REMARK SMILES IDX 11 22 10 23 9 24 8 25 7 26 6 27 5 28 4 29 3 30 2 31 1 32
REMARK H PARENT
REMARK Flexibility Score: inf
ROOT
ATOM      1  C   UNL     1      -1.824  -7.981   6.184  1.00  0.00     0.000 C 
ENDROOT
BRANCH   1   2
ATOM      2  C   UNL     1      -2.815  -8.259   7.334  1.00  0.00     0.000 C 
BRANCH   2   3
ATOM      3  C   UNL     1      -3.047  -9.743   7.681  1.00  0.00     0.000 C 
BRANCH   3   4
ATOM      4  C   UNL     1      -3.010 -10.086   9.181  1.00  0.00     0.000 C 
BRANCH   4   5
ATOM      5  C   UNL     1      -2.924 -11.596   9.447  1.00  0.00     0.000 C 
BRANCH   5   6
ATOM      6  C   UNL     1      -4.141 -12.084  10.248  1.00  0.00     0.000 C 
BRANCH   6   7
ATOM      7  C   UNL     1      -5.356 -12.391   9.356  1.00  0.00     0.000 C 
BRANCH   7   8
ATOM      8  C   UNL     1      -4.947 -12.942   7.978  1.00  0.00     0.000 C 
BRANCH   8   9
ATOM      9  C   UNL     1      -5.744 -12.300   6.829  1.00  0.00     0.000 C 
BRANCH   9  10
ATOM     10  C   UNL     1      -7.140 -11.802   7.264  1.00  0.00     0.000 C 
BRANCH  10  11
ATOM     11  C   UNL     1      -7.964 -11.286   6.073  1.00  0.00     0.000 C 
BRANCH  11  12
ATOM     12  C   UNL     1      -9.294 -10.652   6.516  1.00  0.00     0.000 C 
BRANCH  12  13
ATOM     13  C   UNL     1      -9.979  -9.886   5.370  1.00  0.00     0.006 C 
BRANCH  13  14
ATOM     14  C   UNL     1      -9.147  -9.903   4.079  1.00  0.00     0.053 C 
BRANCH  14  15
ATOM     15  C   UNL     1      -9.791 -10.716   2.997  1.00  0.00     0.041 C 
ATOM     16  O   UNL     1      -9.200 -10.896   1.897  1.00  0.00    -0.550 OA
ATOM     17  O   UNL     1     -11.047 -11.274   3.203  1.00  0.00    -0.550 OA
ENDBRANCH  14  15
ENDBRANCH  13  14
ENDBRANCH  12  13
ENDBRANCH  11  12
ENDBRANCH  10  11
ENDBRANCH   9  10
ENDBRANCH   8   9
ENDBRANCH   7   8
ENDBRANCH   6   7
ENDBRANCH   5   6
ENDBRANCH   4   5
ENDBRANCH   3   4
ENDBRANCH   2   3
ENDBRANCH   1   2
BRANCH   1  18
ATOM     18  C   UNL     1      -0.645  -8.970   6.094  1.00  0.00     0.000 C 
BRANCH  18  19
ATOM     19  C   UNL     1       0.559  -8.573   6.965  1.00  0.00     0.000 C 
BRANCH  19  20
ATOM     20  C   UNL     1       1.015  -9.707   7.898  1.00  0.00     0.000 C 
BRANCH  20  21
ATOM     21  C   UNL     1       0.606  -9.467   9.359  1.00  0.00     0.000 C 
BRANCH  21  22
ATOM     22  C   UNL     1       0.728 -10.754  10.182  1.00  0.00     0.000 C 
BRANCH  22  23
ATOM     23  C   UNL     1       0.918 -11.978   9.273  1.00  0.00     0.000 C 
BRANCH  23  24
ATOM     24  C   UNL     1       2.143 -12.825   9.658  1.00  0.00    -0.000 C 
BRANCH  24  25
ATOM     25  C   UNL     1       2.954 -13.382   8.470  1.00  0.00    -0.000 C 
BRANCH  25  26
ATOM     26  C   UNL     1       2.652 -12.729   7.110  1.00  0.00    -0.000 C 
BRANCH  26  27
ATOM     27  C   UNL     1       2.483 -13.756   5.981  1.00  0.00    -0.000 C 
BRANCH  27  28
ATOM     28  C   UNL     1       0.999 -13.952   5.635  1.00  0.00    -0.000 C 
BRANCH  28  29
ATOM     29  C   UNL     1       0.212 -12.626   5.676  1.00  0.00    -0.000 C 
BRANCH  29  30
ATOM     30  C   UNL     1      -1.168 -12.748   6.346  1.00  0.00    -0.000 C 
BRANCH  30  31
ATOM     31  C   UNL     1      -2.320 -12.343   5.417  1.00  0.00    -0.003 C 
ATOM     32  C   UNL     1      -2.936 -13.565   4.741  1.00  0.00     0.004 C 
ENDBRANCH  30  31
ENDBRANCH  29  30
ENDBRANCH  28  29
ENDBRANCH  27  28
ENDBRANCH  26  27
ENDBRANCH  25  26
ENDBRANCH  24  25
ENDBRANCH  23  24
ENDBRANCH  22  23
ENDBRANCH  21  22
ENDBRANCH  20  21
ENDBRANCH  19  20
ENDBRANCH  18  19
ENDBRANCH   1  18
TORSDOF 28
ENDMDL
MODEL 3
REMARK VINA RESULT:    -3.782      1.228      4.271
REMARK INTER + INTRA:         -14.768
REMARK INTER:                 -10.472
REMARK INTRA:                  -4.295
REMARK UNBOUND:                -4.794
REMARK SMILES CCCCCCCCCCCCCCCCCCCCCCCCCCCCCC(=O)[O-]
REMARK SMILES IDX 16 1 17 2 18 3 19 4 20 5 21 6 22 7 23 8 24 9 25 10 26 11
REMARK SMILES IDX 27 12 28 13 29 14 30 15 31 16 32 17 15 18 14 19 13 20 12 21
REMARK SMILES IDX 11 22 10 23 9 24 8 25 7 26 6 27 5 28 4 29 3 30 2 31 1 32
REMARK H PARENT
REMARK Flexibility Score: inf
ROOT
ATOM      1  C   UNL     1      -0.202  -8.745   6.318  1.00  0.00     0.000 C 
ENDROOT
BRANCH   1   2
ATOM      2  C   UNL     1      -1.620  -8.137   6.263  1.00  0.00     0.000 C 
BRANCH   2   3
ATOM      3  C   UNL     1      -2.595  -8.596   7.364  1.00  0.00     0.000 C 
BRANCH   3   4
ATOM      4  C   UNL     1      -3.270  -9.959   7.126  1.00  0.00     0.000 C 
BRANCH   4   5
ATOM      5  C   UNL     1      -3.574 -10.712   8.430  1.00  0.00     0.000 C 
BRANCH   5   6
ATOM      6  C   UNL     1      -4.763 -11.669   8.249  1.00  0.00     0.000 C 
BRANCH   6   7
ATOM      7  C   UNL     1      -5.230 -11.767   6.787  1.00  0.00     0.000 C 
BRANCH   7   8
ATOM      8  C   UNL     1      -6.620 -12.413   6.658  1.00  0.00     0.000 C 
BRANCH   8   9
ATOM      9  C   UNL     1      -7.750 -11.371   6.588  1.00  0.00     0.000 C 
BRANCH   9  10
ATOM     10  C   UNL     1      -8.320 -11.190   5.163  1.00  0.00     0.000 C 
BRANCH  10  11
ATOM     11  C   UNL     1      -8.876  -9.774   4.941  1.00  0.00     0.000 C 
BRANCH  11  12
ATOM     12  C   UNL     1     -10.117  -9.772   4.033  1.00  0.00     0.000 C 
BRANCH  12  13
ATOM     13  C   UNL     1     -10.630 -11.195   3.752  1.00  0.00     0.006 C 
BRANCH  13  14
ATOM     14  C   UNL     1     -10.510 -11.577   2.269  1.00  0.00     0.053 C 
BRANCH  14  15
ATOM     15  C   UNL     1     -11.834 -11.568   1.568  1.00  0.00     0.041 C 
ATOM     16  O   UNL     1     -12.031 -12.308   0.566  1.00  0.00    -0.550 OA
ATOM     17  O   UNL     1     -12.853 -10.738   2.022  1.00  0.00    -0.550 OA
ENDBRANCH  14  15
ENDBRANCH  13  14
ENDBRANCH  12  13
ENDBRANCH  11  12
ENDBRANCH  10  11
ENDBRANCH   9  10
ENDBRANCH   8   9
ENDBRANCH   7   8
ENDBRANCH   6   7
ENDBRANCH   5   6
ENDBRANCH   4   5
ENDBRANCH   3   4
ENDBRANCH   2   3
ENDBRANCH   1   2
BRANCH   1  18
ATOM     18  C   UNL     1       0.404  -8.840   7.733  1.00  0.00     0.000 C 
BRANCH  18  19
ATOM     19  C   UNL     1       0.809 -10.268   8.136  1.00  0.00     0.000 C 
BRANCH  19  20
ATOM     20  C   UNL     1       0.120 -10.737   9.428  1.00  0.00     0.000 C 
BRANCH  20  21
ATOM     21  C   UNL     1       0.141 -12.264   9.586  1.00  0.00     0.000 C 
BRANCH  21  22
ATOM     22  C   UNL     1      -1.148 -12.766  10.248  1.00  0.00     0.000 C 
BRANCH  22  23
ATOM     23  C   UNL     1      -1.879 -13.773   9.346  1.00  0.00     0.000 C 
BRANCH  23  24
ATOM     24  C   UNL     1      -1.141 -14.034   8.022  1.00  0.00    -0.000 C 
BRANCH  24  25
ATOM     25  C   UNL     1      -1.984 -13.819   6.748  1.00  0.00    -0.000 C 
BRANCH  25  26
ATOM     26  C   UNL     1      -1.536 -12.646   5.859  1.00  0.00    -0.000 C 
BRANCH  26  27
ATOM     27  C   UNL     1      -0.020 -12.627   5.619  1.00  0.00    -0.000 C 
BRANCH  27  28
ATOM     28  C   UNL     1       0.463 -13.971   5.052  1.00  0.00    -0.000 C 
BRANCH  28  29
ATOM     29  C   UNL     1       1.890 -14.322   5.522  1.00  0.00    -0.000 C 
BRANCH  29  30
ATOM     30  C   UNL     1       2.316 -13.586   6.804  1.00  0.00    -0.000 C 
BRANCH  30  31
ATOM     31  C   UNL     1       3.641 -12.829   6.644  1.00  0.00    -0.003 C 
ATOM     32  C   UNL     1       4.723 -13.732   6.056  1.00  0.00     0.004 C 
ENDBRANCH  30  31
ENDBRANCH  29  30
ENDBRANCH  28  29
ENDBRANCH  27  28
ENDBRANCH  26  27
ENDBRANCH  25  26
ENDBRANCH  24  25
ENDBRANCH  23  24
ENDBRANCH  22  23
ENDBRANCH  21  22
ENDBRANCH  20  21
ENDBRANCH  19  20
ENDBRANCH  18  19
ENDBRANCH   1  18
TORSDOF 28
ENDMDL
MODEL 4
REMARK VINA RESULT:    -3.771      3.891      8.536
REMARK INTER + INTRA:         -14.737
REMARK INTER:                 -10.330
REMARK INTRA:                  -4.407
REMARK UNBOUND:                -4.794
REMARK SMILES CCCCCCCCCCCCCCCCCCCCCCCCCCCCCC(=O)[O-]
REMARK SMILES IDX 16 1 17 2 18 3 19 4 20 5 21 6 22 7 23 8 24 9 25 10 26 11
REMARK SMILES IDX 27 12 28 13 29 14 30 15 31 16 32 17 15 18 14 19 13 20 12 21
REMARK SMILES IDX 11 22 10 23 9 24 8 25 7 26 6 27 5 28 4 29 3 30 2 31 1 32
REMARK H PARENT
REMARK Flexibility Score: inf
ROOT
ATOM      1  C   UNL     1      -0.997 -13.999   3.696  1.00  0.00     0.000 C 
ENDROOT
BRANCH   1   2
ATOM      2  C   UNL     1       0.017 -14.950   4.365  1.00  0.00     0.000 C 
BRANCH   2   3
ATOM      3  C   UNL     1       0.487 -14.552   5.778  1.00  0.00     0.000 C 
BRANCH   3   4
ATOM      4  C   UNL     1       1.254 -13.220   5.871  1.00  0.00     0.000 C 
BRANCH   4   5
ATOM      5  C   UNL     1       0.538 -12.178   6.743  1.00  0.00     0.000 C 
BRANCH   5   6
ATOM      6  C   UNL     1      -0.808 -12.716   7.251  1.00  0.00     0.000 C 
BRANCH   6   7
ATOM      7  C   UNL     1      -1.838 -11.601   7.499  1.00  0.00     0.000 C 
BRANCH   7   8
ATOM      8  C   UNL     1      -2.044 -10.707   6.263  1.00  0.00     0.000 C 
BRANCH   8   9
ATOM      9  C   UNL     1      -2.781  -9.399   6.600  1.00  0.00     0.000 C 
BRANCH   9  10
ATOM     10  C   UNL     1      -1.828  -8.259   7.025  1.00  0.00     0.000 C 
BRANCH  10  11
ATOM     11  C   UNL     1      -0.389  -8.502   6.541  1.00  0.00     0.000 C 
BRANCH  11  12
ATOM     12  C   UNL     1       0.602  -8.643   7.709  1.00  0.00     0.000 C 
BRANCH  12  13
ATOM     13  C   UNL     1      -0.113  -8.677   9.071  1.00  0.00     0.006 C 
BRANCH  13  14
ATOM     14  C   UNL     1       0.787  -9.226  10.189  1.00  0.00     0.053 C 
BRANCH  14  15
ATOM     15  C   UNL     1       0.703 -10.718  10.307  1.00  0.00     0.041 C 
ATOM     16  O   UNL     1      -0.371 -11.270  10.672  1.00  0.00    -0.550 OA
ATOM     17  O   UNL     1       1.815 -11.500  10.016  1.00  0.00    -0.550 OA
ENDBRANCH  14  15
ENDBRANCH  13  14
ENDBRANCH  12  13
ENDBRANCH  11  12
ENDBRANCH  10  11
ENDBRANCH   9  10
ENDBRANCH   8   9
ENDBRANCH   7   8
ENDBRANCH   6   7
ENDBRANCH   5   6
ENDBRANCH   4   5
ENDBRANCH   3   4
ENDBRANCH   2   3
ENDBRANCH   1   2
BRANCH   1  18
ATOM     18  C   UNL     1      -2.460 -14.483   3.736  1.00  0.00     0.000 C 
BRANCH  18  19
ATOM     19  C   UNL     1      -3.334 -13.720   4.746  1.00  0.00     0.000 C 
BRANCH  19  20
ATOM     20  C   UNL     1      -3.860 -14.622   5.874  1.00  0.00     0.000 C 
BRANCH  20  21
ATOM     21  C   UNL     1      -4.741 -13.860   6.875  1.00  0.00     0.000 C 
BRANCH  21  22
ATOM     22  C   UNL     1      -5.272 -12.559   6.261  1.00  0.00     0.000 C 
BRANCH  22  23
ATOM     23  C   UNL     1      -6.349 -11.924   7.153  1.00  0.00     0.000 C 
BRANCH  23  24
ATOM     24  C   UNL     1      -7.596 -11.488   6.366  1.00  0.00    -0.000 C 
BRANCH  24  25
ATOM     25  C   UNL     1      -8.942 -11.743   7.075  1.00  0.00    -0.000 C 
BRANCH  25  26
ATOM     26  C   UNL     1      -9.615 -10.493   7.667  1.00  0.00    -0.000 C 
BRANCH  26  27
ATOM     27  C   UNL     1     -10.761  -9.964   6.793  1.00  0.00    -0.000 C 
BRANCH  27  28
ATOM     28  C   UNL     1     -10.273  -8.835   5.872  1.00  0.00    -0.000 C 
BRANCH  28  29
ATOM     29  C   UNL     1     -10.759  -9.017   4.419  1.00  0.00    -0.000 C 
BRANCH  29  30
ATOM     30  C   UNL     1     -10.966 -10.488   4.018  1.00  0.00    -0.000 C 
BRANCH  30  31
ATOM     31  C   UNL     1      -9.673 -11.164   3.545  1.00  0.00    -0.003 C 
ATOM     32  C   UNL     1      -9.388 -10.843   2.080  1.00  0.00     0.004 C 
ENDBRANCH  30  31
ENDBRANCH  29  30
ENDBRANCH  28  29
ENDBRANCH  27  28
ENDBRANCH  26  27
ENDBRANCH  25  26
ENDBRANCH  24  25
ENDBRANCH  23  24
ENDBRANCH  22  23
ENDBRANCH  21  22
ENDBRANCH  20  21
ENDBRANCH  19  20
ENDBRANCH  18  19
ENDBRANCH   1  18
TORSDOF 28
ENDMDL
MODEL 5
REMARK VINA RESULT:    -3.765      1.422      3.723
REMARK INTER + INTRA:         -14.724
REMARK INTER:                 -10.361
REMARK INTRA:                  -4.363
REMARK UNBOUND:                -4.794
REMARK SMILES CCCCCCCCCCCCCCCCCCCCCCCCCCCCCC(=O)[O-]
REMARK SMILES IDX 16 1 17 2 18 3 19 4 20 5 21 6 22 7 23 8 24 9 25 10 26 11
REMARK SMILES IDX 27 12 28 13 29 14 30 15 31 16 32 17 15 18 14 19 13 20 12 21
REMARK SMILES IDX 11 22 10 23 9 24 8 25 7 26 6 27 5 28 4 29 3 30 2 31 1 32
REMARK H PARENT
REMARK Flexibility Score: inf
ROOT
ATOM      1  C   UNL     1      -4.557 -13.888   5.574  1.00  0.00     0.000 C 
ENDROOT
BRANCH   1   2
ATOM      2  C   UNL     1      -4.971 -14.142   7.039  1.00  0.00     0.000 C 
BRANCH   2   3
ATOM      3  C   UNL     1      -5.819 -13.039   7.702  1.00  0.00     0.000 C 
BRANCH   3   4
ATOM      4  C   UNL     1      -6.253 -11.890   6.775  1.00  0.00     0.000 C 
BRANCH   4   5
ATOM      5  C   UNL     1      -7.651 -12.102   6.175  1.00  0.00     0.000 C 
BRANCH   5   6
ATOM      6  C   UNL     1      -8.646 -12.567   7.249  1.00  0.00     0.000 C 
BRANCH   6   7
ATOM      7  C   UNL     1      -9.972 -11.788   7.208  1.00  0.00     0.000 C 
BRANCH   7   8
ATOM      8  C   UNL     1      -9.765 -10.271   7.361  1.00  0.00     0.000 C 
BRANCH   8   9
ATOM      9  C   UNL     1     -10.712  -9.455   6.463  1.00  0.00     0.000 C 
BRANCH   9  10
ATOM     10  C   UNL     1     -10.058  -9.019   5.133  1.00  0.00     0.000 C 
BRANCH  10  11
ATOM     11  C   UNL     1     -10.497  -9.908   3.957  1.00  0.00     0.000 C 
BRANCH  11  12
ATOM     12  C   UNL     1      -9.326 -10.711   3.366  1.00  0.00     0.000 C 
BRANCH  12  13
ATOM     13  C   UNL     1      -9.624 -11.199   1.937  1.00  0.00     0.006 C 
BRANCH  13  14
ATOM     14  C   UNL     1     -10.456 -12.490   1.923  1.00  0.00     0.053 C 
BRANCH  14  15
ATOM     15  C   UNL     1     -11.770 -12.315   1.223  1.00  0.00     0.041 C 
ATOM     16  O   UNL     1     -12.464 -11.281   1.419  1.00  0.00    -0.550 OA
ATOM     17  O   UNL     1     -12.228 -13.298   0.354  1.00  0.00    -0.550 OA
ENDBRANCH  14  15
ENDBRANCH  13  14
ENDBRANCH  12  13
ENDBRANCH  11  12
ENDBRANCH  10  11
ENDBRANCH   9  10
ENDBRANCH   8   9
ENDBRANCH   7   8
ENDBRANCH   6   7
ENDBRANCH   5   6
ENDBRANCH   4   5
ENDBRANCH   3   4
ENDBRANCH   2   3
ENDBRANCH   1   2
BRANCH   1  18
ATOM     18  C   UNL     1      -3.355 -14.723   5.089  1.00  0.00     0.000 C 
BRANCH  18  19
ATOM     19  C   UNL     1      -2.478 -13.998   4.055  1.00  0.00     0.000 C 
BRANCH  19  20
ATOM     20  C   UNL     1      -1.022 -13.836   4.522  1.00  0.00     0.000 C 
BRANCH  20  21
ATOM     21  C   UNL     1      -0.760 -12.468   5.170  1.00  0.00     0.000 C 
BRANCH  21  22
ATOM     22  C   UNL     1      -0.548 -12.609   6.683  1.00  0.00     0.000 C 
BRANCH  22  23
ATOM     23  C   UNL     1      -1.760 -12.079   7.464  1.00  0.00     0.000 C 
BRANCH  23  24
ATOM     24  C   UNL     1      -2.733 -11.276   6.584  1.00  0.00    -0.000 C 
BRANCH  24  25
ATOM     25  C   UNL     1      -2.987  -9.825   7.042  1.00  0.00    -0.000 C 
BRANCH  25  26
ATOM     26  C   UNL     1      -2.323  -8.742   6.175  1.00  0.00    -0.000 C 
BRANCH  26  27
ATOM     27  C   UNL     1      -1.076  -8.134   6.833  1.00  0.00    -0.000 C 
BRANCH  27  28
ATOM     28  C   UNL     1       0.178  -8.958   6.498  1.00  0.00    -0.000 C 
BRANCH  28  29
ATOM     29  C   UNL     1       0.961  -9.367   7.764  1.00  0.00    -0.000 C 
BRANCH  29  30
ATOM     30  C   UNL     1       0.346  -8.834   9.069  1.00  0.00    -0.000 C 
BRANCH  30  31
ATOM     31  C   UNL     1      -0.002  -9.950  10.063  1.00  0.00    -0.003 C 
ATOM     32  C   UNL     1       0.925 -11.150   9.889  1.00  0.00     0.004 C 
ENDBRANCH  30  31
ENDBRANCH  29  30
ENDBRANCH  28  29
ENDBRANCH  27  28
ENDBRANCH  26  27
ENDBRANCH  25  26
ENDBRANCH  24  25
ENDBRANCH  23  24
ENDBRANCH  22  23
ENDBRANCH  21  22
ENDBRANCH  20  21
ENDBRANCH  19  20
ENDBRANCH  18  19
ENDBRANCH   1  18
TORSDOF 28
ENDMDL
MODEL 6
REMARK VINA RESULT:    -3.754      1.260      3.571
REMARK INTER + INTRA:         -14.692
REMARK INTER:                 -10.181
REMARK INTRA:                  -4.511
REMARK UNBOUND:                -4.794
REMARK SMILES CCCCCCCCCCCCCCCCCCCCCCCCCCCCCC(=O)[O-]
REMARK SMILES IDX 16 1 17 2 18 3 19 4 20 5 21 6 22 7 23 8 24 9 25 10 26 11
REMARK SMILES IDX 27 12 28 13 29 14 30 15 31 16 32 17 15 18 14 19 13 20 12 21
REMARK SMILES IDX 11 22 10 23 9 24 8 25 7 26 6 27 5 28 4 29 3 30 2 31 1 32
REMARK H PARENT
REMARK Flexibility Score: inf
ROOT
ATOM      1  C   UNL     1      -4.973 -13.818   6.620  1.00  0.00     0.000 C 
ENDROOT
BRANCH   1   2
ATOM      2  C   UNL     1      -6.054 -12.821   6.153  1.00  0.00     0.000 C 
BRANCH   2   3
ATOM      3  C   UNL     1      -6.439 -11.720   7.161  1.00  0.00     0.000 C 
BRANCH   3   4
ATOM      4  C   UNL     1      -6.427 -12.144   8.641  1.00  0.00     0.000 C 
BRANCH   4   5
ATOM      5  C   UNL     1      -7.564 -11.507   9.453  1.00  0.00     0.000 C 
BRANCH   5   6
ATOM      6  C   UNL     1      -8.836 -12.367   9.389  1.00  0.00     0.000 C 
BRANCH   6   7
ATOM      7  C   UNL     1     -10.071 -11.569   8.937  1.00  0.00     0.000 C 
BRANCH   7   8
ATOM      8  C   UNL     1      -9.706 -10.166   8.420  1.00  0.00     0.000 C 
BRANCH   8   9
ATOM      9  C   UNL     1     -10.287  -9.886   7.023  1.00  0.00     0.000 C 
BRANCH   9  10
ATOM     10  C   UNL     1      -9.560 -10.657   5.898  1.00  0.00     0.000 C 
BRANCH  10  11
ATOM     11  C   UNL     1      -8.905  -9.708   4.881  1.00  0.00     0.000 C 
BRANCH  11  12
ATOM     12  C   UNL     1      -9.279 -10.061   3.431  1.00  0.00     0.000 C 
BRANCH  12  13
ATOM     13  C   UNL     1     -10.649 -10.757   3.342  1.00  0.00     0.006 C 
BRANCH  13  14
ATOM     14  C   UNL     1     -10.539 -12.194   2.810  1.00  0.00     0.053 C 
BRANCH  14  15
ATOM     15  C   UNL     1     -10.976 -12.308   1.381  1.00  0.00     0.041 C 
ATOM     16  O   UNL     1     -11.924 -11.601   0.944  1.00  0.00    -0.550 OA
ATOM     17  O   UNL     1     -10.333 -13.200   0.529  1.00  0.00    -0.550 OA
ENDBRANCH  14  15
ENDBRANCH  13  14
ENDBRANCH  12  13
ENDBRANCH  11  12
ENDBRANCH  10  11
ENDBRANCH   9  10
ENDBRANCH   8   9
ENDBRANCH   7   8
ENDBRANCH   6   7
ENDBRANCH   5   6
ENDBRANCH   4   5
ENDBRANCH   3   4
ENDBRANCH   2   3
ENDBRANCH   1   2
BRANCH   1  18
ATOM     18  C   UNL     1      -4.020 -14.305   5.510  1.00  0.00     0.000 C 
BRANCH  18  19
ATOM     19  C   UNL     1      -3.051 -13.221   5.011  1.00  0.00     0.000 C 
BRANCH  19  20
ATOM     20  C   UNL     1      -1.617 -13.426   5.526  1.00  0.00     0.000 C 
BRANCH  20  21
ATOM     21  C   UNL     1      -0.670 -12.295   5.097  1.00  0.00     0.000 C 
BRANCH  21  22
ATOM     22  C   UNL     1       0.545 -12.213   6.030  1.00  0.00     0.000 C 
BRANCH  22  23
ATOM     23  C   UNL     1       0.112 -12.205   7.504  1.00  0.00     0.000 C 
BRANCH  23  24
ATOM     24  C   UNL     1       0.577 -10.946   8.256  1.00  0.00    -0.000 C 
BRANCH  24  25
ATOM     25  C   UNL     1       1.168  -9.832   7.368  1.00  0.00    -0.000 C 
BRANCH  25  26
ATOM     26  C   UNL     1       0.290  -8.578   7.223  1.00  0.00    -0.000 C 
BRANCH  26  27
ATOM     27  C   UNL     1      -0.846  -8.761   6.206  1.00  0.00    -0.000 C 
BRANCH  27  28
ATOM     28  C   UNL     1      -2.046  -7.868   6.557  1.00  0.00    -0.000 C 
BRANCH  28  29
ATOM     29  C   UNL     1      -3.266  -8.689   7.025  1.00  0.00    -0.000 C 
BRANCH  29  30
ATOM     30  C   UNL     1      -3.027 -10.209   7.016  1.00  0.00    -0.000 C 
BRANCH  30  31
ATOM     31  C   UNL     1      -3.094 -10.831   8.417  1.00  0.00    -0.003 C 
ATOM     32  C   UNL     1      -3.121  -9.753   9.497  1.00  0.00     0.004 C 
ENDBRANCH  30  31
ENDBRANCH  29  30
ENDBRANCH  28  29
ENDBRANCH  27  28
ENDBRANCH  26  27
ENDBRANCH  25  26
ENDBRANCH  24  25
ENDBRANCH  23  24
ENDBRANCH  22  23
ENDBRANCH  21  22
ENDBRANCH  20  21
ENDBRANCH  19  20
ENDBRANCH  18  19
ENDBRANCH   1  18
TORSDOF 28
ENDMDL
MODEL 7
REMARK VINA RESULT:    -3.752      1.552      4.513
REMARK INTER + INTRA:         -14.687
REMARK INTER:                  -9.364
REMARK INTRA:                  -5.323
REMARK UNBOUND:                -4.794
REMARK SMILES CCCCCCCCCCCCCCCCCCCCCCCCCCCCCC(=O)[O-]
REMARK SMILES IDX 16 1 17 2 18 3 19 4 20 5 21 6 22 7 23 8 24 9 25 10 26 11
REMARK SMILES IDX 27 12 28 13 29 14 30 15 31 16 32 17 15 18 14 19 13 20 12 21
REMARK SMILES IDX 11 22 10 23 9 24 8 25 7 26 6 27 5 28 4 29 3 30 2 31 1 32
REMARK H PARENT
REMARK Flexibility Score: inf
ROOT
ATOM      1  C   UNL     1       1.057  -9.440   7.609  1.00  0.00     0.000 C 
ENDROOT
BRANCH   1   2
ATOM      2  C   UNL     1       0.182  -8.727   6.555  1.00  0.00     0.000 C 
BRANCH   2   3
ATOM      3  C   UNL     1      -1.256  -8.384   6.992  1.00  0.00     0.000 C 
BRANCH   3   4
ATOM      4  C   UNL     1      -2.364  -9.244   6.359  1.00  0.00     0.000 C 
BRANCH   4   5
ATOM      5  C   UNL     1      -3.090 -10.131   7.381  1.00  0.00     0.000 C 
BRANCH   5   6
ATOM      6  C   UNL     1      -3.006  -9.527   8.792  1.00  0.00     0.000 C 
BRANCH   6   7
ATOM      7  C   UNL     1      -3.261 -10.564   9.898  1.00  0.00     0.000 C 
BRANCH   7   8
ATOM      8  C   UNL     1      -3.706 -11.926   9.335  1.00  0.00     0.000 C 
BRANCH   8   9
ATOM      9  C   UNL     1      -5.189 -12.224   9.619  1.00  0.00     0.000 C 
BRANCH   9  10
ATOM     10  C   UNL     1      -5.952 -12.738   8.378  1.00  0.00     0.000 C 
BRANCH  10  11
ATOM     11  C   UNL     1      -6.457 -11.585   7.495  1.00  0.00     0.000 C 
BRANCH  11  12
ATOM     12  C   UNL     1      -7.397 -12.074   6.380  1.00  0.00     0.000 C 
BRANCH  12  13
ATOM     13  C   UNL     1      -8.353 -10.967   5.903  1.00  0.00     0.006 C 
BRANCH  13  14
ATOM     14  C   UNL     1      -9.190 -11.401   4.691  1.00  0.00     0.053 C 
BRANCH  14  15
ATOM     15  C   UNL     1      -9.540 -10.249   3.797  1.00  0.00     0.041 C 
ATOM     16  O   UNL     1      -9.227 -10.272   2.576  1.00  0.00    -0.550 OA
ATOM     17  O   UNL     1     -10.212  -9.148   4.316  1.00  0.00    -0.550 OA
ENDBRANCH  14  15
ENDBRANCH  13  14
ENDBRANCH  12  13
ENDBRANCH  11  12
ENDBRANCH  10  11
ENDBRANCH   9  10
ENDBRANCH   8   9
ENDBRANCH   7   8
ENDBRANCH   6   7
ENDBRANCH   5   6
ENDBRANCH   4   5
ENDBRANCH   3   4
ENDBRANCH   2   3
ENDBRANCH   1   2
BRANCH   1  18
ATOM     18  C   UNL     1       0.593  -9.251   9.067  1.00  0.00     0.000 C 
BRANCH  18  19
ATOM     19  C   UNL     1       0.525 -10.562   9.867  1.00  0.00     0.000 C 
BRANCH  19  20
ATOM     20  C   UNL     1       0.105 -11.762   9.003  1.00  0.00     0.000 C 
BRANCH  20  21
ATOM     21  C   UNL     1       0.845 -13.053   9.387  1.00  0.00     0.000 C 
BRANCH  21  22
ATOM     22  C   UNL     1       2.342 -12.789   9.586  1.00  0.00     0.000 C 
BRANCH  22  23
ATOM     23  C   UNL     1       3.181 -13.541   8.541  1.00  0.00     0.000 C 
BRANCH  23  24
ATOM     24  C   UNL     1       3.078 -12.922   7.136  1.00  0.00    -0.000 C 
BRANCH  24  25
ATOM     25  C   UNL     1       3.387 -13.886   5.971  1.00  0.00    -0.000 C 
BRANCH  25  26
ATOM     26  C   UNL     1       2.153 -14.448   5.245  1.00  0.00    -0.000 C 
BRANCH  26  27
ATOM     27  C   UNL     1       0.835 -14.085   5.944  1.00  0.00    -0.000 C 
BRANCH  27  28
ATOM     28  C   UNL     1       0.307 -12.728   5.451  1.00  0.00    -0.000 C 
BRANCH  28  29
ATOM     29  C   UNL     1      -1.234 -12.672   5.440  1.00  0.00    -0.000 C 
BRANCH  29  30
ATOM     30  C   UNL     1      -1.890 -13.514   6.548  1.00  0.00    -0.000 C 
BRANCH  30  31
ATOM     31  C   UNL     1      -3.294 -14.006   6.171  1.00  0.00    -0.003 C 
ATOM     32  C   UNL     1      -3.950 -13.072   5.157  1.00  0.00     0.004 C 
ENDBRANCH  30  31
ENDBRANCH  29  30
ENDBRANCH  28  29
ENDBRANCH  27  28
ENDBRANCH  26  27
ENDBRANCH  25  26
ENDBRANCH  24  25
ENDBRANCH  23  24
ENDBRANCH  22  23
ENDBRANCH  21  22
ENDBRANCH  20  21
ENDBRANCH  19  20
ENDBRANCH  18  19
ENDBRANCH   1  18
TORSDOF 28
ENDMDL
MODEL 8
REMARK VINA RESULT:    -3.730      1.420      3.653
REMARK INTER + INTRA:         -14.630
REMARK INTER:                 -10.463
REMARK INTRA:                  -4.167
REMARK UNBOUND:                -4.794
REMARK SMILES CCCCCCCCCCCCCCCCCCCCCCCCCCCCCC(=O)[O-]
REMARK SMILES IDX 16 1 17 2 18 3 19 4 20 5 21 6 22 7 23 8 24 9 25 10 26 11
REMARK SMILES IDX 27 12 28 13 29 14 30 15 31 16 32 17 15 18 14 19 13 20 12 21
REMARK SMILES IDX 11 22 10 23 9 24 8 25 7 26 6 27 5 28 4 29 3 30 2 31 1 32
REMARK H PARENT
REMARK Flexibility Score: inf
ROOT
ATOM      1  C   UNL     1      -2.919 -10.408   9.953  1.00  0.00     0.000 C 
ENDROOT
BRANCH   1   2
ATOM      2  C   UNL     1      -4.161 -10.598  10.849  1.00  0.00     0.000 C 
BRANCH   2   3
ATOM      3  C   UNL     1      -5.317 -11.413  10.236  1.00  0.00     0.000 C 
BRANCH   3   4
ATOM      4  C   UNL     1      -5.177 -11.739   8.738  1.00  0.00     0.000 C 
BRANCH   4   5
ATOM      5  C   UNL     1      -5.303 -13.240   8.438  1.00  0.00     0.000 C 
BRANCH   5   6
ATOM      6  C   UNL     1      -5.994 -13.476   7.086  1.00  0.00     0.000 C 
BRANCH   6   7
ATOM      7  C   UNL     1      -6.453 -12.169   6.418  1.00  0.00     0.000 C 
BRANCH   7   8
ATOM      8  C   UNL     1      -7.974 -12.132   6.187  1.00  0.00     0.000 C 
BRANCH   8   9
ATOM      9  C   UNL     1      -8.664 -11.018   6.995  1.00  0.00     0.000 C 
BRANCH   9  10
ATOM     10  C   UNL     1      -9.948 -10.487   6.320  1.00  0.00     0.000 C 
BRANCH  10  11
ATOM     11  C   UNL     1     -10.402 -11.386   5.158  1.00  0.00     0.000 C 
BRANCH  11  12
ATOM     12  C   UNL     1     -10.703 -10.582   3.882  1.00  0.00     0.000 C 
BRANCH  12  13
ATOM     13  C   UNL     1      -9.478 -10.492   2.954  1.00  0.00     0.006 C 
BRANCH  13  14
ATOM     14  C   UNL     1      -9.615 -11.394   1.719  1.00  0.00     0.053 C 
BRANCH  14  15
ATOM     15  C   UNL     1     -10.951 -12.069   1.650  1.00  0.00     0.041 C 
ATOM     16  O   UNL     1     -11.104 -13.231   2.119  1.00  0.00    -0.550 OA
ATOM     17  O   UNL     1     -12.030 -11.415   1.065  1.00  0.00    -0.550 OA
ENDBRANCH  14  15
ENDBRANCH  13  14
ENDBRANCH  12  13
ENDBRANCH  11  12
ENDBRANCH  10  11
ENDBRANCH   9  10
ENDBRANCH   8   9
ENDBRANCH   7   8
ENDBRANCH   6   7
ENDBRANCH   5   6
ENDBRANCH   4   5
ENDBRANCH   3   4
ENDBRANCH   2   3
ENDBRANCH   1   2
BRANCH   1  18
ATOM     18  C   UNL     1      -1.684 -11.226  10.380  1.00  0.00     0.000 C 
BRANCH  18  19
ATOM     19  C   UNL     1      -0.462 -10.359  10.731  1.00  0.00     0.000 C 
BRANCH  19  20
ATOM     20  C   UNL     1       0.495 -10.176   9.543  1.00  0.00     0.000 C 
BRANCH  20  21
ATOM     21  C   UNL     1       0.351  -8.799   8.877  1.00  0.00     0.000 C 
BRANCH  21  22
ATOM     22  C   UNL     1       0.809  -8.845   7.414  1.00  0.00     0.000 C 
BRANCH  22  23
ATOM     23  C   UNL     1      -0.332  -8.455   6.463  1.00  0.00     0.000 C 
BRANCH  23  24
ATOM     24  C   UNL     1      -1.703  -8.418   7.160  1.00  0.00    -0.000 C 
BRANCH  24  25
ATOM     25  C   UNL     1      -2.702  -9.500   6.700  1.00  0.00    -0.000 C 
BRANCH  25  26
ATOM     26  C   UNL     1      -2.105 -10.600   5.805  1.00  0.00    -0.000 C 
BRANCH  26  27
ATOM     27  C   UNL     1      -2.717 -11.982   6.072  1.00  0.00    -0.000 C 
BRANCH  27  28
ATOM     28  C   UNL     1      -1.783 -12.837   6.943  1.00  0.00    -0.000 C 
BRANCH  28  29
ATOM     29  C   UNL     1      -0.300 -12.461   6.748  1.00  0.00    -0.000 C 
BRANCH  29  30
ATOM     30  C   UNL     1       0.440 -13.364   5.747  1.00  0.00    -0.000 C 
BRANCH  30  31
ATOM     31  C   UNL     1       1.935 -13.506   6.062  1.00  0.00    -0.003 C 
ATOM     32  C   UNL     1       2.403 -12.406   7.012  1.00  0.00     0.004 C 
ENDBRANCH  30  31
ENDBRANCH  29  30
ENDBRANCH  28  29
ENDBRANCH  27  28
ENDBRANCH  26  27
ENDBRANCH  25  26
ENDBRANCH  24  25
ENDBRANCH  23  24
ENDBRANCH  22  23
ENDBRANCH  21  22
ENDBRANCH  20  21
ENDBRANCH  19  20
ENDBRANCH  18  19
ENDBRANCH   1  18
TORSDOF 28
ENDMDL
MODEL 9
REMARK VINA RESULT:    -3.695      1.803      4.072
REMARK INTER + INTRA:         -14.538
REMARK INTER:                  -8.927
REMARK INTRA:                  -5.611
REMARK UNBOUND:                -4.794
REMARK SMILES CCCCCCCCCCCCCCCCCCCCCCCCCCCCCC(=O)[O-]
REMARK SMILES IDX 16 1 17 2 18 3 19 4 20 5 21 6 22 7 23 8 24 9 25 10 26 11
REMARK SMILES IDX 27 12 28 13 29 14 30 15 31 16 32 17 15 18 14 19 13 20 12 21
REMARK SMILES IDX 11 22 10 23 9 24 8 25 7 26 6 27 5 28 4 29 3 30 2 31 1 32
REMARK H PARENT
REMARK Flexibility Score: inf
ROOT
ATOM      1  C   UNL     1      -4.244 -10.831   9.864  1.00  0.00     0.000 C 
ENDROOT
BRANCH   1   2
ATOM      2  C   UNL     1      -5.336 -11.350  10.824  1.00  0.00     0.000 C 
BRANCH   2   3
ATOM      3  C   UNL     1      -6.774 -11.357  10.269  1.00  0.00     0.000 C 
BRANCH   3   4
ATOM      4  C   UNL     1      -7.427 -12.745  10.138  1.00  0.00     0.000 C 
BRANCH   4   5
ATOM      5  C   UNL     1      -6.407 -13.862   9.870  1.00  0.00     0.000 C 
BRANCH   5   6
ATOM      6  C   UNL     1      -6.402 -14.258   8.385  1.00  0.00     0.000 C 
BRANCH   6   7
ATOM      7  C   UNL     1      -5.196 -13.684   7.622  1.00  0.00     0.000 C 
BRANCH   7   8
ATOM      8  C   UNL     1      -5.613 -12.946   6.337  1.00  0.00     0.000 C 
BRANCH   8   9
ATOM      9  C   UNL     1      -6.512 -11.731   6.623  1.00  0.00     0.000 C 
BRANCH   9  10
ATOM     10  C   UNL     1      -7.879 -11.807   5.905  1.00  0.00     0.000 C 
BRANCH  10  11
ATOM     11  C   UNL     1      -9.045 -11.923   6.900  1.00  0.00     0.000 C 
BRANCH  11  12
ATOM     12  C   UNL     1      -9.356 -10.584   7.592  1.00  0.00     0.000 C 
BRANCH  12  13
ATOM     13  C   UNL     1     -10.485  -9.816   6.883  1.00  0.00     0.006 C 
BRANCH  13  14
ATOM     14  C   UNL     1     -10.047  -9.265   5.518  1.00  0.00     0.053 C 
BRANCH  14  15
ATOM     15  C   UNL     1     -10.956  -9.700   4.409  1.00  0.00     0.041 C 
ATOM     16  O   UNL     1     -12.155  -9.308   4.375  1.00  0.00    -0.550 OA
ATOM     17  O   UNL     1     -10.479 -10.542   3.411  1.00  0.00    -0.550 OA
ENDBRANCH  14  15
ENDBRANCH  13  14
ENDBRANCH  12  13
ENDBRANCH  11  12
ENDBRANCH  10  11
ENDBRANCH   9  10
ENDBRANCH   8   9
ENDBRANCH   7   8
ENDBRANCH   6   7
ENDBRANCH   5   6
ENDBRANCH   4   5
ENDBRANCH   3   4
ENDBRANCH   2   3
ENDBRANCH   1   2
BRANCH   1  18
ATOM     18  C   UNL     1      -2.922 -11.624   9.901  1.00  0.00     0.000 C 
BRANCH  18  19
ATOM     19  C   UNL     1      -1.686 -10.750  10.171  1.00  0.00     0.000 C 
BRANCH  19  20
ATOM     20  C   UNL     1      -0.390 -11.372   9.625  1.00  0.00     0.000 C 
BRANCH  20  21
ATOM     21  C   UNL     1       0.799 -10.402   9.685  1.00  0.00     0.000 C 
BRANCH  21  22
ATOM     22  C   UNL     1       0.440  -9.053   9.050  1.00  0.00     0.000 C 
BRANCH  22  23
ATOM     23  C   UNL     1       0.855  -9.008   7.572  1.00  0.00     0.000 C 
BRANCH  23  24
ATOM     24  C   UNL     1      -0.280  -8.537   6.647  1.00  0.00    -0.000 C 
BRANCH  24  25
ATOM     25  C   UNL     1      -1.667  -8.427   7.314  1.00  0.00    -0.000 C 
BRANCH  25  26
ATOM     26  C   UNL     1      -2.710  -9.443   6.818  1.00  0.00    -0.000 C 
BRANCH  26  27
ATOM     27  C   UNL     1      -2.124 -10.468   5.837  1.00  0.00    -0.000 C 
BRANCH  27  28
ATOM     28  C   UNL     1      -2.168 -11.885   6.432  1.00  0.00    -0.000 C 
BRANCH  28  29
ATOM     29  C   UNL     1      -1.114 -12.816   5.797  1.00  0.00    -0.000 C 
BRANCH  29  30
ATOM     30  C   UNL     1       0.320 -12.262   5.865  1.00  0.00    -0.000 C 
BRANCH  30  31
ATOM     31  C   UNL     1       1.231 -13.081   6.789  1.00  0.00    -0.003 C 
ATOM     32  C   UNL     1       2.608 -12.434   6.916  1.00  0.00     0.004 C 
ENDBRANCH  30  31
ENDBRANCH  29  30
ENDBRANCH  28  29
ENDBRANCH  27  28
ENDBRANCH  26  27
ENDBRANCH  25  26
ENDBRANCH  24  25
ENDBRANCH  23  24
ENDBRANCH  22  23
ENDBRANCH  21  22
ENDBRANCH  20  21
ENDBRANCH  19  20
ENDBRANCH  18  19
ENDBRANCH   1  18
TORSDOF 28
ENDMDL
