MODEL 1
REMARK VINA RESULT:    -6.350      0.000      0.000
REMARK INTER + INTRA:         -10.966
REMARK INTER:                  -9.319
REMARK INTRA:                  -1.647
REMARK UNBOUND:                -1.647
REMARK SMILES O=c1c(O[C@H]2O[C@@H](CO)[C@H](O)[C@@H](O)[C@H]2O)c(-c2ccc(O)c(O)c2)oc2cc(O)cc(O)c12
REMARK SMILES IDX 4 1 3 2 16 3 25 4 2 5 26 6 1 7 33 8 27 9 31 10 28 11 30 12
REMARK SMILES IDX 17 13 18 14 19 15 20 16 24 17 22 18 21 19 23 21 32 23 29 25
REMARK SMILES IDX 5 27 14 28 6 29 12 30 7 31 10 32 15 33 13 35 8 37 9 38 11 40
REMARK H PARENT 21 20 23 22 32 24 29 26 15 34 13 36 9 39 11 41
REMARK Flexibility Score: inf
ROOT
ATOM      1  O   UNL     1       7.746  11.541 -15.851  1.00  0.00    -0.454 OA
ENDROOT
BRANCH   1   2
ATOM      2  C   UNL     1       7.662  10.198 -16.254  1.00  0.00     0.214 A 
ATOM      3  C   UNL     1       7.355   9.810 -17.578  1.00  0.00     0.180 A 
ATOM      4  O   UNL     1       7.185   8.524 -17.868  1.00  0.00    -0.452 OA
ATOM      5  C   UNL     1       7.862   9.200 -15.293  1.00  0.00     0.239 A 
ATOM      6  C   UNL     1       7.328   7.551 -16.976  1.00  0.00     0.146 A 
ATOM      7  O   UNL     1       8.171   9.536 -14.117  1.00  0.00    -0.285 OA
ATOM      8  C   UNL     1       7.688   7.845 -15.640  1.00  0.00     0.111 A 
ATOM      9  C   UNL     1       7.126   6.227 -17.376  1.00  0.00     0.094 A 
ATOM     10  C   UNL     1       7.840   6.784 -14.717  1.00  0.00     0.134 A 
ATOM     11  C   UNL     1       7.276   5.182 -16.459  1.00  0.00     0.123 A 
ATOM     12  C   UNL     1       7.632   5.461 -15.138  1.00  0.00     0.093 A 
BRANCH   3  13
ATOM     13  C   UNL     1       7.242  10.780 -18.680  1.00  0.00     0.025 A 
ATOM     14  C   UNL     1       5.993  11.327 -19.000  1.00  0.00     0.016 A 
ATOM     15  C   UNL     1       5.875  12.246 -20.045  1.00  0.00     0.051 A 
ATOM     16  C   UNL     1       7.001  12.615 -20.792  1.00  0.00     0.157 A 
ATOM     17  C   UNL     1       8.368  11.129 -19.445  1.00  0.00     0.062 A 
ATOM     18  C   UNL     1       8.253  12.050 -20.491  1.00  0.00     0.158 A 
BRANCH  16  19
ATOM     19  O   UNL     1       6.882  13.537 -21.831  1.00  0.00    -0.504 OA
ATOM     20  H   UNL     1       5.979  13.883 -22.131  1.00  0.00     0.293 HD
ENDBRANCH  16  19
BRANCH  18  21
ATOM     21  O   UNL     1       9.393  12.393 -21.218  1.00  0.00    -0.504 OA
ATOM     22  H   UNL     1       9.539  12.078 -22.169  1.00  0.00     0.293 HD
ENDBRANCH  18  21
ENDBRANCH   3  13
BRANCH  10  23
ATOM     23  O   UNL     1       8.190   7.031 -13.388  1.00  0.00    -0.507 OA
ATOM     24  H   UNL     1       8.473   6.285 -12.763  1.00  0.00     0.293 HD
ENDBRANCH  10  23
BRANCH  11  25
ATOM     25  O   UNL     1       7.074   3.860 -16.852  1.00  0.00    -0.508 OA
ATOM     26  H   UNL     1       6.309   3.601 -17.464  1.00  0.00     0.293 HD
ENDBRANCH  11  25
ENDBRANCH   1   2
BRANCH   1  27
ATOM     27  C   UNL     1       8.943  12.321 -15.919  1.00  0.00     0.339 C 
ATOM     28  C   UNL     1       9.237  12.975 -14.545  1.00  0.00     0.214 C 
ATOM     29  O   UNL     1       8.807  13.325 -16.909  1.00  0.00    -0.332 OA
ATOM     30  C   UNL     1       9.961  14.338 -14.708  1.00  0.00     0.180 C 
ATOM     31  C   UNL     1      10.075  13.885 -17.225  1.00  0.00     0.179 C 
ATOM     32  C   UNL     1      10.880  14.312 -15.951  1.00  0.00     0.177 C 
BRANCH  28  33
ATOM     33  O   UNL     1       8.077  13.113 -13.759  1.00  0.00    -0.384 OA
ATOM     34  H   UNL     1       8.027  14.056 -13.453  1.00  0.00     0.211 HD
ENDBRANCH  28  33
BRANCH  30  35
ATOM     35  O   UNL     1       9.021  15.376 -14.843  1.00  0.00    -0.387 OA
ATOM     36  H   UNL     1       9.451  16.086 -15.389  1.00  0.00     0.211 HD
ENDBRANCH  30  35
BRANCH  31  37
ATOM     37  C   UNL     1       9.844  15.075 -18.165  1.00  0.00     0.191 C 
BRANCH  37  38
ATOM     38  O   UNL     1       8.747  15.831 -17.727  1.00  0.00    -0.394 OA
ATOM     39  H   UNL     1       9.004  16.198 -16.842  1.00  0.00     0.210 HD
ENDBRANCH  37  38
ENDBRANCH  31  37
BRANCH  32  40
ATOM     40  O   UNL     1      11.930  13.401 -15.743  1.00  0.00    -0.387 OA
ATOM     41  H   UNL     1      11.575  12.497 -15.948  1.00  0.00     0.211 HD
ENDBRANCH  32  40
ENDBRANCH   1  27
TORSDOF 12
ENDMDL
MODEL 2
REMARK VINA RESULT:    -6.139      1.923      5.087
REMARK INTER + INTRA:         -10.656
REMARK INTER:                  -9.255
REMARK INTRA:                  -1.401
REMARK UNBOUND:                -1.647
REMARK SMILES O=c1c(O[C@H]2O[C@@H](CO)[C@H](O)[C@@H](O)[C@H]2O)c(-c2ccc(O)c(O)c2)oc2cc(O)cc(O)c12
REMARK SMILES IDX 4 1 3 2 16 3 25 4 2 5 26 6 1 7 33 8 27 9 31 10 28 11 30 12
REMARK SMILES IDX 17 13 18 14 19 15 20 16 24 17 22 18 21 19 23 21 32 23 29 25
REMARK SMILES IDX 5 27 14 28 6 29 12 30 7 31 10 32 15 33 13 35 8 37 9 38 11 40
REMARK H PARENT 21 20 23 22 32 24 29 26 15 34 13 36 9 39 11 41
REMARK Flexibility Score: inf
ROOT
ATOM      1  O   UNL     1       8.114   9.846 -17.521  1.00  0.00    -0.454 OA
ENDROOT
BRANCH   1   2
ATOM      2  C   UNL     1       7.937   9.846 -16.128  1.00  0.00     0.214 A 
ATOM      3  C   UNL     1       8.358  10.910 -15.299  1.00  0.00     0.180 A 
ATOM      4  O   UNL     1       8.259  10.800 -13.979  1.00  0.00    -0.452 OA
ATOM      5  C   UNL     1       7.344   8.727 -15.531  1.00  0.00     0.239 A 
ATOM      6  C   UNL     1       7.738   9.739 -13.373  1.00  0.00     0.146 A 
ATOM      7  O   UNL     1       6.932   7.788 -16.266  1.00  0.00    -0.285 OA
ATOM      8  C   UNL     1       7.242   8.651 -14.128  1.00  0.00     0.111 A 
ATOM      9  C   UNL     1       7.679   9.714 -11.977  1.00  0.00     0.094 A 
ATOM     10  C   UNL     1       6.685   7.540 -13.451  1.00  0.00     0.134 A 
ATOM     11  C   UNL     1       7.130   8.612 -11.313  1.00  0.00     0.123 A 
ATOM     12  C   UNL     1       6.635   7.533 -12.049  1.00  0.00     0.093 A 
BRANCH   3  13
ATOM     13  C   UNL     1       8.885  12.173 -15.842  1.00  0.00     0.025 A 
ATOM     14  C   UNL     1      10.226  12.255 -16.240  1.00  0.00     0.016 A 
ATOM     15  C   UNL     1      10.736  13.449 -16.753  1.00  0.00     0.051 A 
ATOM     16  C   UNL     1       9.916  14.580 -16.858  1.00  0.00     0.157 A 
ATOM     17  C   UNL     1       8.068  13.314 -15.922  1.00  0.00     0.062 A 
ATOM     18  C   UNL     1       8.576  14.512 -16.438  1.00  0.00     0.158 A 
BRANCH  16  19
ATOM     19  O   UNL     1      10.425  15.770 -17.377  1.00  0.00    -0.504 OA
ATOM     20  H   UNL     1      10.729  15.840 -18.341  1.00  0.00     0.293 HD
ENDBRANCH  16  19
BRANCH  18  21
ATOM     21  O   UNL     1       7.735  15.620 -16.525  1.00  0.00    -0.504 OA
ATOM     22  H   UNL     1       6.864  15.595 -17.041  1.00  0.00     0.293 HD
ENDBRANCH  18  21
ENDBRANCH   3  13
BRANCH  10  23
ATOM     23  O   UNL     1       6.188   6.443 -14.158  1.00  0.00    -0.507 OA
ATOM     24  H   UNL     1       5.940   5.577 -13.694  1.00  0.00     0.293 HD
ENDBRANCH  10  23
BRANCH  11  25
ATOM     25  O   UNL     1       7.070   8.581  -9.921  1.00  0.00    -0.508 OA
ATOM     26  H   UNL     1       6.876   9.416  -9.381  1.00  0.00     0.293 HD
ENDBRANCH  11  25
ENDBRANCH   1   2
BRANCH   1  27
ATOM     27  C   UNL     1       7.579  10.847 -18.392  1.00  0.00     0.339 C 
ATOM     28  C   UNL     1       6.325  10.306 -19.127  1.00  0.00     0.214 C 
ATOM     29  O   UNL     1       8.559  11.234 -19.339  1.00  0.00    -0.332 OA
ATOM     30  C   UNL     1       6.176  10.938 -20.535  1.00  0.00     0.180 C 
ATOM     31  C   UNL     1       8.174  12.440 -19.986  1.00  0.00     0.179 C 
ATOM     32  C   UNL     1       6.707  12.389 -20.532  1.00  0.00     0.177 C 
BRANCH  28  33
ATOM     33  O   UNL     1       6.315   8.900 -19.203  1.00  0.00    -0.384 OA
ATOM     34  H   UNL     1       7.047   8.623 -19.813  1.00  0.00     0.211 HD
ENDBRANCH  28  33
BRANCH  30  35
ATOM     35  O   UNL     1       6.885  10.182 -21.487  1.00  0.00    -0.387 OA
ATOM     36  H   UNL     1       7.347   9.455 -20.991  1.00  0.00     0.211 HD
ENDBRANCH  30  35
BRANCH  31  37
ATOM     37  C   UNL     1       9.180  12.712 -21.112  1.00  0.00     0.191 C 
BRANCH  37  38
ATOM     38  O   UNL     1       9.814  11.521 -21.492  1.00  0.00    -0.394 OA
ATOM     39  H   UNL     1      10.568  11.399 -20.859  1.00  0.00     0.210 HD
ENDBRANCH  37  38
ENDBRANCH  31  37
BRANCH  32  40
ATOM     40  O   UNL     1       5.886  13.191 -19.719  1.00  0.00    -0.387 OA
ATOM     41  H   UNL     1       6.416  13.426 -18.913  1.00  0.00     0.211 HD
ENDBRANCH  32  40
ENDBRANCH   1  27
TORSDOF 12
ENDMDL
MODEL 3
REMARK VINA RESULT:    -6.041      1.142      1.734
REMARK INTER + INTRA:         -10.513
REMARK INTER:                  -9.088
REMARK INTRA:                  -1.425
REMARK UNBOUND:                -1.647
REMARK SMILES O=c1c(O[C@H]2O[C@@H](CO)[C@H](O)[C@@H](O)[C@H]2O)c(-c2ccc(O)c(O)c2)oc2cc(O)cc(O)c12
REMARK SMILES IDX 4 1 3 2 16 3 25 4 2 5 26 6 1 7 33 8 27 9 31 10 28 11 30 12
REMARK SMILES IDX 17 13 18 14 19 15 20 16 24 17 22 18 21 19 23 21 32 23 29 25
REMARK SMILES IDX 5 27 14 28 6 29 12 30 7 31 10 32 15 33 13 35 8 37 9 38 11 40
REMARK H PARENT 21 20 23 22 32 24 29 26 15 34 13 36 9 39 11 41
REMARK Flexibility Score: inf
ROOT
ATOM      1  O   UNL     1       6.832  11.843 -15.762  1.00  0.00    -0.454 OA
ENDROOT
BRANCH   1   2
ATOM      2  C   UNL     1       6.949  10.500 -16.156  1.00  0.00     0.214 A 
ATOM      3  C   UNL     1       6.983  10.096 -17.510  1.00  0.00     0.180 A 
ATOM      4  O   UNL     1       6.986   8.803 -17.816  1.00  0.00    -0.452 OA
ATOM      5  C   UNL     1       7.004   9.516 -15.162  1.00  0.00     0.239 A 
ATOM      6  C   UNL     1       7.000   7.839 -16.902  1.00  0.00     0.146 A 
ATOM      7  O   UNL     1       7.011   9.868 -13.951  1.00  0.00    -0.285 OA
ATOM      8  C   UNL     1       7.023   8.153 -15.524  1.00  0.00     0.111 A 
ATOM      9  C   UNL     1       7.000   6.505 -17.321  1.00  0.00     0.094 A 
ATOM     10  C   UNL     1       7.045   7.101 -14.577  1.00  0.00     0.134 A 
ATOM     11  C   UNL     1       7.021   5.470 -16.381  1.00  0.00     0.123 A 
ATOM     12  C   UNL     1       7.045   5.769 -15.018  1.00  0.00     0.093 A 
BRANCH   3  13
ATOM     13  C   UNL     1       7.046  11.061 -18.621  1.00  0.00     0.025 A 
ATOM     14  C   UNL     1       5.875  11.694 -19.061  1.00  0.00     0.016 A 
ATOM     15  C   UNL     1       5.924  12.607 -20.115  1.00  0.00     0.051 A 
ATOM     16  C   UNL     1       7.140  12.887 -20.753  1.00  0.00     0.157 A 
ATOM     17  C   UNL     1       8.262  11.320 -19.277  1.00  0.00     0.062 A 
ATOM     18  C   UNL     1       8.313  12.236 -20.332  1.00  0.00     0.158 A 
BRANCH  16  19
ATOM     19  O   UNL     1       7.187  13.805 -21.801  1.00  0.00    -0.504 OA
ATOM     20  H   UNL     1       7.348  14.791 -21.635  1.00  0.00     0.293 HD
ENDBRANCH  16  19
BRANCH  18  21
ATOM     21  O   UNL     1       9.539  12.489 -20.948  1.00  0.00    -0.504 OA
ATOM     22  H   UNL     1      10.414  12.450 -20.441  1.00  0.00     0.293 HD
ENDBRANCH  18  21
ENDBRANCH   3  13
BRANCH  10  23
ATOM     23  O   UNL     1       7.064   7.369 -13.207  1.00  0.00    -0.507 OA
ATOM     24  H   UNL     1       6.689   8.230 -12.826  1.00  0.00     0.293 HD
ENDBRANCH  10  23
BRANCH  11  25
ATOM     25  O   UNL     1       7.019   4.138 -16.793  1.00  0.00    -0.508 OA
ATOM     26  H   UNL     1       7.057   3.888 -17.774  1.00  0.00     0.293 HD
ENDBRANCH  11  25
ENDBRANCH   1   2
BRANCH   1  27
ATOM     27  C   UNL     1       7.948  12.688 -15.470  1.00  0.00     0.339 C 
ATOM     28  C   UNL     1       7.689  14.122 -15.999  1.00  0.00     0.214 C 
ATOM     29  O   UNL     1       9.119  12.161 -16.067  1.00  0.00    -0.332 OA
ATOM     30  C   UNL     1       9.009  14.819 -16.421  1.00  0.00     0.180 C 
ATOM     31  C   UNL     1      10.277  12.784 -15.524  1.00  0.00     0.179 C 
ATOM     32  C   UNL     1      10.176  14.347 -15.524  1.00  0.00     0.177 C 
BRANCH  28  33
ATOM     33  O   UNL     1       6.751  14.143 -17.050  1.00  0.00    -0.384 OA
ATOM     34  H   UNL     1       6.116  13.394 -16.905  1.00  0.00     0.211 HD
ENDBRANCH  28  33
BRANCH  30  35
ATOM     35  O   UNL     1       9.306  14.528 -17.766  1.00  0.00    -0.387 OA
ATOM     36  H   UNL     1       8.444  14.314 -18.211  1.00  0.00     0.211 HD
ENDBRANCH  30  35
BRANCH  31  37
ATOM     37  C   UNL     1      11.492  12.303 -16.326  1.00  0.00     0.191 C 
BRANCH  37  38
ATOM     38  O   UNL     1      11.135  11.218 -17.140  1.00  0.00    -0.394 OA
ATOM     39  H   UNL     1      10.329  10.817 -16.724  1.00  0.00     0.210 HD
ENDBRANCH  37  38
ENDBRANCH  31  37
BRANCH  32  40
ATOM     40  O   UNL     1       9.970  14.795 -14.207  1.00  0.00    -0.387 OA
ATOM     41  H   UNL     1      10.766  15.333 -13.955  1.00  0.00     0.211 HD
ENDBRANCH  32  40
ENDBRANCH   1  27
TORSDOF 12
ENDMDL
MODEL 4
REMARK VINA RESULT:    -5.915      1.756      4.695
REMARK INTER + INTRA:         -10.328
REMARK INTER:                  -8.810
REMARK INTRA:                  -1.518
REMARK UNBOUND:                -1.647
REMARK SMILES O=c1c(O[C@H]2O[C@@H](CO)[C@H](O)[C@@H](O)[C@H]2O)c(-c2ccc(O)c(O)c2)oc2cc(O)cc(O)c12
REMARK SMILES IDX 4 1 3 2 16 3 25 4 2 5 26 6 1 7 33 8 27 9 31 10 28 11 30 12
REMARK SMILES IDX 17 13 18 14 19 15 20 16 24 17 22 18 21 19 23 21 32 23 29 25
REMARK SMILES IDX 5 27 14 28 6 29 12 30 7 31 10 32 15 33 13 35 8 37 9 38 11 40
REMARK H PARENT 21 20 23 22 32 24 29 26 15 34 13 36 9 39 11 41
REMARK Flexibility Score: inf
ROOT
ATOM      1  O   UNL     1       8.166  10.471 -18.985  1.00  0.00    -0.454 OA
ENDROOT
BRANCH   1   2
ATOM      2  C   UNL     1       8.096   9.455 -18.018  1.00  0.00     0.214 A 
ATOM      3  C   UNL     1       8.749   9.536 -16.768  1.00  0.00     0.180 A 
ATOM      4  O   UNL     1       8.731   8.495 -15.942  1.00  0.00    -0.452 OA
ATOM      5  C   UNL     1       7.370   8.297 -18.321  1.00  0.00     0.239 A 
ATOM      6  C   UNL     1       8.087   7.365 -16.210  1.00  0.00     0.146 A 
ATOM      7  O   UNL     1       6.754   8.229 -19.419  1.00  0.00    -0.285 OA
ATOM      8  C   UNL     1       7.361   7.217 -17.414  1.00  0.00     0.111 A 
ATOM      9  C   UNL     1       8.128   6.322 -15.279  1.00  0.00     0.094 A 
ATOM     10  C   UNL     1       6.679   6.003 -17.664  1.00  0.00     0.134 A 
ATOM     11  C   UNL     1       7.453   5.124 -15.531  1.00  0.00     0.123 A 
ATOM     12  C   UNL     1       6.732   4.968 -16.717  1.00  0.00     0.093 A 
BRANCH   3  13
ATOM     13  C   UNL     1       9.438  10.756 -16.314  1.00  0.00     0.025 A 
ATOM     14  C   UNL     1      10.739  11.027 -16.757  1.00  0.00     0.016 A 
ATOM     15  C   UNL     1      11.401  12.179 -16.331  1.00  0.00     0.051 A 
ATOM     16  C   UNL     1      10.777  13.065 -15.442  1.00  0.00     0.157 A 
ATOM     17  C   UNL     1       8.820  11.630 -15.402  1.00  0.00     0.062 A 
ATOM     18  C   UNL     1       9.481  12.786 -14.975  1.00  0.00     0.158 A 
BRANCH  16  19
ATOM     19  O   UNL     1      11.438  14.219 -15.023  1.00  0.00    -0.504 OA
ATOM     20  H   UNL     1      11.952  14.247 -14.151  1.00  0.00     0.293 HD
ENDBRANCH  16  19
BRANCH  18  21
ATOM     21  O   UNL     1       8.834  13.645 -14.087  1.00  0.00    -0.504 OA
ATOM     22  H   UNL     1       9.123  13.738 -13.121  1.00  0.00     0.293 HD
ENDBRANCH  18  21
ENDBRANCH   3  13
BRANCH  10  23
ATOM     23  O   UNL     1       5.954   5.815 -18.842  1.00  0.00    -0.507 OA
ATOM     24  H   UNL     1       6.414   5.651 -19.731  1.00  0.00     0.293 HD
ENDBRANCH  10  23
BRANCH  11  25
ATOM     25  O   UNL     1       7.492   4.080 -14.608  1.00  0.00    -0.508 OA
ATOM     26  H   UNL     1       7.447   4.254 -13.611  1.00  0.00     0.293 HD
ENDBRANCH  11  25
ENDBRANCH   1   2
BRANCH   1  27
ATOM     27  C   UNL     1       7.579  11.766 -18.825  1.00  0.00     0.339 C 
ATOM     28  C   UNL     1       6.192  11.816 -19.514  1.00  0.00     0.214 C 
ATOM     29  O   UNL     1       8.428  12.752 -19.385  1.00  0.00    -0.332 OA
ATOM     30  C   UNL     1       5.875  13.237 -20.050  1.00  0.00     0.180 C 
ATOM     31  C   UNL     1       8.039  14.048 -18.949  1.00  0.00     0.179 C 
ATOM     32  C   UNL     1       6.506  14.310 -19.133  1.00  0.00     0.177 C 
BRANCH  28  33
ATOM     33  O   UNL     1       6.067  10.855 -20.536  1.00  0.00    -0.384 OA
ATOM     34  H   UNL     1       6.880  10.285 -20.518  1.00  0.00     0.211 HD
ENDBRANCH  28  33
BRANCH  30  35
ATOM     35  O   UNL     1       6.373  13.388 -21.357  1.00  0.00    -0.387 OA
ATOM     36  H   UNL     1       5.588  13.400 -21.965  1.00  0.00     0.211 HD
ENDBRANCH  30  35
BRANCH  31  37
ATOM     37  C   UNL     1       8.877  15.076 -19.718  1.00  0.00     0.191 C 
BRANCH  37  38
ATOM     38  O   UNL     1       8.226  15.439 -20.906  1.00  0.00    -0.394 OA
ATOM     39  H   UNL     1       7.364  14.948 -20.907  1.00  0.00     0.210 HD
ENDBRANCH  37  38
ENDBRANCH  31  37
BRANCH  32  40
ATOM     40  O   UNL     1       5.879  14.282 -17.874  1.00  0.00    -0.387 OA
ATOM     41  H   UNL     1       5.030  13.779 -17.983  1.00  0.00     0.211 HD
ENDBRANCH  32  40
ENDBRANCH   1  27
TORSDOF 12
ENDMDL
MODEL 5
REMARK VINA RESULT:    -5.880      2.033      6.996
REMARK INTER + INTRA:         -10.276
REMARK INTER:                  -9.079
REMARK INTRA:                  -1.197
REMARK UNBOUND:                -1.647
REMARK SMILES O=c1c(O[C@H]2O[C@@H](CO)[C@H](O)[C@@H](O)[C@H]2O)c(-c2ccc(O)c(O)c2)oc2cc(O)cc(O)c12
REMARK SMILES IDX 4 1 3 2 16 3 25 4 2 5 26 6 1 7 33 8 27 9 31 10 28 11 30 12
REMARK SMILES IDX 17 13 18 14 19 15 20 16 24 17 22 18 21 19 23 21 32 23 29 25
REMARK SMILES IDX 5 27 14 28 6 29 12 30 7 31 10 32 15 33 13 35 8 37 9 38 11 40
REMARK H PARENT 21 20 23 22 32 24 29 26 15 34 13 36 9 39 11 41
REMARK Flexibility Score: inf
ROOT
ATOM      1  O   UNL     1       9.384  13.318 -16.773  1.00  0.00    -0.454 OA
ENDROOT
BRANCH   1   2
ATOM      2  C   UNL     1       9.159  13.565 -18.137  1.00  0.00     0.214 A 
ATOM      3  C   UNL     1       8.899  12.537 -19.071  1.00  0.00     0.180 A 
ATOM      4  O   UNL     1       8.802  12.828 -20.364  1.00  0.00    -0.452 OA
ATOM      5  C   UNL     1       9.226  14.886 -18.595  1.00  0.00     0.239 A 
ATOM      6  C   UNL     1       8.898  14.063 -20.843  1.00  0.00     0.146 A 
ATOM      7  O   UNL     1       9.422  15.813 -17.763  1.00  0.00    -0.285 OA
ATOM      8  C   UNL     1       9.103  15.159 -19.972  1.00  0.00     0.111 A 
ATOM      9  C   UNL     1       8.784  14.269 -22.221  1.00  0.00     0.094 A 
ATOM     10  C   UNL     1       9.192  16.463 -20.514  1.00  0.00     0.134 A 
ATOM     11  C   UNL     1       8.874  15.560 -22.751  1.00  0.00     0.123 A 
ATOM     12  C   UNL     1       9.076  16.649 -21.900  1.00  0.00     0.093 A 
BRANCH   3  13
ATOM     13  C   UNL     1       8.697  11.136 -18.669  1.00  0.00     0.025 A 
ATOM     14  C   UNL     1       9.804  10.330 -18.369  1.00  0.00     0.016 A 
ATOM     15  C   UNL     1       9.622   9.000 -17.989  1.00  0.00     0.051 A 
ATOM     16  C   UNL     1       8.333   8.453 -17.921  1.00  0.00     0.157 A 
ATOM     17  C   UNL     1       7.405  10.582 -18.627  1.00  0.00     0.062 A 
ATOM     18  C   UNL     1       7.221   9.249 -18.245  1.00  0.00     0.158 A 
BRANCH  16  19
ATOM     19  O   UNL     1       8.155   7.125 -17.535  1.00  0.00    -0.504 OA
ATOM     20  H   UNL     1       8.694   6.376 -17.951  1.00  0.00     0.293 HD
ENDBRANCH  16  19
BRANCH  18  21
ATOM     21  O   UNL     1       5.926   8.734 -18.191  1.00  0.00    -0.504 OA
ATOM     22  H   UNL     1       5.597   8.036 -18.846  1.00  0.00     0.293 HD
ENDBRANCH  18  21
ENDBRANCH   3  13
BRANCH  10  23
ATOM     23  O   UNL     1       9.398  17.571 -19.690  1.00  0.00    -0.507 OA
ATOM     24  H   UNL     1       8.994  18.476 -19.903  1.00  0.00     0.293 HD
ENDBRANCH  10  23
BRANCH  11  25
ATOM     25  O   UNL     1       8.764  15.772 -24.125  1.00  0.00    -0.508 OA
ATOM     26  H   UNL     1       9.032  16.653 -24.547  1.00  0.00     0.293 HD
ENDBRANCH  11  25
ENDBRANCH   1   2
BRANCH   1  27
ATOM     27  C   UNL     1       8.464  12.624 -15.925  1.00  0.00     0.339 C 
ATOM     28  C   UNL     1       7.991  13.548 -14.774  1.00  0.00     0.214 C 
ATOM     29  O   UNL     1       9.083  11.468 -15.389  1.00  0.00    -0.332 OA
ATOM     30  C   UNL     1       7.677  12.738 -13.489  1.00  0.00     0.180 C 
ATOM     31  C   UNL     1       8.108  10.599 -14.827  1.00  0.00     0.179 C 
ATOM     32  C   UNL     1       7.129  11.341 -13.855  1.00  0.00     0.177 C 
BRANCH  28  33
ATOM     33  O   UNL     1       8.910  14.581 -14.506  1.00  0.00    -0.384 OA
ATOM     34  H   UNL     1       8.449  15.446 -14.666  1.00  0.00     0.211 HD
ENDBRANCH  28  33
BRANCH  30  35
ATOM     35  O   UNL     1       8.839  12.595 -12.707  1.00  0.00    -0.387 OA
ATOM     36  H   UNL     1       8.550  12.618 -11.756  1.00  0.00     0.211 HD
ENDBRANCH  30  35
BRANCH  31  37
ATOM     37  C   UNL     1       8.847   9.460 -14.113  1.00  0.00     0.191 C 
BRANCH  37  38
ATOM     38  O   UNL     1       8.353   8.220 -14.543  1.00  0.00    -0.394 OA
ATOM     39  H   UNL     1       9.150   7.660 -14.733  1.00  0.00     0.210 HD
ENDBRANCH  37  38
ENDBRANCH  31  37
BRANCH  32  40
ATOM     40  O   UNL     1       5.875  11.474 -14.478  1.00  0.00    -0.387 OA
ATOM     41  H   UNL     1       5.568  10.559 -14.712  1.00  0.00     0.211 HD
ENDBRANCH  32  40
ENDBRANCH   1  27
TORSDOF 12
ENDMDL
MODEL 6
REMARK VINA RESULT:    -5.806      2.788      8.020
REMARK INTER + INTRA:         -10.169
REMARK INTER:                  -8.890
REMARK INTRA:                  -1.279
REMARK UNBOUND:                -1.647
REMARK SMILES O=c1c(O[C@H]2O[C@@H](CO)[C@H](O)[C@@H](O)[C@H]2O)c(-c2ccc(O)c(O)c2)oc2cc(O)cc(O)c12
REMARK SMILES IDX 4 1 3 2 16 3 25 4 2 5 26 6 1 7 33 8 27 9 31 10 28 11 30 12
REMARK SMILES IDX 17 13 18 14 19 15 20 16 24 17 22 18 21 19 23 21 32 23 29 25
REMARK SMILES IDX 5 27 14 28 6 29 12 30 7 31 10 32 15 33 13 35 8 37 9 38 11 40
REMARK H PARENT 21 20 23 22 32 24 29 26 15 34 13 36 9 39 11 41
REMARK Flexibility Score: inf
ROOT
ATOM      1  O   UNL     1       8.091  12.580 -18.240  1.00  0.00    -0.454 OA
ENDROOT
BRANCH   1   2
ATOM      2  C   UNL     1       7.793  13.900 -17.865  1.00  0.00     0.214 A 
ATOM      3  C   UNL     1       7.230  14.235 -16.613  1.00  0.00     0.180 A 
ATOM      4  O   UNL     1       6.872  15.490 -16.362  1.00  0.00    -0.452 OA
ATOM      5  C   UNL     1       8.036  14.925 -18.786  1.00  0.00     0.239 A 
ATOM      6  C   UNL     1       7.051  16.484 -17.224  1.00  0.00     0.146 A 
ATOM      7  O   UNL     1       8.571  14.641 -19.892  1.00  0.00    -0.285 OA
ATOM      8  C   UNL     1       7.657  16.248 -18.480  1.00  0.00     0.111 A 
ATOM      9  C   UNL     1       6.639  17.773 -16.871  1.00  0.00     0.094 A 
ATOM     10  C   UNL     1       7.840  17.332 -19.372  1.00  0.00     0.134 A 
ATOM     11  C   UNL     1       6.821  18.840 -17.757  1.00  0.00     0.123 A 
ATOM     12  C   UNL     1       7.420  18.618 -18.999  1.00  0.00     0.093 A 
BRANCH   3  13
ATOM     13  C   UNL     1       7.045  13.245 -15.539  1.00  0.00     0.025 A 
ATOM     14  C   UNL     1       6.060  12.256 -15.665  1.00  0.00     0.016 A 
ATOM     15  C   UNL     1       5.875  11.314 -14.651  1.00  0.00     0.051 A 
ATOM     16  C   UNL     1       6.661  11.360 -13.492  1.00  0.00     0.157 A 
ATOM     17  C   UNL     1       7.816  13.308 -14.365  1.00  0.00     0.062 A 
ATOM     18  C   UNL     1       7.634  12.365 -13.349  1.00  0.00     0.158 A 
BRANCH  16  19
ATOM     19  O   UNL     1       6.479  10.415 -12.484  1.00  0.00    -0.504 OA
ATOM     20  H   UNL     1       5.696  10.466 -11.844  1.00  0.00     0.293 HD
ENDBRANCH  16  19
BRANCH  18  21
ATOM     21  O   UNL     1       8.430  12.440 -12.206  1.00  0.00    -0.504 OA
ATOM     22  H   UNL     1       9.090  11.712 -11.961  1.00  0.00     0.293 HD
ENDBRANCH  18  21
ENDBRANCH   3  13
BRANCH  10  23
ATOM     23  O   UNL     1       8.431  17.141 -20.622  1.00  0.00    -0.507 OA
ATOM     24  H   UNL     1       8.936  16.292 -20.850  1.00  0.00     0.293 HD
ENDBRANCH  10  23
BRANCH  11  25
ATOM     25  O   UNL     1       6.410  20.126 -17.411  1.00  0.00    -0.508 OA
ATOM     26  H   UNL     1       5.447  20.421 -17.521  1.00  0.00     0.293 HD
ENDBRANCH  11  25
ENDBRANCH   1   2
BRANCH   1  27
ATOM     27  C   UNL     1       9.143  11.804 -17.658  1.00  0.00     0.339 C 
ATOM     28  C   UNL     1      10.016  11.165 -18.768  1.00  0.00     0.214 C 
ATOM     29  O   UNL     1       8.594  10.789 -16.837  1.00  0.00    -0.332 OA
ATOM     30  C   UNL     1      10.605   9.803 -18.314  1.00  0.00     0.180 C 
ATOM     31  C   UNL     1       9.598  10.231 -15.999  1.00  0.00     0.179 C 
ATOM     32  C   UNL     1      10.884   9.820 -16.794  1.00  0.00     0.177 C 
BRANCH  28  33
ATOM     33  O   UNL     1       9.320  11.031 -19.985  1.00  0.00    -0.384 OA
ATOM     34  H   UNL     1       8.712  11.810 -20.075  1.00  0.00     0.211 HD
ENDBRANCH  28  33
BRANCH  30  35
ATOM     35  O   UNL     1       9.710   8.760 -18.614  1.00  0.00    -0.387 OA
ATOM     36  H   UNL     1       9.355   8.427 -17.747  1.00  0.00     0.211 HD
ENDBRANCH  30  35
BRANCH  31  37
ATOM     37  C   UNL     1       8.988   9.031 -15.266  1.00  0.00     0.191 C 
BRANCH  37  38
ATOM     38  O   UNL     1       9.622   7.846 -15.666  1.00  0.00    -0.394 OA
ATOM     39  H   UNL     1       8.910   7.156 -15.708  1.00  0.00     0.210 HD
ENDBRANCH  37  38
ENDBRANCH  31  37
BRANCH  32  40
ATOM     40  O   UNL     1      11.912  10.737 -16.512  1.00  0.00    -0.387 OA
ATOM     41  H   UNL     1      12.527  10.733 -17.292  1.00  0.00     0.211 HD
ENDBRANCH  32  40
ENDBRANCH   1  27
TORSDOF 12
ENDMDL
MODEL 7
REMARK VINA RESULT:    -5.753      2.538      5.732
REMARK INTER + INTRA:         -10.090
REMARK INTER:                  -9.465
REMARK INTRA:                  -0.625
REMARK UNBOUND:                -1.647
REMARK SMILES O=c1c(O[C@H]2O[C@@H](CO)[C@H](O)[C@@H](O)[C@H]2O)c(-c2ccc(O)c(O)c2)oc2cc(O)cc(O)c12
REMARK SMILES IDX 4 1 3 2 16 3 25 4 2 5 26 6 1 7 33 8 27 9 31 10 28 11 30 12
REMARK SMILES IDX 17 13 18 14 19 15 20 16 24 17 22 18 21 19 23 21 32 23 29 25
REMARK SMILES IDX 5 27 14 28 6 29 12 30 7 31 10 32 15 33 13 35 8 37 9 38 11 40
REMARK H PARENT 21 20 23 22 32 24 29 26 15 34 13 36 9 39 11 41
REMARK Flexibility Score: inf
ROOT
ATOM      1  O   UNL     1       7.146   9.511 -16.088  1.00  0.00    -0.454 OA
ENDROOT
BRANCH   1   2
ATOM      2  C   UNL     1       7.045   8.111 -16.135  1.00  0.00     0.214 A 
ATOM      3  C   UNL     1       7.071   7.299 -14.979  1.00  0.00     0.180 A 
ATOM      4  O   UNL     1       7.080   5.976 -15.099  1.00  0.00    -0.452 OA
ATOM      5  C   UNL     1       6.945   7.492 -17.386  1.00  0.00     0.239 A 
ATOM      6  C   UNL     1       7.025   5.350 -16.270  1.00  0.00     0.146 A 
ATOM      7  O   UNL     1       6.885   8.209 -18.422  1.00  0.00    -0.285 OA
ATOM      8  C   UNL     1       6.941   6.085 -17.475  1.00  0.00     0.111 A 
ATOM      9  C   UNL     1       7.042   3.953 -16.295  1.00  0.00     0.094 A 
ATOM     10  C   UNL     1       6.875   5.387 -18.705  1.00  0.00     0.134 A 
ATOM     11  C   UNL     1       6.978   3.269 -17.513  1.00  0.00     0.123 A 
ATOM     12  C   UNL     1       6.894   3.984 -18.710  1.00  0.00     0.093 A 
BRANCH   3  13
ATOM     13  C   UNL     1       7.059   7.861 -13.618  1.00  0.00     0.025 A 
ATOM     14  C   UNL     1       6.710   7.047 -12.532  1.00  0.00     0.016 A 
ATOM     15  C   UNL     1       6.692   7.571 -11.238  1.00  0.00     0.051 A 
ATOM     16  C   UNL     1       7.007   8.919 -11.017  1.00  0.00     0.157 A 
ATOM     17  C   UNL     1       7.349   9.219 -13.401  1.00  0.00     0.062 A 
ATOM     18  C   UNL     1       7.334   9.746 -12.105  1.00  0.00     0.158 A 
BRANCH  16  19
ATOM     19  O   UNL     1       6.995   9.438  -9.723  1.00  0.00    -0.504 OA
ATOM     20  H   UNL     1       7.752  10.015  -9.377  1.00  0.00     0.293 HD
ENDBRANCH  16  19
BRANCH  18  21
ATOM     21  O   UNL     1       7.647  11.092 -11.920  1.00  0.00    -0.504 OA
ATOM     22  H   UNL     1       6.958  11.825 -12.030  1.00  0.00     0.293 HD
ENDBRANCH  18  21
ENDBRANCH   3  13
BRANCH  10  23
ATOM     23  O   UNL     1       6.796   6.074 -19.917  1.00  0.00    -0.507 OA
ATOM     24  H   UNL     1       6.732   5.587 -20.804  1.00  0.00     0.293 HD
ENDBRANCH  10  23
BRANCH  11  25
ATOM     25  O   UNL     1       6.997   1.875 -17.545  1.00  0.00    -0.508 OA
ATOM     26  H   UNL     1       7.864   1.356 -17.480  1.00  0.00     0.293 HD
ENDBRANCH  11  25
ENDBRANCH   1   2
BRANCH   1  27
ATOM     27  C   UNL     1       8.379  10.226 -16.214  1.00  0.00     0.339 C 
ATOM     28  C   UNL     1       8.207  11.428 -17.178  1.00  0.00     0.214 C 
ATOM     29  O   UNL     1       9.389   9.362 -16.702  1.00  0.00    -0.332 OA
ATOM     30  C   UNL     1       9.523  11.739 -17.938  1.00  0.00     0.180 C 
ATOM     31  C   UNL     1      10.673   9.946 -16.519  1.00  0.00     0.179 C 
ATOM     32  C   UNL     1      10.746  11.418 -17.049  1.00  0.00     0.177 C 
BRANCH  28  33
ATOM     33  O   UNL     1       7.138  11.244 -18.076  1.00  0.00    -0.384 OA
ATOM     34  H   UNL     1       6.424  11.890 -17.835  1.00  0.00     0.211 HD
ENDBRANCH  28  33
BRANCH  30  35
ATOM     35  O   UNL     1       9.593  10.981 -19.121  1.00  0.00    -0.387 OA
ATOM     36  H   UNL     1      10.543  10.991 -19.413  1.00  0.00     0.211 HD
ENDBRANCH  30  35
BRANCH  31  37
ATOM     37  C   UNL     1      11.702   9.049 -17.218  1.00  0.00     0.191 C 
BRANCH  37  38
ATOM     38  O   UNL     1      11.465   9.027 -18.599  1.00  0.00    -0.394 OA
ATOM     39  H   UNL     1      11.773   9.905 -18.944  1.00  0.00     0.210 HD
ENDBRANCH  37  38
ENDBRANCH  31  37
BRANCH  32  40
ATOM     40  O   UNL     1      10.778  12.300 -15.954  1.00  0.00    -0.387 OA
ATOM     41  H   UNL     1      11.732  12.508 -15.776  1.00  0.00     0.211 HD
ENDBRANCH  32  40
ENDBRANCH   1  27
TORSDOF 12
ENDMDL
MODEL 8
REMARK VINA RESULT:    -5.678      1.425      2.248
REMARK INTER + INTRA:          -9.981
REMARK INTER:                  -9.302
REMARK INTRA:                  -0.679
REMARK UNBOUND:                -1.647
REMARK SMILES O=c1c(O[C@H]2O[C@@H](CO)[C@H](O)[C@@H](O)[C@H]2O)c(-c2ccc(O)c(O)c2)oc2cc(O)cc(O)c12
REMARK SMILES IDX 4 1 3 2 16 3 25 4 2 5 26 6 1 7 33 8 27 9 31 10 28 11 30 12
REMARK SMILES IDX 17 13 18 14 19 15 20 16 24 17 22 18 21 19 23 21 32 23 29 25
REMARK SMILES IDX 5 27 14 28 6 29 12 30 7 31 10 32 15 33 13 35 8 37 9 38 11 40
REMARK H PARENT 21 20 23 22 32 24 29 26 15 34 13 36 9 39 11 41
REMARK Flexibility Score: inf
ROOT
ATOM      1  O   UNL     1       9.449  11.261 -16.287  1.00  0.00    -0.454 OA
ENDROOT
BRANCH   1   2
ATOM      2  C   UNL     1       8.830  10.085 -16.741  1.00  0.00     0.214 A 
ATOM      3  C   UNL     1       8.157   9.999 -17.981  1.00  0.00     0.180 A 
ATOM      4  O   UNL     1       7.501   8.890 -18.303  1.00  0.00    -0.452 OA
ATOM      5  C   UNL     1       8.855   8.956 -15.914  1.00  0.00     0.239 A 
ATOM      6  C   UNL     1       7.469   7.812 -17.528  1.00  0.00     0.146 A 
ATOM      7  O   UNL     1       9.483   9.012 -14.822  1.00  0.00    -0.285 OA
ATOM      8  C   UNL     1       8.160   7.791 -16.294  1.00  0.00     0.111 A 
ATOM      9  C   UNL     1       6.748   6.691 -17.951  1.00  0.00     0.094 A 
ATOM     10  C   UNL     1       8.112   6.623 -15.497  1.00  0.00     0.134 A 
ATOM     11  C   UNL     1       6.703   5.540 -17.158  1.00  0.00     0.123 A 
ATOM     12  C   UNL     1       7.383   5.508 -15.939  1.00  0.00     0.093 A 
BRANCH   3  13
ATOM     13  C   UNL     1       8.174  11.093 -18.967  1.00  0.00     0.025 A 
ATOM     14  C   UNL     1       9.364  11.407 -19.638  1.00  0.00     0.016 A 
ATOM     15  C   UNL     1       9.391  12.443 -20.572  1.00  0.00     0.051 A 
ATOM     16  C   UNL     1       8.234  13.190 -20.834  1.00  0.00     0.157 A 
ATOM     17  C   UNL     1       7.020  11.858 -19.209  1.00  0.00     0.062 A 
ATOM     18  C   UNL     1       7.044  12.896 -20.146  1.00  0.00     0.158 A 
BRANCH  16  19
ATOM     19  O   UNL     1       8.263  14.221 -21.772  1.00  0.00    -0.504 OA
ATOM     20  H   UNL     1       8.197  15.192 -21.494  1.00  0.00     0.293 HD
ENDBRANCH  16  19
BRANCH  18  21
ATOM     21  O   UNL     1       5.877  13.622 -20.380  1.00  0.00    -0.504 OA
ATOM     22  H   UNL     1       5.747  14.175 -21.218  1.00  0.00     0.293 HD
ENDBRANCH  18  21
ENDBRANCH   3  13
BRANCH  10  23
ATOM     23  O   UNL     1       8.777   6.562 -14.271  1.00  0.00    -0.507 OA
ATOM     24  H   UNL     1       9.323   5.752 -13.999  1.00  0.00     0.293 HD
ENDBRANCH  10  23
BRANCH  11  25
ATOM     25  O   UNL     1       5.984   4.420 -17.575  1.00  0.00    -0.508 OA
ATOM     26  H   UNL     1       5.293   3.983 -16.977  1.00  0.00     0.293 HD
ENDBRANCH  11  25
ENDBRANCH   1   2
BRANCH   1  27
ATOM     27  C   UNL     1       8.965  12.577 -16.570  1.00  0.00     0.339 C 
ATOM     28  C   UNL     1      10.079  13.625 -16.319  1.00  0.00     0.214 C 
ATOM     29  O   UNL     1       7.845  12.864 -15.752  1.00  0.00    -0.332 OA
ATOM     30  C   UNL     1       9.489  14.982 -15.854  1.00  0.00     0.180 C 
ATOM     31  C   UNL     1       7.154  14.007 -16.241  1.00  0.00     0.179 C 
ATOM     32  C   UNL     1       8.109  15.219 -16.509  1.00  0.00     0.177 C 
BRANCH  28  33
ATOM     33  O   UNL     1      11.053  13.163 -15.413  1.00  0.00    -0.384 OA
ATOM     34  H   UNL     1      11.933  13.187 -15.873  1.00  0.00     0.211 HD
ENDBRANCH  28  33
BRANCH  30  35
ATOM     35  O   UNL     1       9.352  15.000 -14.454  1.00  0.00    -0.387 OA
ATOM     36  H   UNL     1       8.395  15.186 -14.260  1.00  0.00     0.211 HD
ENDBRANCH  30  35
BRANCH  31  37
ATOM     37  C   UNL     1       6.064  14.369 -15.224  1.00  0.00     0.191 C 
BRANCH  37  38
ATOM     38  O   UNL     1       6.343  15.612 -14.638  1.00  0.00    -0.394 OA
ATOM     39  H   UNL     1       6.347  16.270 -15.380  1.00  0.00     0.210 HD
ENDBRANCH  37  38
ENDBRANCH  31  37
BRANCH  32  40
ATOM     40  O   UNL     1       8.266  15.383 -17.896  1.00  0.00    -0.387 OA
ATOM     41  H   UNL     1       7.601  16.061 -18.186  1.00  0.00     0.211 HD
ENDBRANCH  32  40
ENDBRANCH   1  27
TORSDOF 12
ENDMDL
MODEL 9
REMARK VINA RESULT:    -5.561      2.520      6.047
REMARK INTER + INTRA:          -9.809
REMARK INTER:                  -9.999
REMARK INTRA:                   0.190
REMARK UNBOUND:                -1.647
REMARK SMILES O=c1c(O[C@H]2O[C@@H](CO)[C@H](O)[C@@H](O)[C@H]2O)c(-c2ccc(O)c(O)c2)oc2cc(O)cc(O)c12
REMARK SMILES IDX 4 1 3 2 16 3 25 4 2 5 26 6 1 7 33 8 27 9 31 10 28 11 30 12
REMARK SMILES IDX 17 13 18 14 19 15 20 16 24 17 22 18 21 19 23 21 32 23 29 25
REMARK SMILES IDX 5 27 14 28 6 29 12 30 7 31 10 32 15 33 13 35 8 37 9 38 11 40
REMARK H PARENT 21 20 23 22 32 24 29 26 15 34 13 36 9 39 11 41
REMARK Flexibility Score: inf
ROOT
ATOM      1  O   UNL     1       7.756   8.762 -17.496  1.00  0.00    -0.454 OA
ENDROOT
BRANCH   1   2
ATOM      2  C   UNL     1       7.552   8.391 -16.157  1.00  0.00     0.214 A 
ATOM      3  C   UNL     1       7.206   7.077 -15.768  1.00  0.00     0.180 A 
ATOM      4  O   UNL     1       6.922   6.816 -14.496  1.00  0.00    -0.452 OA
ATOM      5  C   UNL     1       7.667   9.374 -15.168  1.00  0.00     0.239 A 
ATOM      6  C   UNL     1       6.982   7.731 -13.534  1.00  0.00     0.146 A 
ATOM      7  O   UNL     1       8.010  10.541 -15.501  1.00  0.00    -0.285 OA
ATOM      8  C   UNL     1       7.372   9.058 -13.826  1.00  0.00     0.111 A 
ATOM      9  C   UNL     1       6.662   7.361 -12.225  1.00  0.00     0.094 A 
ATOM     10  C   UNL     1       7.434  10.005 -12.776  1.00  0.00     0.134 A 
ATOM     11  C   UNL     1       6.723   8.302 -11.191  1.00  0.00     0.123 A 
ATOM     12  C   UNL     1       7.108   9.615 -11.468  1.00  0.00     0.093 A 
BRANCH   3  13
ATOM     13  C   UNL     1       7.175   5.953 -16.719  1.00  0.00     0.025 A 
ATOM     14  C   UNL     1       7.209   6.206 -18.097  1.00  0.00     0.016 A 
ATOM     15  C   UNL     1       7.176   5.148 -19.006  1.00  0.00     0.051 A 
ATOM     16  C   UNL     1       7.093   3.825 -18.550  1.00  0.00     0.157 A 
ATOM     17  C   UNL     1       7.064   4.629 -16.260  1.00  0.00     0.062 A 
ATOM     18  C   UNL     1       7.034   3.567 -17.169  1.00  0.00     0.158 A 
BRANCH  16  19
ATOM     19  O   UNL     1       7.067   2.770 -19.460  1.00  0.00    -0.504 OA
ATOM     20  H   UNL     1       7.571   2.815 -20.337  1.00  0.00     0.293 HD
ENDBRANCH  16  19
BRANCH  18  21
ATOM     21  O   UNL     1       6.946   2.263 -16.682  1.00  0.00    -0.504 OA
ATOM     22  H   UNL     1       7.578   1.910 -15.975  1.00  0.00     0.293 HD
ENDBRANCH  18  21
ENDBRANCH   3  13
BRANCH  10  23
ATOM     23  O   UNL     1       7.810  11.327 -13.022  1.00  0.00    -0.507 OA
ATOM     24  H   UNL     1       8.432  11.572 -13.784  1.00  0.00     0.293 HD
ENDBRANCH  10  23
BRANCH  11  25
ATOM     25  O   UNL     1       6.403   7.940  -9.883  1.00  0.00    -0.508 OA
ATOM     26  H   UNL     1       5.483   7.593  -9.641  1.00  0.00     0.293 HD
ENDBRANCH  11  25
ENDBRANCH   1   2
BRANCH   1  27
ATOM     27  C   UNL     1       7.395  10.038 -18.033  1.00  0.00     0.339 C 
ATOM     28  C   UNL     1       6.137   9.909 -18.929  1.00  0.00     0.214 C 
ATOM     29  O   UNL     1       8.471  10.561 -18.792  1.00  0.00    -0.332 OA
ATOM     30  C   UNL     1       6.150  10.947 -20.081  1.00  0.00     0.180 C 
ATOM     31  C   UNL     1       8.269  11.945 -19.050  1.00  0.00     0.179 C 
ATOM     32  C   UNL     1       6.843  12.250 -19.621  1.00  0.00     0.177 C 
BRANCH  28  33
ATOM     33  O   UNL     1       5.970   8.603 -19.431  1.00  0.00    -0.384 OA
ATOM     34  H   UNL     1       5.007   8.478 -19.639  1.00  0.00     0.211 HD
ENDBRANCH  28  33
BRANCH  30  35
ATOM     35  O   UNL     1       6.826  10.427 -21.199  1.00  0.00    -0.387 OA
ATOM     36  H   UNL     1       7.181  11.203 -21.708  1.00  0.00     0.211 HD
ENDBRANCH  30  35
BRANCH  31  37
ATOM     37  C   UNL     1       9.368  12.410 -20.013  1.00  0.00     0.191 C 
BRANCH  37  38
ATOM     38  O   UNL     1       9.691  11.383 -20.911  1.00  0.00    -0.394 OA
ATOM     39  H   UNL     1       8.827  10.985 -21.193  1.00  0.00     0.210 HD
ENDBRANCH  37  38
ENDBRANCH  31  37
BRANCH  32  40
ATOM     40  O   UNL     1       6.070  12.870 -18.623  1.00  0.00    -0.387 OA
ATOM     41  H   UNL     1       5.595  12.148 -18.134  1.00  0.00     0.211 HD
ENDBRANCH  32  40
ENDBRANCH   1  27
TORSDOF 12
ENDMDL
