MODEL 1
REMARK VINA RESULT:    -2.691      0.000      0.000
REMARK INTER + INTRA:          -5.529
REMARK INTER:                  -4.264
REMARK INTRA:                  -1.264
REMARK UNBOUND:                -1.264
REMARK SMILES CCCCCCCCCCCC(=O)[O-]
REMARK SMILES IDX 7 1 8 2 9 3 10 4 11 5 12 6 13 7 14 8 6 9 5 10 4 11 3 12 2 13
REMARK SMILES IDX 1 14
REMARK H PARENT
REMARK Flexibility Score: inf
ROOT
ATOM      1  C   UNL     1      24.937   6.367  14.883  1.00  0.00     0.000 C 
ENDROOT
BRANCH   1   2
ATOM      2  C   UNL     1      25.565   6.652  16.261  1.00  0.00     0.000 C 
BRANCH   2   3
ATOM      3  C   UNL     1      25.193   8.014  16.875  1.00  0.00     0.000 C 
BRANCH   3   4
ATOM      4  C   UNL     1      24.938   7.963  18.399  1.00  0.00     0.006 C 
BRANCH   4   5
ATOM      5  C   UNL     1      25.587   6.756  19.095  1.00  0.00     0.053 C 
BRANCH   5   6
ATOM      6  C   UNL     1      26.935   7.095  19.653  1.00  0.00     0.041 C 
ATOM      7  O   UNL     1      27.310   8.295  19.727  1.00  0.00    -0.550 OA
ATOM      8  O   UNL     1      27.788   6.082  20.074  1.00  0.00    -0.550 OA
ENDBRANCH   5   6
ENDBRANCH   4   5
ENDBRANCH   3   4
ENDBRANCH   2   3
ENDBRANCH   1   2
BRANCH   1   9
ATOM      9  C   UNL     1      23.974   5.166  14.842  1.00  0.00     0.000 C 
BRANCH   9  10
ATOM     10  C   UNL     1      22.957   5.173  15.994  1.00  0.00    -0.000 C 
BRANCH  10  11
ATOM     11  C   UNL     1      21.850   6.207  15.742  1.00  0.00    -0.000 C 
BRANCH  11  12
ATOM     12  C   UNL     1      21.594   7.110  16.959  1.00  0.00    -0.000 C 
BRANCH  12  13
ATOM     13  C   UNL     1      20.975   8.462  16.570  1.00  0.00    -0.003 C 
ATOM     14  C   UNL     1      21.774   9.620  17.162  1.00  0.00     0.004 C 
ENDBRANCH  12  13
ENDBRANCH  11  12
ENDBRANCH  10  11
ENDBRANCH   9  10
ENDBRANCH   1   9
TORSDOF 10
ENDMDL
MODEL 2
REMARK VINA RESULT:    -2.637      4.282      6.267
REMARK INTER + INTRA:          -5.443
REMARK INTER:                  -4.092
REMARK INTRA:                  -1.352
REMARK UNBOUND:                -1.264
REMARK SMILES CCCCCCCCCCCC(=O)[O-]
REMARK SMILES IDX 7 1 8 2 9 3 10 4 11 5 12 6 13 7 14 8 6 9 5 10 4 11 3 12 2 13
REMARK SMILES IDX 1 14
REMARK H PARENT
REMARK Flexibility Score: inf
ROOT
ATOM      1  C   UNL     1      18.246   9.342  16.151  1.00  0.00     0.000 C 
ENDROOT
BRANCH   1   2
ATOM      2  C   UNL     1      18.452  10.266  17.367  1.00  0.00     0.000 C 
BRANCH   2   3
ATOM      3  C   UNL     1      19.535   9.802  18.360  1.00  0.00     0.000 C 
BRANCH   3   4
ATOM      4  C   UNL     1      20.757  10.745  18.435  1.00  0.00     0.006 C 
BRANCH   4   5
ATOM      5  C   UNL     1      21.255  11.223  17.062  1.00  0.00     0.053 C 
BRANCH   5   6
ATOM      6  C   UNL     1      21.288  12.718  16.972  1.00  0.00     0.041 C 
ATOM      7  O   UNL     1      21.642  13.283  15.903  1.00  0.00    -0.550 OA
ATOM      8  O   UNL     1      20.947  13.489  18.076  1.00  0.00    -0.550 OA
ENDBRANCH   5   6
ENDBRANCH   4   5
ENDBRANCH   3   4
ENDBRANCH   2   3
ENDBRANCH   1   2
BRANCH   1   9
ATOM      9  C   UNL     1      18.126   7.844  16.487  1.00  0.00     0.000 C 
BRANCH   9  10
ATOM     10  C   UNL     1      19.022   6.958  15.608  1.00  0.00    -0.000 C 
BRANCH  10  11
ATOM     11  C   UNL     1      20.390   7.617  15.381  1.00  0.00    -0.000 C 
BRANCH  11  12
ATOM     12  C   UNL     1      21.555   6.763  15.906  1.00  0.00    -0.000 C 
BRANCH  12  13
ATOM     13  C   UNL     1      21.913   7.085  17.365  1.00  0.00    -0.003 C 
ATOM     14  C   UNL     1      23.131   8.000  17.441  1.00  0.00     0.004 C 
ENDBRANCH  12  13
ENDBRANCH  11  12
ENDBRANCH  10  11
ENDBRANCH   9  10
ENDBRANCH   1   9
TORSDOF 10
ENDMDL
MODEL 3
REMARK VINA RESULT:    -2.619      3.953      5.933
REMARK INTER + INTRA:          -5.414
REMARK INTER:                  -4.353
REMARK INTRA:                  -1.061
REMARK UNBOUND:                -1.264
REMARK SMILES CCCCCCCCCCCC(=O)[O-]
REMARK SMILES IDX 7 1 8 2 9 3 10 4 11 5 12 6 13 7 14 8 6 9 5 10 4 11 3 12 2 13
REMARK SMILES IDX 1 14
REMARK H PARENT
REMARK Flexibility Score: inf
ROOT
ATOM      1  C   UNL     1      20.279   7.310  15.619  1.00  0.00     0.000 C 
ENDROOT
BRANCH   1   2
ATOM      2  C   UNL     1      19.029   7.921  16.282  1.00  0.00     0.000 C 
BRANCH   2   3
ATOM      3  C   UNL     1      19.135   9.423  16.606  1.00  0.00     0.000 C 
BRANCH   3   4
ATOM      4  C   UNL     1      20.276   9.771  17.589  1.00  0.00     0.006 C 
BRANCH   4   5
ATOM      5  C   UNL     1      21.375  10.653  16.975  1.00  0.00     0.053 C 
BRANCH   5   6
ATOM      6  C   UNL     1      21.020  12.107  17.036  1.00  0.00     0.041 C 
ATOM      7  O   UNL     1      21.569  12.928  16.254  1.00  0.00    -0.550 OA
ATOM      8  O   UNL     1      20.096  12.559  17.969  1.00  0.00    -0.550 OA
ENDBRANCH   5   6
ENDBRANCH   4   5
ENDBRANCH   3   4
ENDBRANCH   2   3
ENDBRANCH   1   2
BRANCH   1   9
ATOM      9  C   UNL     1      20.870   6.088  16.347  1.00  0.00     0.000 C 
BRANCH   9  10
ATOM     10  C   UNL     1      21.992   6.460  17.328  1.00  0.00    -0.000 C 
BRANCH  10  11
ATOM     11  C   UNL     1      23.160   7.134  16.595  1.00  0.00    -0.000 C 
BRANCH  11  12
ATOM     12  C   UNL     1      24.312   6.162  16.291  1.00  0.00    -0.000 C 
BRANCH  12  13
ATOM     13  C   UNL     1      24.631   6.075  14.791  1.00  0.00    -0.003 C 
ATOM     14  C   UNL     1      23.668   5.129  14.080  1.00  0.00     0.004 C 
ENDBRANCH  12  13
ENDBRANCH  11  12
ENDBRANCH  10  11
ENDBRANCH   9  10
ENDBRANCH   1   9
TORSDOF 10
ENDMDL
MODEL 4
REMARK VINA RESULT:    -2.619      2.917      5.435
REMARK INTER + INTRA:          -5.414
REMARK INTER:                  -4.483
REMARK INTRA:                  -0.931
REMARK UNBOUND:                -1.264
REMARK SMILES CCCCCCCCCCCC(=O)[O-]
REMARK SMILES IDX 7 1 8 2 9 3 10 4 11 5 12 6 13 7 14 8 6 9 5 10 4 11 3 12 2 13
REMARK SMILES IDX 1 14
REMARK H PARENT
REMARK Flexibility Score: inf
ROOT
ATOM      1  C   UNL     1      24.882   6.372  14.884  1.00  0.00     0.000 C 
ENDROOT
BRANCH   1   2
ATOM      2  C   UNL     1      23.839   5.240  14.841  1.00  0.00     0.000 C 
BRANCH   2   3
ATOM      3  C   UNL     1      22.732   5.334  15.909  1.00  0.00     0.000 C 
BRANCH   3   4
ATOM      4  C   UNL     1      21.757   6.514  15.694  1.00  0.00     0.006 C 
BRANCH   4   5
ATOM      5  C   UNL     1      21.576   7.401  16.936  1.00  0.00     0.053 C 
BRANCH   5   6
ATOM      6  C   UNL     1      20.919   8.704  16.598  1.00  0.00     0.041 C 
ATOM      7  O   UNL     1      19.772   8.721  16.078  1.00  0.00    -0.550 OA
ATOM      8  O   UNL     1      21.582   9.900  16.838  1.00  0.00    -0.550 OA
ENDBRANCH   5   6
ENDBRANCH   4   5
ENDBRANCH   3   4
ENDBRANCH   2   3
ENDBRANCH   1   2
BRANCH   1   9
ATOM      9  C   UNL     1      25.520   6.616  16.265  1.00  0.00     0.000 C 
BRANCH   9  10
ATOM     10  C   UNL     1      25.203   8.007  16.835  1.00  0.00    -0.000 C 
BRANCH  10  11
ATOM     11  C   UNL     1      25.244   7.992  18.370  1.00  0.00    -0.000 C 
BRANCH  11  12
ATOM     12  C   UNL     1      26.500   8.673  18.937  1.00  0.00    -0.000 C 
BRANCH  12  13
ATOM     13  C   UNL     1      27.173   7.844  20.042  1.00  0.00    -0.003 C 
ATOM     14  C   UNL     1      27.227   6.367  19.662  1.00  0.00     0.004 C 
ENDBRANCH  12  13
ENDBRANCH  11  12
ENDBRANCH  10  11
ENDBRANCH   9  10
ENDBRANCH   1   9
TORSDOF 10
ENDMDL
MODEL 5
REMARK VINA RESULT:    -2.539      3.451      5.657
REMARK INTER + INTRA:          -5.288
REMARK INTER:                  -4.308
REMARK INTRA:                  -0.980
REMARK UNBOUND:                -1.264
REMARK SMILES CCCCCCCCCCCC(=O)[O-]
REMARK SMILES IDX 7 1 8 2 9 3 10 4 11 5 12 6 13 7 14 8 6 9 5 10 4 11 3 12 2 13
REMARK SMILES IDX 1 14
REMARK H PARENT
REMARK Flexibility Score: inf
ROOT
ATOM      1  C   UNL     1      18.180   8.037  16.681  1.00  0.00     0.000 C 
ENDROOT
BRANCH   1   2
ATOM      2  C   UNL     1      19.150   6.917  16.258  1.00  0.00     0.000 C 
BRANCH   2   3
ATOM      3  C   UNL     1      20.430   7.399  15.550  1.00  0.00     0.000 C 
BRANCH   3   4
ATOM      4  C   UNL     1      21.732   7.043  16.303  1.00  0.00     0.006 C 
BRANCH   4   5
ATOM      5  C   UNL     1      22.329   5.685  15.902  1.00  0.00     0.053 C 
BRANCH   5   6
ATOM      6  C   UNL     1      23.407   5.833  14.872  1.00  0.00     0.041 C 
ATOM      7  O   UNL     1      23.165   5.593  13.659  1.00  0.00    -0.550 OA
ATOM      8  O   UNL     1      24.685   6.218  15.255  1.00  0.00    -0.550 OA
ENDBRANCH   5   6
ENDBRANCH   4   5
ENDBRANCH   3   4
ENDBRANCH   2   3
ENDBRANCH   1   2
BRANCH   1   9
ATOM      9  C   UNL     1      18.614   9.459  16.279  1.00  0.00     0.000 C 
BRANCH   9  10
ATOM     10  C   UNL     1      18.772  10.401  17.481  1.00  0.00    -0.000 C 
BRANCH  10  11
ATOM     11  C   UNL     1      20.192  10.321  18.059  1.00  0.00    -0.000 C 
BRANCH  11  12
ATOM     12  C   UNL     1      21.269  10.740  17.046  1.00  0.00    -0.000 C 
BRANCH  12  13
ATOM     13  C   UNL     1      21.278  12.254  16.786  1.00  0.00    -0.003 C 
ATOM     14  C   UNL     1      21.446  13.032  18.088  1.00  0.00     0.004 C 
ENDBRANCH  12  13
ENDBRANCH  11  12
ENDBRANCH  10  11
ENDBRANCH   9  10
ENDBRANCH   1   9
TORSDOF 10
ENDMDL
MODEL 6
REMARK VINA RESULT:    -2.509      3.528      5.553
REMARK INTER + INTRA:          -5.241
REMARK INTER:                  -4.234
REMARK INTRA:                  -1.006
REMARK UNBOUND:                -1.264
REMARK SMILES CCCCCCCCCCCC(=O)[O-]
REMARK SMILES IDX 7 1 8 2 9 3 10 4 11 5 12 6 13 7 14 8 6 9 5 10 4 11 3 12 2 13
REMARK SMILES IDX 1 14
REMARK H PARENT
REMARK Flexibility Score: inf
ROOT
ATOM      1  C   UNL     1      22.279   6.670  16.526  1.00  0.00     0.000 C 
ENDROOT
BRANCH   1   2
ATOM      2  C   UNL     1      20.966   7.292  16.014  1.00  0.00     0.000 C 
BRANCH   2   3
ATOM      3  C   UNL     1      20.538   8.588  16.730  1.00  0.00     0.000 C 
BRANCH   3   4
ATOM      4  C   UNL     1      21.702   9.574  16.982  1.00  0.00     0.006 C 
BRANCH   4   5
ATOM      5  C   UNL     1      21.314  10.779  17.854  1.00  0.00     0.053 C 
BRANCH   5   6
ATOM      6  C   UNL     1      20.762  11.905  17.035  1.00  0.00     0.041 C 
ATOM      7  O   UNL     1      21.528  12.796  16.581  1.00  0.00    -0.550 OA
ATOM      8  O   UNL     1      19.398  11.981  16.787  1.00  0.00    -0.550 OA
ENDBRANCH   5   6
ENDBRANCH   4   5
ENDBRANCH   3   4
ENDBRANCH   2   3
ENDBRANCH   1   2
BRANCH   1   9
ATOM      9  C   UNL     1      23.144   5.996  15.444  1.00  0.00     0.000 C 
BRANCH   9  10
ATOM     10  C   UNL     1      24.622   6.405  15.516  1.00  0.00    -0.000 C 
BRANCH  10  11
ATOM     11  C   UNL     1      24.816   7.592  16.472  1.00  0.00    -0.000 C 
BRANCH  11  12
ATOM     12  C   UNL     1      26.008   7.399  17.423  1.00  0.00    -0.000 C 
BRANCH  12  13
ATOM     13  C   UNL     1      25.892   8.253  18.695  1.00  0.00    -0.003 C 
ATOM     14  C   UNL     1      24.464   8.246  19.230  1.00  0.00     0.004 C 
ENDBRANCH  12  13
ENDBRANCH  11  12
ENDBRANCH  10  11
ENDBRANCH   9  10
ENDBRANCH   1   9
TORSDOF 10
ENDMDL
MODEL 7
REMARK VINA RESULT:    -2.506      2.828      4.559
REMARK INTER + INTRA:          -5.235
REMARK INTER:                  -4.324
REMARK INTRA:                  -0.911
REMARK UNBOUND:                -1.264
REMARK SMILES CCCCCCCCCCCC(=O)[O-]
REMARK SMILES IDX 7 1 8 2 9 3 10 4 11 5 12 6 13 7 14 8 6 9 5 10 4 11 3 12 2 13
REMARK SMILES IDX 1 14
REMARK H PARENT
REMARK Flexibility Score: inf
ROOT
ATOM      1  C   UNL     1      20.650   8.257  16.431  1.00  0.00     0.000 C 
ENDROOT
BRANCH   1   2
ATOM      2  C   UNL     1      21.663   8.815  17.450  1.00  0.00     0.000 C 
BRANCH   2   3
ATOM      3  C   UNL     1      23.107   8.306  17.276  1.00  0.00     0.000 C 
BRANCH   3   4
ATOM      4  C   UNL     1      23.334   6.877  17.819  1.00  0.00     0.006 C 
BRANCH   4   5
ATOM      5  C   UNL     1      23.850   5.888  16.761  1.00  0.00     0.053 C 
BRANCH   5   6
ATOM      6  C   UNL     1      25.039   6.428  16.028  1.00  0.00     0.041 C 
ATOM      7  O   UNL     1      25.015   6.539  14.773  1.00  0.00    -0.550 OA
ATOM      8  O   UNL     1      26.182   6.791  16.728  1.00  0.00    -0.550 OA
ENDBRANCH   5   6
ENDBRANCH   4   5
ENDBRANCH   3   4
ENDBRANCH   2   3
ENDBRANCH   1   2
BRANCH   1   9
ATOM      9  C   UNL     1      19.190   8.219  16.920  1.00  0.00     0.000 C 
BRANCH   9  10
ATOM     10  C   UNL     1      18.302   9.272  16.241  1.00  0.00    -0.000 C 
BRANCH  10  11
ATOM     11  C   UNL     1      18.067  10.473  17.169  1.00  0.00    -0.000 C 
BRANCH  11  12
ATOM     12  C   UNL     1      18.806  11.738  16.703  1.00  0.00    -0.000 C 
BRANCH  12  13
ATOM     13  C   UNL     1      19.959  12.127  17.640  1.00  0.00    -0.003 C 
ATOM     14  C   UNL     1      21.216  12.473  16.847  1.00  0.00     0.004 C 
ENDBRANCH  12  13
ENDBRANCH  11  12
ENDBRANCH  10  11
ENDBRANCH   9  10
ENDBRANCH   1   9
TORSDOF 10
ENDMDL
MODEL 8
REMARK VINA RESULT:    -2.452      2.419      4.540
REMARK INTER + INTRA:          -5.149
REMARK INTER:                  -3.977
REMARK INTRA:                  -1.172
REMARK UNBOUND:                -1.264
REMARK SMILES CCCCCCCCCCCC(=O)[O-]
REMARK SMILES IDX 7 1 8 2 9 3 10 4 11 5 12 6 13 7 14 8 6 9 5 10 4 11 3 12 2 13
REMARK SMILES IDX 1 14
REMARK H PARENT
REMARK Flexibility Score: inf
ROOT
ATOM      1  C   UNL     1      19.720   7.762  15.854  1.00  0.00     0.000 C 
ENDROOT
BRANCH   1   2
ATOM      2  C   UNL     1      20.017   6.814  17.031  1.00  0.00     0.000 C 
BRANCH   2   3
ATOM      3  C   UNL     1      21.331   7.102  17.782  1.00  0.00     0.000 C 
BRANCH   3   4
ATOM      4  C   UNL     1      22.450   7.677  16.884  1.00  0.00     0.006 C 
BRANCH   4   5
ATOM      5  C   UNL     1      23.709   8.099  17.657  1.00  0.00     0.053 C 
BRANCH   5   6
ATOM      6  C   UNL     1      24.962   7.721  16.928  1.00  0.00     0.041 C 
ATOM      7  O   UNL     1      26.063   8.247  17.241  1.00  0.00    -0.550 OA
ATOM      8  O   UNL     1      24.911   6.801  15.889  1.00  0.00    -0.550 OA
ENDBRANCH   5   6
ENDBRANCH   4   5
ENDBRANCH   3   4
ENDBRANCH   2   3
ENDBRANCH   1   2
BRANCH   1   9
ATOM      9  C   UNL     1      18.392   8.534  15.960  1.00  0.00     0.000 C 
BRANCH   9  10
ATOM     10  C   UNL     1      18.201   9.216  17.323  1.00  0.00    -0.000 C 
BRANCH  10  11
ATOM     11  C   UNL     1      18.779  10.639  17.311  1.00  0.00    -0.000 C 
BRANCH  11  12
ATOM     12  C   UNL     1      20.160  10.724  17.979  1.00  0.00    -0.000 C 
BRANCH  12  13
ATOM     13  C   UNL     1      21.272  11.108  16.990  1.00  0.00    -0.003 C 
ATOM     14  C   UNL     1      21.297  12.615  16.752  1.00  0.00     0.004 C 
ENDBRANCH  12  13
ENDBRANCH  11  12
ENDBRANCH  10  11
ENDBRANCH   9  10
ENDBRANCH   1   9
TORSDOF 10
ENDMDL
MODEL 9
REMARK VINA RESULT:    -2.434      3.096      5.012
REMARK INTER + INTRA:          -5.122
REMARK INTER:                  -3.783
REMARK INTRA:                  -1.339
REMARK UNBOUND:                -1.264
REMARK SMILES CCCCCCCCCCCC(=O)[O-]
REMARK SMILES IDX 7 1 8 2 9 3 10 4 11 5 12 6 13 7 14 8 6 9 5 10 4 11 3 12 2 13
REMARK SMILES IDX 1 14
REMARK H PARENT
REMARK Flexibility Score: inf
ROOT
ATOM      1  C   UNL     1      21.258  10.313  17.015  1.00  0.00     0.000 C 
ENDROOT
BRANCH   1   2
ATOM      2  C   UNL     1      21.634   9.591  18.323  1.00  0.00     0.000 C 
BRANCH   2   3
ATOM      3  C   UNL     1      22.079   8.126  18.152  1.00  0.00     0.000 C 
BRANCH   3   4
ATOM      4  C   UNL     1      23.196   7.931  17.102  1.00  0.00     0.006 C 
BRANCH   4   5
ATOM      5  C   UNL     1      23.647   6.471  16.941  1.00  0.00     0.053 C 
BRANCH   5   6
ATOM      6  C   UNL     1      23.879   6.116  15.504  1.00  0.00     0.041 C 
ATOM      7  O   UNL     1      22.991   5.510  14.848  1.00  0.00    -0.550 OA
ATOM      8  O   UNL     1      25.086   6.436  14.895  1.00  0.00    -0.550 OA
ENDBRANCH   5   6
ENDBRANCH   4   5
ENDBRANCH   3   4
ENDBRANCH   2   3
ENDBRANCH   1   2
BRANCH   1   9
ATOM      9  C   UNL     1      19.949  11.122  17.072  1.00  0.00     0.000 C 
BRANCH   9  10
ATOM     10  C   UNL     1      18.728  10.263  17.433  1.00  0.00    -0.000 C 
BRANCH  10  11
ATOM     11  C   UNL     1      18.428   9.243  16.326  1.00  0.00    -0.000 C 
BRANCH  11  12
ATOM     12  C   UNL     1      18.230   7.819  16.868  1.00  0.00    -0.000 C 
BRANCH  12  13
ATOM     13  C   UNL     1      19.166   6.798  16.202  1.00  0.00    -0.003 C 
ATOM     14  C   UNL     1      20.075   7.473  15.180  1.00  0.00     0.004 C 
ENDBRANCH  12  13
ENDBRANCH  11  12
ENDBRANCH  10  11
ENDBRANCH   9  10
ENDBRANCH   1   9
TORSDOF 10
ENDMDL
