MODEL 1
REMARK VINA RESULT:    54.615      0.000      0.000
REMARK INTER + INTRA:          65.619
REMARK INTER:                  65.790
REMARK INTRA:                  -0.170
REMARK UNBOUND:                -0.170
REMARK SMILES O=c1c(O)c(-c2ccc(O)c(O)c2)oc2cc(O)cc(O)c12
REMARK SMILES IDX 5 1 3 2 2 3 1 4 22 5 20 6 19 7 17 8 16 9 15 10 14 11 6 12
REMARK SMILES IDX 7 13 8 14 9 15 13 16 11 17 10 18 12 20 4 22 21 24 18 26
REMARK H PARENT 10 19 12 21 4 23 21 25 18 27
REMARK Flexibility Score: inf
ROOT
ATOM      1  C   UNL     1      67.130  14.250  89.730  1.00  0.00     0.180 A 
ATOM      2  C   UNL     1      66.572  14.653  88.506  1.00  0.00     0.208 A 
ATOM      3  C   UNL     1      66.899  15.919  87.992  1.00  0.00     0.238 A 
ATOM      4  O   UNL     1      66.439  16.252  86.869  1.00  0.00    -0.285 OA
ATOM      5  C   UNL     1      67.766  16.770  88.717  1.00  0.00     0.111 A 
ATOM      6  C   UNL     1      68.134  18.088  88.310  1.00  0.00     0.134 A 
ATOM      7  C   UNL     1      69.101  18.791  89.039  1.00  0.00     0.093 A 
ATOM      8  C   UNL     1      69.666  18.249  90.196  1.00  0.00     0.123 A 
ATOM      9  C   UNL     1      69.270  16.987  90.633  1.00  0.00     0.094 A 
ATOM     10  C   UNL     1      68.334  16.247  89.908  1.00  0.00     0.146 A 
ATOM     11  O   UNL     1      67.992  15.044  90.354  1.00  0.00    -0.452 OA
ENDROOT
BRANCH   1  12
ATOM     12  C   UNL     1      66.814  12.941  90.347  1.00  0.00     0.025 A 
ATOM     13  C   UNL     1      66.068  12.901  91.536  1.00  0.00     0.016 A 
ATOM     14  C   UNL     1      65.740  11.677  92.125  1.00  0.00     0.051 A 
ATOM     15  C   UNL     1      66.139  10.475  91.526  1.00  0.00     0.157 A 
ATOM     16  C   UNL     1      67.195  11.733  89.739  1.00  0.00     0.062 A 
ATOM     17  C   UNL     1      66.866  10.504  90.324  1.00  0.00     0.158 A 
BRANCH  15  18
ATOM     18  O   UNL     1      65.812   9.256  92.117  1.00  0.00    -0.504 OA
ATOM     19  H   UNL     1      66.276   8.395  91.850  1.00  0.00     0.293 HD
ENDBRANCH  15  18
BRANCH  17  20
ATOM     20  O   UNL     1      67.266   9.325  89.696  1.00  0.00    -0.504 OA
ATOM     21  H   UNL     1      67.528   9.299  88.718  1.00  0.00     0.293 HD
ENDBRANCH  17  20
ENDBRANCH   1  12
BRANCH   2  22
ATOM     22  O   UNL     1      65.736  13.787  87.795  1.00  0.00    -0.502 OA
ATOM     23  H   UNL     1      64.828  13.502  88.142  1.00  0.00     0.293 HD
ENDBRANCH   2  22
BRANCH   6  24
ATOM     24  O   UNL     1      67.562  18.757  87.224  1.00  0.00    -0.507 OA
ATOM     25  H   UNL     1      67.088  18.307  86.456  1.00  0.00     0.293 HD
ENDBRANCH   6  24
BRANCH   8  26
ATOM     26  O   UNL     1      70.617  18.962  90.924  1.00  0.00    -0.508 OA
ATOM     27  H   UNL     1      70.914  19.888  90.643  1.00  0.00     0.293 HD
ENDBRANCH   8  26
TORSDOF 6
ENDMDL
MODEL 2
REMARK VINA RESULT:    57.274      7.450     10.262
REMARK INTER + INTRA:          68.822
REMARK INTER:                  68.497
REMARK INTRA:                   0.325
REMARK UNBOUND:                -0.170
REMARK SMILES O=c1c(O)c(-c2ccc(O)c(O)c2)oc2cc(O)cc(O)c12
REMARK SMILES IDX 5 1 3 2 2 3 1 4 22 5 20 6 19 7 17 8 16 9 15 10 14 11 6 12
REMARK SMILES IDX 7 13 8 14 9 15 13 16 11 17 10 18 12 20 4 22 21 24 18 26
REMARK H PARENT 10 19 12 21 4 23 21 25 18 27
REMARK Flexibility Score: inf
ROOT
ATOM      1  C   UNL     1      66.980  13.275  82.445  1.00  0.00     0.180 A 
ATOM      2  C   UNL     1      65.620  13.383  82.778  1.00  0.00     0.208 A 
ATOM      3  C   UNL     1      64.811  12.237  82.718  1.00  0.00     0.238 A 
ATOM      4  O   UNL     1      63.606  12.329  83.070  1.00  0.00    -0.285 OA
ATOM      5  C   UNL     1      65.368  11.002  82.310  1.00  0.00     0.111 A 
ATOM      6  C   UNL     1      64.633   9.786  82.175  1.00  0.00     0.134 A 
ATOM      7  C   UNL     1      65.313   8.596  81.890  1.00  0.00     0.093 A 
ATOM      8  C   UNL     1      66.693   8.589  81.671  1.00  0.00     0.123 A 
ATOM      9  C   UNL     1      67.410   9.781  81.743  1.00  0.00     0.094 A 
ATOM     10  C   UNL     1      66.765  10.978  82.061  1.00  0.00     0.146 A 
ATOM     11  O   UNL     1      67.488  12.090  82.129  1.00  0.00    -0.452 OA
ENDROOT
BRANCH   1  12
ATOM     12  C   UNL     1      67.891  14.443  82.460  1.00  0.00     0.025 A 
ATOM     13  C   UNL     1      69.277  14.238  82.543  1.00  0.00     0.016 A 
ATOM     14  C   UNL     1      70.155  15.324  82.538  1.00  0.00     0.051 A 
ATOM     15  C   UNL     1      69.662  16.632  82.435  1.00  0.00     0.157 A 
ATOM     16  C   UNL     1      67.400  15.755  82.337  1.00  0.00     0.062 A 
ATOM     17  C   UNL     1      68.278  16.846  82.329  1.00  0.00     0.158 A 
BRANCH  15  18
ATOM     18  O   UNL     1      70.541  17.714  82.432  1.00  0.00    -0.504 OA
ATOM     19  H   UNL     1      71.542  17.584  82.347  1.00  0.00     0.293 HD
ENDBRANCH  15  18
BRANCH  17  20
ATOM     20  O   UNL     1      67.756  18.135  82.210  1.00  0.00    -0.504 OA
ATOM     21  H   UNL     1      66.805  18.356  82.477  1.00  0.00     0.293 HD
ENDBRANCH  17  20
ENDBRANCH   1  12
BRANCH   2  22
ATOM     22  O   UNL     1      65.095  14.608  83.201  1.00  0.00    -0.502 OA
ATOM     23  H   UNL     1      64.741  14.754  84.139  1.00  0.00     0.293 HD
ENDBRANCH   2  22
BRANCH   6  24
ATOM     24  O   UNL     1      63.242   9.700  82.281  1.00  0.00    -0.507 OA
ATOM     25  H   UNL     1      62.618   9.484  81.519  1.00  0.00     0.293 HD
ENDBRANCH   6  24
BRANCH   8  26
ATOM     26  O   UNL     1      67.359   7.402  81.373  1.00  0.00    -0.508 OA
ATOM     27  H   UNL     1      67.016   6.506  81.697  1.00  0.00     0.293 HD
ENDBRANCH   8  26
TORSDOF 6
ENDMDL
MODEL 3
REMARK VINA RESULT:    57.411      7.907     11.226
REMARK INTER + INTRA:          68.988
REMARK INTER:                  69.199
REMARK INTRA:                  -0.211
REMARK UNBOUND:                -0.170
REMARK SMILES O=c1c(O)c(-c2ccc(O)c(O)c2)oc2cc(O)cc(O)c12
REMARK SMILES IDX 5 1 3 2 2 3 1 4 22 5 20 6 19 7 17 8 16 9 15 10 14 11 6 12
REMARK SMILES IDX 7 13 8 14 9 15 13 16 11 17 10 18 12 20 4 22 21 24 18 26
REMARK H PARENT 10 19 12 21 4 23 21 25 18 27
REMARK Flexibility Score: inf
ROOT
ATOM      1  C   UNL     1      65.824  11.505  81.893  1.00  0.00     0.180 A 
ATOM      2  C   UNL     1      66.676  10.469  81.477  1.00  0.00     0.208 A 
ATOM      3  C   UNL     1      66.128   9.206  81.198  1.00  0.00     0.238 A 
ATOM      4  O   UNL     1      66.888   8.298  80.773  1.00  0.00    -0.285 OA
ATOM      5  C   UNL     1      64.737   8.992  81.355  1.00  0.00     0.111 A 
ATOM      6  C   UNL     1      64.080   7.744  81.138  1.00  0.00     0.134 A 
ATOM      7  C   UNL     1      62.683   7.680  81.196  1.00  0.00     0.093 A 
ATOM      8  C   UNL     1      61.923   8.805  81.527  1.00  0.00     0.123 A 
ATOM      9  C   UNL     1      62.560  10.014  81.797  1.00  0.00     0.094 A 
ATOM     10  C   UNL     1      63.950  10.117  81.712  1.00  0.00     0.146 A 
ATOM     11  O   UNL     1      64.516  11.292  81.968  1.00  0.00    -0.452 OA
ENDROOT
BRANCH   1  12
ATOM     12  C   UNL     1      66.331  12.855  82.230  1.00  0.00     0.025 A 
ATOM     13  C   UNL     1      67.120  13.030  83.378  1.00  0.00     0.016 A 
ATOM     14  C   UNL     1      67.627  14.291  83.703  1.00  0.00     0.051 A 
ATOM     15  C   UNL     1      67.365  15.393  82.878  1.00  0.00     0.157 A 
ATOM     16  C   UNL     1      66.087  13.959  81.393  1.00  0.00     0.062 A 
ATOM     17  C   UNL     1      66.595  15.223  81.715  1.00  0.00     0.158 A 
BRANCH  15  18
ATOM     18  O   UNL     1      67.870  16.650  83.206  1.00  0.00    -0.504 OA
ATOM     19  H   UNL     1      68.714  16.755  83.757  1.00  0.00     0.293 HD
ENDBRANCH  15  18
BRANCH  17  20
ATOM     20  O   UNL     1      66.328  16.297  80.865  1.00  0.00    -0.504 OA
ATOM     21  H   UNL     1      67.057  16.921  80.542  1.00  0.00     0.293 HD
ENDBRANCH  17  20
ENDBRANCH   1  12
BRANCH   2  22
ATOM     22  O   UNL     1      68.043  10.708  81.307  1.00  0.00    -0.502 OA
ATOM     23  H   UNL     1      68.412  11.211  80.509  1.00  0.00     0.293 HD
ENDBRANCH   2  22
BRANCH   6  24
ATOM     24  O   UNL     1      64.751   6.542  80.894  1.00  0.00    -0.507 OA
ATOM     25  H   UNL     1      65.680   6.325  81.221  1.00  0.00     0.293 HD
ENDBRANCH   6  24
BRANCH   8  26
ATOM     26  O   UNL     1      60.534   8.728  81.598  1.00  0.00    -0.508 OA
ATOM     27  H   UNL     1      60.066   8.321  82.399  1.00  0.00     0.293 HD
ENDBRANCH   8  26
TORSDOF 6
ENDMDL
