MODEL 1
REMARK VINA RESULT:    -5.916      0.000      0.000
REMARK INTER + INTRA:          -7.677
REMARK INTER:                  -7.300
REMARK INTRA:                  -0.377
REMARK UNBOUND:                -0.377
REMARK SMILES Oc1cc(O)c2cc(O)c(-c3cc(O)c(O)c(O)c3)[o+]c2c1
REMARK SMILES IDX 10 1 20 2 21 3 22 4 2 5 3 6 4 7 6 8 7 9 8 10 11 11 12 12
REMARK SMILES IDX 13 13 19 14 15 15 17 16 14 17 16 19 18 21 9 23 1 25 5 27
REMARK H PARENT 14 18 16 20 18 22 9 24 1 26 5 28
REMARK Flexibility Score: inf
ROOT
ATOM      1  C   UNL     1     -41.026  74.764  30.342  1.00  0.00     0.402 A 
ATOM      2  O   UNL     1     -41.313  73.755  31.161  1.00  0.00    -0.202 OA
ATOM      3  C   UNL     1     -41.107  73.800  32.473  1.00  0.00     0.368 A 
ATOM      4  C   UNL     1     -41.444  72.691  33.252  1.00  0.00     0.162 A 
ATOM      5  C   UNL     1     -41.241  72.710  34.633  1.00  0.00     0.128 A 
ATOM      6  C   UNL     1     -40.698  73.848  35.241  1.00  0.00     0.093 A 
ATOM      7  C   UNL     1     -40.353  74.973  34.482  1.00  0.00     0.136 A 
ATOM      8  C   UNL     1     -40.554  74.956  33.077  1.00  0.00     0.125 A 
ATOM      9  C   UNL     1     -40.226  76.031  32.237  1.00  0.00     0.078 A 
ATOM     10  C   UNL     1     -40.450  75.938  30.860  1.00  0.00     0.223 A 
ENDROOT
BRANCH   1  11
ATOM     11  C   UNL     1     -41.311  74.597  28.898  1.00  0.00     0.091 A 
ATOM     12  C   UNL     1     -40.333  74.120  28.010  1.00  0.00     0.068 A 
ATOM     13  C   UNL     1     -40.614  73.990  26.643  1.00  0.00     0.162 A 
ATOM     14  C   UNL     1     -42.565  74.977  28.394  1.00  0.00     0.068 A 
ATOM     15  C   UNL     1     -41.880  74.351  26.150  1.00  0.00     0.200 A 
ATOM     16  C   UNL     1     -42.854  74.849  27.032  1.00  0.00     0.162 A 
BRANCH  13  17
ATOM     17  O   UNL     1     -39.638  73.509  25.771  1.00  0.00    -0.504 OA
ATOM     18  H   UNL     1     -39.730  73.602  24.766  1.00  0.00     0.293 HD
ENDBRANCH  13  17
BRANCH  15  19
ATOM     19  O   UNL     1     -42.178  74.225  24.793  1.00  0.00    -0.502 OA
ATOM     20  H   UNL     1     -41.591  73.699  24.157  1.00  0.00     0.293 HD
ENDBRANCH  15  19
BRANCH  16  21
ATOM     21  O   UNL     1     -44.117  75.225  26.573  1.00  0.00    -0.504 OA
ATOM     22  H   UNL     1     -44.243  75.938  25.865  1.00  0.00     0.293 HD
ENDBRANCH  16  21
ENDBRANCH   1  11
BRANCH  10  23
ATOM     23  O   UNL     1     -40.077  76.987  30.018  1.00  0.00    -0.500 OA
ATOM     24  H   UNL     1     -40.662  77.283  29.245  1.00  0.00     0.294 HD
ENDBRANCH  10  23
BRANCH   5  25
ATOM     25  O   UNL     1     -41.583  71.594  35.393  1.00  0.00    -0.507 OA
ATOM     26  H   UNL     1     -42.400  71.035  35.176  1.00  0.00     0.293 HD
ENDBRANCH   5  25
BRANCH   7  27
ATOM     27  O   UNL     1     -39.819  76.070  35.164  1.00  0.00    -0.507 OA
ATOM     28  H   UNL     1     -40.371  76.793  35.603  1.00  0.00     0.293 HD
ENDBRANCH   7  27
TORSDOF 7
ENDMDL
MODEL 2
REMARK VINA RESULT:    -5.895      0.127      1.799
REMARK INTER + INTRA:          -7.651
REMARK INTER:                  -7.284
REMARK INTRA:                  -0.367
REMARK UNBOUND:                -0.377
REMARK SMILES Oc1cc(O)c2cc(O)c(-c3cc(O)c(O)c(O)c3)[o+]c2c1
REMARK SMILES IDX 10 1 20 2 21 3 22 4 2 5 3 6 4 7 6 8 7 9 8 10 11 11 12 12
REMARK SMILES IDX 13 13 19 14 15 15 17 16 14 17 16 19 18 21 9 23 1 25 5 27
REMARK H PARENT 14 18 16 20 18 22 9 24 1 26 5 28
REMARK Flexibility Score: inf
ROOT
ATOM      1  C   UNL     1     -40.956  74.786  30.354  1.00  0.00     0.402 A 
ATOM      2  O   UNL     1     -41.308  73.783  31.155  1.00  0.00    -0.202 OA
ATOM      3  C   UNL     1     -41.079  73.782  32.464  1.00  0.00     0.368 A 
ATOM      4  C   UNL     1     -41.489  72.684  33.224  1.00  0.00     0.162 A 
ATOM      5  C   UNL     1     -41.265  72.656  34.601  1.00  0.00     0.128 A 
ATOM      6  C   UNL     1     -40.628  73.735  35.226  1.00  0.00     0.093 A 
ATOM      7  C   UNL     1     -40.209  74.848  34.486  1.00  0.00     0.136 A 
ATOM      8  C   UNL     1     -40.431  74.878  33.084  1.00  0.00     0.125 A 
ATOM      9  C   UNL     1     -40.034  75.944  32.263  1.00  0.00     0.078 A 
ATOM     10  C   UNL     1     -40.284  75.901  30.887  1.00  0.00     0.223 A 
ENDROOT
BRANCH   1  11
ATOM     11  C   UNL     1     -41.274  74.674  28.911  1.00  0.00     0.091 A 
ATOM     12  C   UNL     1     -42.544  75.010  28.414  1.00  0.00     0.068 A 
ATOM     13  C   UNL     1     -42.833  74.876  27.049  1.00  0.00     0.162 A 
ATOM     14  C   UNL     1     -40.308  74.166  28.029  1.00  0.00     0.068 A 
ATOM     15  C   UNL     1     -41.852  74.390  26.168  1.00  0.00     0.200 A 
ATOM     16  C   UNL     1     -40.587  74.031  26.666  1.00  0.00     0.162 A 
BRANCH  13  17
ATOM     17  O   UNL     1     -44.095  75.220  26.565  1.00  0.00    -0.504 OA
ATOM     18  H   UNL     1     -44.943  74.949  27.050  1.00  0.00     0.293 HD
ENDBRANCH  13  17
BRANCH  15  19
ATOM     19  O   UNL     1     -42.121  74.253  24.807  1.00  0.00    -0.502 OA
ATOM     20  H   UNL     1     -41.403  74.362  24.100  1.00  0.00     0.293 HD
ENDBRANCH  15  19
BRANCH  16  21
ATOM     21  O   UNL     1     -39.594  73.536  25.820  1.00  0.00    -0.504 OA
ATOM     22  H   UNL     1     -39.795  72.866  25.088  1.00  0.00     0.293 HD
ENDBRANCH  16  21
ENDBRANCH   1  11
BRANCH  10  23
ATOM     23  O   UNL     1     -39.845  76.937  30.063  1.00  0.00    -0.500 OA
ATOM     24  H   UNL     1     -40.479  77.434  29.448  1.00  0.00     0.294 HD
ENDBRANCH  10  23
BRANCH   5  25
ATOM     25  O   UNL     1     -41.680  71.552  35.342  1.00  0.00    -0.507 OA
ATOM     26  H   UNL     1     -42.417  70.940  35.013  1.00  0.00     0.293 HD
ENDBRANCH   5  25
BRANCH   7  27
ATOM     27  O   UNL     1     -39.583  75.885  35.183  1.00  0.00    -0.507 OA
ATOM     28  H   UNL     1     -38.745  76.356  34.874  1.00  0.00     0.293 HD
ENDBRANCH   7  27
TORSDOF 7
ENDMDL
MODEL 3
REMARK VINA RESULT:    -5.176      1.910      6.919
REMARK INTER + INTRA:          -6.764
REMARK INTER:                  -6.454
REMARK INTRA:                  -0.310
REMARK UNBOUND:                -0.377
REMARK SMILES Oc1cc(O)c2cc(O)c(-c3cc(O)c(O)c(O)c3)[o+]c2c1
REMARK SMILES IDX 10 1 20 2 21 3 22 4 2 5 3 6 4 7 6 8 7 9 8 10 11 11 12 12
REMARK SMILES IDX 13 13 19 14 15 15 17 16 14 17 16 19 18 21 9 23 1 25 5 27
REMARK H PARENT 14 18 16 20 18 22 9 24 1 26 5 28
REMARK Flexibility Score: inf
ROOT
ATOM      1  C   UNL     1     -40.840  74.166  30.762  1.00  0.00     0.402 A 
ATOM      2  O   UNL     1     -41.138  73.710  29.549  1.00  0.00    -0.202 OA
ATOM      3  C   UNL     1     -41.426  74.503  28.522  1.00  0.00     0.368 A 
ATOM      4  C   UNL     1     -41.723  73.929  27.283  1.00  0.00     0.162 A 
ATOM      5  C   UNL     1     -42.026  74.737  26.186  1.00  0.00     0.128 A 
ATOM      6  C   UNL     1     -42.031  76.130  26.327  1.00  0.00     0.093 A 
ATOM      7  C   UNL     1     -41.736  76.729  27.558  1.00  0.00     0.136 A 
ATOM      8  C   UNL     1     -41.431  75.911  28.677  1.00  0.00     0.125 A 
ATOM      9  C   UNL     1     -41.136  76.422  29.950  1.00  0.00     0.078 A 
ATOM     10  C   UNL     1     -40.849  75.552  31.007  1.00  0.00     0.223 A 
ENDROOT
BRANCH   1  11
ATOM     11  C   UNL     1     -40.528  73.182  31.824  1.00  0.00     0.091 A 
ATOM     12  C   UNL     1     -41.444  72.898  32.851  1.00  0.00     0.068 A 
ATOM     13  C   UNL     1     -41.121  71.980  33.860  1.00  0.00     0.162 A 
ATOM     14  C   UNL     1     -39.269  72.561  31.840  1.00  0.00     0.068 A 
ATOM     15  C   UNL     1     -39.867  71.345  33.856  1.00  0.00     0.200 A 
ATOM     16  C   UNL     1     -38.939  71.643  32.842  1.00  0.00     0.162 A 
BRANCH  13  17
ATOM     17  O   UNL     1     -42.040  71.701  34.871  1.00  0.00    -0.504 OA
ATOM     18  H   UNL     1     -42.713  72.391  35.183  1.00  0.00     0.293 HD
ENDBRANCH  13  17
BRANCH  15  19
ATOM     19  O   UNL     1     -39.530  70.426  34.850  1.00  0.00    -0.502 OA
ATOM     20  H   UNL     1     -39.471  69.431  34.668  1.00  0.00     0.293 HD
ENDBRANCH  15  19
BRANCH  16  21
ATOM     21  O   UNL     1     -37.683  71.036  32.814  1.00  0.00    -0.504 OA
ATOM     22  H   UNL     1     -37.229  70.776  31.947  1.00  0.00     0.293 HD
ENDBRANCH  16  21
ENDBRANCH   1  11
BRANCH  10  23
ATOM     23  O   UNL     1     -40.606  76.058  32.284  1.00  0.00    -0.500 OA
ATOM     24  H   UNL     1     -40.611  75.461  33.103  1.00  0.00     0.294 HD
ENDBRANCH  10  23
BRANCH   5  25
ATOM     25  O   UNL     1     -42.320  74.147  24.959  1.00  0.00    -0.507 OA
ATOM     26  H   UNL     1     -41.592  73.766  24.367  1.00  0.00     0.293 HD
ENDBRANCH   5  25
BRANCH   7  27
ATOM     27  O   UNL     1     -41.759  78.125  27.616  1.00  0.00    -0.507 OA
ATOM     28  H   UNL     1     -42.523  78.697  27.287  1.00  0.00     0.293 HD
ENDBRANCH   7  27
TORSDOF 7
ENDMDL
MODEL 4
REMARK VINA RESULT:    -5.140      2.103      3.226
REMARK INTER + INTRA:          -6.719
REMARK INTER:                  -6.340
REMARK INTRA:                  -0.380
REMARK UNBOUND:                -0.377
REMARK SMILES Oc1cc(O)c2cc(O)c(-c3cc(O)c(O)c(O)c3)[o+]c2c1
REMARK SMILES IDX 10 1 20 2 21 3 22 4 2 5 3 6 4 7 6 8 7 9 8 10 11 11 12 12
REMARK SMILES IDX 13 13 19 14 15 15 17 16 14 17 16 19 18 21 9 23 1 25 5 27
REMARK H PARENT 14 18 16 20 18 22 9 24 1 26 5 28
REMARK Flexibility Score: inf
ROOT
ATOM      1  C   UNL     1     -40.418  73.623  30.476  1.00  0.00     0.402 A 
ATOM      2  O   UNL     1     -40.991  73.512  31.672  1.00  0.00    -0.202 OA
ATOM      3  C   UNL     1     -40.555  72.683  32.615  1.00  0.00     0.368 A 
ATOM      4  C   UNL     1     -41.221  72.640  33.842  1.00  0.00     0.162 A 
ATOM      5  C   UNL     1     -40.784  71.782  34.852  1.00  0.00     0.128 A 
ATOM      6  C   UNL     1     -39.671  70.960  34.636  1.00  0.00     0.093 A 
ATOM      7  C   UNL     1     -38.986  70.986  33.414  1.00  0.00     0.136 A 
ATOM      8  C   UNL     1     -39.430  71.855  32.383  1.00  0.00     0.125 A 
ATOM      9  C   UNL     1     -38.814  71.938  31.125  1.00  0.00     0.078 A 
ATOM     10  C   UNL     1     -39.311  72.816  30.157  1.00  0.00     0.223 A 
ENDROOT
BRANCH   1  11
ATOM     11  C   UNL     1     -40.992  74.590  29.512  1.00  0.00     0.091 A 
ATOM     12  C   UNL     1     -41.989  74.209  28.599  1.00  0.00     0.068 A 
ATOM     13  C   UNL     1     -42.503  75.133  27.679  1.00  0.00     0.162 A 
ATOM     14  C   UNL     1     -40.489  75.900  29.468  1.00  0.00     0.068 A 
ATOM     15  C   UNL     1     -42.011  76.450  27.657  1.00  0.00     0.200 A 
ATOM     16  C   UNL     1     -40.997  76.829  28.554  1.00  0.00     0.162 A 
BRANCH  13  17
ATOM     17  O   UNL     1     -43.498  74.746  26.781  1.00  0.00    -0.504 OA
ATOM     18  H   UNL     1     -43.324  74.056  26.060  1.00  0.00     0.293 HD
ENDBRANCH  13  17
BRANCH  15  19
ATOM     19  O   UNL     1     -42.513  77.383  26.750  1.00  0.00    -0.502 OA
ATOM     20  H   UNL     1     -43.446  77.310  26.360  1.00  0.00     0.293 HD
ENDBRANCH  15  19
BRANCH  16  21
ATOM     21  O   UNL     1     -40.481  78.125  28.552  1.00  0.00    -0.504 OA
ATOM     22  H   UNL     1     -41.062  78.936  28.378  1.00  0.00     0.293 HD
ENDBRANCH  16  21
ENDBRANCH   1  11
BRANCH  10  23
ATOM     23  O   UNL     1     -38.730  72.862  28.890  1.00  0.00    -0.500 OA
ATOM     24  H   UNL     1     -39.228  72.549  28.064  1.00  0.00     0.294 HD
ENDBRANCH  10  23
BRANCH   5  25
ATOM     25  O   UNL     1     -41.461  71.752  36.069  1.00  0.00    -0.507 OA
ATOM     26  H   UNL     1     -41.999  70.943  36.356  1.00  0.00     0.293 HD
ENDBRANCH   5  25
BRANCH   7  27
ATOM     27  O   UNL     1     -37.884  70.139  33.278  1.00  0.00    -0.507 OA
ATOM     28  H   UNL     1     -37.647  69.641  32.431  1.00  0.00     0.293 HD
ENDBRANCH   7  27
TORSDOF 7
ENDMDL
MODEL 5
REMARK VINA RESULT:    -5.073      5.388     10.102
REMARK INTER + INTRA:          -6.636
REMARK INTER:                  -6.441
REMARK INTRA:                  -0.195
REMARK UNBOUND:                -0.377
REMARK SMILES Oc1cc(O)c2cc(O)c(-c3cc(O)c(O)c(O)c3)[o+]c2c1
REMARK SMILES IDX 10 1 20 2 21 3 22 4 2 5 3 6 4 7 6 8 7 9 8 10 11 11 12 12
REMARK SMILES IDX 13 13 19 14 15 15 17 16 14 17 16 19 18 21 9 23 1 25 5 27
REMARK H PARENT 14 18 16 20 18 22 9 24 1 26 5 28
REMARK Flexibility Score: inf
ROOT
ATOM      1  C   UNL     1     -37.973  69.723  35.609  1.00  0.00     0.402 A 
ATOM      2  O   UNL     1     -39.039  70.504  35.768  1.00  0.00    -0.202 OA
ATOM      3  C   UNL     1     -39.543  71.256  34.795  1.00  0.00     0.368 A 
ATOM      4  C   UNL     1     -40.668  72.041  35.057  1.00  0.00     0.162 A 
ATOM      5  C   UNL     1     -41.221  72.839  34.055  1.00  0.00     0.128 A 
ATOM      6  C   UNL     1     -40.645  72.853  32.779  1.00  0.00     0.093 A 
ATOM      7  C   UNL     1     -39.517  72.074  32.491  1.00  0.00     0.136 A 
ATOM      8  C   UNL     1     -38.950  71.264  33.509  1.00  0.00     0.125 A 
ATOM      9  C   UNL     1     -37.814  70.463  33.315  1.00  0.00     0.078 A 
ATOM     10  C   UNL     1     -37.310  69.694  34.369  1.00  0.00     0.223 A 
ENDROOT
BRANCH   1  11
ATOM     11  C   UNL     1     -37.512  68.923  36.767  1.00  0.00     0.091 A 
ATOM     12  C   UNL     1     -37.425  67.523  36.701  1.00  0.00     0.068 A 
ATOM     13  C   UNL     1     -37.008  66.781  37.815  1.00  0.00     0.162 A 
ATOM     14  C   UNL     1     -37.211  69.570  37.976  1.00  0.00     0.068 A 
ATOM     15  C   UNL     1     -36.685  67.438  39.015  1.00  0.00     0.200 A 
ATOM     16  C   UNL     1     -36.793  68.838  39.092  1.00  0.00     0.162 A 
BRANCH  13  17
ATOM     17  O   UNL     1     -36.919  65.392  37.736  1.00  0.00    -0.504 OA
ATOM     18  H   UNL     1     -36.052  64.903  37.928  1.00  0.00     0.293 HD
ENDBRANCH  13  17
BRANCH  15  19
ATOM     19  O   UNL     1     -36.266  66.717  40.132  1.00  0.00    -0.502 OA
ATOM     20  H   UNL     1     -36.920  66.327  40.801  1.00  0.00     0.293 HD
ENDBRANCH  15  19
BRANCH  16  21
ATOM     21  O   UNL     1     -36.488  69.520  40.271  1.00  0.00    -0.504 OA
ATOM     22  H   UNL     1     -36.857  69.233  41.169  1.00  0.00     0.293 HD
ENDBRANCH  16  21
ENDBRANCH   1  11
BRANCH  10  23
ATOM     23  O   UNL     1     -36.152  68.937  34.191  1.00  0.00    -0.500 OA
ATOM     24  H   UNL     1     -36.188  67.970  33.890  1.00  0.00     0.294 HD
ENDBRANCH  10  23
BRANCH   5  25
ATOM     25  O   UNL     1     -42.343  73.615  34.335  1.00  0.00    -0.507 OA
ATOM     26  H   UNL     1     -42.961  73.394  35.107  1.00  0.00     0.293 HD
ENDBRANCH   5  25
BRANCH   7  27
ATOM     27  O   UNL     1     -39.004  72.141  31.193  1.00  0.00    -0.507 OA
ATOM     28  H   UNL     1     -38.048  72.375  30.968  1.00  0.00     0.293 HD
ENDBRANCH   7  27
TORSDOF 7
ENDMDL
MODEL 6
REMARK VINA RESULT:    -5.066      6.203     10.754
REMARK INTER + INTRA:          -6.628
REMARK INTER:                  -6.529
REMARK INTRA:                  -0.099
REMARK UNBOUND:                -0.377
REMARK SMILES Oc1cc(O)c2cc(O)c(-c3cc(O)c(O)c(O)c3)[o+]c2c1
REMARK SMILES IDX 10 1 20 2 21 3 22 4 2 5 3 6 4 7 6 8 7 9 8 10 11 11 12 12
REMARK SMILES IDX 13 13 19 14 15 15 17 16 14 17 16 19 18 21 9 23 1 25 5 27
REMARK H PARENT 14 18 16 20 18 22 9 24 1 26 5 28
REMARK Flexibility Score: inf
ROOT
ATOM      1  C   UNL     1     -37.602  69.164  35.502  1.00  0.00     0.402 A 
ATOM      2  O   UNL     1     -36.891  68.918  34.405  1.00  0.00    -0.202 OA
ATOM      3  C   UNL     1     -37.124  69.508  33.237  1.00  0.00     0.368 A 
ATOM      4  C   UNL     1     -36.320  69.188  32.141  1.00  0.00     0.162 A 
ATOM      5  C   UNL     1     -36.540  69.793  30.903  1.00  0.00     0.128 A 
ATOM      6  C   UNL     1     -37.572  70.728  30.759  1.00  0.00     0.093 A 
ATOM      7  C   UNL     1     -38.391  71.067  31.843  1.00  0.00     0.136 A 
ATOM      8  C   UNL     1     -38.173  70.451  33.103  1.00  0.00     0.125 A 
ATOM      9  C   UNL     1     -38.951  70.719  34.239  1.00  0.00     0.078 A 
ATOM     10  C   UNL     1     -38.678  70.069  35.447  1.00  0.00     0.223 A 
ENDROOT
BRANCH   1  11
ATOM     11  C   UNL     1     -37.238  68.450  36.748  1.00  0.00     0.091 A 
ATOM     12  C   UNL     1     -37.180  67.047  36.796  1.00  0.00     0.068 A 
ATOM     13  C   UNL     1     -36.856  66.388  37.990  1.00  0.00     0.162 A 
ATOM     14  C   UNL     1     -37.003  69.184  37.921  1.00  0.00     0.068 A 
ATOM     15  C   UNL     1     -36.598  67.132  39.155  1.00  0.00     0.200 A 
ATOM     16  C   UNL     1     -36.678  68.535  39.116  1.00  0.00     0.162 A 
BRANCH  13  17
ATOM     17  O   UNL     1     -36.794  64.995  38.025  1.00  0.00    -0.504 OA
ATOM     18  H   UNL     1     -37.626  64.429  38.143  1.00  0.00     0.293 HD
ENDBRANCH  13  17
BRANCH  15  19
ATOM     19  O   UNL     1     -36.271  66.493  40.351  1.00  0.00    -0.502 OA
ATOM     20  H   UNL     1     -36.337  65.488  40.462  1.00  0.00     0.293 HD
ENDBRANCH  15  19
BRANCH  16  21
ATOM     21  O   UNL     1     -36.437  69.302  40.256  1.00  0.00    -0.504 OA
ATOM     22  H   UNL     1     -35.565  69.247  40.769  1.00  0.00     0.293 HD
ENDBRANCH  16  21
ENDBRANCH   1  11
BRANCH  10  23
ATOM     23  O   UNL     1     -39.483  70.297  36.562  1.00  0.00    -0.500 OA
ATOM     24  H   UNL     1     -40.097  69.581  36.932  1.00  0.00     0.294 HD
ENDBRANCH  10  23
BRANCH   5  25
ATOM     25  O   UNL     1     -35.728  69.460  29.822  1.00  0.00    -0.507 OA
ATOM     26  H   UNL     1     -36.011  69.652  28.868  1.00  0.00     0.293 HD
ENDBRANCH   5  25
BRANCH   7  27
ATOM     27  O   UNL     1     -39.397  72.012  31.619  1.00  0.00    -0.507 OA
ATOM     28  H   UNL     1     -40.370  71.875  31.850  1.00  0.00     0.293 HD
ENDBRANCH   7  27
TORSDOF 7
ENDMDL
MODEL 7
REMARK VINA RESULT:    -4.977      6.334     10.875
REMARK INTER + INTRA:          -6.518
REMARK INTER:                  -6.351
REMARK INTRA:                  -0.167
REMARK UNBOUND:                -0.377
REMARK SMILES Oc1cc(O)c2cc(O)c(-c3cc(O)c(O)c(O)c3)[o+]c2c1
REMARK SMILES IDX 10 1 20 2 21 3 22 4 2 5 3 6 4 7 6 8 7 9 8 10 11 11 12 12
REMARK SMILES IDX 13 13 19 14 15 15 17 16 14 17 16 19 18 21 9 23 1 25 5 27
REMARK H PARENT 14 18 16 20 18 22 9 24 1 26 5 28
REMARK Flexibility Score: inf
ROOT
ATOM      1  C   UNL     1     -37.509  69.102  35.438  1.00  0.00     0.402 A 
ATOM      2  O   UNL     1     -36.738  68.815  34.391  1.00  0.00    -0.202 OA
ATOM      3  C   UNL     1     -36.910  69.357  33.190  1.00  0.00     0.368 A 
ATOM      4  C   UNL     1     -36.047  68.997  32.153  1.00  0.00     0.162 A 
ATOM      5  C   UNL     1     -36.201  69.551  30.881  1.00  0.00     0.128 A 
ATOM      6  C   UNL     1     -37.225  70.475  30.644  1.00  0.00     0.093 A 
ATOM      7  C   UNL     1     -38.103  70.854  31.668  1.00  0.00     0.136 A 
ATOM      8  C   UNL     1     -37.951  70.290  32.961  1.00  0.00     0.125 A 
ATOM      9  C   UNL     1     -38.791  70.600  34.042  1.00  0.00     0.078 A 
ATOM     10  C   UNL     1     -38.582  69.999  35.287  1.00  0.00     0.223 A 
ENDROOT
BRANCH   1  11
ATOM     11  C   UNL     1     -37.211  68.440  36.729  1.00  0.00     0.091 A 
ATOM     12  C   UNL     1     -36.970  69.185  37.895  1.00  0.00     0.068 A 
ATOM     13  C   UNL     1     -36.668  68.540  39.102  1.00  0.00     0.162 A 
ATOM     14  C   UNL     1     -37.110  67.041  36.779  1.00  0.00     0.068 A 
ATOM     15  C   UNL     1     -36.592  67.138  39.149  1.00  0.00     0.200 A 
ATOM     16  C   UNL     1     -36.810  66.389  37.979  1.00  0.00     0.162 A 
BRANCH  13  17
ATOM     17  O   UNL     1     -36.437  69.290  40.256  1.00  0.00    -0.504 OA
ATOM     18  H   UNL     1     -35.540  69.726  40.436  1.00  0.00     0.293 HD
ENDBRANCH  13  17
BRANCH  15  19
ATOM     19  O   UNL     1     -36.295  66.480  40.343  1.00  0.00    -0.502 OA
ATOM     20  H   UNL     1     -36.739  65.607  40.603  1.00  0.00     0.293 HD
ENDBRANCH  15  19
BRANCH  16  21
ATOM     21  O   UNL     1     -36.732  64.996  37.991  1.00  0.00    -0.504 OA
ATOM     22  H   UNL     1     -37.312  64.420  37.393  1.00  0.00     0.293 HD
ENDBRANCH  16  21
ENDBRANCH   1  11
BRANCH  10  23
ATOM     23  O   UNL     1     -39.447  70.268  36.348  1.00  0.00    -0.500 OA
ATOM     24  H   UNL     1     -39.125  70.716  37.198  1.00  0.00     0.294 HD
ENDBRANCH  10  23
BRANCH   5  25
ATOM     25  O   UNL     1     -35.330  69.178  29.860  1.00  0.00    -0.507 OA
ATOM     26  H   UNL     1     -34.876  69.868  29.273  1.00  0.00     0.293 HD
ENDBRANCH   5  25
BRANCH   7  27
ATOM     27  O   UNL     1     -39.097  71.784  31.351  1.00  0.00    -0.507 OA
ATOM     28  H   UNL     1     -39.622  72.312  32.033  1.00  0.00     0.293 HD
ENDBRANCH   7  27
TORSDOF 7
ENDMDL
MODEL 8
REMARK VINA RESULT:    -4.954      2.574      4.084
REMARK INTER + INTRA:          -6.490
REMARK INTER:                  -6.224
REMARK INTRA:                  -0.266
REMARK UNBOUND:                -0.377
REMARK SMILES Oc1cc(O)c2cc(O)c(-c3cc(O)c(O)c(O)c3)[o+]c2c1
REMARK SMILES IDX 10 1 20 2 21 3 22 4 2 5 3 6 4 7 6 8 7 9 8 10 11 11 12 12
REMARK SMILES IDX 13 13 19 14 15 15 17 16 14 17 16 19 18 21 9 23 1 25 5 27
REMARK H PARENT 14 18 16 20 18 22 9 24 1 26 5 28
REMARK Flexibility Score: inf
ROOT
ATOM      1  C   UNL     1     -40.539  73.184  32.502  1.00  0.00     0.402 A 
ATOM      2  O   UNL     1     -39.604  72.244  32.388  1.00  0.00    -0.202 OA
ATOM      3  C   UNL     1     -39.274  71.420  33.378  1.00  0.00     0.368 A 
ATOM      4  C   UNL     1     -38.281  70.462  33.161  1.00  0.00     0.162 A 
ATOM      5  C   UNL     1     -37.915  69.582  34.181  1.00  0.00     0.128 A 
ATOM      6  C   UNL     1     -38.548  69.659  35.428  1.00  0.00     0.093 A 
ATOM      7  C   UNL     1     -39.547  70.611  35.669  1.00  0.00     0.136 A 
ATOM      8  C   UNL     1     -39.919  71.509  34.636  1.00  0.00     0.125 A 
ATOM      9  C   UNL     1     -40.899  72.502  34.792  1.00  0.00     0.078 A 
ATOM     10  C   UNL     1     -41.209  73.355  33.728  1.00  0.00     0.223 A 
ENDROOT
BRANCH   1  11
ATOM     11  C   UNL     1     -40.825  74.035  31.324  1.00  0.00     0.091 A 
ATOM     12  C   UNL     1     -41.441  73.511  30.175  1.00  0.00     0.068 A 
ATOM     13  C   UNL     1     -41.681  74.327  29.061  1.00  0.00     0.162 A 
ATOM     14  C   UNL     1     -40.419  75.378  31.329  1.00  0.00     0.068 A 
ATOM     15  C   UNL     1     -41.294  75.677  29.083  1.00  0.00     0.200 A 
ATOM     16  C   UNL     1     -40.657  76.200  30.223  1.00  0.00     0.162 A 
BRANCH  13  17
ATOM     17  O   UNL     1     -42.300  73.798  27.929  1.00  0.00    -0.504 OA
ATOM     18  H   UNL     1     -41.780  73.276  27.233  1.00  0.00     0.293 HD
ENDBRANCH  13  17
BRANCH  15  19
ATOM     19  O   UNL     1     -41.529  76.504  27.985  1.00  0.00    -0.502 OA
ATOM     20  H   UNL     1     -40.782  77.000  27.512  1.00  0.00     0.293 HD
ENDBRANCH  15  19
BRANCH  16  21
ATOM     21  O   UNL     1     -40.252  77.534  30.273  1.00  0.00    -0.504 OA
ATOM     22  H   UNL     1     -39.513  77.850  30.889  1.00  0.00     0.293 HD
ENDBRANCH  16  21
ENDBRANCH   1  11
BRANCH  10  23
ATOM     23  O   UNL     1     -42.146  74.374  33.898  1.00  0.00    -0.500 OA
ATOM     24  H   UNL     1     -41.872  75.348  33.942  1.00  0.00     0.294 HD
ENDBRANCH  10  23
BRANCH   5  25
ATOM     25  O   UNL     1     -36.922  68.634  33.946  1.00  0.00    -0.507 OA
ATOM     26  H   UNL     1     -36.045  68.884  33.505  1.00  0.00     0.293 HD
ENDBRANCH   5  25
BRANCH   7  27
ATOM     27  O   UNL     1     -40.132  70.621  36.938  1.00  0.00    -0.507 OA
ATOM     28  H   UNL     1     -40.525  71.439  37.379  1.00  0.00     0.293 HD
ENDBRANCH   7  27
TORSDOF 7
ENDMDL
