MODEL 1
REMARK VINA RESULT:    -5.160      0.000      0.000
REMARK INTER + INTRA:          -6.382
REMARK INTER:                  -6.065
REMARK INTRA:                  -0.318
REMARK UNBOUND:                -0.318
REMARK SMILES O=c1cc(-c2ccc(O)c(O)c2)oc2cc(O)cc(O)c12
REMARK SMILES IDX 4 1 3 2 2 3 1 4 21 5 19 6 18 7 16 8 15 9 14 10 13 11 5 12
REMARK SMILES IDX 6 13 7 14 8 15 12 16 10 17 9 18 11 20 20 22 17 24
REMARK H PARENT 9 19 11 21 20 23 17 25
REMARK Flexibility Score: inf
ROOT
ATOM      1  C   UNL     1      35.596  12.610  -1.093  1.00  0.00     0.138 A 
ATOM      2  C   UNL     1      36.760  11.827  -1.162  1.00  0.00     0.100 A 
ATOM      3  C   UNL     1      36.666  10.443  -1.012  1.00  0.00     0.197 A 
ATOM      4  O   UNL     1      37.717   9.749  -1.075  1.00  0.00    -0.289 OA
ATOM      5  C   UNL     1      35.407   9.850  -0.790  1.00  0.00     0.107 A 
ATOM      6  C   UNL     1      35.224   8.456  -0.629  1.00  0.00     0.134 A 
ATOM      7  C   UNL     1      33.938   7.945  -0.405  1.00  0.00     0.093 A 
ATOM      8  C   UNL     1      32.834   8.799  -0.340  1.00  0.00     0.123 A 
ATOM      9  C   UNL     1      33.008  10.178  -0.499  1.00  0.00     0.094 A 
ATOM     10  C   UNL     1      34.283  10.706  -0.723  1.00  0.00     0.146 A 
ATOM     11  O   UNL     1      34.423  12.020  -0.873  1.00  0.00    -0.456 OA
ENDROOT
BRANCH   1  12
ATOM     12  C   UNL     1      35.634  14.087  -1.245  1.00  0.00     0.021 A 
ATOM     13  C   UNL     1      36.875  14.741  -1.325  1.00  0.00     0.016 A 
ATOM     14  C   UNL     1      36.937  16.131  -1.459  1.00  0.00     0.051 A 
ATOM     15  C   UNL     1      35.762  16.890  -1.508  1.00  0.00     0.157 A 
ATOM     16  C   UNL     1      34.455  14.858  -1.280  1.00  0.00     0.062 A 
ATOM     17  C   UNL     1      34.516  16.250  -1.414  1.00  0.00     0.158 A 
BRANCH  15  18
ATOM     18  O   UNL     1      35.829  18.276  -1.645  1.00  0.00    -0.504 OA
ATOM     19  H   UNL     1      36.533  18.824  -1.166  1.00  0.00     0.293 HD
ENDBRANCH  15  18
BRANCH  17  20
ATOM     20  O   UNL     1      33.328  16.979  -1.447  1.00  0.00    -0.504 OA
ATOM     21  H   UNL     1      32.530  16.684  -1.999  1.00  0.00     0.293 HD
ENDBRANCH  17  20
ENDBRANCH   1  12
BRANCH   6  22
ATOM     22  O   UNL     1      36.308   7.579  -0.688  1.00  0.00    -0.507 OA
ATOM     23  H   UNL     1      37.106   7.757  -1.286  1.00  0.00     0.293 HD
ENDBRANCH   6  22
BRANCH   8  24
ATOM     24  O   UNL     1      31.566   8.266  -0.117  1.00  0.00    -0.508 OA
ATOM     25  H   UNL     1      31.371   7.283  -0.269  1.00  0.00     0.293 HD
ENDBRANCH   8  24
TORSDOF 5
ENDMDL
MODEL 2
REMARK VINA RESULT:    -5.096      1.627      2.442
REMARK INTER + INTRA:          -6.308
REMARK INTER:                  -6.028
REMARK INTRA:                  -0.280
REMARK UNBOUND:                -0.318
REMARK SMILES O=c1cc(-c2ccc(O)c(O)c2)oc2cc(O)cc(O)c12
REMARK SMILES IDX 4 1 3 2 2 3 1 4 21 5 19 6 18 7 16 8 15 9 14 10 13 11 5 12
REMARK SMILES IDX 6 13 7 14 8 15 12 16 10 17 9 18 11 20 20 22 17 24
REMARK H PARENT 9 19 11 21 20 23 17 25
REMARK Flexibility Score: inf
ROOT
ATOM      1  C   UNL     1      34.205  12.428  -1.635  1.00  0.00     0.138 A 
ATOM      2  C   UNL     1      33.427  11.960  -2.706  1.00  0.00     0.100 A 
ATOM      3  C   UNL     1      33.016  10.627  -2.724  1.00  0.00     0.197 A 
ATOM      4  O   UNL     1      32.318  10.215  -3.691  1.00  0.00    -0.289 OA
ATOM      5  C   UNL     1      33.389   9.768  -1.670  1.00  0.00     0.107 A 
ATOM      6  C   UNL     1      33.013   8.406  -1.611  1.00  0.00     0.134 A 
ATOM      7  C   UNL     1      33.430   7.616  -0.529  1.00  0.00     0.093 A 
ATOM      8  C   UNL     1      34.214   8.162   0.490  1.00  0.00     0.123 A 
ATOM      9  C   UNL     1      34.588   9.509   0.437  1.00  0.00     0.094 A 
ATOM     10  C   UNL     1      34.182  10.312  -0.632  1.00  0.00     0.146 A 
ATOM     11  O   UNL     1      34.549  11.589  -0.660  1.00  0.00    -0.456 OA
ENDROOT
BRANCH   1  12
ATOM     12  C   UNL     1      34.673  13.836  -1.562  1.00  0.00     0.021 A 
ATOM     13  C   UNL     1      35.987  14.107  -1.144  1.00  0.00     0.016 A 
ATOM     14  C   UNL     1      36.449  15.423  -1.060  1.00  0.00     0.051 A 
ATOM     15  C   UNL     1      35.603  16.491  -1.384  1.00  0.00     0.157 A 
ATOM     16  C   UNL     1      33.823  14.916  -1.873  1.00  0.00     0.062 A 
ATOM     17  C   UNL     1      34.283  16.235  -1.789  1.00  0.00     0.158 A 
BRANCH  15  18
ATOM     18  O   UNL     1      36.068  17.802  -1.301  1.00  0.00    -0.504 OA
ATOM     19  H   UNL     1      35.433  18.592  -1.291  1.00  0.00     0.293 HD
ENDBRANCH  15  18
BRANCH  17  20
ATOM     20  O   UNL     1      33.413  17.277  -2.106  1.00  0.00    -0.504 OA
ATOM     21  H   UNL     1      32.827  17.721  -1.408  1.00  0.00     0.293 HD
ENDBRANCH  17  20
ENDBRANCH   1  12
BRANCH   6  22
ATOM     22  O   UNL     1      32.231   7.832  -2.615  1.00  0.00    -0.507 OA
ATOM     23  H   UNL     1      32.491   6.961  -3.061  1.00  0.00     0.293 HD
ENDBRANCH   6  22
BRANCH   8  24
ATOM     24  O   UNL     1      34.615   7.356   1.554  1.00  0.00    -0.508 OA
ATOM     25  H   UNL     1      34.971   6.419   1.403  1.00  0.00     0.293 HD
ENDBRANCH   8  24
TORSDOF 5
ENDMDL
MODEL 3
REMARK VINA RESULT:    -5.073      5.653      7.880
REMARK INTER + INTRA:          -6.280
REMARK INTER:                  -6.004
REMARK INTRA:                  -0.276
REMARK UNBOUND:                -0.318
REMARK SMILES O=c1cc(-c2ccc(O)c(O)c2)oc2cc(O)cc(O)c12
REMARK SMILES IDX 4 1 3 2 2 3 1 4 21 5 19 6 18 7 16 8 15 9 14 10 13 11 5 12
REMARK SMILES IDX 6 13 7 14 8 15 12 16 10 17 9 18 11 20 20 22 17 24
REMARK H PARENT 9 19 11 21 20 23 17 25
REMARK Flexibility Score: inf
ROOT
ATOM      1  C   UNL     1      35.387   6.392   3.058  1.00  0.00     0.138 A 
ATOM      2  C   UNL     1      36.010   5.175   2.733  1.00  0.00     0.100 A 
ATOM      3  C   UNL     1      35.950   4.112   3.634  1.00  0.00     0.197 A 
ATOM      4  O   UNL     1      36.513   3.024   3.334  1.00  0.00    -0.289 OA
ATOM      5  C   UNL     1      35.270   4.273   4.858  1.00  0.00     0.107 A 
ATOM      6  C   UNL     1      35.161   3.246   5.825  1.00  0.00     0.134 A 
ATOM      7  C   UNL     1      34.471   3.488   7.022  1.00  0.00     0.093 A 
ATOM      8  C   UNL     1      33.889   4.735   7.268  1.00  0.00     0.123 A 
ATOM      9  C   UNL     1      33.993   5.754   6.316  1.00  0.00     0.094 A 
ATOM     10  C   UNL     1      34.677   5.531   5.117  1.00  0.00     0.146 A 
ATOM     11  O   UNL     1      34.760   6.514   4.226  1.00  0.00    -0.456 OA
ENDROOT
BRANCH   1  12
ATOM     12  C   UNL     1      35.418   7.558   2.139  1.00  0.00     0.021 A 
ATOM     13  C   UNL     1      36.651   8.146   1.810  1.00  0.00     0.016 A 
ATOM     14  C   UNL     1      36.706   9.249   0.954  1.00  0.00     0.051 A 
ATOM     15  C   UNL     1      35.530   9.789   0.420  1.00  0.00     0.157 A 
ATOM     16  C   UNL     1      34.237   8.115   1.609  1.00  0.00     0.062 A 
ATOM     17  C   UNL     1      34.290   9.221   0.752  1.00  0.00     0.158 A 
BRANCH  15  18
ATOM     18  O   UNL     1      35.590  10.888  -0.435  1.00  0.00    -0.504 OA
ATOM     19  H   UNL     1      36.089  10.850  -1.316  1.00  0.00     0.293 HD
ENDBRANCH  15  18
BRANCH  17  20
ATOM     20  O   UNL     1      33.100   9.743   0.247  1.00  0.00    -0.504 OA
ATOM     21  H   UNL     1      32.193   9.395   0.536  1.00  0.00     0.293 HD
ENDBRANCH  17  20
ENDBRANCH   1  12
BRANCH   6  22
ATOM     22  O   UNL     1      35.732   1.991   5.607  1.00  0.00    -0.507 OA
ATOM     23  H   UNL     1      36.682   1.889   5.271  1.00  0.00     0.293 HD
ENDBRANCH   6  22
BRANCH   8  24
ATOM     24  O   UNL     1      33.209   4.949   8.465  1.00  0.00    -0.508 OA
ATOM     25  H   UNL     1      32.426   5.591   8.522  1.00  0.00     0.293 HD
ENDBRANCH   8  24
TORSDOF 5
ENDMDL
MODEL 4
REMARK VINA RESULT:    -4.961      2.024      7.282
REMARK INTER + INTRA:          -6.149
REMARK INTER:                  -5.849
REMARK INTRA:                  -0.300
REMARK UNBOUND:                -0.318
REMARK SMILES O=c1cc(-c2ccc(O)c(O)c2)oc2cc(O)cc(O)c12
REMARK SMILES IDX 4 1 3 2 2 3 1 4 21 5 19 6 18 7 16 8 15 9 14 10 13 11 5 12
REMARK SMILES IDX 6 13 7 14 8 15 12 16 10 17 9 18 11 20 20 22 17 24
REMARK H PARENT 9 19 11 21 20 23 17 25
REMARK Flexibility Score: inf
ROOT
ATOM      1  C   UNL     1      33.878  11.988  -2.006  1.00  0.00     0.138 A 
ATOM      2  C   UNL     1      33.184  12.495  -3.117  1.00  0.00     0.100 A 
ATOM      3  C   UNL     1      33.407  13.811  -3.523  1.00  0.00     0.197 A 
ATOM      4  O   UNL     1      32.779  14.258  -4.521  1.00  0.00    -0.289 OA
ATOM      5  C   UNL     1      34.321  14.615  -2.812  1.00  0.00     0.107 A 
ATOM      6  C   UNL     1      34.606  15.957  -3.157  1.00  0.00     0.134 A 
ATOM      7  C   UNL     1      35.525  16.691  -2.394  1.00  0.00     0.093 A 
ATOM      8  C   UNL     1      36.163  16.110  -1.295  1.00  0.00     0.123 A 
ATOM      9  C   UNL     1      35.886  14.784  -0.949  1.00  0.00     0.094 A 
ATOM     10  C   UNL     1      34.973  14.035  -1.697  1.00  0.00     0.146 A 
ATOM     11  O   UNL     1      34.727  12.776  -1.350  1.00  0.00    -0.456 OA
ENDROOT
BRANCH   1  12
ATOM     12  C   UNL     1      33.681  10.596  -1.527  1.00  0.00     0.021 A 
ATOM     13  C   UNL     1      33.473   9.567  -2.460  1.00  0.00     0.016 A 
ATOM     14  C   UNL     1      33.278   8.251  -2.034  1.00  0.00     0.051 A 
ATOM     15  C   UNL     1      33.278   7.942  -0.668  1.00  0.00     0.157 A 
ATOM     16  C   UNL     1      33.666  10.282  -0.153  1.00  0.00     0.062 A 
ATOM     17  C   UNL     1      33.469   8.963   0.276  1.00  0.00     0.158 A 
BRANCH  15  18
ATOM     18  O   UNL     1      33.085   6.627  -0.248  1.00  0.00    -0.504 OA
ATOM     19  H   UNL     1      33.026   5.861  -0.909  1.00  0.00     0.293 HD
ENDBRANCH  15  18
BRANCH  17  20
ATOM     20  O   UNL     1      33.463   8.690   1.643  1.00  0.00    -0.504 OA
ATOM     21  H   UNL     1      33.702   9.392   2.333  1.00  0.00     0.293 HD
ENDBRANCH  17  20
ENDBRANCH   1  12
BRANCH   6  22
ATOM     22  O   UNL     1      33.984  16.564  -4.250  1.00  0.00    -0.507 OA
ATOM     23  H   UNL     1      34.398  17.357  -4.725  1.00  0.00     0.293 HD
ENDBRANCH   6  22
BRANCH   8  24
ATOM     24  O   UNL     1      37.072  16.862  -0.554  1.00  0.00    -0.508 OA
ATOM     25  H   UNL     1      36.767  17.615   0.052  1.00  0.00     0.293 HD
ENDBRANCH   8  24
TORSDOF 5
ENDMDL
MODEL 5
REMARK VINA RESULT:    -4.811      2.395      7.335
REMARK INTER + INTRA:          -5.972
REMARK INTER:                  -5.683
REMARK INTRA:                  -0.289
REMARK UNBOUND:                -0.318
REMARK SMILES O=c1cc(-c2ccc(O)c(O)c2)oc2cc(O)cc(O)c12
REMARK SMILES IDX 4 1 3 2 2 3 1 4 21 5 19 6 18 7 16 8 15 9 14 10 13 11 5 12
REMARK SMILES IDX 6 13 7 14 8 15 12 16 10 17 9 18 11 20 20 22 17 24
REMARK H PARENT 9 19 11 21 20 23 17 25
REMARK Flexibility Score: inf
ROOT
ATOM      1  C   UNL     1      36.290  14.550  -1.708  1.00  0.00     0.138 A 
ATOM      2  C   UNL     1      37.535  14.367  -2.331  1.00  0.00     0.100 A 
ATOM      3  C   UNL     1      38.409  15.448  -2.449  1.00  0.00     0.197 A 
ATOM      4  O   UNL     1      39.525  15.274  -3.011  1.00  0.00    -0.289 OA
ATOM      5  C   UNL     1      38.031  16.708  -1.945  1.00  0.00     0.107 A 
ATOM      6  C   UNL     1      38.857  17.854  -2.021  1.00  0.00     0.134 A 
ATOM      7  C   UNL     1      38.403  19.075  -1.500  1.00  0.00     0.093 A 
ATOM      8  C   UNL     1      37.143  19.170  -0.905  1.00  0.00     0.123 A 
ATOM      9  C   UNL     1      36.321  18.040  -0.826  1.00  0.00     0.094 A 
ATOM     10  C   UNL     1      36.756  16.815  -1.339  1.00  0.00     0.146 A 
ATOM     11  O   UNL     1      35.958  15.756  -1.251  1.00  0.00    -0.456 OA
ENDROOT
BRANCH   1  12
ATOM     12  C   UNL     1      35.318  13.437  -1.555  1.00  0.00     0.021 A 
ATOM     13  C   UNL     1      35.758  12.199  -1.056  1.00  0.00     0.016 A 
ATOM     14  C   UNL     1      34.865  11.135  -0.911  1.00  0.00     0.051 A 
ATOM     15  C   UNL     1      33.519  11.286  -1.269  1.00  0.00     0.157 A 
ATOM     16  C   UNL     1      33.966  13.579  -1.927  1.00  0.00     0.062 A 
ATOM     17  C   UNL     1      33.070  12.513  -1.782  1.00  0.00     0.158 A 
BRANCH  15  18
ATOM     18  O   UNL     1      32.632  10.222  -1.119  1.00  0.00    -0.504 OA
ATOM     19  H   UNL     1      32.481   9.547  -1.861  1.00  0.00     0.293 HD
ENDBRANCH  15  18
BRANCH  17  20
ATOM     20  O   UNL     1      31.740  12.691  -2.159  1.00  0.00    -0.504 OA
ATOM     21  H   UNL     1      31.287  12.088  -2.836  1.00  0.00     0.293 HD
ENDBRANCH  17  20
ENDBRANCH   1  12
BRANCH   6  22
ATOM     22  O   UNL     1      40.121  17.789  -2.610  1.00  0.00    -0.507 OA
ATOM     23  H   UNL     1      40.240  17.588  -3.595  1.00  0.00     0.293 HD
ENDBRANCH   6  22
BRANCH   8  24
ATOM     24  O   UNL     1      36.716  20.394  -0.395  1.00  0.00    -0.508 OA
ATOM     25  H   UNL     1      36.019  20.953  -0.873  1.00  0.00     0.293 HD
ENDBRANCH   8  24
TORSDOF 5
ENDMDL
MODEL 6
REMARK VINA RESULT:    -4.754      1.362      2.782
REMARK INTER + INTRA:          -5.905
REMARK INTER:                  -5.627
REMARK INTRA:                  -0.278
REMARK UNBOUND:                -0.318
REMARK SMILES O=c1cc(-c2ccc(O)c(O)c2)oc2cc(O)cc(O)c12
REMARK SMILES IDX 4 1 3 2 2 3 1 4 21 5 19 6 18 7 16 8 15 9 14 10 13 11 5 12
REMARK SMILES IDX 6 13 7 14 8 15 12 16 10 17 9 18 11 20 20 22 17 24
REMARK H PARENT 9 19 11 21 20 23 17 25
REMARK Flexibility Score: inf
ROOT
ATOM      1  C   UNL     1      35.306  12.591  -1.041  1.00  0.00     0.138 A 
ATOM      2  C   UNL     1      33.924  12.524  -1.280  1.00  0.00     0.100 A 
ATOM      3  C   UNL     1      33.233  11.349  -0.984  1.00  0.00     0.197 A 
ATOM      4  O   UNL     1      31.992  11.298  -1.203  1.00  0.00    -0.289 OA
ATOM      5  C   UNL     1      33.930  10.244  -0.455  1.00  0.00     0.107 A 
ATOM      6  C   UNL     1      33.307   9.018  -0.128  1.00  0.00     0.134 A 
ATOM      7  C   UNL     1      34.074   7.964   0.390  1.00  0.00     0.093 A 
ATOM      8  C   UNL     1      35.449   8.114   0.586  1.00  0.00     0.123 A 
ATOM      9  C   UNL     1      36.072   9.324   0.264  1.00  0.00     0.094 A 
ATOM     10  C   UNL     1      35.324  10.386  -0.253  1.00  0.00     0.146 A 
ATOM     11  O   UNL     1      35.938  11.527  -0.549  1.00  0.00    -0.456 OA
ENDROOT
BRANCH   1  12
ATOM     12  C   UNL     1      36.094  13.815  -1.336  1.00  0.00     0.021 A 
ATOM     13  C   UNL     1      37.335  13.698  -1.985  1.00  0.00     0.016 A 
ATOM     14  C   UNL     1      38.099  14.834  -2.267  1.00  0.00     0.051 A 
ATOM     15  C   UNL     1      37.640  16.104  -1.898  1.00  0.00     0.157 A 
ATOM     16  C   UNL     1      35.645  15.095  -0.955  1.00  0.00     0.062 A 
ATOM     17  C   UNL     1      36.409  16.234  -1.235  1.00  0.00     0.158 A 
BRANCH  15  18
ATOM     18  O   UNL     1      38.404  17.235  -2.183  1.00  0.00    -0.504 OA
ATOM     19  H   UNL     1      39.164  17.207  -2.853  1.00  0.00     0.293 HD
ENDBRANCH  15  18
BRANCH  17  20
ATOM     20  O   UNL     1      35.930  17.483  -0.844  1.00  0.00    -0.504 OA
ATOM     21  H   UNL     1      34.941  17.703  -0.837  1.00  0.00     0.293 HD
ENDBRANCH  17  20
ENDBRANCH   1  12
BRANCH   6  22
ATOM     22  O   UNL     1      31.935   8.839  -0.312  1.00  0.00    -0.507 OA
ATOM     23  H   UNL     1      31.563   8.027  -0.791  1.00  0.00     0.293 HD
ENDBRANCH   6  22
BRANCH   8  24
ATOM     24  O   UNL     1      36.188   7.051   1.101  1.00  0.00    -0.508 OA
ATOM     25  H   UNL     1      35.946   6.618   1.985  1.00  0.00     0.293 HD
ENDBRANCH   8  24
TORSDOF 5
ENDMDL
MODEL 7
REMARK VINA RESULT:    -4.688      3.590      8.091
REMARK INTER + INTRA:          -5.828
REMARK INTER:                  -5.561
REMARK INTRA:                  -0.267
REMARK UNBOUND:                -0.318
REMARK SMILES O=c1cc(-c2ccc(O)c(O)c2)oc2cc(O)cc(O)c12
REMARK SMILES IDX 4 1 3 2 2 3 1 4 21 5 19 6 18 7 16 8 15 9 14 10 13 11 5 12
REMARK SMILES IDX 6 13 7 14 8 15 12 16 10 17 9 18 11 20 20 22 17 24
REMARK H PARENT 9 19 11 21 20 23 17 25
REMARK Flexibility Score: inf
ROOT
ATOM      1  C   UNL     1      35.374   7.971   1.711  1.00  0.00     0.138 A 
ATOM      2  C   UNL     1      36.569   8.699   1.597  1.00  0.00     0.100 A 
ATOM      3  C   UNL     1      36.610   9.827   0.776  1.00  0.00     0.197 A 
ATOM      4  O   UNL     1      37.689  10.474   0.680  1.00  0.00    -0.289 OA
ATOM      5  C   UNL     1      35.455  10.217   0.070  1.00  0.00     0.107 A 
ATOM      6  C   UNL     1      35.411  11.347  -0.780  1.00  0.00     0.134 A 
ATOM      7  C   UNL     1      34.222  11.665  -1.453  1.00  0.00     0.093 A 
ATOM      8  C   UNL     1      33.080  10.877  -1.290  1.00  0.00     0.123 A 
ATOM      9  C   UNL     1      33.117   9.759  -0.450  1.00  0.00     0.094 A 
ATOM     10  C   UNL     1      34.292   9.426   0.229  1.00  0.00     0.146 A 
ATOM     11  O   UNL     1      34.302   8.361   1.023  1.00  0.00    -0.456 OA
ENDROOT
BRANCH   1  12
ATOM     12  C   UNL     1      35.270   6.762   2.568  1.00  0.00     0.021 A 
ATOM     13  C   UNL     1      35.053   6.910   3.948  1.00  0.00     0.016 A 
ATOM     14  C   UNL     1      34.960   5.789   4.776  1.00  0.00     0.051 A 
ATOM     15  C   UNL     1      35.091   4.501   4.241  1.00  0.00     0.157 A 
ATOM     16  C   UNL     1      35.415   5.465   2.037  1.00  0.00     0.062 A 
ATOM     17  C   UNL     1      35.322   4.340   2.866  1.00  0.00     0.158 A 
BRANCH  15  18
ATOM     18  O   UNL     1      34.994   3.385   5.071  1.00  0.00    -0.504 OA
ATOM     19  H   UNL     1      34.586   3.445   5.996  1.00  0.00     0.293 HD
ENDBRANCH  15  18
BRANCH  17  20
ATOM     20  O   UNL     1      35.469   3.072   2.305  1.00  0.00    -0.504 OA
ATOM     21  H   UNL     1      35.051   2.248   2.721  1.00  0.00     0.293 HD
ENDBRANCH  17  20
ENDBRANCH   1  12
BRANCH   6  22
ATOM     22  O   UNL     1      36.536  12.152  -0.963  1.00  0.00    -0.507 OA
ATOM     23  H   UNL     1      36.631  12.762  -1.766  1.00  0.00     0.293 HD
ENDBRANCH   6  22
BRANCH   8  24
ATOM     24  O   UNL     1      31.911  11.216  -1.969  1.00  0.00    -0.508 OA
ATOM     25  H   UNL     1      31.368  10.520  -2.469  1.00  0.00     0.293 HD
ENDBRANCH   8  24
TORSDOF 5
ENDMDL
MODEL 8
REMARK VINA RESULT:    -4.600      2.325      7.714
REMARK INTER + INTRA:          -5.724
REMARK INTER:                  -5.455
REMARK INTRA:                  -0.270
REMARK UNBOUND:                -0.318
REMARK SMILES O=c1cc(-c2ccc(O)c(O)c2)oc2cc(O)cc(O)c12
REMARK SMILES IDX 4 1 3 2 2 3 1 4 21 5 19 6 18 7 16 8 15 9 14 10 13 11 5 12
REMARK SMILES IDX 6 13 7 14 8 15 12 16 10 17 9 18 11 20 20 22 17 24
REMARK H PARENT 9 19 11 21 20 23 17 25
REMARK Flexibility Score: inf
ROOT
ATOM      1  C   UNL     1      34.527   9.308  -0.333  1.00  0.00     0.138 A 
ATOM      2  C   UNL     1      33.279   9.882  -0.625  1.00  0.00     0.100 A 
ATOM      3  C   UNL     1      33.216  11.209  -1.050  1.00  0.00     0.197 A 
ATOM      4  O   UNL     1      32.090  11.715  -1.309  1.00  0.00    -0.289 OA
ATOM      5  C   UNL     1      34.403  11.957  -1.177  1.00  0.00     0.107 A 
ATOM      6  C   UNL     1      34.428  13.306  -1.602  1.00  0.00     0.134 A 
ATOM      7  C   UNL     1      35.653  13.983  -1.697  1.00  0.00     0.093 A 
ATOM      8  C   UNL     1      36.850  13.338  -1.375  1.00  0.00     0.123 A 
ATOM      9  C   UNL     1      36.832  12.004  -0.954  1.00  0.00     0.094 A 
ATOM     10  C   UNL     1      35.621  11.312  -0.853  1.00  0.00     0.146 A 
ATOM     11  O   UNL     1      35.630  10.045  -0.453  1.00  0.00    -0.456 OA
ENDROOT
BRANCH   1  12
ATOM     12  C   UNL     1      34.656   7.901   0.125  1.00  0.00     0.021 A 
ATOM     13  C   UNL     1      35.289   7.628   1.350  1.00  0.00     0.016 A 
ATOM     14  C   UNL     1      35.429   6.312   1.798  1.00  0.00     0.051 A 
ATOM     15  C   UNL     1      34.948   5.246   1.027  1.00  0.00     0.157 A 
ATOM     16  C   UNL     1      34.187   6.824  -0.653  1.00  0.00     0.062 A 
ATOM     17  C   UNL     1      34.328   5.505  -0.206  1.00  0.00     0.158 A 
BRANCH  15  18
ATOM     18  O   UNL     1      35.088   3.936   1.480  1.00  0.00    -0.504 OA
ATOM     19  H   UNL     1      34.307   3.290   1.488  1.00  0.00     0.293 HD
ENDBRANCH  15  18
BRANCH  17  20
ATOM     20  O   UNL     1      33.849   4.466  -1.002  1.00  0.00    -0.504 OA
ATOM     21  H   UNL     1      33.105   4.603  -1.676  1.00  0.00     0.293 HD
ENDBRANCH  17  20
ENDBRANCH   1  12
BRANCH   6  22
ATOM     22  O   UNL     1      33.249  13.977  -1.930  1.00  0.00    -0.507 OA
ATOM     23  H   UNL     1      33.136  14.453  -2.817  1.00  0.00     0.293 HD
ENDBRANCH   6  22
BRANCH   8  24
ATOM     24  O   UNL     1      38.053  14.033  -1.478  1.00  0.00    -0.508 OA
ATOM     25  H   UNL     1      38.479  14.476  -0.672  1.00  0.00     0.293 HD
ENDBRANCH   8  24
TORSDOF 5
ENDMDL
MODEL 9
REMARK VINA RESULT:    -4.592      5.011      8.743
REMARK INTER + INTRA:          -5.715
REMARK INTER:                  -5.435
REMARK INTRA:                  -0.280
REMARK UNBOUND:                -0.318
REMARK SMILES O=c1cc(-c2ccc(O)c(O)c2)oc2cc(O)cc(O)c12
REMARK SMILES IDX 4 1 3 2 2 3 1 4 21 5 19 6 18 7 16 8 15 9 14 10 13 11 5 12
REMARK SMILES IDX 6 13 7 14 8 15 12 16 10 17 9 18 11 20 20 22 17 24
REMARK H PARENT 9 19 11 21 20 23 17 25
REMARK Flexibility Score: inf
ROOT
ATOM      1  C   UNL     1      35.175   7.742   3.661  1.00  0.00     0.138 A 
ATOM      2  C   UNL     1      36.379   8.459   3.565  1.00  0.00     0.100 A 
ATOM      3  C   UNL     1      36.604   9.277   2.457  1.00  0.00     0.197 A 
ATOM      4  O   UNL     1      37.688   9.917   2.380  1.00  0.00    -0.289 OA
ATOM      5  C   UNL     1      35.624   9.369   1.448  1.00  0.00     0.107 A 
ATOM      6  C   UNL     1      35.772  10.175   0.295  1.00  0.00     0.134 A 
ATOM      7  C   UNL     1      34.752  10.208  -0.666  1.00  0.00     0.093 A 
ATOM      8  C   UNL     1      33.589   9.452  -0.496  1.00  0.00     0.123 A 
ATOM      9  C   UNL     1      33.436   8.654   0.643  1.00  0.00     0.094 A 
ATOM     10  C   UNL     1      34.442   8.608   1.612  1.00  0.00     0.146 A 
ATOM     11  O   UNL     1      34.274   7.844   2.686  1.00  0.00    -0.456 OA
ENDROOT
BRANCH   1  12
ATOM     12  C   UNL     1      34.880   6.856   4.815  1.00  0.00     0.021 A 
ATOM     13  C   UNL     1      34.887   7.389   6.115  1.00  0.00     0.016 A 
ATOM     14  C   UNL     1      34.620   6.574   7.219  1.00  0.00     0.051 A 
ATOM     15  C   UNL     1      34.351   5.211   7.042  1.00  0.00     0.157 A 
ATOM     16  C   UNL     1      34.622   5.481   4.646  1.00  0.00     0.062 A 
ATOM     17  C   UNL     1      34.356   4.662   5.750  1.00  0.00     0.158 A 
BRANCH  15  18
ATOM     18  O   UNL     1      34.083   4.402   8.146  1.00  0.00    -0.504 OA
ATOM     19  H   UNL     1      33.795   3.436   8.039  1.00  0.00     0.293 HD
ENDBRANCH  15  18
BRANCH  17  20
ATOM     20  O   UNL     1      34.104   3.307   5.542  1.00  0.00    -0.504 OA
ATOM     21  H   UNL     1      33.163   2.942   5.450  1.00  0.00     0.293 HD
ENDBRANCH  17  20
ENDBRANCH   1  12
BRANCH   6  22
ATOM     22  O   UNL     1      36.923  10.941   0.097  1.00  0.00    -0.507 OA
ATOM     23  H   UNL     1      37.284  11.556   0.817  1.00  0.00     0.293 HD
ENDBRANCH   6  22
BRANCH   8  24
ATOM     24  O   UNL     1      32.590   9.503  -1.466  1.00  0.00    -0.508 OA
ATOM     25  H   UNL     1      32.578   8.858  -2.248  1.00  0.00     0.293 HD
ENDBRANCH   8  24
TORSDOF 5
ENDMDL
