MODEL 1
REMARK VINA RESULT:    -6.010      0.000      0.000
REMARK INTER + INTRA:         -17.846
REMARK INTER:                 -15.849
REMARK INTRA:                  -1.997
REMARK UNBOUND:                -1.997
REMARK SMILES CCCCCCCCCCCCCCCCCCCCCCCCCCCCCC(=O)[O-]
REMARK SMILES IDX 16 1 17 2 18 3 19 4 20 5 21 6 22 7 23 8 24 9 25 10 26 11
REMARK SMILES IDX 27 12 28 13 29 14 30 15 31 16 32 17 15 18 14 19 13 20 12 21
REMARK SMILES IDX 11 22 10 23 9 24 8 25 7 26 6 27 5 28 4 29 3 30 2 31 1 32
REMARK H PARENT
REMARK Flexibility Score: inf
ROOT
ATOM      1  C   UNL     1      11.678   9.322 -19.511  1.00  0.00     0.000 C 
ENDROOT
BRANCH   1   2
ATOM      2  C   UNL     1      11.895   8.077 -18.625  1.00  0.00     0.000 C 
BRANCH   2   3
ATOM      3  C   UNL     1      13.251   7.400 -18.891  1.00  0.00     0.000 C 
BRANCH   3   4
ATOM      4  C   UNL     1      13.520   7.207 -20.400  1.00  0.00     0.000 C 
BRANCH   4   5
ATOM      5  C   UNL     1      14.944   6.713 -20.709  1.00  0.00     0.000 C 
BRANCH   5   6
ATOM      6  C   UNL     1      15.629   7.533 -21.815  1.00  0.00     0.000 C 
BRANCH   6   7
ATOM      7  C   UNL     1      16.586   8.597 -21.256  1.00  0.00     0.000 C 
BRANCH   7   8
ATOM      8  C   UNL     1      16.684   8.557 -19.721  1.00  0.00     0.000 C 
BRANCH   8   9
ATOM      9  C   UNL     1      18.055   9.026 -19.207  1.00  0.00     0.000 C 
BRANCH   9  10
ATOM     10  C   UNL     1      19.122   9.053 -20.316  1.00  0.00     0.000 C 
BRANCH  10  11
ATOM     11  C   UNL     1      19.718  10.455 -20.524  1.00  0.00     0.000 C 
BRANCH  11  12
ATOM     12  C   UNL     1      19.364  11.046 -21.899  1.00  0.00     0.000 C 
BRANCH  12  13
ATOM     13  C   UNL     1      18.534  12.339 -21.797  1.00  0.00     0.006 C 
BRANCH  13  14
ATOM     14  C   UNL     1      17.640  12.421 -20.549  1.00  0.00     0.053 C 
BRANCH  14  15
ATOM     15  C   UNL     1      18.000  13.579 -19.670  1.00  0.00     0.041 C 
ATOM     16  O   UNL     1      19.208  13.843 -19.429  1.00  0.00    -0.550 OA
ATOM     17  O   UNL     1      16.998  14.333 -19.071  1.00  0.00    -0.550 OA
ENDBRANCH  14  15
ENDBRANCH  13  14
ENDBRANCH  12  13
ENDBRANCH  11  12
ENDBRANCH  10  11
ENDBRANCH   9  10
ENDBRANCH   8   9
ENDBRANCH   7   8
ENDBRANCH   6   7
ENDBRANCH   5   6
ENDBRANCH   4   5
ENDBRANCH   3   4
ENDBRANCH   2   3
ENDBRANCH   1   2
BRANCH   1  18
ATOM     18  C   UNL     1      10.735  10.367 -18.891  1.00  0.00     0.000 C 
BRANCH  18  19
ATOM     19  C   UNL     1      10.586  11.627 -19.762  1.00  0.00     0.000 C 
BRANCH  19  20
ATOM     20  C   UNL     1       9.170  11.775 -20.341  1.00  0.00     0.000 C 
BRANCH  20  21
ATOM     21  C   UNL     1       8.741  13.247 -20.473  1.00  0.00     0.000 C 
BRANCH  21  22
ATOM     22  C   UNL     1       7.428  13.407 -21.257  1.00  0.00     0.000 C 
BRANCH  22  23
ATOM     23  C   UNL     1       6.912  14.858 -21.236  1.00  0.00     0.000 C 
BRANCH  23  24
ATOM     24  C   UNL     1       5.523  15.010 -21.881  1.00  0.00    -0.000 C 
BRANCH  24  25
ATOM     25  C   UNL     1       4.956  13.716 -22.511  1.00  0.00    -0.000 C 
BRANCH  25  26
ATOM     26  C   UNL     1       3.491  13.420 -22.135  1.00  0.00    -0.000 C 
BRANCH  26  27
ATOM     27  C   UNL     1       2.787  14.516 -21.311  1.00  0.00    -0.000 C 
BRANCH  27  28
ATOM     28  C   UNL     1       1.605  14.033 -20.447  1.00  0.00    -0.000 C 
BRANCH  28  29
ATOM     29  C   UNL     1       2.032  13.057 -19.337  1.00  0.00    -0.000 C 
BRANCH  29  30
ATOM     30  C   UNL     1       1.306  13.320 -18.008  1.00  0.00    -0.000 C 
BRANCH  30  31
ATOM     31  C   UNL     1       1.956  12.597 -16.819  1.00  0.00    -0.003 C 
ATOM     32  C   UNL     1       2.602  13.592 -15.858  1.00  0.00     0.004 C 
ENDBRANCH  30  31
ENDBRANCH  29  30
ENDBRANCH  28  29
ENDBRANCH  27  28
ENDBRANCH  26  27
ENDBRANCH  25  26
ENDBRANCH  24  25
ENDBRANCH  23  24
ENDBRANCH  22  23
ENDBRANCH  21  22
ENDBRANCH  20  21
ENDBRANCH  19  20
ENDBRANCH  18  19
ENDBRANCH   1  18
TORSDOF 28
ENDMDL
MODEL 2
REMARK VINA RESULT:    -5.846      4.048     13.319
REMARK INTER + INTRA:         -17.413
REMARK INTER:                 -15.554
REMARK INTRA:                  -1.859
REMARK UNBOUND:                -1.997
REMARK SMILES CCCCCCCCCCCCCCCCCCCCCCCCCCCCCC(=O)[O-]
REMARK SMILES IDX 16 1 17 2 18 3 19 4 20 5 21 6 22 7 23 8 24 9 25 10 26 11
REMARK SMILES IDX 27 12 28 13 29 14 30 15 31 16 32 17 15 18 14 19 13 20 12 21
REMARK SMILES IDX 11 22 10 23 9 24 8 25 7 26 6 27 5 28 4 29 3 30 2 31 1 32
REMARK H PARENT
REMARK Flexibility Score: inf
ROOT
ATOM      1  C   UNL     1       8.753  15.092 -19.199  1.00  0.00     0.000 C 
ENDROOT
BRANCH   1   2
ATOM      2  C   UNL     1       8.871  14.375 -20.561  1.00  0.00     0.000 C 
BRANCH   2   3
ATOM      3  C   UNL     1       7.498  14.090 -21.192  1.00  0.00     0.000 C 
BRANCH   3   4
ATOM      4  C   UNL     1       6.682  15.382 -21.423  1.00  0.00     0.000 C 
BRANCH   4   5
ATOM      5  C   UNL     1       5.172  15.133 -21.576  1.00  0.00     0.000 C 
BRANCH   5   6
ATOM      6  C   UNL     1       4.860  13.846 -22.357  1.00  0.00     0.000 C 
BRANCH   6   7
ATOM      7  C   UNL     1       3.390  13.417 -22.228  1.00  0.00     0.000 C 
BRANCH   7   8
ATOM      8  C   UNL     1       2.627  14.233 -21.169  1.00  0.00     0.000 C 
BRANCH   8   9
ATOM      9  C   UNL     1       2.136  13.363 -20.000  1.00  0.00     0.000 C 
BRANCH   9  10
ATOM     10  C   UNL     1       1.844  14.188 -18.733  1.00  0.00     0.000 C 
BRANCH  10  11
ATOM     11  C   UNL     1       1.231  13.339 -17.608  1.00  0.00     0.000 C 
BRANCH  11  12
ATOM     12  C   UNL     1       1.636  11.858 -17.701  1.00  0.00     0.000 C 
BRANCH  12  13
ATOM     13  C   UNL     1       2.192  11.308 -16.376  1.00  0.00     0.006 C 
BRANCH  13  14
ATOM     14  C   UNL     1       1.697   9.897 -16.019  1.00  0.00     0.053 C 
BRANCH  14  15
ATOM     15  C   UNL     1       2.815   8.903 -15.959  1.00  0.00     0.041 C 
ATOM     16  O   UNL     1       2.602   7.689 -16.222  1.00  0.00    -0.550 OA
ATOM     17  O   UNL     1       4.083   9.308 -15.558  1.00  0.00    -0.550 OA
ENDBRANCH  14  15
ENDBRANCH  13  14
ENDBRANCH  12  13
ENDBRANCH  11  12
ENDBRANCH  10  11
ENDBRANCH   9  10
ENDBRANCH   8   9
ENDBRANCH   7   8
ENDBRANCH   6   7
ENDBRANCH   5   6
ENDBRANCH   4   5
ENDBRANCH   3   4
ENDBRANCH   2   3
ENDBRANCH   1   2
BRANCH   1  18
ATOM     18  C   UNL     1       9.534  14.404 -18.067  1.00  0.00     0.000 C 
BRANCH  18  19
ATOM     19  C   UNL     1      10.004  12.988 -18.440  1.00  0.00     0.000 C 
BRANCH  19  20
ATOM     20  C   UNL     1      10.543  12.210 -17.229  1.00  0.00     0.000 C 
BRANCH  20  21
ATOM     21  C   UNL     1      10.882  10.749 -17.574  1.00  0.00     0.000 C 
BRANCH  21  22
ATOM     22  C   UNL     1      10.747  10.456 -19.077  1.00  0.00     0.000 C 
BRANCH  22  23
ATOM     23  C   UNL     1      11.546   9.209 -19.500  1.00  0.00     0.000 C 
BRANCH  23  24
ATOM     24  C   UNL     1      12.253   8.521 -18.318  1.00  0.00    -0.000 C 
BRANCH  24  25
ATOM     25  C   UNL     1      13.262   7.419 -18.720  1.00  0.00    -0.000 C 
BRANCH  25  26
ATOM     26  C   UNL     1      13.434   7.246 -20.241  1.00  0.00    -0.000 C 
BRANCH  26  27
ATOM     27  C   UNL     1      14.782   6.649 -20.691  1.00  0.00    -0.000 C 
BRANCH  27  28
ATOM     28  C   UNL     1      15.502   7.420 -21.815  1.00  0.00    -0.000 C 
BRANCH  28  29
ATOM     29  C   UNL     1      16.441   8.517 -21.285  1.00  0.00    -0.000 C 
BRANCH  29  30
ATOM     30  C   UNL     1      16.782   8.333 -19.798  1.00  0.00    -0.000 C 
BRANCH  30  31
ATOM     31  C   UNL     1      17.707   9.434 -19.257  1.00  0.00    -0.003 C 
ATOM     32  C   UNL     1      17.827  10.587 -20.251  1.00  0.00     0.004 C 
ENDBRANCH  30  31
ENDBRANCH  29  30
ENDBRANCH  28  29
ENDBRANCH  27  28
ENDBRANCH  26  27
ENDBRANCH  25  26
ENDBRANCH  24  25
ENDBRANCH  23  24
ENDBRANCH  22  23
ENDBRANCH  21  22
ENDBRANCH  20  21
ENDBRANCH  19  20
ENDBRANCH  18  19
ENDBRANCH   1  18
TORSDOF 28
ENDMDL
MODEL 3
REMARK VINA RESULT:    -5.814      0.964      2.149
REMARK INTER + INTRA:         -17.328
REMARK INTER:                 -15.441
REMARK INTRA:                  -1.887
REMARK UNBOUND:                -1.997
REMARK SMILES CCCCCCCCCCCCCCCCCCCCCCCCCCCCCC(=O)[O-]
REMARK SMILES IDX 16 1 17 2 18 3 19 4 20 5 21 6 22 7 23 8 24 9 25 10 26 11
REMARK SMILES IDX 27 12 28 13 29 14 30 15 31 16 32 17 15 18 14 19 13 20 12 21
REMARK SMILES IDX 11 22 10 23 9 24 8 25 7 26 6 27 5 28 4 29 3 30 2 31 1 32
REMARK H PARENT
REMARK Flexibility Score: inf
ROOT
ATOM      1  C   UNL     1      10.709  11.409 -19.518  1.00  0.00     0.000 C 
ENDROOT
BRANCH   1   2
ATOM      2  C   UNL     1      10.764  10.062 -18.767  1.00  0.00     0.000 C 
BRANCH   2   3
ATOM      3  C   UNL     1      11.801   9.098 -19.372  1.00  0.00     0.000 C 
BRANCH   3   4
ATOM      4  C   UNL     1      12.538   8.280 -18.288  1.00  0.00     0.000 C 
BRANCH   4   5
ATOM      5  C   UNL     1      13.351   7.105 -18.856  1.00  0.00     0.000 C 
BRANCH   5   6
ATOM      6  C   UNL     1      13.581   7.221 -20.371  1.00  0.00     0.000 C 
BRANCH   6   7
ATOM      7  C   UNL     1      14.809   6.429 -20.847  1.00  0.00     0.000 C 
BRANCH   7   8
ATOM      8  C   UNL     1      15.636   7.196 -21.895  1.00  0.00     0.000 C 
BRANCH   8   9
ATOM      9  C   UNL     1      15.158   8.647 -22.072  1.00  0.00     0.000 C 
BRANCH   9  10
ATOM     10  C   UNL     1      16.275   9.672 -21.806  1.00  0.00     0.000 C 
BRANCH  10  11
ATOM     11  C   UNL     1      17.308   9.165 -20.788  1.00  0.00     0.000 C 
BRANCH  11  12
ATOM     12  C   UNL     1      18.405  10.203 -20.497  1.00  0.00     0.000 C 
BRANCH  12  13
ATOM     13  C   UNL     1      18.152  11.550 -21.196  1.00  0.00     0.006 C 
BRANCH  13  14
ATOM     14  C   UNL     1      18.860  12.747 -20.540  1.00  0.00     0.053 C 
BRANCH  14  15
ATOM     15  C   UNL     1      17.890  13.742 -19.983  1.00  0.00     0.041 C 
ATOM     16  O   UNL     1      16.672  13.441 -19.856  1.00  0.00    -0.550 OA
ATOM     17  O   UNL     1      18.320  15.022 -19.656  1.00  0.00    -0.550 OA
ENDBRANCH  14  15
ENDBRANCH  13  14
ENDBRANCH  12  13
ENDBRANCH  11  12
ENDBRANCH  10  11
ENDBRANCH   9  10
ENDBRANCH   8   9
ENDBRANCH   7   8
ENDBRANCH   6   7
ENDBRANCH   5   6
ENDBRANCH   4   5
ENDBRANCH   3   4
ENDBRANCH   2   3
ENDBRANCH   1   2
BRANCH   1  18
ATOM     18  C   UNL     1      10.201  12.578 -18.656  1.00  0.00     0.000 C 
BRANCH  18  19
ATOM     19  C   UNL     1       9.234  13.502 -19.415  1.00  0.00     0.000 C 
BRANCH  19  20
ATOM     20  C   UNL     1       8.908  12.980 -20.824  1.00  0.00     0.000 C 
BRANCH  20  21
ATOM     21  C   UNL     1       7.434  13.206 -21.207  1.00  0.00     0.000 C 
BRANCH  21  22
ATOM     22  C   UNL     1       7.058  14.696 -21.231  1.00  0.00     0.000 C 
BRANCH  22  23
ATOM     23  C   UNL     1       5.576  14.915 -21.588  1.00  0.00     0.000 C 
BRANCH  23  24
ATOM     24  C   UNL     1       5.035  13.864 -22.575  1.00  0.00    -0.000 C 
BRANCH  24  25
ATOM     25  C   UNL     1       3.553  13.474 -22.359  1.00  0.00    -0.000 C 
BRANCH  25  26
ATOM     26  C   UNL     1       2.825  14.327 -21.302  1.00  0.00    -0.000 C 
BRANCH  26  27
ATOM     27  C   UNL     1       2.143  13.535 -20.168  1.00  0.00    -0.000 C 
BRANCH  27  28
ATOM     28  C   UNL     1       1.718  14.370 -18.944  1.00  0.00    -0.000 C 
BRANCH  28  29
ATOM     29  C   UNL     1       1.782  13.578 -17.627  1.00  0.00    -0.000 C 
BRANCH  29  30
ATOM     30  C   UNL     1       1.221  12.153 -17.767  1.00  0.00    -0.000 C 
BRANCH  30  31
ATOM     31  C   UNL     1       1.079  11.431 -16.419  1.00  0.00    -0.003 C 
ATOM     32  C   UNL     1       2.246  10.475 -16.184  1.00  0.00     0.004 C 
ENDBRANCH  30  31
ENDBRANCH  29  30
ENDBRANCH  28  29
ENDBRANCH  27  28
ENDBRANCH  26  27
ENDBRANCH  25  26
ENDBRANCH  24  25
ENDBRANCH  23  24
ENDBRANCH  22  23
ENDBRANCH  21  22
ENDBRANCH  20  21
ENDBRANCH  19  20
ENDBRANCH  18  19
ENDBRANCH   1  18
TORSDOF 28
ENDMDL
MODEL 4
REMARK VINA RESULT:    -5.681      4.076     13.386
REMARK INTER + INTRA:         -16.978
REMARK INTER:                 -14.990
REMARK INTRA:                  -1.988
REMARK UNBOUND:                -1.997
REMARK SMILES CCCCCCCCCCCCCCCCCCCCCCCCCCCCCC(=O)[O-]
REMARK SMILES IDX 16 1 17 2 18 3 19 4 20 5 21 6 22 7 23 8 24 9 25 10 26 11
REMARK SMILES IDX 27 12 28 13 29 14 30 15 31 16 32 17 15 18 14 19 13 20 12 21
REMARK SMILES IDX 11 22 10 23 9 24 8 25 7 26 6 27 5 28 4 29 3 30 2 31 1 32
REMARK H PARENT
REMARK Flexibility Score: inf
ROOT
ATOM      1  C   UNL     1      11.632   9.292 -19.365  1.00  0.00     0.000 C 
ENDROOT
BRANCH   1   2
ATOM      2  C   UNL     1      10.728  10.408 -18.800  1.00  0.00     0.000 C 
BRANCH   2   3
ATOM      3  C   UNL     1      10.666  11.635 -19.728  1.00  0.00     0.000 C 
BRANCH   3   4
ATOM      4  C   UNL     1       9.280  11.793 -20.393  1.00  0.00     0.000 C 
BRANCH   4   5
ATOM      5  C   UNL     1       8.819  13.256 -20.507  1.00  0.00     0.000 C 
BRANCH   5   6
ATOM      6  C   UNL     1       7.483  13.400 -21.253  1.00  0.00     0.000 C 
BRANCH   6   7
ATOM      7  C   UNL     1       6.981  14.852 -21.293  1.00  0.00     0.000 C 
BRANCH   7   8
ATOM      8  C   UNL     1       5.492  14.952 -21.671  1.00  0.00     0.000 C 
BRANCH   8   9
ATOM      9  C   UNL     1       5.037  13.792 -22.572  1.00  0.00     0.000 C 
BRANCH   9  10
ATOM     10  C   UNL     1       3.549  13.447 -22.383  1.00  0.00     0.000 C 
BRANCH  10  11
ATOM     11  C   UNL     1       2.899  14.251 -21.246  1.00  0.00     0.000 C 
BRANCH  11  12
ATOM     12  C   UNL     1       1.645  13.564 -20.682  1.00  0.00     0.000 C 
BRANCH  12  13
ATOM     13  C   UNL     1       1.388  13.912 -19.204  1.00  0.00     0.006 C 
BRANCH  13  14
ATOM     14  C   UNL     1       1.928  12.876 -18.206  1.00  0.00     0.053 C 
BRANCH  14  15
ATOM     15  C   UNL     1       2.058  13.436 -16.823  1.00  0.00     0.041 C 
ATOM     16  O   UNL     1       1.919  14.673 -16.623  1.00  0.00    -0.550 OA
ATOM     17  O   UNL     1       2.389  12.600 -15.764  1.00  0.00    -0.550 OA
ENDBRANCH  14  15
ENDBRANCH  13  14
ENDBRANCH  12  13
ENDBRANCH  11  12
ENDBRANCH  10  11
ENDBRANCH   9  10
ENDBRANCH   8   9
ENDBRANCH   7   8
ENDBRANCH   6   7
ENDBRANCH   5   6
ENDBRANCH   4   5
ENDBRANCH   3   4
ENDBRANCH   2   3
ENDBRANCH   1   2
BRANCH   1  18
ATOM     18  C   UNL     1      12.134   8.303 -18.300  1.00  0.00     0.000 C 
BRANCH  18  19
ATOM     19  C   UNL     1      13.259   7.389 -18.817  1.00  0.00     0.000 C 
BRANCH  19  20
ATOM     20  C   UNL     1      13.307   7.331 -20.352  1.00  0.00     0.000 C 
BRANCH  20  21
ATOM     21  C   UNL     1      14.674   6.856 -20.877  1.00  0.00     0.000 C 
BRANCH  21  22
ATOM     22  C   UNL     1      15.344   7.898 -21.789  1.00  0.00     0.000 C 
BRANCH  22  23
ATOM     23  C   UNL     1      16.725   8.329 -21.260  1.00  0.00     0.000 C 
BRANCH  23  24
ATOM     24  C   UNL     1      16.743   8.547 -19.736  1.00  0.00    -0.000 C 
BRANCH  24  25
ATOM     25  C   UNL     1      17.981   9.307 -19.205  1.00  0.00    -0.000 C 
BRANCH  25  26
ATOM     26  C   UNL     1      19.199   9.263 -20.146  1.00  0.00    -0.000 C 
BRANCH  26  27
ATOM     27  C   UNL     1      19.681  10.632 -20.668  1.00  0.00    -0.000 C 
BRANCH  27  28
ATOM     28  C   UNL     1      18.897  11.192 -21.871  1.00  0.00    -0.000 C 
BRANCH  28  29
ATOM     29  C   UNL     1      18.309  12.589 -21.605  1.00  0.00    -0.000 C 
BRANCH  29  30
ATOM     30  C   UNL     1      17.843  12.766 -20.151  1.00  0.00    -0.000 C 
BRANCH  30  31
ATOM     31  C   UNL     1      17.944  14.219 -19.664  1.00  0.00    -0.003 C 
ATOM     32  C   UNL     1      19.384  14.579 -19.307  1.00  0.00     0.004 C 
ENDBRANCH  30  31
ENDBRANCH  29  30
ENDBRANCH  28  29
ENDBRANCH  27  28
ENDBRANCH  26  27
ENDBRANCH  25  26
ENDBRANCH  24  25
ENDBRANCH  23  24
ENDBRANCH  22  23
ENDBRANCH  21  22
ENDBRANCH  20  21
ENDBRANCH  19  20
ENDBRANCH  18  19
ENDBRANCH   1  18
TORSDOF 28
ENDMDL
MODEL 5
REMARK VINA RESULT:    -5.643      4.448     12.887
REMARK INTER + INTRA:         -16.878
REMARK INTER:                 -15.142
REMARK INTRA:                  -1.735
REMARK UNBOUND:                -1.997
REMARK SMILES CCCCCCCCCCCCCCCCCCCCCCCCCCCCCC(=O)[O-]
REMARK SMILES IDX 16 1 17 2 18 3 19 4 20 5 21 6 22 7 23 8 24 9 25 10 26 11
REMARK SMILES IDX 27 12 28 13 29 14 30 15 31 16 32 17 15 18 14 19 13 20 12 21
REMARK SMILES IDX 11 22 10 23 9 24 8 25 7 26 6 27 5 28 4 29 3 30 2 31 1 32
REMARK H PARENT
REMARK Flexibility Score: inf
ROOT
ATOM      1  C   UNL     1      11.210  10.873 -17.436  1.00  0.00     0.000 C 
ENDROOT
BRANCH   1   2
ATOM      2  C   UNL     1      10.341  11.974 -16.793  1.00  0.00     0.000 C 
BRANCH   2   3
ATOM      3  C   UNL     1      10.032  13.121 -17.771  1.00  0.00     0.000 C 
BRANCH   3   4
ATOM      4  C   UNL     1       9.956  14.490 -17.059  1.00  0.00     0.000 C 
BRANCH   4   5
ATOM      5  C   UNL     1       8.907  15.437 -17.666  1.00  0.00     0.000 C 
BRANCH   5   6
ATOM      6  C   UNL     1       9.318  15.970 -19.048  1.00  0.00     0.000 C 
BRANCH   6   7
ATOM      7  C   UNL     1       8.371  15.507 -20.166  1.00  0.00     0.000 C 
BRANCH   7   8
ATOM      8  C   UNL     1       8.858  14.222 -20.858  1.00  0.00     0.000 C 
BRANCH   8   9
ATOM      9  C   UNL     1       7.716  13.222 -21.107  1.00  0.00     0.000 C 
BRANCH   9  10
ATOM     10  C   UNL     1       6.447  13.900 -21.652  1.00  0.00     0.000 C 
BRANCH  10  11
ATOM     11  C   UNL     1       5.512  12.910 -22.366  1.00  0.00     0.000 C 
BRANCH  11  12
ATOM     12  C   UNL     1       4.298  13.604 -23.007  1.00  0.00     0.000 C 
BRANCH  12  13
ATOM     13  C   UNL     1       3.019  13.470 -22.161  1.00  0.00     0.006 C 
BRANCH  13  14
ATOM     14  C   UNL     1       2.964  14.407 -20.944  1.00  0.00     0.053 C 
BRANCH  14  15
ATOM     15  C   UNL     1       1.599  14.455 -20.328  1.00  0.00     0.041 C 
ATOM     16  O   UNL     1       1.410  15.075 -19.248  1.00  0.00    -0.550 OA
ATOM     17  O   UNL     1       0.547  13.765 -20.919  1.00  0.00    -0.550 OA
ENDBRANCH  14  15
ENDBRANCH  13  14
ENDBRANCH  12  13
ENDBRANCH  11  12
ENDBRANCH  10  11
ENDBRANCH   9  10
ENDBRANCH   8   9
ENDBRANCH   7   8
ENDBRANCH   6   7
ENDBRANCH   5   6
ENDBRANCH   4   5
ENDBRANCH   3   4
ENDBRANCH   2   3
ENDBRANCH   1   2
BRANCH   1  18
ATOM     18  C   UNL     1      10.817  10.540 -18.886  1.00  0.00     0.000 C 
BRANCH  18  19
ATOM     19  C   UNL     1      11.530   9.289 -19.426  1.00  0.00     0.000 C 
BRANCH  19  20
ATOM     20  C   UNL     1      12.086   8.400 -18.301  1.00  0.00     0.000 C 
BRANCH  20  21
ATOM     21  C   UNL     1      13.128   7.390 -18.814  1.00  0.00     0.000 C 
BRANCH  21  22
ATOM     22  C   UNL     1      13.414   7.555 -20.315  1.00  0.00     0.000 C 
BRANCH  22  23
ATOM     23  C   UNL     1      14.649   6.751 -20.763  1.00  0.00     0.000 C 
BRANCH  23  24
ATOM     24  C   UNL     1      15.464   7.463 -21.858  1.00  0.00    -0.000 C 
BRANCH  24  25
ATOM     25  C   UNL     1      16.348   8.629 -21.354  1.00  0.00    -0.000 C 
BRANCH  25  26
ATOM     26  C   UNL     1      16.749   8.520 -19.871  1.00  0.00    -0.000 C 
BRANCH  26  27
ATOM     27  C   UNL     1      18.197   8.936 -19.545  1.00  0.00    -0.000 C 
BRANCH  27  28
ATOM     28  C   UNL     1      18.821   9.962 -20.511  1.00  0.00    -0.000 C 
BRANCH  28  29
ATOM     29  C   UNL     1      18.111  11.327 -20.478  1.00  0.00    -0.000 C 
BRANCH  29  30
ATOM     30  C   UNL     1      18.648  12.297 -21.542  1.00  0.00    -0.000 C 
BRANCH  30  31
ATOM     31  C   UNL     1      19.371  11.581 -22.693  1.00  0.00    -0.003 C 
ATOM     32  C   UNL     1      18.649  11.808 -24.019  1.00  0.00     0.004 C 
ENDBRANCH  30  31
ENDBRANCH  29  30
ENDBRANCH  28  29
ENDBRANCH  27  28
ENDBRANCH  26  27
ENDBRANCH  25  26
ENDBRANCH  24  25
ENDBRANCH  23  24
ENDBRANCH  22  23
ENDBRANCH  21  22
ENDBRANCH  20  21
ENDBRANCH  19  20
ENDBRANCH  18  19
ENDBRANCH   1  18
TORSDOF 28
ENDMDL
MODEL 6
REMARK VINA RESULT:    -5.551      1.029      3.526
REMARK INTER + INTRA:         -16.636
REMARK INTER:                 -14.953
REMARK INTRA:                  -1.683
REMARK UNBOUND:                -1.997
REMARK SMILES CCCCCCCCCCCCCCCCCCCCCCCCCCCCCC(=O)[O-]
REMARK SMILES IDX 16 1 17 2 18 3 19 4 20 5 21 6 22 7 23 8 24 9 25 10 26 11
REMARK SMILES IDX 27 12 28 13 29 14 30 15 31 16 32 17 15 18 14 19 13 20 12 21
REMARK SMILES IDX 11 22 10 23 9 24 8 25 7 26 6 27 5 28 4 29 3 30 2 31 1 32
REMARK H PARENT
REMARK Flexibility Score: inf
ROOT
ATOM      1  C   UNL     1       9.443  12.378 -20.161  1.00  0.00     0.000 C 
ENDROOT
BRANCH   1   2
ATOM      2  C   UNL     1      10.136  12.509 -18.788  1.00  0.00     0.000 C 
BRANCH   2   3
ATOM      3  C   UNL     1      10.517  11.142 -18.193  1.00  0.00     0.000 C 
BRANCH   3   4
ATOM      4  C   UNL     1      10.937  10.129 -19.282  1.00  0.00     0.000 C 
BRANCH   4   5
ATOM      5  C   UNL     1      11.838   9.001 -18.753  1.00  0.00     0.000 C 
BRANCH   5   6
ATOM      6  C   UNL     1      12.332   8.064 -19.867  1.00  0.00     0.000 C 
BRANCH   6   7
ATOM      7  C   UNL     1      13.641   7.347 -19.501  1.00  0.00     0.000 C 
BRANCH   7   8
ATOM      8  C   UNL     1      14.182   6.481 -20.653  1.00  0.00     0.000 C 
BRANCH   8   9
ATOM      9  C   UNL     1      15.464   7.064 -21.272  1.00  0.00     0.000 C 
BRANCH   9  10
ATOM     10  C   UNL     1      15.203   8.363 -22.055  1.00  0.00     0.000 C 
BRANCH  10  11
ATOM     11  C   UNL     1      16.317   9.404 -21.854  1.00  0.00     0.000 C 
BRANCH  11  12
ATOM     12  C   UNL     1      17.196   9.096 -20.631  1.00  0.00     0.000 C 
BRANCH  12  13
ATOM     13  C   UNL     1      17.976  10.326 -20.133  1.00  0.00     0.006 C 
BRANCH  13  14
ATOM     14  C   UNL     1      17.712  11.610 -20.934  1.00  0.00     0.053 C 
BRANCH  14  15
ATOM     15  C   UNL     1      17.825  12.840 -20.086  1.00  0.00     0.041 C 
ATOM     16  O   UNL     1      16.792  13.483 -19.757  1.00  0.00    -0.550 OA
ATOM     17  O   UNL     1      19.077  13.307 -19.705  1.00  0.00    -0.550 OA
ENDBRANCH  14  15
ENDBRANCH  13  14
ENDBRANCH  12  13
ENDBRANCH  11  12
ENDBRANCH  10  11
ENDBRANCH   9  10
ENDBRANCH   8   9
ENDBRANCH   7   8
ENDBRANCH   6   7
ENDBRANCH   5   6
ENDBRANCH   4   5
ENDBRANCH   3   4
ENDBRANCH   2   3
ENDBRANCH   1   2
BRANCH   1  18
ATOM     18  C   UNL     1       8.941  13.715 -20.732  1.00  0.00     0.000 C 
BRANCH  18  19
ATOM     19  C   UNL     1       7.486  13.645 -21.225  1.00  0.00     0.000 C 
BRANCH  19  20
ATOM     20  C   UNL     1       6.870  15.038 -21.434  1.00  0.00     0.000 C 
BRANCH  20  21
ATOM     21  C   UNL     1       5.344  14.980 -21.633  1.00  0.00     0.000 C 
BRANCH  21  22
ATOM     22  C   UNL     1       4.909  13.763 -22.466  1.00  0.00     0.000 C 
BRANCH  22  23
ATOM     23  C   UNL     1       3.387  13.534 -22.406  1.00  0.00     0.000 C 
BRANCH  23  24
ATOM     24  C   UNL     1       2.867  13.335 -20.970  1.00  0.00    -0.000 C 
BRANCH  24  25
ATOM     25  C   UNL     1       1.841  14.394 -20.500  1.00  0.00    -0.000 C 
BRANCH  25  26
ATOM     26  C   UNL     1       0.750  13.842 -19.564  1.00  0.00    -0.000 C 
BRANCH  26  27
ATOM     27  C   UNL     1       1.224  13.467 -18.145  1.00  0.00    -0.000 C 
BRANCH  27  28
ATOM     28  C   UNL     1       1.765  14.638 -17.300  1.00  0.00    -0.000 C 
BRANCH  28  29
ATOM     29  C   UNL     1       2.441  14.175 -15.998  1.00  0.00    -0.000 C 
BRANCH  29  30
ATOM     30  C   UNL     1       2.549  12.645 -15.901  1.00  0.00    -0.000 C 
BRANCH  30  31
ATOM     31  C   UNL     1       3.153  12.172 -14.570  1.00  0.00    -0.003 C 
ATOM     32  C   UNL     1       4.088  13.228 -13.986  1.00  0.00     0.004 C 
ENDBRANCH  30  31
ENDBRANCH  29  30
ENDBRANCH  28  29
ENDBRANCH  27  28
ENDBRANCH  26  27
ENDBRANCH  25  26
ENDBRANCH  24  25
ENDBRANCH  23  24
ENDBRANCH  22  23
ENDBRANCH  21  22
ENDBRANCH  20  21
ENDBRANCH  19  20
ENDBRANCH  18  19
ENDBRANCH   1  18
TORSDOF 28
ENDMDL
MODEL 7
REMARK VINA RESULT:    -5.352      4.677     13.402
REMARK INTER + INTRA:         -16.110
REMARK INTER:                 -14.756
REMARK INTRA:                  -1.355
REMARK UNBOUND:                -1.997
REMARK SMILES CCCCCCCCCCCCCCCCCCCCCCCCCCCCCC(=O)[O-]
REMARK SMILES IDX 16 1 17 2 18 3 19 4 20 5 21 6 22 7 23 8 24 9 25 10 26 11
REMARK SMILES IDX 27 12 28 13 29 14 30 15 31 16 32 17 15 18 14 19 13 20 12 21
REMARK SMILES IDX 11 22 10 23 9 24 8 25 7 26 6 27 5 28 4 29 3 30 2 31 1 32
REMARK H PARENT
REMARK Flexibility Score: inf
ROOT
ATOM      1  C   UNL     1       9.507  12.078 -20.125  1.00  0.00     0.000 C 
ENDROOT
BRANCH   1   2
ATOM      2  C   UNL     1       9.157  13.489 -19.608  1.00  0.00     0.000 C 
BRANCH   2   3
ATOM      3  C   UNL     1       9.810  13.792 -18.248  1.00  0.00     0.000 C 
BRANCH   3   4
ATOM      4  C   UNL     1       9.258  15.088 -17.612  1.00  0.00     0.000 C 
BRANCH   4   5
ATOM      5  C   UNL     1       9.364  15.109 -16.078  1.00  0.00     0.000 C 
BRANCH   5   6
ATOM      6  C   UNL     1       8.155  15.784 -15.410  1.00  0.00     0.000 C 
BRANCH   6   7
ATOM      7  C   UNL     1       7.396  14.838 -14.465  1.00  0.00     0.000 C 
BRANCH   7   8
ATOM      8  C   UNL     1       5.880  15.106 -14.454  1.00  0.00     0.000 C 
BRANCH   8   9
ATOM      9  C   UNL     1       5.055  13.809 -14.422  1.00  0.00     0.000 C 
BRANCH   9  10
ATOM     10  C   UNL     1       4.059  13.772 -13.249  1.00  0.00     0.000 C 
BRANCH  10  11
ATOM     11  C   UNL     1       2.947  12.732 -13.455  1.00  0.00     0.000 C 
BRANCH  11  12
ATOM     12  C   UNL     1       3.316  11.676 -14.511  1.00  0.00     0.000 C 
BRANCH  12  13
ATOM     13  C   UNL     1       2.083  11.050 -15.186  1.00  0.00     0.006 C 
BRANCH  13  14
ATOM     14  C   UNL     1       2.399   9.858 -16.103  1.00  0.00     0.053 C 
BRANCH  14  15
ATOM     15  C   UNL     1       3.237   8.823 -15.417  1.00  0.00     0.041 C 
ATOM     16  O   UNL     1       4.455   8.693 -15.713  1.00  0.00    -0.550 OA
ATOM     17  O   UNL     1       2.658   7.965 -14.490  1.00  0.00    -0.550 OA
ENDBRANCH  14  15
ENDBRANCH  13  14
ENDBRANCH  12  13
ENDBRANCH  11  12
ENDBRANCH  10  11
ENDBRANCH   9  10
ENDBRANCH   8   9
ENDBRANCH   7   8
ENDBRANCH   6   7
ENDBRANCH   5   6
ENDBRANCH   4   5
ENDBRANCH   3   4
ENDBRANCH   2   3
ENDBRANCH   1   2
BRANCH   1  18
ATOM     18  C   UNL     1      10.852  11.543 -19.605  1.00  0.00     0.000 C 
BRANCH  18  19
ATOM     19  C   UNL     1      10.711  10.216 -18.840  1.00  0.00     0.000 C 
BRANCH  19  20
ATOM     20  C   UNL     1      11.629   9.117 -19.399  1.00  0.00     0.000 C 
BRANCH  20  21
ATOM     21  C   UNL     1      12.228   8.233 -18.290  1.00  0.00     0.000 C 
BRANCH  21  22
ATOM     22  C   UNL     1      13.239   7.212 -18.837  1.00  0.00     0.000 C 
BRANCH  22  23
ATOM     23  C   UNL     1      13.374   7.294 -20.369  1.00  0.00     0.000 C 
BRANCH  23  24
ATOM     24  C   UNL     1      14.632   6.581 -20.899  1.00  0.00    -0.000 C 
BRANCH  24  25
ATOM     25  C   UNL     1      15.718   7.522 -21.470  1.00  0.00    -0.000 C 
BRANCH  25  26
ATOM     26  C   UNL     1      16.493   8.313 -20.399  1.00  0.00    -0.000 C 
BRANCH  26  27
ATOM     27  C   UNL     1      17.675   9.154 -20.923  1.00  0.00    -0.000 C 
BRANCH  27  28
ATOM     28  C   UNL     1      17.858  10.527 -20.248  1.00  0.00    -0.000 C 
BRANCH  28  29
ATOM     29  C   UNL     1      19.088  11.291 -20.766  1.00  0.00    -0.000 C 
BRANCH  29  30
ATOM     30  C   UNL     1      18.858  12.810 -20.823  1.00  0.00    -0.000 C 
BRANCH  30  31
ATOM     31  C   UNL     1      17.646  13.262 -19.995  1.00  0.00    -0.003 C 
ATOM     32  C   UNL     1      17.844  14.679 -19.461  1.00  0.00     0.004 C 
ENDBRANCH  30  31
ENDBRANCH  29  30
ENDBRANCH  28  29
ENDBRANCH  27  28
ENDBRANCH  26  27
ENDBRANCH  25  26
ENDBRANCH  24  25
ENDBRANCH  23  24
ENDBRANCH  22  23
ENDBRANCH  21  22
ENDBRANCH  20  21
ENDBRANCH  19  20
ENDBRANCH  18  19
ENDBRANCH   1  18
TORSDOF 28
ENDMDL
MODEL 8
REMARK VINA RESULT:    -5.352      5.014     13.334
REMARK INTER + INTRA:         -16.109
REMARK INTER:                 -14.415
REMARK INTRA:                  -1.694
REMARK UNBOUND:                -1.997
REMARK SMILES CCCCCCCCCCCCCCCCCCCCCCCCCCCCCC(=O)[O-]
REMARK SMILES IDX 16 1 17 2 18 3 19 4 20 5 21 6 22 7 23 8 24 9 25 10 26 11
REMARK SMILES IDX 27 12 28 13 29 14 30 15 31 16 32 17 15 18 14 19 13 20 12 21
REMARK SMILES IDX 11 22 10 23 9 24 8 25 7 26 6 27 5 28 4 29 3 30 2 31 1 32
REMARK H PARENT
REMARK Flexibility Score: inf
ROOT
ATOM      1  C   UNL     1      10.849  10.685 -18.105  1.00  0.00     0.000 C 
ENDROOT
BRANCH   1   2
ATOM      2  C   UNL     1      10.405  12.120 -18.459  1.00  0.00     0.000 C 
BRANCH   2   3
ATOM      3  C   UNL     1      10.026  12.939 -17.213  1.00  0.00     0.000 C 
BRANCH   3   4
ATOM      4  C   UNL     1       9.476  14.337 -17.578  1.00  0.00     0.000 C 
BRANCH   4   5
ATOM      5  C   UNL     1       9.755  15.403 -16.505  1.00  0.00     0.000 C 
BRANCH   5   6
ATOM      6  C   UNL     1       9.939  14.800 -15.103  1.00  0.00     0.000 C 
BRANCH   6   7
ATOM      7  C   UNL     1       8.802  15.179 -14.142  1.00  0.00     0.000 C 
BRANCH   7   8
ATOM      8  C   UNL     1       7.707  16.019 -14.824  1.00  0.00     0.000 C 
BRANCH   8   9
ATOM      9  C   UNL     1       6.312  15.754 -14.234  1.00  0.00     0.000 C 
BRANCH   9  10
ATOM     10  C   UNL     1       5.842  14.305 -14.458  1.00  0.00     0.000 C 
BRANCH  10  11
ATOM     11  C   UNL     1       4.312  14.192 -14.556  1.00  0.00     0.000 C 
BRANCH  11  12
ATOM     12  C   UNL     1       3.728  13.209 -13.527  1.00  0.00     0.000 C 
BRANCH  12  13
ATOM     13  C   UNL     1       3.457  11.815 -14.121  1.00  0.00     0.006 C 
BRANCH  13  14
ATOM     14  C   UNL     1       2.497  11.813 -15.321  1.00  0.00     0.053 C 
BRANCH  14  15
ATOM     15  C   UNL     1       2.275  10.436 -15.866  1.00  0.00     0.041 C 
ATOM     16  O   UNL     1       1.111  10.044 -16.148  1.00  0.00    -0.550 OA
ATOM     17  O   UNL     1       3.349   9.565 -16.008  1.00  0.00    -0.550 OA
ENDBRANCH  14  15
ENDBRANCH  13  14
ENDBRANCH  12  13
ENDBRANCH  11  12
ENDBRANCH  10  11
ENDBRANCH   9  10
ENDBRANCH   8   9
ENDBRANCH   7   8
ENDBRANCH   6   7
ENDBRANCH   5   6
ENDBRANCH   4   5
ENDBRANCH   3   4
ENDBRANCH   2   3
ENDBRANCH   1   2
BRANCH   1  18
ATOM     18  C   UNL     1      11.137   9.805 -19.333  1.00  0.00     0.000 C 
BRANCH  18  19
ATOM     19  C   UNL     1      11.923   8.530 -18.982  1.00  0.00     0.000 C 
BRANCH  19  20
ATOM     20  C   UNL     1      12.761   8.014 -20.164  1.00  0.00     0.000 C 
BRANCH  20  21
ATOM     21  C   UNL     1      13.591   6.772 -19.795  1.00  0.00     0.000 C 
BRANCH  21  22
ATOM     22  C   UNL     1      14.774   6.553 -20.753  1.00  0.00     0.000 C 
BRANCH  22  23
ATOM     23  C   UNL     1      15.003   7.763 -21.678  1.00  0.00     0.000 C 
BRANCH  23  24
ATOM     24  C   UNL     1      16.310   8.516 -21.368  1.00  0.00    -0.000 C 
BRANCH  24  25
ATOM     25  C   UNL     1      16.923   8.206 -19.982  1.00  0.00    -0.000 C 
BRANCH  25  26
ATOM     26  C   UNL     1      17.820   9.328 -19.425  1.00  0.00    -0.000 C 
BRANCH  26  27
ATOM     27  C   UNL     1      19.019   9.718 -20.312  1.00  0.00    -0.000 C 
BRANCH  27  28
ATOM     28  C   UNL     1      18.934  11.116 -20.958  1.00  0.00    -0.000 C 
BRANCH  28  29
ATOM     29  C   UNL     1      17.816  11.986 -20.358  1.00  0.00    -0.000 C 
BRANCH  29  30
ATOM     30  C   UNL     1      18.020  13.484 -20.640  1.00  0.00    -0.000 C 
BRANCH  30  31
ATOM     31  C   UNL     1      17.549  14.379 -19.483  1.00  0.00    -0.003 C 
ATOM     32  C   UNL     1      18.335  15.687 -19.448  1.00  0.00     0.004 C 
ENDBRANCH  30  31
ENDBRANCH  29  30
ENDBRANCH  28  29
ENDBRANCH  27  28
ENDBRANCH  26  27
ENDBRANCH  25  26
ENDBRANCH  24  25
ENDBRANCH  23  24
ENDBRANCH  22  23
ENDBRANCH  21  22
ENDBRANCH  20  21
ENDBRANCH  19  20
ENDBRANCH  18  19
ENDBRANCH   1  18
TORSDOF 28
ENDMDL
MODEL 9
REMARK VINA RESULT:    -5.312      4.100     13.962
REMARK INTER + INTRA:         -16.004
REMARK INTER:                 -14.226
REMARK INTRA:                  -1.778
REMARK UNBOUND:                -1.997
REMARK SMILES CCCCCCCCCCCCCCCCCCCCCCCCCCCCCC(=O)[O-]
REMARK SMILES IDX 16 1 17 2 18 3 19 4 20 5 21 6 22 7 23 8 24 9 25 10 26 11
REMARK SMILES IDX 27 12 28 13 29 14 30 15 31 16 32 17 15 18 14 19 13 20 12 21
REMARK SMILES IDX 11 22 10 23 9 24 8 25 7 26 6 27 5 28 4 29 3 30 2 31 1 32
REMARK H PARENT
REMARK Flexibility Score: inf
ROOT
ATOM      1  C   UNL     1      10.042  12.209 -20.351  1.00  0.00     0.000 C 
ENDROOT
BRANCH   1   2
ATOM      2  C   UNL     1       8.957  13.209 -19.900  1.00  0.00     0.000 C 
BRANCH   2   3
ATOM      3  C   UNL     1       7.896  13.450 -20.989  1.00  0.00     0.000 C 
BRANCH   3   4
ATOM      4  C   UNL     1       7.399  14.914 -21.005  1.00  0.00     0.000 C 
BRANCH   4   5
ATOM      5  C   UNL     1       6.031  15.087 -21.686  1.00  0.00     0.000 C 
BRANCH   5   6
ATOM      6  C   UNL     1       5.439  13.755 -22.175  1.00  0.00     0.000 C 
BRANCH   6   7
ATOM      7  C   UNL     1       3.991  13.897 -22.670  1.00  0.00     0.000 C 
BRANCH   7   8
ATOM      8  C   UNL     1       2.967  13.337 -21.666  1.00  0.00     0.000 C 
BRANCH   8   9
ATOM      9  C   UNL     1       2.551  14.377 -20.612  1.00  0.00     0.000 C 
BRANCH   9  10
ATOM     10  C   UNL     1       1.323  13.933 -19.797  1.00  0.00     0.000 C 
BRANCH  10  11
ATOM     11  C   UNL     1       1.662  12.841 -18.770  1.00  0.00     0.000 C 
BRANCH  11  12
ATOM     12  C   UNL     1       2.014  13.420 -17.390  1.00  0.00     0.000 C 
BRANCH  12  13
ATOM     13  C   UNL     1       1.888  12.385 -16.258  1.00  0.00     0.006 C 
BRANCH  13  14
ATOM     14  C   UNL     1       1.330  11.024 -16.705  1.00  0.00     0.053 C 
BRANCH  14  15
ATOM     15  C   UNL     1       1.982   9.882 -15.986  1.00  0.00     0.041 C 
ATOM     16  O   UNL     1       3.235   9.752 -16.003  1.00  0.00    -0.550 OA
ATOM     17  O   UNL     1       1.199   8.929 -15.345  1.00  0.00    -0.550 OA
ENDBRANCH  14  15
ENDBRANCH  13  14
ENDBRANCH  12  13
ENDBRANCH  11  12
ENDBRANCH  10  11
ENDBRANCH   9  10
ENDBRANCH   8   9
ENDBRANCH   7   8
ENDBRANCH   6   7
ENDBRANCH   5   6
ENDBRANCH   4   5
ENDBRANCH   3   4
ENDBRANCH   2   3
ENDBRANCH   1   2
BRANCH   1  18
ATOM     18  C   UNL     1      10.744  11.490 -19.186  1.00  0.00     0.000 C 
BRANCH  18  19
ATOM     19  C   UNL     1      10.648   9.958 -19.285  1.00  0.00     0.000 C 
BRANCH  19  20
ATOM     20  C   UNL     1      11.904   9.255 -18.744  1.00  0.00     0.000 C 
BRANCH  20  21
ATOM     21  C   UNL     1      12.285   8.017 -19.574  1.00  0.00     0.000 C 
BRANCH  21  22
ATOM     22  C   UNL     1      13.490   7.265 -18.984  1.00  0.00     0.000 C 
BRANCH  22  23
ATOM     23  C   UNL     1      14.289   6.512 -20.064  1.00  0.00     0.000 C 
BRANCH  23  24
ATOM     24  C   UNL     1      14.570   7.370 -21.311  1.00  0.00    -0.000 C 
BRANCH  24  25
ATOM     25  C   UNL     1      16.070   7.581 -21.628  1.00  0.00    -0.000 C 
BRANCH  25  26
ATOM     26  C   UNL     1      16.662   8.876 -21.041  1.00  0.00    -0.000 C 
BRANCH  26  27
ATOM     27  C   UNL     1      17.089   8.796 -19.561  1.00  0.00    -0.000 C 
BRANCH  27  28
ATOM     28  C   UNL     1      18.536   9.242 -19.268  1.00  0.00    -0.000 C 
BRANCH  28  29
ATOM     29  C   UNL     1      19.370   9.448 -20.544  1.00  0.00    -0.000 C 
BRANCH  29  30
ATOM     30  C   UNL     1      19.877  10.892 -20.690  1.00  0.00    -0.000 C 
BRANCH  30  31
ATOM     31  C   UNL     1      18.814  11.843 -21.261  1.00  0.00    -0.003 C 
ATOM     32  C   UNL     1      18.633  11.626 -22.761  1.00  0.00     0.004 C 
ENDBRANCH  30  31
ENDBRANCH  29  30
ENDBRANCH  28  29
ENDBRANCH  27  28
ENDBRANCH  26  27
ENDBRANCH  25  26
ENDBRANCH  24  25
ENDBRANCH  23  24
ENDBRANCH  22  23
ENDBRANCH  21  22
ENDBRANCH  20  21
ENDBRANCH  19  20
ENDBRANCH  18  19
ENDBRANCH   1  18
TORSDOF 28
ENDMDL
