MODEL 1
REMARK VINA RESULT:    -3.918      0.000      0.000
REMARK INTER + INTRA:         -11.255
REMARK INTER:                  -8.956
REMARK INTRA:                  -2.298
REMARK UNBOUND:                -2.298
REMARK SMILES CCCCCCCCCCCCCCCCCCCCCCCC(=O)[O-]
REMARK SMILES IDX 13 1 14 2 15 3 16 4 17 5 18 6 19 7 20 8 21 9 22 10 23 11
REMARK SMILES IDX 24 12 25 13 26 14 12 15 11 16 10 17 9 18 8 19 7 20 6 21 5 22
REMARK SMILES IDX 4 23 3 24 2 25 1 26
REMARK H PARENT
REMARK Flexibility Score: inf
ROOT
ATOM      1  C   UNL     1      -4.768   0.825   9.026  1.00  0.00     0.000 C 
ENDROOT
BRANCH   1   2
ATOM      2  C   UNL     1      -3.781   1.778   9.721  1.00  0.00     0.000 C 
BRANCH   2   3
ATOM      3  C   UNL     1      -2.438   1.886   8.978  1.00  0.00     0.000 C 
BRANCH   3   4
ATOM      4  C   UNL     1      -1.520   3.033   9.451  1.00  0.00     0.000 C 
BRANCH   4   5
ATOM      5  C   UNL     1      -2.239   4.358   9.767  1.00  0.00     0.000 C 
BRANCH   5   6
ATOM      6  C   UNL     1      -1.740   5.528   8.904  1.00  0.00     0.000 C 
BRANCH   6   7
ATOM      7  C   UNL     1      -2.090   6.876   9.548  1.00  0.00     0.000 C 
BRANCH   7   8
ATOM      8  C   UNL     1      -1.057   7.970   9.232  1.00  0.00     0.000 C 
BRANCH   8   9
ATOM      9  C   UNL     1      -0.039   7.534   8.164  1.00  0.00     0.000 C 
BRANCH   9  10
ATOM     10  C   UNL     1       1.145   8.516   8.049  1.00  0.00     0.006 C 
BRANCH  10  11
ATOM     11  C   UNL     1       2.302   8.200   9.010  1.00  0.00     0.053 C 
BRANCH  11  12
ATOM     12  C   UNL     1       3.590   7.947   8.291  1.00  0.00     0.041 C 
ATOM     13  O   UNL     1       3.583   7.645   7.067  1.00  0.00    -0.550 OA
ATOM     14  O   UNL     1       4.799   8.065   8.964  1.00  0.00    -0.550 OA
ENDBRANCH  11  12
ENDBRANCH  10  11
ENDBRANCH   9  10
ENDBRANCH   8   9
ENDBRANCH   7   8
ENDBRANCH   6   7
ENDBRANCH   5   6
ENDBRANCH   4   5
ENDBRANCH   3   4
ENDBRANCH   2   3
ENDBRANCH   1   2
BRANCH   1  15
ATOM     15  C   UNL     1      -6.094   0.747   9.800  1.00  0.00     0.000 C 
BRANCH  15  16
ATOM     16  C   UNL     1      -7.216   0.088   8.981  1.00  0.00     0.000 C 
BRANCH  16  17
ATOM     17  C   UNL     1      -8.485   0.958   8.910  1.00  0.00     0.000 C 
BRANCH  17  18
ATOM     18  C   UNL     1      -8.321   2.308   9.634  1.00  0.00    -0.000 C 
BRANCH  18  19
ATOM     19  C   UNL     1      -8.371   3.539   8.701  1.00  0.00    -0.000 C 
BRANCH  19  20
ATOM     20  C   UNL     1      -7.581   4.748   9.237  1.00  0.00    -0.000 C 
BRANCH  20  21
ATOM     21  C   UNL     1      -6.063   4.605   9.009  1.00  0.00    -0.000 C 
BRANCH  21  22
ATOM     22  C   UNL     1      -5.462   5.802   8.251  1.00  0.00    -0.000 C 
BRANCH  22  23
ATOM     23  C   UNL     1      -6.483   6.922   7.956  1.00  0.00    -0.000 C 
BRANCH  23  24
ATOM     24  C   UNL     1      -6.816   7.045   6.461  1.00  0.00    -0.000 C 
BRANCH  24  25
ATOM     25  C   UNL     1      -8.322   6.888   6.221  1.00  0.00    -0.003 C 
ATOM     26  C   UNL     1      -8.909   8.146   5.589  1.00  0.00     0.004 C 
ENDBRANCH  24  25
ENDBRANCH  23  24
ENDBRANCH  22  23
ENDBRANCH  21  22
ENDBRANCH  20  21
ENDBRANCH  19  20
ENDBRANCH  18  19
ENDBRANCH  17  18
ENDBRANCH  16  17
ENDBRANCH  15  16
ENDBRANCH   1  15
TORSDOF 22
ENDMDL
MODEL 2
REMARK VINA RESULT:    -3.740      3.341      8.187
REMARK INTER + INTRA:         -10.849
REMARK INTER:                  -8.710
REMARK INTRA:                  -2.139
REMARK UNBOUND:                -2.298
REMARK SMILES CCCCCCCCCCCCCCCCCCCCCCCC(=O)[O-]
REMARK SMILES IDX 13 1 14 2 15 3 16 4 17 5 18 6 19 7 20 8 21 9 22 10 23 11
REMARK SMILES IDX 24 12 25 13 26 14 12 15 11 16 10 17 9 18 8 19 7 20 6 21 5 22
REMARK SMILES IDX 4 23 3 24 2 25 1 26
REMARK H PARENT
REMARK Flexibility Score: inf
ROOT
ATOM      1  C   UNL     1      -4.277   2.459   9.022  1.00  0.00     0.000 C 
ENDROOT
BRANCH   1   2
ATOM      2  C   UNL     1      -5.188   3.604   9.493  1.00  0.00     0.000 C 
BRANCH   2   3
ATOM      3  C   UNL     1      -5.047   4.870   8.629  1.00  0.00     0.000 C 
BRANCH   3   4
ATOM      4  C   UNL     1      -6.143   5.933   8.845  1.00  0.00     0.000 C 
BRANCH   4   5
ATOM      5  C   UNL     1      -7.576   5.474   8.513  1.00  0.00     0.000 C 
BRANCH   5   6
ATOM      6  C   UNL     1      -8.484   6.630   8.065  1.00  0.00     0.000 C 
BRANCH   6   7
ATOM      7  C   UNL     1      -8.691   6.610   6.545  1.00  0.00     0.000 C 
BRANCH   7   8
ATOM      8  C   UNL     1      -7.540   7.285   5.780  1.00  0.00     0.000 C 
BRANCH   8   9
ATOM      9  C   UNL     1      -7.919   8.676   5.244  1.00  0.00     0.000 C 
BRANCH   9  10
ATOM     10  C   UNL     1      -7.910   9.752   6.350  1.00  0.00     0.006 C 
BRANCH  10  11
ATOM     11  C   UNL     1      -6.607   9.785   7.166  1.00  0.00     0.053 C 
BRANCH  11  12
ATOM     12  C   UNL     1      -6.858   9.847   8.640  1.00  0.00     0.041 C 
ATOM     13  O   UNL     1      -8.010  10.115   9.076  1.00  0.00    -0.550 OA
ATOM     14  O   UNL     1      -5.827   9.589   9.534  1.00  0.00    -0.550 OA
ENDBRANCH  11  12
ENDBRANCH  10  11
ENDBRANCH   9  10
ENDBRANCH   8   9
ENDBRANCH   7   8
ENDBRANCH   6   7
ENDBRANCH   5   6
ENDBRANCH   4   5
ENDBRANCH   3   4
ENDBRANCH   2   3
ENDBRANCH   1   2
BRANCH   1  15
ATOM     15  C   UNL     1      -3.076   2.287   9.966  1.00  0.00     0.000 C 
BRANCH  15  16
ATOM     16  C   UNL     1      -1.742   2.655   9.296  1.00  0.00     0.000 C 
BRANCH  16  17
ATOM     17  C   UNL     1      -1.163   3.981   9.820  1.00  0.00     0.000 C 
BRANCH  17  18
ATOM     18  C   UNL     1      -1.428   5.163   8.867  1.00  0.00    -0.000 C 
BRANCH  18  19
ATOM     19  C   UNL     1      -1.934   6.443   9.570  1.00  0.00    -0.000 C 
BRANCH  19  20
ATOM     20  C   UNL     1      -0.911   7.595   9.557  1.00  0.00    -0.000 C 
BRANCH  20  21
ATOM     21  C   UNL     1       0.335   7.263   8.713  1.00  0.00    -0.000 C 
BRANCH  21  22
ATOM     22  C   UNL     1       0.561   8.269   7.569  1.00  0.00    -0.000 C 
BRANCH  22  23
ATOM     23  C   UNL     1       2.041   8.406   7.151  1.00  0.00    -0.000 C 
BRANCH  23  24
ATOM     24  C   UNL     1       2.663   9.739   7.593  1.00  0.00    -0.000 C 
BRANCH  24  25
ATOM     25  C   UNL     1       4.122   9.546   8.026  1.00  0.00    -0.003 C 
ATOM     26  C   UNL     1       4.287   8.257   8.825  1.00  0.00     0.004 C 
ENDBRANCH  24  25
ENDBRANCH  23  24
ENDBRANCH  22  23
ENDBRANCH  21  22
ENDBRANCH  20  21
ENDBRANCH  19  20
ENDBRANCH  18  19
ENDBRANCH  17  18
ENDBRANCH  16  17
ENDBRANCH  15  16
ENDBRANCH   1  15
TORSDOF 22
ENDMDL
MODEL 3
REMARK VINA RESULT:    -3.649      1.426      3.307
REMARK INTER + INTRA:         -10.640
REMARK INTER:                  -8.199
REMARK INTRA:                  -2.440
REMARK UNBOUND:                -2.298
REMARK SMILES CCCCCCCCCCCCCCCCCCCCCCCC(=O)[O-]
REMARK SMILES IDX 13 1 14 2 15 3 16 4 17 5 18 6 19 7 20 8 21 9 22 10 23 11
REMARK SMILES IDX 24 12 25 13 26 14 12 15 11 16 10 17 9 18 8 19 7 20 6 21 5 22
REMARK SMILES IDX 4 23 3 24 2 25 1 26
REMARK H PARENT
REMARK Flexibility Score: inf
ROOT
ATOM      1  C   UNL     1      -2.706   2.261   9.996  1.00  0.00     0.000 C 
ENDROOT
BRANCH   1   2
ATOM      2  C   UNL     1      -1.515   3.006   9.372  1.00  0.00     0.000 C 
BRANCH   2   3
ATOM      3  C   UNL     1      -1.348   4.430   9.928  1.00  0.00     0.000 C 
BRANCH   3   4
ATOM      4  C   UNL     1      -1.166   5.530   8.862  1.00  0.00     0.000 C 
BRANCH   4   5
ATOM      5  C   UNL     1      -1.352   6.973   9.370  1.00  0.00     0.000 C 
BRANCH   5   6
ATOM      6  C   UNL     1      -0.137   7.868   9.079  1.00  0.00     0.000 C 
BRANCH   6   7
ATOM      7  C   UNL     1       1.174   7.143   9.412  1.00  0.00     0.000 C 
BRANCH   7   8
ATOM      8  C   UNL     1       2.312   7.503   8.443  1.00  0.00     0.000 C 
BRANCH   8   9
ATOM      9  C   UNL     1       1.916   8.605   7.445  1.00  0.00     0.000 C 
BRANCH   9  10
ATOM     10  C   UNL     1       3.031   9.655   7.259  1.00  0.00     0.006 C 
BRANCH  10  11
ATOM     11  C   UNL     1       3.816   9.953   8.547  1.00  0.00     0.053 C 
BRANCH  11  12
ATOM     12  C   UNL     1       5.222   9.445   8.489  1.00  0.00     0.041 C 
ATOM     13  O   UNL     1       6.113  10.111   7.898  1.00  0.00    -0.550 OA
ATOM     14  O   UNL     1       5.555   8.245   9.106  1.00  0.00    -0.550 OA
ENDBRANCH  11  12
ENDBRANCH  10  11
ENDBRANCH   9  10
ENDBRANCH   8   9
ENDBRANCH   7   8
ENDBRANCH   6   7
ENDBRANCH   5   6
ENDBRANCH   4   5
ENDBRANCH   3   4
ENDBRANCH   2   3
ENDBRANCH   1   2
BRANCH   1  15
ATOM     15  C   UNL     1      -3.814   2.026   8.957  1.00  0.00     0.000 C 
BRANCH  15  16
ATOM     16  C   UNL     1      -5.165   2.618   9.391  1.00  0.00     0.000 C 
BRANCH  16  17
ATOM     17  C   UNL     1      -5.034   4.050   9.941  1.00  0.00     0.000 C 
BRANCH  17  18
ATOM     18  C   UNL     1      -5.131   5.121   8.838  1.00  0.00    -0.000 C 
BRANCH  18  19
ATOM     19  C   UNL     1      -5.045   6.575   9.356  1.00  0.00    -0.000 C 
BRANCH  19  20
ATOM     20  C   UNL     1      -5.919   7.562   8.559  1.00  0.00    -0.000 C 
BRANCH  20  21
ATOM     21  C   UNL     1      -6.631   6.888   7.369  1.00  0.00    -0.000 C 
BRANCH  21  22
ATOM     22  C   UNL     1      -8.164   6.927   7.495  1.00  0.00    -0.000 C 
BRANCH  22  23
ATOM     23  C   UNL     1      -8.885   5.898   6.599  1.00  0.00    -0.000 C 
BRANCH  23  24
ATOM     24  C   UNL     1      -9.632   4.825   7.407  1.00  0.00    -0.000 C 
BRANCH  24  25
ATOM     25  C   UNL     1      -8.770   4.317   8.569  1.00  0.00    -0.003 C 
ATOM     26  C   UNL     1      -8.652   2.797   8.538  1.00  0.00     0.004 C 
ENDBRANCH  24  25
ENDBRANCH  23  24
ENDBRANCH  22  23
ENDBRANCH  21  22
ENDBRANCH  20  21
ENDBRANCH  19  20
ENDBRANCH  18  19
ENDBRANCH  17  18
ENDBRANCH  16  17
ENDBRANCH  15  16
ENDBRANCH   1  15
TORSDOF 22
ENDMDL
MODEL 4
REMARK VINA RESULT:    -3.613      1.129      1.750
REMARK INTER + INTRA:         -10.558
REMARK INTER:                  -9.030
REMARK INTRA:                  -1.527
REMARK UNBOUND:                -2.298
REMARK SMILES CCCCCCCCCCCCCCCCCCCCCCCC(=O)[O-]
REMARK SMILES IDX 13 1 14 2 15 3 16 4 17 5 18 6 19 7 20 8 21 9 22 10 23 11
REMARK SMILES IDX 24 12 25 13 26 14 12 15 11 16 10 17 9 18 8 19 7 20 6 21 5 22
REMARK SMILES IDX 4 23 3 24 2 25 1 26
REMARK H PARENT
REMARK Flexibility Score: inf
ROOT
ATOM      1  C   UNL     1      -4.890   0.444   9.368  1.00  0.00     0.000 C 
ENDROOT
BRANCH   1   2
ATOM      2  C   UNL     1      -4.260   1.812   9.057  1.00  0.00     0.000 C 
BRANCH   2   3
ATOM      3  C   UNL     1      -3.037   2.117   9.939  1.00  0.00     0.000 C 
BRANCH   3   4
ATOM      4  C   UNL     1      -1.797   2.633   9.180  1.00  0.00     0.000 C 
BRANCH   4   5
ATOM      5  C   UNL     1      -1.209   3.955   9.708  1.00  0.00     0.000 C 
BRANCH   5   6
ATOM      6  C   UNL     1      -1.590   5.165   8.841  1.00  0.00     0.000 C 
BRANCH   6   7
ATOM      7  C   UNL     1      -2.180   6.293   9.699  1.00  0.00     0.000 C 
BRANCH   7   8
ATOM      8  C   UNL     1      -1.350   7.585   9.633  1.00  0.00     0.000 C 
BRANCH   8   9
ATOM      9  C   UNL     1      -0.443   7.644   8.392  1.00  0.00     0.000 C 
BRANCH   9  10
ATOM     10  C   UNL     1       0.504   8.862   8.416  1.00  0.00     0.006 C 
BRANCH  10  11
ATOM     11  C   UNL     1       1.988   8.486   8.554  1.00  0.00     0.053 C 
BRANCH  11  12
ATOM     12  C   UNL     1       2.622   8.171   7.236  1.00  0.00     0.041 C 
ATOM     13  O   UNL     1       3.756   7.622   7.193  1.00  0.00    -0.550 OA
ATOM     14  O   UNL     1       1.954   8.465   6.054  1.00  0.00    -0.550 OA
ENDBRANCH  11  12
ENDBRANCH  10  11
ENDBRANCH   9  10
ENDBRANCH   8   9
ENDBRANCH   7   8
ENDBRANCH   6   7
ENDBRANCH   5   6
ENDBRANCH   4   5
ENDBRANCH   3   4
ENDBRANCH   2   3
ENDBRANCH   1   2
BRANCH   1  15
ATOM     15  C   UNL     1      -6.278   0.609  10.008  1.00  0.00     0.000 C 
BRANCH  15  16
ATOM     16  C   UNL     1      -7.408   0.643   8.967  1.00  0.00     0.000 C 
BRANCH  16  17
ATOM     17  C   UNL     1      -8.155   1.989   8.949  1.00  0.00     0.000 C 
BRANCH  17  18
ATOM     18  C   UNL     1      -7.652   2.963  10.031  1.00  0.00    -0.000 C 
BRANCH  18  19
ATOM     19  C   UNL     1      -8.174   4.409   9.876  1.00  0.00    -0.000 C 
BRANCH  19  20
ATOM     20  C   UNL     1      -7.651   5.118   8.613  1.00  0.00    -0.000 C 
BRANCH  20  21
ATOM     21  C   UNL     1      -8.539   6.307   8.196  1.00  0.00    -0.000 C 
BRANCH  21  22
ATOM     22  C   UNL     1      -8.604   6.492   6.669  1.00  0.00    -0.000 C 
BRANCH  22  23
ATOM     23  C   UNL     1      -7.388   7.241   6.085  1.00  0.00    -0.000 C 
BRANCH  23  24
ATOM     24  C   UNL     1      -7.786   8.489   5.282  1.00  0.00    -0.000 C 
BRANCH  24  25
ATOM     25  C   UNL     1      -7.751   9.743   6.166  1.00  0.00    -0.003 C 
ATOM     26  C   UNL     1      -6.807   9.550   7.349  1.00  0.00     0.004 C 
ENDBRANCH  24  25
ENDBRANCH  23  24
ENDBRANCH  22  23
ENDBRANCH  21  22
ENDBRANCH  20  21
ENDBRANCH  19  20
ENDBRANCH  18  19
ENDBRANCH  17  18
ENDBRANCH  16  17
ENDBRANCH  15  16
ENDBRANCH   1  15
TORSDOF 22
ENDMDL
MODEL 5
REMARK VINA RESULT:    -3.586      1.344      2.323
REMARK INTER + INTRA:         -10.496
REMARK INTER:                  -8.165
REMARK INTRA:                  -2.332
REMARK UNBOUND:                -2.298
REMARK SMILES CCCCCCCCCCCCCCCCCCCCCCCC(=O)[O-]
REMARK SMILES IDX 13 1 14 2 15 3 16 4 17 5 18 6 19 7 20 8 21 9 22 10 23 11
REMARK SMILES IDX 24 12 25 13 26 14 12 15 11 16 10 17 9 18 8 19 7 20 6 21 5 22
REMARK SMILES IDX 4 23 3 24 2 25 1 26
REMARK H PARENT
REMARK Flexibility Score: inf
ROOT
ATOM      1  C   UNL     1      -3.421   1.851   8.793  1.00  0.00     0.000 C 
ENDROOT
BRANCH   1   2
ATOM      2  C   UNL     1      -1.932   2.176   8.997  1.00  0.00     0.000 C 
BRANCH   2   3
ATOM      3  C   UNL     1      -1.712   3.440   9.847  1.00  0.00     0.000 C 
BRANCH   3   4
ATOM      4  C   UNL     1      -1.564   4.749   9.044  1.00  0.00     0.000 C 
BRANCH   4   5
ATOM      5  C   UNL     1      -0.609   5.790   9.659  1.00  0.00     0.000 C 
BRANCH   5   6
ATOM      6  C   UNL     1      -1.037   7.236   9.369  1.00  0.00     0.000 C 
BRANCH   6   7
ATOM      7  C   UNL     1      -0.189   7.847   8.245  1.00  0.00     0.000 C 
BRANCH   7   8
ATOM      8  C   UNL     1       0.146   9.327   8.492  1.00  0.00     0.000 C 
BRANCH   8   9
ATOM      9  C   UNL     1       1.006   9.539   9.750  1.00  0.00     0.000 C 
BRANCH   9  10
ATOM     10  C   UNL     1       2.503   9.702   9.415  1.00  0.00     0.006 C 
BRANCH  10  11
ATOM     11  C   UNL     1       3.290   8.382   9.453  1.00  0.00     0.053 C 
BRANCH  11  12
ATOM     12  C   UNL     1       3.994   8.100   8.163  1.00  0.00     0.041 C 
ATOM     13  O   UNL     1       3.347   7.677   7.167  1.00  0.00    -0.550 OA
ATOM     14  O   UNL     1       5.361   8.322   8.052  1.00  0.00    -0.550 OA
ENDBRANCH  11  12
ENDBRANCH  10  11
ENDBRANCH   9  10
ENDBRANCH   8   9
ENDBRANCH   7   8
ENDBRANCH   6   7
ENDBRANCH   5   6
ENDBRANCH   4   5
ENDBRANCH   3   4
ENDBRANCH   2   3
ENDBRANCH   1   2
BRANCH   1  15
ATOM     15  C   UNL     1      -4.090   1.474  10.124  1.00  0.00     0.000 C 
BRANCH  15  16
ATOM     16  C   UNL     1      -4.887   0.162  10.034  1.00  0.00     0.000 C 
BRANCH  16  17
ATOM     17  C   UNL     1      -5.995   0.216   8.967  1.00  0.00     0.000 C 
BRANCH  17  18
ATOM     18  C   UNL     1      -7.381   0.525   9.566  1.00  0.00    -0.000 C 
BRANCH  18  19
ATOM     19  C   UNL     1      -8.338   1.263   8.602  1.00  0.00    -0.000 C 
BRANCH  19  20
ATOM     20  C   UNL     1      -8.401   2.783   8.845  1.00  0.00    -0.000 C 
BRANCH  20  21
ATOM     21  C   UNL     1      -7.357   3.256   9.876  1.00  0.00    -0.000 C 
BRANCH  21  22
ATOM     22  C   UNL     1      -6.897   4.705   9.632  1.00  0.00    -0.000 C 
BRANCH  22  23
ATOM     23  C   UNL     1      -5.377   4.839   9.398  1.00  0.00    -0.000 C 
BRANCH  23  24
ATOM     24  C   UNL     1      -5.038   5.719   8.185  1.00  0.00    -0.000 C 
BRANCH  24  25
ATOM     25  C   UNL     1      -5.875   7.004   8.189  1.00  0.00    -0.003 C 
ATOM     26  C   UNL     1      -5.332   8.006   9.203  1.00  0.00     0.004 C 
ENDBRANCH  24  25
ENDBRANCH  23  24
ENDBRANCH  22  23
ENDBRANCH  21  22
ENDBRANCH  20  21
ENDBRANCH  19  20
ENDBRANCH  18  19
ENDBRANCH  17  18
ENDBRANCH  16  17
ENDBRANCH  15  16
ENDBRANCH   1  15
TORSDOF 22
ENDMDL
MODEL 6
REMARK VINA RESULT:    -3.569      3.963      8.791
REMARK INTER + INTRA:         -10.458
REMARK INTER:                  -8.611
REMARK INTRA:                  -1.847
REMARK UNBOUND:                -2.298
REMARK SMILES CCCCCCCCCCCCCCCCCCCCCCCC(=O)[O-]
REMARK SMILES IDX 13 1 14 2 15 3 16 4 17 5 18 6 19 7 20 8 21 9 22 10 23 11
REMARK SMILES IDX 24 12 25 13 26 14 12 15 11 16 10 17 9 18 8 19 7 20 6 21 5 22
REMARK SMILES IDX 4 23 3 24 2 25 1 26
REMARK H PARENT
REMARK Flexibility Score: inf
ROOT
ATOM      1  C   UNL     1      -2.526   1.877   8.818  1.00  0.00     0.000 C 
ENDROOT
BRANCH   1   2
ATOM      2  C   UNL     1      -3.622   1.393   9.781  1.00  0.00     0.000 C 
BRANCH   2   3
ATOM      3  C   UNL     1      -5.038   1.565   9.205  1.00  0.00     0.000 C 
BRANCH   3   4
ATOM      4  C   UNL     1      -5.892   2.654   9.887  1.00  0.00     0.000 C 
BRANCH   4   5
ATOM      5  C   UNL     1      -7.289   2.870   9.275  1.00  0.00     0.000 C 
BRANCH   5   6
ATOM      6  C   UNL     1      -7.512   4.311   8.791  1.00  0.00     0.000 C 
BRANCH   6   7
ATOM      7  C   UNL     1      -6.256   5.166   9.012  1.00  0.00     0.000 C 
BRANCH   7   8
ATOM      8  C   UNL     1      -6.217   6.407   8.105  1.00  0.00     0.000 C 
BRANCH   8   9
ATOM      9  C   UNL     1      -7.520   6.601   7.309  1.00  0.00     0.000 C 
BRANCH   9  10
ATOM     10  C   UNL     1      -7.257   7.048   5.856  1.00  0.00     0.006 C 
BRANCH  10  11
ATOM     11  C   UNL     1      -7.667   8.503   5.575  1.00  0.00     0.053 C 
BRANCH  11  12
ATOM     12  C   UNL     1      -9.075   8.789   5.993  1.00  0.00     0.041 C 
ATOM     13  O   UNL     1      -9.315   9.704   6.825  1.00  0.00    -0.550 OA
ATOM     14  O   UNL     1     -10.125   8.061   5.448  1.00  0.00    -0.550 OA
ENDBRANCH  11  12
ENDBRANCH  10  11
ENDBRANCH   9  10
ENDBRANCH   8   9
ENDBRANCH   7   8
ENDBRANCH   6   7
ENDBRANCH   5   6
ENDBRANCH   4   5
ENDBRANCH   3   4
ENDBRANCH   2   3
ENDBRANCH   1   2
BRANCH   1  15
ATOM     15  C   UNL     1      -1.752   3.063   9.416  1.00  0.00     0.000 C 
BRANCH  15  16
ATOM     16  C   UNL     1      -2.647   4.288   9.663  1.00  0.00     0.000 C 
BRANCH  16  17
ATOM     17  C   UNL     1      -1.846   5.526  10.106  1.00  0.00     0.000 C 
BRANCH  17  18
ATOM     18  C   UNL     1      -0.325   5.337   9.950  1.00  0.00    -0.000 C 
BRANCH  18  19
ATOM     19  C   UNL     1       0.412   6.570   9.379  1.00  0.00    -0.000 C 
BRANCH  19  20
ATOM     20  C   UNL     1      -0.537   7.702   8.938  1.00  0.00    -0.000 C 
BRANCH  20  21
ATOM     21  C   UNL     1       0.067   8.570   7.816  1.00  0.00    -0.000 C 
BRANCH  21  22
ATOM     22  C   UNL     1       1.453   9.129   8.180  1.00  0.00    -0.000 C 
BRANCH  22  23
ATOM     23  C   UNL     1       2.525   8.878   7.098  1.00  0.00    -0.000 C 
BRANCH  23  24
ATOM     24  C   UNL     1       3.545   7.805   7.509  1.00  0.00    -0.000 C 
BRANCH  24  25
ATOM     25  C   UNL     1       4.417   8.295   8.672  1.00  0.00    -0.003 C 
ATOM     26  C   UNL     1       5.581   9.140   8.163  1.00  0.00     0.004 C 
ENDBRANCH  24  25
ENDBRANCH  23  24
ENDBRANCH  22  23
ENDBRANCH  21  22
ENDBRANCH  20  21
ENDBRANCH  19  20
ENDBRANCH  18  19
ENDBRANCH  17  18
ENDBRANCH  16  17
ENDBRANCH  15  16
ENDBRANCH   1  15
TORSDOF 22
ENDMDL
MODEL 7
REMARK VINA RESULT:    -3.360      1.394      3.113
REMARK INTER + INTRA:          -9.980
REMARK INTER:                  -7.397
REMARK INTRA:                  -2.583
REMARK UNBOUND:                -2.298
REMARK SMILES CCCCCCCCCCCCCCCCCCCCCCCC(=O)[O-]
REMARK SMILES IDX 13 1 14 2 15 3 16 4 17 5 18 6 19 7 20 8 21 9 22 10 23 11
REMARK SMILES IDX 24 12 25 13 26 14 12 15 11 16 10 17 9 18 8 19 7 20 6 21 5 22
REMARK SMILES IDX 4 23 3 24 2 25 1 26
REMARK H PARENT
REMARK Flexibility Score: inf
ROOT
ATOM      1  C   UNL     1      -1.598   3.963   9.090  1.00  0.00     0.000 C 
ENDROOT
BRANCH   1   2
ATOM      2  C   UNL     1      -0.431   4.616   9.848  1.00  0.00     0.000 C 
BRANCH   2   3
ATOM      3  C   UNL     1      -0.663   6.113  10.120  1.00  0.00     0.000 C 
BRANCH   3   4
ATOM      4  C   UNL     1      -1.638   6.809   9.148  1.00  0.00     0.000 C 
BRANCH   4   5
ATOM      5  C   UNL     1      -2.697   7.708   9.814  1.00  0.00     0.000 C 
BRANCH   5   6
ATOM      6  C   UNL     1      -2.458   9.204   9.555  1.00  0.00     0.000 C 
BRANCH   6   7
ATOM      7  C   UNL     1      -1.079   9.439   8.923  1.00  0.00     0.000 C 
BRANCH   7   8
ATOM      8  C   UNL     1      -0.095  10.125   9.885  1.00  0.00     0.000 C 
BRANCH   8   9
ATOM      9  C   UNL     1       1.375   9.907   9.486  1.00  0.00     0.000 C 
BRANCH   9  10
ATOM     10  C   UNL     1       1.515   9.018   8.232  1.00  0.00     0.006 C 
BRANCH  10  11
ATOM     11  C   UNL     1       2.288   7.713   8.486  1.00  0.00     0.053 C 
BRANCH  11  12
ATOM     12  C   UNL     1       3.705   7.789   8.013  1.00  0.00     0.041 C 
ATOM     13  O   UNL     1       3.973   7.653   6.789  1.00  0.00    -0.550 OA
ATOM     14  O   UNL     1       4.730   8.030   8.920  1.00  0.00    -0.550 OA
ENDBRANCH  11  12
ENDBRANCH  10  11
ENDBRANCH   9  10
ENDBRANCH   8   9
ENDBRANCH   7   8
ENDBRANCH   6   7
ENDBRANCH   5   6
ENDBRANCH   4   5
ENDBRANCH   3   4
ENDBRANCH   2   3
ENDBRANCH   1   2
BRANCH   1  15
ATOM     15  C   UNL     1      -2.717   3.545  10.058  1.00  0.00     0.000 C 
BRANCH  15  16
ATOM     16  C   UNL     1      -2.940   2.024  10.080  1.00  0.00     0.000 C 
BRANCH  16  17
ATOM     17  C   UNL     1      -3.684   1.517   8.832  1.00  0.00     0.000 C 
BRANCH  17  18
ATOM     18  C   UNL     1      -5.101   1.001   9.153  1.00  0.00    -0.000 C 
BRANCH  18  19
ATOM     19  C   UNL     1      -5.917   1.927  10.083  1.00  0.00    -0.000 C 
BRANCH  19  20
ATOM     20  C   UNL     1      -7.211   2.458   9.438  1.00  0.00    -0.000 C 
BRANCH  20  21
ATOM     21  C   UNL     1      -7.101   3.943   9.037  1.00  0.00    -0.000 C 
BRANCH  21  22
ATOM     22  C   UNL     1      -5.766   4.576   9.468  1.00  0.00    -0.000 C 
BRANCH  22  23
ATOM     23  C   UNL     1      -5.346   5.782   8.602  1.00  0.00    -0.000 C 
BRANCH  23  24
ATOM     24  C   UNL     1      -6.541   6.479   7.932  1.00  0.00    -0.000 C 
BRANCH  24  25
ATOM     25  C   UNL     1      -6.892   7.783   8.660  1.00  0.00    -0.003 C 
ATOM     26  C   UNL     1      -6.383   8.994   7.885  1.00  0.00     0.004 C 
ENDBRANCH  24  25
ENDBRANCH  23  24
ENDBRANCH  22  23
ENDBRANCH  21  22
ENDBRANCH  20  21
ENDBRANCH  19  20
ENDBRANCH  18  19
ENDBRANCH  17  18
ENDBRANCH  16  17
ENDBRANCH  15  16
ENDBRANCH   1  15
TORSDOF 22
ENDMDL
MODEL 8
REMARK VINA RESULT:    -3.254      3.151      8.547
REMARK INTER + INTRA:          -9.737
REMARK INTER:                  -7.998
REMARK INTRA:                  -1.740
REMARK UNBOUND:                -2.298
REMARK SMILES CCCCCCCCCCCCCCCCCCCCCCCC(=O)[O-]
REMARK SMILES IDX 13 1 14 2 15 3 16 4 17 5 18 6 19 7 20 8 21 9 22 10 23 11
REMARK SMILES IDX 24 12 25 13 26 14 12 15 11 16 10 17 9 18 8 19 7 20 6 21 5 22
REMARK SMILES IDX 4 23 3 24 2 25 1 26
REMARK H PARENT
REMARK Flexibility Score: inf
ROOT
ATOM      1  C   UNL     1      -2.650   2.364  10.008  1.00  0.00     0.000 C 
ENDROOT
BRANCH   1   2
ATOM      2  C   UNL     1      -3.731   1.539   9.290  1.00  0.00     0.000 C 
BRANCH   2   3
ATOM      3  C   UNL     1      -5.134   1.753   9.883  1.00  0.00     0.000 C 
BRANCH   3   4
ATOM      4  C   UNL     1      -6.235   0.842   9.301  1.00  0.00     0.000 C 
BRANCH   4   5
ATOM      5  C   UNL     1      -7.642   1.467   9.248  1.00  0.00     0.000 C 
BRANCH   5   6
ATOM      6  C   UNL     1      -7.726   2.812   9.985  1.00  0.00     0.000 C 
BRANCH   6   7
ATOM      7  C   UNL     1      -8.132   3.940   9.028  1.00  0.00     0.000 C 
BRANCH   7   8
ATOM      8  C   UNL     1      -9.050   3.454   7.894  1.00  0.00     0.000 C 
BRANCH   8   9
ATOM      9  C   UNL     1      -9.695   4.614   7.115  1.00  0.00     0.000 C 
BRANCH   9  10
ATOM     10  C   UNL     1      -9.220   5.993   7.619  1.00  0.00     0.006 C 
BRANCH  10  11
ATOM     11  C   UNL     1      -8.426   6.791   6.572  1.00  0.00     0.053 C 
BRANCH  11  12
ATOM     12  C   UNL     1      -7.117   7.284   7.103  1.00  0.00     0.041 C 
ATOM     13  O   UNL     1      -6.230   6.464   7.461  1.00  0.00    -0.550 OA
ATOM     14  O   UNL     1      -6.868   8.648   7.182  1.00  0.00    -0.550 OA
ENDBRANCH  11  12
ENDBRANCH  10  11
ENDBRANCH   9  10
ENDBRANCH   8   9
ENDBRANCH   7   8
ENDBRANCH   6   7
ENDBRANCH   5   6
ENDBRANCH   4   5
ENDBRANCH   3   4
ENDBRANCH   2   3
ENDBRANCH   1   2
BRANCH   1  15
ATOM     15  C   UNL     1      -1.613   2.903   9.009  1.00  0.00     0.000 C 
BRANCH  15  16
ATOM     16  C   UNL     1      -1.509   4.436   9.035  1.00  0.00     0.000 C 
BRANCH  16  17
ATOM     17  C   UNL     1      -2.863   5.116   9.308  1.00  0.00     0.000 C 
BRANCH  17  18
ATOM     18  C   UNL     1      -2.724   6.624   9.592  1.00  0.00    -0.000 C 
BRANCH  18  19
ATOM     19  C   UNL     1      -1.280   7.162   9.470  1.00  0.00    -0.000 C 
BRANCH  19  20
ATOM     20  C   UNL     1      -1.212   8.675   9.185  1.00  0.00    -0.000 C 
BRANCH  20  21
ATOM     21  C   UNL     1       0.183   9.119   8.702  1.00  0.00    -0.000 C 
BRANCH  21  22
ATOM     22  C   UNL     1       1.208   7.971   8.716  1.00  0.00    -0.000 C 
BRANCH  22  23
ATOM     23  C   UNL     1       2.361   8.159   7.708  1.00  0.00    -0.000 C 
BRANCH  23  24
ATOM     24  C   UNL     1       2.726   9.636   7.490  1.00  0.00    -0.000 C 
BRANCH  24  25
ATOM     25  C   UNL     1       4.189   9.900   7.871  1.00  0.00    -0.003 C 
ATOM     26  C   UNL     1       4.784   8.705   8.609  1.00  0.00     0.004 C 
ENDBRANCH  24  25
ENDBRANCH  23  24
ENDBRANCH  22  23
ENDBRANCH  21  22
ENDBRANCH  20  21
ENDBRANCH  19  20
ENDBRANCH  18  19
ENDBRANCH  17  18
ENDBRANCH  16  17
ENDBRANCH  15  16
ENDBRANCH   1  15
TORSDOF 22
ENDMDL
