MODEL 1
REMARK VINA RESULT:    -6.969      0.000      0.000
REMARK INTER + INTRA:         -12.514
REMARK INTER:                 -11.450
REMARK INTRA:                  -1.063
REMARK UNBOUND:                -1.063
REMARK SMILES CC[C@H](CC[C@H](C)[C@@H]1CC[C@@H]2[C@@H]3CC=C4C[C@@H](O[C@H]5O[C@H](CO)[C@H](O)[C@@H](O)[C@H]5O)CC[C@@]4(C)[C@@H]3CC[C@@]21C)C(C)C
REMARK SMILES IDX 8 1 9 2 10 3 11 4 37 5 36 6 35 7 34 8 12 9 13 10 14 11 15 12
REMARK SMILES IDX 32 13 31 14 30 15 17 16 16 17 33 18 38 19 6 20 7 21 5 22
REMARK SMILES IDX 4 23 3 24 2 25 1 26 39 27 40 28 41 29 18 30 19 31 28 32
REMARK SMILES IDX 20 33 26 34 21 35 24 36 29 37 27 39 22 41 23 42 25 44
REMARK H PARENT 29 38 27 40 23 43 25 45
REMARK Flexibility Score: inf
ROOT
ATOM      1  C   UNL     1     -28.889  -1.227  20.004  1.00  0.00    -0.002 C 
ATOM      2  C   UNL     1     -27.390  -1.287  20.301  1.00  0.00     0.005 C 
ATOM      3  C   UNL     1     -27.145  -0.291  21.426  1.00  0.00     0.005 C 
ATOM      4  C   UNL     1     -28.507  -0.017  22.110  1.00  0.00    -0.001 C 
ATOM      5  C   UNL     1     -29.548  -0.950  21.400  1.00  0.00    -0.026 C 
ATOM      6  C   UNL     1     -29.692  -2.234  22.267  1.00  0.00     0.007 C 
ATOM      7  C   UNL     1     -30.169  -1.962  23.713  1.00  0.00     0.005 C 
ATOM      8  C   UNL     1     -29.861  -0.531  24.242  1.00  0.00     0.003 C 
ATOM      9  C   UNL     1     -28.500  -0.039  23.691  1.00  0.00     0.000 C 
ATOM     10  C   UNL     1     -27.367  -0.845  24.378  1.00  0.00     0.031 C 
ATOM     11  C   UNL     1     -27.515  -0.904  25.878  1.00  0.00    -0.027 C 
ATOM     12  C   UNL     1     -28.675  -0.673  26.531  1.00  0.00    -0.065 C 
ATOM     13  C   UNL     1     -29.979  -0.345  25.812  1.00  0.00    -0.008 C 
ATOM     14  C   UNL     1     -30.340   1.150  26.118  1.00  0.00     0.014 C 
ATOM     15  C   UNL     1     -29.744   1.742  27.427  1.00  0.00     0.033 C 
ATOM     16  C   UNL     1     -29.541   0.682  28.529  1.00  0.00     0.125 C 
ATOM     17  C   UNL     1     -28.612  -0.458  28.031  1.00  0.00     0.063 C 
ATOM     18  C   UNL     1     -31.124  -1.265  26.359  1.00  0.00     0.016 C 
ATOM     19  C   UNL     1     -30.939  -0.249  21.195  1.00  0.00     0.012 C 
ENDROOT
BRANCH   1  20
ATOM     20  C   UNL     1     -29.378  -2.470  19.168  1.00  0.00    -0.011 C 
ATOM     21  C   UNL     1     -30.770  -2.250  18.538  1.00  0.00     0.008 C 
BRANCH  20  22
ATOM     22  C   UNL     1     -28.366  -2.771  18.012  1.00  0.00     0.004 C 
BRANCH  22  23
ATOM     23  C   UNL     1     -29.006  -2.829  16.602  1.00  0.00     0.004 C 
BRANCH  23  24
ATOM     24  C   UNL     1     -28.409  -3.927  15.677  1.00  0.00    -0.009 C 
BRANCH  24  25
ATOM     25  C   UNL     1     -29.482  -4.852  15.005  1.00  0.00     0.000 C 
ATOM     26  C   UNL     1     -30.806  -4.181  14.610  1.00  0.00     0.004 C 
ENDBRANCH  24  25
BRANCH  24  27
ATOM     27  C   UNL     1     -27.371  -3.329  14.669  1.00  0.00    -0.014 C 
ATOM     28  C   UNL     1     -25.906  -3.714  14.973  1.00  0.00     0.007 C 
ATOM     29  C   UNL     1     -27.507  -1.806  14.538  1.00  0.00     0.007 C 
ENDBRANCH  24  27
ENDBRANCH  23  24
ENDBRANCH  22  23
ENDBRANCH  20  22
ENDBRANCH   1  20
BRANCH  16  30
ATOM     30  O   UNL     1     -28.915   1.322  29.639  1.00  0.00    -0.346 OA
BRANCH  30  31
ATOM     31  C   UNL     1     -29.657   1.237  30.850  1.00  0.00     0.282 C 
ATOM     32  C   UNL     1     -31.083   1.816  30.688  1.00  0.00     0.202 C 
ATOM     33  O   UNL     1     -28.899   1.668  31.980  1.00  0.00    -0.341 OA
ATOM     34  C   UNL     1     -31.840   1.745  32.044  1.00  0.00     0.179 C 
ATOM     35  C   UNL     1     -29.561   2.638  32.776  1.00  0.00     0.178 C 
ATOM     36  C   UNL     1     -30.937   2.107  33.253  1.00  0.00     0.177 C 
BRANCH  32  37
ATOM     37  O   UNL     1     -31.034   3.143  30.204  1.00  0.00    -0.385 OA
ATOM     38  H   UNL     1     -30.933   3.078  29.214  1.00  0.00     0.211 HD
ENDBRANCH  32  37
BRANCH  34  39
ATOM     39  O   UNL     1     -33.010   2.538  32.022  1.00  0.00    -0.387 OA
ATOM     40  H   UNL     1     -33.645   2.101  31.395  1.00  0.00     0.211 HD
ENDBRANCH  34  39
BRANCH  35  41
ATOM     41  C   UNL     1     -28.660   3.016  33.959  1.00  0.00     0.191 C 
BRANCH  41  42
ATOM     42  O   UNL     1     -28.619   4.414  34.093  1.00  0.00    -0.394 OA
ATOM     43  H   UNL     1     -28.373   4.584  35.043  1.00  0.00     0.210 HD
ENDBRANCH  41  42
ENDBRANCH  35  41
BRANCH  36  44
ATOM     44  O   UNL     1     -30.790   0.997  34.112  1.00  0.00    -0.387 OA
ATOM     45  H   UNL     1     -30.814   0.173  33.550  1.00  0.00     0.211 HD
ENDBRANCH  36  44
ENDBRANCH  30  31
ENDBRANCH  16  30
TORSDOF 13
ENDMDL
MODEL 2
REMARK VINA RESULT:    -6.700      0.917      2.279
REMARK INTER + INTRA:         -12.071
REMARK INTER:                 -10.707
REMARK INTRA:                  -1.364
REMARK UNBOUND:                -1.063
REMARK SMILES CC[C@H](CC[C@H](C)[C@@H]1CC[C@@H]2[C@@H]3CC=C4C[C@@H](O[C@H]5O[C@H](CO)[C@H](O)[C@@H](O)[C@H]5O)CC[C@@]4(C)[C@@H]3CC[C@@]21C)C(C)C
REMARK SMILES IDX 8 1 9 2 10 3 11 4 37 5 36 6 35 7 34 8 12 9 13 10 14 11 15 12
REMARK SMILES IDX 32 13 31 14 30 15 17 16 16 17 33 18 38 19 6 20 7 21 5 22
REMARK SMILES IDX 4 23 3 24 2 25 1 26 39 27 40 28 41 29 18 30 19 31 28 32
REMARK SMILES IDX 20 33 26 34 21 35 24 36 29 37 27 39 22 41 23 42 25 44
REMARK H PARENT 29 38 27 40 23 43 25 45
REMARK Flexibility Score: inf
ROOT
ATOM      1  C   UNL     1     -28.993  -1.088  20.245  1.00  0.00    -0.002 C 
ATOM      2  C   UNL     1     -27.501  -1.247  20.536  1.00  0.00     0.005 C 
ATOM      3  C   UNL     1     -27.195  -0.302  21.690  1.00  0.00     0.005 C 
ATOM      4  C   UNL     1     -28.538   0.031  22.386  1.00  0.00    -0.001 C 
ATOM      5  C   UNL     1     -29.634  -0.815  21.650  1.00  0.00    -0.026 C 
ATOM      6  C   UNL     1     -29.854  -2.114  22.478  1.00  0.00     0.007 C 
ATOM      7  C   UNL     1     -30.312  -1.859  23.932  1.00  0.00     0.005 C 
ATOM      8  C   UNL     1     -29.918  -0.466  24.504  1.00  0.00     0.003 C 
ATOM      9  C   UNL     1     -28.530  -0.039  23.966  1.00  0.00     0.000 C 
ATOM     10  C   UNL     1     -27.448  -0.933  24.624  1.00  0.00     0.031 C 
ATOM     11  C   UNL     1     -27.597  -1.030  26.122  1.00  0.00    -0.027 C 
ATOM     12  C   UNL     1     -28.741  -0.750  26.785  1.00  0.00    -0.065 C 
ATOM     13  C   UNL     1     -30.023  -0.322  26.079  1.00  0.00    -0.008 C 
ATOM     14  C   UNL     1     -30.294   1.182  26.433  1.00  0.00     0.014 C 
ATOM     15  C   UNL     1     -29.662   1.697  27.757  1.00  0.00     0.033 C 
ATOM     16  C   UNL     1     -29.522   0.593  28.826  1.00  0.00     0.125 C 
ATOM     17  C   UNL     1     -28.664  -0.585  28.290  1.00  0.00     0.063 C 
ATOM     18  C   UNL     1     -31.221  -1.188  26.602  1.00  0.00     0.016 C 
ATOM     19  C   UNL     1     -30.980  -0.025  21.471  1.00  0.00     0.012 C 
ENDROOT
BRANCH   1  20
ATOM     20  C   UNL     1     -29.557  -2.272  19.372  1.00  0.00    -0.011 C 
ATOM     21  C   UNL     1     -30.940  -1.955  18.765  1.00  0.00     0.008 C 
BRANCH  20  22
ATOM     22  C   UNL     1     -28.573  -2.588  18.196  1.00  0.00     0.004 C 
BRANCH  22  23
ATOM     23  C   UNL     1     -29.214  -3.361  17.017  1.00  0.00     0.004 C 
BRANCH  23  24
ATOM     24  C   UNL     1     -28.828  -2.816  15.612  1.00  0.00    -0.009 C 
BRANCH  24  25
ATOM     25  C   UNL     1     -27.285  -2.643  15.393  1.00  0.00     0.000 C 
ATOM     26  C   UNL     1     -26.862  -1.753  14.216  1.00  0.00     0.004 C 
ENDBRANCH  24  25
BRANCH  24  27
ATOM     27  C   UNL     1     -29.543  -3.612  14.469  1.00  0.00    -0.014 C 
ATOM     28  C   UNL     1     -31.052  -3.840  14.711  1.00  0.00     0.007 C 
ATOM     29  C   UNL     1     -28.842  -4.943  14.169  1.00  0.00     0.007 C 
ENDBRANCH  24  27
ENDBRANCH  23  24
ENDBRANCH  22  23
ENDBRANCH  20  22
ENDBRANCH   1  20
BRANCH  16  30
ATOM     30  O   UNL     1     -28.858   1.159  29.953  1.00  0.00    -0.346 OA
BRANCH  30  31
ATOM     31  C   UNL     1     -29.688   1.988  30.758  1.00  0.00     0.282 C 
ATOM     32  C   UNL     1     -28.891   2.651  31.907  1.00  0.00     0.202 C 
ATOM     33  O   UNL     1     -30.921   1.354  31.096  1.00  0.00    -0.341 OA
ATOM     34  C   UNL     1     -29.845   3.510  32.785  1.00  0.00     0.179 C 
ATOM     35  C   UNL     1     -31.212   1.372  32.484  1.00  0.00     0.178 C 
ATOM     36  C   UNL     1     -31.218   2.827  33.023  1.00  0.00     0.177 C 
BRANCH  32  37
ATOM     37  O   UNL     1     -28.227   1.676  32.685  1.00  0.00    -0.385 OA
ATOM     38  H   UNL     1     -28.792   0.855  32.649  1.00  0.00     0.211 HD
ENDBRANCH  32  37
BRANCH  34  39
ATOM     39  O   UNL     1     -29.233   3.871  34.007  1.00  0.00    -0.387 OA
ATOM     40  H   UNL     1     -29.264   4.862  34.066  1.00  0.00     0.211 HD
ENDBRANCH  34  39
BRANCH  35  41
ATOM     41  C   UNL     1     -32.557   0.675  32.725  1.00  0.00     0.191 C 
BRANCH  41  42
ATOM     42  O   UNL     1     -33.542   1.252  31.906  1.00  0.00    -0.394 OA
ATOM     43  H   UNL     1     -34.261   1.553  32.527  1.00  0.00     0.210 HD
ENDBRANCH  41  42
ENDBRANCH  35  41
BRANCH  36  44
ATOM     44  O   UNL     1     -32.257   3.584  32.443  1.00  0.00    -0.387 OA
ATOM     45  H   UNL     1     -32.337   3.308  31.487  1.00  0.00     0.211 HD
ENDBRANCH  36  44
ENDBRANCH  30  31
ENDBRANCH  16  30
TORSDOF 13
ENDMDL
MODEL 3
REMARK VINA RESULT:    -5.526      5.886     13.299
REMARK INTER + INTRA:         -10.144
REMARK INTER:                  -8.823
REMARK INTRA:                  -1.321
REMARK UNBOUND:                -1.063
REMARK SMILES CC[C@H](CC[C@H](C)[C@@H]1CC[C@@H]2[C@@H]3CC=C4C[C@@H](O[C@H]5O[C@H](CO)[C@H](O)[C@@H](O)[C@H]5O)CC[C@@]4(C)[C@@H]3CC[C@@]21C)C(C)C
REMARK SMILES IDX 8 1 9 2 10 3 11 4 37 5 36 6 35 7 34 8 12 9 13 10 14 11 15 12
REMARK SMILES IDX 32 13 31 14 30 15 17 16 16 17 33 18 38 19 6 20 7 21 5 22
REMARK SMILES IDX 4 23 3 24 2 25 1 26 39 27 40 28 41 29 18 30 19 31 28 32
REMARK SMILES IDX 20 33 26 34 21 35 24 36 29 37 27 39 22 41 23 42 25 44
REMARK H PARENT 29 38 27 40 23 43 25 45
REMARK Flexibility Score: inf
ROOT
ATOM      1  C   UNL     1     -29.498   0.092  27.544  1.00  0.00    -0.002 C 
ATOM      2  C   UNL     1     -28.123   0.730  27.346  1.00  0.00     0.005 C 
ATOM      3  C   UNL     1     -27.449  -0.062  26.234  1.00  0.00     0.005 C 
ATOM      4  C   UNL     1     -28.560  -0.816  25.461  1.00  0.00    -0.001 C 
ATOM      5  C   UNL     1     -29.919  -0.374  26.107  1.00  0.00    -0.026 C 
ATOM      6  C   UNL     1     -30.494   0.783  25.240  1.00  0.00     0.007 C 
ATOM      7  C   UNL     1     -30.745   0.393  23.765  1.00  0.00     0.005 C 
ATOM      8  C   UNL     1     -29.882  -0.794  23.249  1.00  0.00     0.003 C 
ATOM      9  C   UNL     1     -28.470  -0.745  23.884  1.00  0.00     0.000 C 
ATOM     10  C   UNL     1     -27.696   0.453  23.277  1.00  0.00     0.031 C 
ATOM     11  C   UNL     1     -27.768   0.498  21.771  1.00  0.00    -0.027 C 
ATOM     12  C   UNL     1     -28.711  -0.140  21.042  1.00  0.00    -0.065 C 
ATOM     13  C   UNL     1     -29.828  -0.964  21.673  1.00  0.00    -0.008 C 
ATOM     14  C   UNL     1     -29.569  -2.473  21.336  1.00  0.00     0.014 C 
ATOM     15  C   UNL     1     -28.717  -2.752  20.065  1.00  0.00     0.033 C 
ATOM     16  C   UNL     1     -28.872  -1.662  18.985  1.00  0.00     0.125 C 
ATOM     17  C   UNL     1     -28.483  -0.269  19.549  1.00  0.00     0.063 C 
ATOM     18  C   UNL     1     -31.204  -0.536  21.058  1.00  0.00     0.016 C 
ATOM     19  C   UNL     1     -30.943  -1.560  26.217  1.00  0.00     0.012 C 
ENDROOT
BRANCH   1  20
ATOM     20  C   UNL     1     -30.474   1.026  28.355  1.00  0.00    -0.011 C 
ATOM     21  C   UNL     1     -31.664   0.255  28.966  1.00  0.00     0.008 C 
BRANCH  20  22
ATOM     22  C   UNL     1     -29.701   1.728  29.521  1.00  0.00     0.004 C 
BRANCH  22  23
ATOM     23  C   UNL     1     -30.450   1.721  30.878  1.00  0.00     0.004 C 
BRANCH  23  24
ATOM     24  C   UNL     1     -29.990   2.832  31.864  1.00  0.00    -0.009 C 
BRANCH  24  25
ATOM     25  C   UNL     1     -30.942   3.034  33.093  1.00  0.00     0.000 C 
ATOM     26  C   UNL     1     -31.562   1.761  33.688  1.00  0.00     0.004 C 
ENDBRANCH  24  25
BRANCH  24  27
ATOM     27  C   UNL     1     -28.482   2.668  32.253  1.00  0.00    -0.014 C 
ATOM     28  C   UNL     1     -28.101   1.239  32.701  1.00  0.00     0.007 C 
ATOM     29  C   UNL     1     -28.043   3.693  33.306  1.00  0.00     0.007 C 
ENDBRANCH  24  27
ENDBRANCH  23  24
ENDBRANCH  22  23
ENDBRANCH  20  22
ENDBRANCH   1  20
BRANCH  16  30
ATOM     30  O   UNL     1     -27.986  -1.979  17.914  1.00  0.00    -0.346 OA
BRANCH  30  31
ATOM     31  C   UNL     1     -28.406  -3.084  17.122  1.00  0.00     0.282 C 
ATOM     32  C   UNL     1     -27.417  -3.368  15.967  1.00  0.00     0.202 C 
ATOM     33  O   UNL     1     -29.794  -3.019  16.796  1.00  0.00    -0.341 OA
ATOM     34  C   UNL     1     -27.939  -4.551  15.103  1.00  0.00     0.179 C 
ATOM     35  C   UNL     1     -30.063  -3.167  15.411  1.00  0.00     0.178 C 
ATOM     36  C   UNL     1     -29.473  -4.498  14.878  1.00  0.00     0.177 C 
BRANCH  32  37
ATOM     37  O   UNL     1     -27.222  -2.213  15.177  1.00  0.00    -0.385 OA
ATOM     38  H   UNL     1     -27.743  -1.483  15.613  1.00  0.00     0.211 HD
ENDBRANCH  32  37
BRANCH  34  39
ATOM     39  O   UNL     1     -27.243  -4.638  13.875  1.00  0.00    -0.387 OA
ATOM     40  H   UNL     1     -26.530  -5.320  13.993  1.00  0.00     0.211 HD
ENDBRANCH  34  39
BRANCH  35  41
ATOM     41  C   UNL     1     -31.578  -3.089  15.182  1.00  0.00     0.191 C 
BRANCH  41  42
ATOM     42  O   UNL     1     -31.967  -4.072  14.257  1.00  0.00    -0.394 OA
ATOM     43  H   UNL     1     -32.868  -4.375  14.554  1.00  0.00     0.210 HD
ENDBRANCH  41  42
ENDBRANCH  35  41
BRANCH  36  44
ATOM     44  O   UNL     1     -30.101  -5.612  15.473  1.00  0.00    -0.387 OA
ATOM     45  H   UNL     1     -31.065  -5.590  15.216  1.00  0.00     0.211 HD
ENDBRANCH  36  44
ENDBRANCH  30  31
ENDBRANCH  16  30
TORSDOF 13
ENDMDL
MODEL 4
REMARK VINA RESULT:    -5.480      5.975     13.457
REMARK INTER + INTRA:         -10.068
REMARK INTER:                  -8.677
REMARK INTRA:                  -1.391
REMARK UNBOUND:                -1.063
REMARK SMILES CC[C@H](CC[C@H](C)[C@@H]1CC[C@@H]2[C@@H]3CC=C4C[C@@H](O[C@H]5O[C@H](CO)[C@H](O)[C@@H](O)[C@H]5O)CC[C@@]4(C)[C@@H]3CC[C@@]21C)C(C)C
REMARK SMILES IDX 8 1 9 2 10 3 11 4 37 5 36 6 35 7 34 8 12 9 13 10 14 11 15 12
REMARK SMILES IDX 32 13 31 14 30 15 17 16 16 17 33 18 38 19 6 20 7 21 5 22
REMARK SMILES IDX 4 23 3 24 2 25 1 26 39 27 40 28 41 29 18 30 19 31 28 32
REMARK SMILES IDX 20 33 26 34 21 35 24 36 29 37 27 39 22 41 23 42 25 44
REMARK H PARENT 29 38 27 40 23 43 25 45
REMARK Flexibility Score: inf
ROOT
ATOM      1  C   UNL     1     -29.206   0.890  27.078  1.00  0.00    -0.002 C 
ATOM      2  C   UNL     1     -30.413   1.657  26.537  1.00  0.00     0.005 C 
ATOM      3  C   UNL     1     -30.110   1.939  25.072  1.00  0.00     0.005 C 
ATOM      4  C   UNL     1     -29.001   0.953  24.629  1.00  0.00    -0.001 C 
ATOM      5  C   UNL     1     -28.721   0.026  25.862  1.00  0.00    -0.026 C 
ATOM      6  C   UNL     1     -29.558  -1.272  25.671  1.00  0.00     0.007 C 
ATOM      7  C   UNL     1     -29.221  -2.047  24.376  1.00  0.00     0.005 C 
ATOM      8  C   UNL     1     -28.604  -1.182  23.240  1.00  0.00     0.003 C 
ATOM      9  C   UNL     1     -29.236   0.232  23.240  1.00  0.00     0.000 C 
ATOM     10  C   UNL     1     -30.701   0.119  22.747  1.00  0.00     0.031 C 
ATOM     11  C   UNL     1     -30.833  -0.686  21.478  1.00  0.00    -0.027 C 
ATOM     12  C   UNL     1     -29.900  -1.560  21.039  1.00  0.00    -0.065 C 
ATOM     13  C   UNL     1     -28.609  -1.843  21.799  1.00  0.00    -0.008 C 
ATOM     14  C   UNL     1     -27.416  -1.255  20.968  1.00  0.00     0.014 C 
ATOM     15  C   UNL     1     -27.661  -1.093  19.441  1.00  0.00     0.033 C 
ATOM     16  C   UNL     1     -28.647  -2.137  18.876  1.00  0.00     0.125 C 
ATOM     17  C   UNL     1     -30.013  -2.058  19.611  1.00  0.00     0.063 C 
ATOM     18  C   UNL     1     -28.414  -3.392  21.938  1.00  0.00     0.016 C 
ATOM     19  C   UNL     1     -27.195  -0.306  26.028  1.00  0.00     0.012 C 
ENDROOT
BRANCH   1  20
ATOM     20  C   UNL     1     -29.524   0.170  28.442  1.00  0.00    -0.011 C 
ATOM     21  C   UNL     1     -28.254  -0.357  29.144  1.00  0.00     0.008 C 
BRANCH  20  22
ATOM     22  C   UNL     1     -30.241   1.160  29.419  1.00  0.00     0.004 C 
BRANCH  22  23
ATOM     23  C   UNL     1     -29.369   1.626  30.611  1.00  0.00     0.004 C 
BRANCH  23  24
ATOM     24  C   UNL     1     -30.179   1.998  31.886  1.00  0.00    -0.009 C 
BRANCH  24  25
ATOM     25  C   UNL     1     -31.504   1.179  32.065  1.00  0.00     0.000 C 
ATOM     26  C   UNL     1     -32.748   1.982  32.471  1.00  0.00     0.004 C 
ENDBRANCH  24  25
BRANCH  24  27
ATOM     27  C   UNL     1     -29.269   2.015  33.160  1.00  0.00    -0.014 C 
ATOM     28  C   UNL     1     -29.014   3.427  33.732  1.00  0.00     0.007 C 
ATOM     29  C   UNL     1     -27.940   1.284  32.929  1.00  0.00     0.007 C 
ENDBRANCH  24  27
ENDBRANCH  23  24
ENDBRANCH  22  23
ENDBRANCH  20  22
ENDBRANCH   1  20
BRANCH  16  30
ATOM     30  O   UNL     1     -28.858  -1.837  17.499  1.00  0.00    -0.346 OA
BRANCH  30  31
ATOM     31  C   UNL     1     -28.734  -2.962  16.636  1.00  0.00     0.282 C 
ATOM     32  C   UNL     1     -27.425  -2.910  15.813  1.00  0.00     0.202 C 
ATOM     33  O   UNL     1     -29.943  -3.237  15.928  1.00  0.00    -0.341 OA
ATOM     34  C   UNL     1     -27.355  -4.132  14.854  1.00  0.00     0.179 C 
ATOM     35  C   UNL     1     -29.769  -3.363  14.527  1.00  0.00     0.178 C 
ATOM     36  C   UNL     1     -28.723  -4.462  14.202  1.00  0.00     0.177 C 
BRANCH  32  37
ATOM     37  O   UNL     1     -27.332  -1.696  15.095  1.00  0.00    -0.385 OA
ATOM     38  H   UNL     1     -26.405  -1.356  15.237  1.00  0.00     0.211 HD
ENDBRANCH  32  37
BRANCH  34  39
ATOM     39  O   UNL     1     -26.349  -3.959  13.875  1.00  0.00    -0.387 OA
ATOM     40  H   UNL     1     -26.078  -3.004  13.902  1.00  0.00     0.211 HD
ENDBRANCH  34  39
BRANCH  35  41
ATOM     41  C   UNL     1     -31.125  -3.664  13.876  1.00  0.00     0.191 C 
BRANCH  41  42
ATOM     42  O   UNL     1     -31.970  -4.287  14.811  1.00  0.00    -0.394 OA
ATOM     43  H   UNL     1     -32.197  -3.581  15.475  1.00  0.00     0.210 HD
ENDBRANCH  41  42
ENDBRANCH  35  41
BRANCH  36  44
ATOM     44  O   UNL     1     -29.174  -5.735  14.610  1.00  0.00    -0.387 OA
ATOM     45  H   UNL     1     -28.484  -6.402  14.336  1.00  0.00     0.211 HD
ENDBRANCH  36  44
ENDBRANCH  30  31
ENDBRANCH  16  30
TORSDOF 13
ENDMDL
MODEL 5
REMARK VINA RESULT:    -5.428      1.285      2.818
REMARK INTER + INTRA:          -9.982
REMARK INTER:                  -8.852
REMARK INTRA:                  -1.130
REMARK UNBOUND:                -1.063
REMARK SMILES CC[C@H](CC[C@H](C)[C@@H]1CC[C@@H]2[C@@H]3CC=C4C[C@@H](O[C@H]5O[C@H](CO)[C@H](O)[C@@H](O)[C@H]5O)CC[C@@]4(C)[C@@H]3CC[C@@]21C)C(C)C
REMARK SMILES IDX 8 1 9 2 10 3 11 4 37 5 36 6 35 7 34 8 12 9 13 10 14 11 15 12
REMARK SMILES IDX 32 13 31 14 30 15 17 16 16 17 33 18 38 19 6 20 7 21 5 22
REMARK SMILES IDX 4 23 3 24 2 25 1 26 39 27 40 28 41 29 18 30 19 31 28 32
REMARK SMILES IDX 20 33 26 34 21 35 24 36 29 37 27 39 22 41 23 42 25 44
REMARK H PARENT 29 38 27 40 23 43 25 45
REMARK Flexibility Score: inf
ROOT
ATOM      1  C   UNL     1     -28.964  -2.052  20.515  1.00  0.00    -0.002 C 
ATOM      2  C   UNL     1     -30.480  -1.873  20.613  1.00  0.00     0.005 C 
ATOM      3  C   UNL     1     -30.839  -2.128  22.070  1.00  0.00     0.005 C 
ATOM      4  C   UNL     1     -29.543  -1.972  22.903  1.00  0.00    -0.001 C 
ATOM      5  C   UNL     1     -28.425  -1.536  21.894  1.00  0.00    -0.026 C 
ATOM      6  C   UNL     1     -28.315   0.015  21.959  1.00  0.00     0.007 C 
ATOM      7  C   UNL     1     -27.961   0.558  23.362  1.00  0.00     0.005 C 
ATOM      8  C   UNL     1     -28.347  -0.382  24.541  1.00  0.00     0.003 C 
ATOM      9  C   UNL     1     -29.674  -1.117  24.227  1.00  0.00     0.000 C 
ATOM     10  C   UNL     1     -30.835  -0.092  24.289  1.00  0.00     0.031 C 
ATOM     11  C   UNL     1     -30.804   0.755  25.537  1.00  0.00    -0.027 C 
ATOM     12  C   UNL     1     -29.705   0.927  26.305  1.00  0.00    -0.065 C 
ATOM     13  C   UNL     1     -28.358   0.293  25.975  1.00  0.00    -0.008 C 
ATOM     14  C   UNL     1     -28.062  -0.806  27.054  1.00  0.00     0.014 C 
ATOM     15  C   UNL     1     -28.774  -0.627  28.425  1.00  0.00     0.033 C 
ATOM     16  C   UNL     1     -29.036   0.851  28.779  1.00  0.00     0.125 C 
ATOM     17  C   UNL     1     -29.892   1.537  27.681  1.00  0.00     0.063 C 
ATOM     18  C   UNL     1     -27.236   1.386  26.044  1.00  0.00     0.016 C 
ATOM     19  C   UNL     1     -27.041  -2.213  22.203  1.00  0.00     0.012 C 
ENDROOT
BRANCH   1  20
ATOM     20  C   UNL     1     -28.379  -1.432  19.190  1.00  0.00    -0.011 C 
ATOM     21  C   UNL     1     -26.838  -1.504  19.132  1.00  0.00     0.008 C 
BRANCH  20  22
ATOM     22  C   UNL     1     -28.946  -2.190  17.944  1.00  0.00     0.004 C 
BRANCH  22  23
ATOM     23  C   UNL     1     -27.914  -2.420  16.812  1.00  0.00     0.004 C 
BRANCH  23  24
ATOM     24  C   UNL     1     -28.459  -3.247  15.612  1.00  0.00    -0.009 C 
BRANCH  24  25
ATOM     25  C   UNL     1     -29.995  -3.068  15.355  1.00  0.00     0.000 C 
ATOM     26  C   UNL     1     -30.661  -4.123  14.459  1.00  0.00     0.004 C 
ENDBRANCH  24  25
BRANCH  24  27
ATOM     27  C   UNL     1     -27.576  -3.054  14.333  1.00  0.00    -0.014 C 
ATOM     28  C   UNL     1     -26.473  -4.122  14.163  1.00  0.00     0.007 C 
ATOM     29  C   UNL     1     -26.974  -1.645  14.257  1.00  0.00     0.007 C 
ENDBRANCH  24  27
ENDBRANCH  23  24
ENDBRANCH  22  23
ENDBRANCH  20  22
ENDBRANCH   1  20
BRANCH  16  30
ATOM     30  O   UNL     1     -29.764   0.884  30.005  1.00  0.00    -0.346 OA
BRANCH  30  31
ATOM     31  C   UNL     1     -29.315   1.878  30.918  1.00  0.00     0.282 C 
ATOM     32  C   UNL     1     -27.909   1.549  31.475  1.00  0.00     0.202 C 
ATOM     33  O   UNL     1     -30.324   2.243  31.860  1.00  0.00    -0.341 OA
ATOM     34  C   UNL     1     -27.479   2.636  32.501  1.00  0.00     0.179 C 
ATOM     35  C   UNL     1     -29.892   2.188  33.210  1.00  0.00     0.178 C 
ATOM     36  C   UNL     1     -28.644   3.084  33.422  1.00  0.00     0.177 C 
BRANCH  32  37
ATOM     37  O   UNL     1     -27.889   0.264  32.060  1.00  0.00    -0.385 OA
ATOM     38  H   UNL     1     -27.600   0.390  33.007  1.00  0.00     0.211 HD
ENDBRANCH  32  37
BRANCH  34  39
ATOM     39  O   UNL     1     -26.360   2.216  33.256  1.00  0.00    -0.387 OA
ATOM     40  H   UNL     1     -25.916   1.493  32.739  1.00  0.00     0.211 HD
ENDBRANCH  34  39
BRANCH  35  41
ATOM     41  C   UNL     1     -31.050   2.607  34.125  1.00  0.00     0.191 C 
BRANCH  41  42
ATOM     42  O   UNL     1     -31.662   3.764  33.614  1.00  0.00    -0.394 OA
ATOM     43  H   UNL     1     -31.155   4.527  34.003  1.00  0.00     0.210 HD
ENDBRANCH  41  42
ENDBRANCH  35  41
BRANCH  36  44
ATOM     44  O   UNL     1     -28.949   4.446  33.211  1.00  0.00    -0.387 OA
ATOM     45  H   UNL     1     -29.592   4.726  33.921  1.00  0.00     0.211 HD
ENDBRANCH  36  44
ENDBRANCH  30  31
ENDBRANCH  16  30
TORSDOF 13
ENDMDL
MODEL 6
REMARK VINA RESULT:    -5.415      1.303      3.044
REMARK INTER + INTRA:          -9.961
REMARK INTER:                  -8.849
REMARK INTRA:                  -1.112
REMARK UNBOUND:                -1.063
REMARK SMILES CC[C@H](CC[C@H](C)[C@@H]1CC[C@@H]2[C@@H]3CC=C4C[C@@H](O[C@H]5O[C@H](CO)[C@H](O)[C@@H](O)[C@H]5O)CC[C@@]4(C)[C@@H]3CC[C@@]21C)C(C)C
REMARK SMILES IDX 8 1 9 2 10 3 11 4 37 5 36 6 35 7 34 8 12 9 13 10 14 11 15 12
REMARK SMILES IDX 32 13 31 14 30 15 17 16 16 17 33 18 38 19 6 20 7 21 5 22
REMARK SMILES IDX 4 23 3 24 2 25 1 26 39 27 40 28 41 29 18 30 19 31 28 32
REMARK SMILES IDX 20 33 26 34 21 35 24 36 29 37 27 39 22 41 23 42 25 44
REMARK H PARENT 29 38 27 40 23 43 25 45
REMARK Flexibility Score: inf
ROOT
ATOM      1  C   UNL     1     -28.823  -2.104  20.394  1.00  0.00    -0.002 C 
ATOM      2  C   UNL     1     -30.333  -1.862  20.410  1.00  0.00     0.005 C 
ATOM      3  C   UNL     1     -30.778  -2.087  21.849  1.00  0.00     0.005 C 
ATOM      4  C   UNL     1     -29.522  -1.976  22.747  1.00  0.00    -0.001 C 
ATOM      5  C   UNL     1     -28.335  -1.596  21.795  1.00  0.00    -0.026 C 
ATOM      6  C   UNL     1     -28.166  -0.050  21.854  1.00  0.00     0.007 C 
ATOM      7  C   UNL     1     -27.863   0.492  23.270  1.00  0.00     0.005 C 
ATOM      8  C   UNL     1     -28.349  -0.419  24.434  1.00  0.00     0.003 C 
ATOM      9  C   UNL     1     -29.686  -1.103  24.056  1.00  0.00     0.000 C 
ATOM     10  C   UNL     1     -30.806  -0.031  24.049  1.00  0.00     0.031 C 
ATOM     11  C   UNL     1     -30.806   0.827  25.290  1.00  0.00    -0.027 C 
ATOM     12  C   UNL     1     -29.742   0.962  26.113  1.00  0.00    -0.065 C 
ATOM     13  C   UNL     1     -28.407   0.270  25.860  1.00  0.00    -0.008 C 
ATOM     14  C   UNL     1     -28.213  -0.829  26.962  1.00  0.00     0.014 C 
ATOM     15  C   UNL     1     -28.989  -0.608  28.292  1.00  0.00     0.033 C 
ATOM     16  C   UNL     1     -29.207   0.884  28.620  1.00  0.00     0.125 C 
ATOM     17  C   UNL     1     -29.976   1.593  27.472  1.00  0.00     0.063 C 
ATOM     18  C   UNL     1     -27.246   1.317  25.979  1.00  0.00     0.016 C 
ATOM     19  C   UNL     1     -26.999  -2.326  22.183  1.00  0.00     0.012 C 
ENDROOT
BRANCH   1  20
ATOM     20  C   UNL     1     -28.144  -1.521  19.097  1.00  0.00    -0.011 C 
ATOM     21  C   UNL     1     -26.603  -1.602  19.148  1.00  0.00     0.008 C 
BRANCH  20  22
ATOM     22  C   UNL     1     -28.629  -2.310  17.836  1.00  0.00     0.004 C 
BRANCH  22  23
ATOM     23  C   UNL     1     -28.178  -1.697  16.486  1.00  0.00     0.004 C 
BRANCH  23  24
ATOM     24  C   UNL     1     -28.041  -2.729  15.331  1.00  0.00    -0.009 C 
BRANCH  24  25
ATOM     25  C   UNL     1     -26.659  -3.469  15.293  1.00  0.00     0.000 C 
ATOM     26  C   UNL     1     -25.672  -3.009  14.211  1.00  0.00     0.004 C 
ENDBRANCH  24  25
BRANCH  24  27
ATOM     27  C   UNL     1     -29.275  -3.691  15.270  1.00  0.00    -0.014 C 
ATOM     28  C   UNL     1     -29.018  -4.994  14.481  1.00  0.00     0.007 C 
ATOM     29  C   UNL     1     -30.530  -2.985  14.743  1.00  0.00     0.007 C 
ENDBRANCH  24  27
ENDBRANCH  23  24
ENDBRANCH  22  23
ENDBRANCH  20  22
ENDBRANCH   1  20
BRANCH  16  30
ATOM     30  O   UNL     1     -29.996   0.959  29.805  1.00  0.00    -0.346 OA
BRANCH  30  31
ATOM     31  C   UNL     1     -29.498   1.872  30.775  1.00  0.00     0.282 C 
ATOM     32  C   UNL     1     -28.063   1.504  31.222  1.00  0.00     0.202 C 
ATOM     33  O   UNL     1     -30.453   2.148  31.799  1.00  0.00    -0.341 OA
ATOM     34  C   UNL     1     -27.578   2.500  32.314  1.00  0.00     0.179 C 
ATOM     35  C   UNL     1     -29.947   1.978  33.113  1.00  0.00     0.178 C 
ATOM     36  C   UNL     1     -28.690   2.860  33.334  1.00  0.00     0.177 C 
BRANCH  32  37
ATOM     37  O   UNL     1     -28.009   0.173  31.692  1.00  0.00    -0.385 OA
ATOM     38  H   UNL     1     -28.141  -0.412  30.895  1.00  0.00     0.211 HD
ENDBRANCH  32  37
BRANCH  34  39
ATOM     39  O   UNL     1     -26.418   2.022  32.967  1.00  0.00    -0.387 OA
ATOM     40  H   UNL     1     -26.290   2.582  33.777  1.00  0.00     0.211 HD
ENDBRANCH  34  39
BRANCH  35  41
ATOM     41  C   UNL     1     -31.053   2.309  34.125  1.00  0.00     0.191 C 
BRANCH  41  42
ATOM     42  O   UNL     1     -31.679   3.513  33.763  1.00  0.00    -0.394 OA
ATOM     43  H   UNL     1     -31.212   3.819  32.938  1.00  0.00     0.210 HD
ENDBRANCH  41  42
ENDBRANCH  35  41
BRANCH  36  44
ATOM     44  O   UNL     1     -29.007   4.233  33.260  1.00  0.00    -0.387 OA
ATOM     45  H   UNL     1     -29.671   4.430  33.978  1.00  0.00     0.211 HD
ENDBRANCH  36  44
ENDBRANCH  30  31
ENDBRANCH  16  30
TORSDOF 13
ENDMDL
MODEL 7
REMARK VINA RESULT:    -5.024      1.247      2.381
REMARK INTER + INTRA:          -9.318
REMARK INTER:                  -8.646
REMARK INTRA:                  -0.671
REMARK UNBOUND:                -1.063
REMARK SMILES CC[C@H](CC[C@H](C)[C@@H]1CC[C@@H]2[C@@H]3CC=C4C[C@@H](O[C@H]5O[C@H](CO)[C@H](O)[C@@H](O)[C@H]5O)CC[C@@]4(C)[C@@H]3CC[C@@]21C)C(C)C
REMARK SMILES IDX 8 1 9 2 10 3 11 4 37 5 36 6 35 7 34 8 12 9 13 10 14 11 15 12
REMARK SMILES IDX 32 13 31 14 30 15 17 16 16 17 33 18 38 19 6 20 7 21 5 22
REMARK SMILES IDX 4 23 3 24 2 25 1 26 39 27 40 28 41 29 18 30 19 31 28 32
REMARK SMILES IDX 20 33 26 34 21 35 24 36 29 37 27 39 22 41 23 42 25 44
REMARK H PARENT 29 38 27 40 23 43 25 45
REMARK Flexibility Score: inf
ROOT
ATOM      1  C   UNL     1     -29.384  -2.165  20.038  1.00  0.00    -0.002 C 
ATOM      2  C   UNL     1     -30.708  -1.413  19.896  1.00  0.00     0.005 C 
ATOM      3  C   UNL     1     -31.340  -1.410  21.281  1.00  0.00     0.005 C 
ATOM      4  C   UNL     1     -30.217  -1.706  22.305  1.00  0.00    -0.001 C 
ATOM      5  C   UNL     1     -28.887  -1.802  21.481  1.00  0.00    -0.026 C 
ATOM      6  C   UNL     1     -28.193  -0.411  21.549  1.00  0.00     0.007 C 
ATOM      7  C   UNL     1     -27.858   0.050  22.987  1.00  0.00     0.005 C 
ATOM      8  C   UNL     1     -28.742  -0.587  24.098  1.00  0.00     0.003 C 
ATOM      9  C   UNL     1     -30.191  -0.778  23.585  1.00  0.00     0.000 C 
ATOM     10  C   UNL     1     -30.858   0.615  23.457  1.00  0.00     0.031 C 
ATOM     11  C   UNL     1     -30.677   1.470  24.687  1.00  0.00    -0.027 C 
ATOM     12  C   UNL     1     -29.718   1.260  25.616  1.00  0.00    -0.065 C 
ATOM     13  C   UNL     1     -28.692   0.137  25.507  1.00  0.00    -0.008 C 
ATOM     14  C   UNL     1     -29.003  -0.915  26.628  1.00  0.00     0.014 C 
ATOM     15  C   UNL     1     -29.776  -0.384  27.868  1.00  0.00     0.033 C 
ATOM     16  C   UNL     1     -29.488   1.102  28.165  1.00  0.00     0.125 C 
ATOM     17  C   UNL     1     -29.846   1.987  26.940  1.00  0.00     0.063 C 
ATOM     18  C   UNL     1     -27.255   0.718  25.742  1.00  0.00     0.016 C 
ATOM     19  C   UNL     1     -27.934  -2.934  22.009  1.00  0.00     0.012 C 
ENDROOT
BRANCH   1  20
ATOM     20  C   UNL     1     -28.422  -1.908  18.817  1.00  0.00    -0.011 C 
ATOM     21  C   UNL     1     -26.934  -1.901  19.226  1.00  0.00     0.008 C 
BRANCH  20  22
ATOM     22  C   UNL     1     -28.621  -3.020  17.733  1.00  0.00     0.004 C 
BRANCH  22  23
ATOM     23  C   UNL     1     -28.284  -2.571  16.289  1.00  0.00     0.004 C 
BRANCH  23  24
ATOM     24  C   UNL     1     -27.999  -3.744  15.308  1.00  0.00    -0.009 C 
BRANCH  24  25
ATOM     25  C   UNL     1     -29.274  -4.556  14.892  1.00  0.00     0.000 C 
ATOM     26  C   UNL     1     -30.536  -3.733  14.594  1.00  0.00     0.004 C 
ENDBRANCH  24  25
BRANCH  24  27
ATOM     27  C   UNL     1     -27.122  -3.281  14.097  1.00  0.00    -0.014 C 
ATOM     28  C   UNL     1     -25.853  -4.134  13.876  1.00  0.00     0.007 C 
ATOM     29  C   UNL     1     -26.757  -1.793  14.186  1.00  0.00     0.007 C 
ENDBRANCH  24  27
ENDBRANCH  23  24
ENDBRANCH  22  23
ENDBRANCH  20  22
ENDBRANCH   1  20
BRANCH  16  30
ATOM     30  O   UNL     1     -30.312   1.495  29.261  1.00  0.00    -0.346 OA
BRANCH  30  31
ATOM     31  C   UNL     1     -29.759   1.195  30.537  1.00  0.00     0.282 C 
ATOM     32  C   UNL     1     -30.851   1.123  31.631  1.00  0.00     0.202 C 
ATOM     33  O   UNL     1     -28.598   1.976  30.821  1.00  0.00    -0.341 OA
ATOM     34  C   UNL     1     -30.197   0.840  33.013  1.00  0.00     0.179 C 
ATOM     35  C   UNL     1     -28.647   2.639  32.073  1.00  0.00     0.178 C 
ATOM     36  C   UNL     1     -28.874   1.623  33.222  1.00  0.00     0.177 C 
BRANCH  32  37
ATOM     37  O   UNL     1     -31.608   2.316  31.664  1.00  0.00    -0.385 OA
ATOM     38  H   UNL     1     -32.051   2.392  30.774  1.00  0.00     0.211 HD
ENDBRANCH  32  37
BRANCH  34  39
ATOM     39  O   UNL     1     -31.106   1.076  34.070  1.00  0.00    -0.387 OA
ATOM     40  H   UNL     1     -30.824   1.920  34.512  1.00  0.00     0.211 HD
ENDBRANCH  34  39
BRANCH  35  41
ATOM     41  C   UNL     1     -27.351   3.436  32.272  1.00  0.00     0.191 C 
BRANCH  41  42
ATOM     42  O   UNL     1     -26.257   2.679  31.818  1.00  0.00    -0.394 OA
ATOM     43  H   UNL     1     -26.363   2.626  30.829  1.00  0.00     0.210 HD
ENDBRANCH  41  42
ENDBRANCH  35  41
BRANCH  36  44
ATOM     44  O   UNL     1     -27.785   0.734  33.344  1.00  0.00    -0.387 OA
ATOM     45  H   UNL     1     -27.264   0.775  32.494  1.00  0.00     0.211 HD
ENDBRANCH  36  44
ENDBRANCH  30  31
ENDBRANCH  16  30
TORSDOF 13
ENDMDL
MODEL 8
REMARK VINA RESULT:    -4.989      5.711     13.301
REMARK INTER + INTRA:          -9.260
REMARK INTER:                  -7.748
REMARK INTRA:                  -1.511
REMARK UNBOUND:                -1.063
REMARK SMILES CC[C@H](CC[C@H](C)[C@@H]1CC[C@@H]2[C@@H]3CC=C4C[C@@H](O[C@H]5O[C@H](CO)[C@H](O)[C@@H](O)[C@H]5O)CC[C@@]4(C)[C@@H]3CC[C@@]21C)C(C)C
REMARK SMILES IDX 8 1 9 2 10 3 11 4 37 5 36 6 35 7 34 8 12 9 13 10 14 11 15 12
REMARK SMILES IDX 32 13 31 14 30 15 17 16 16 17 33 18 38 19 6 20 7 21 5 22
REMARK SMILES IDX 4 23 3 24 2 25 1 26 39 27 40 28 41 29 18 30 19 31 28 32
REMARK SMILES IDX 20 33 26 34 21 35 24 36 29 37 27 39 22 41 23 42 25 44
REMARK H PARENT 29 38 27 40 23 43 25 45
REMARK Flexibility Score: inf
ROOT
ATOM      1  C   UNL     1     -29.542   0.327  27.977  1.00  0.00    -0.002 C 
ATOM      2  C   UNL     1     -28.104   0.815  27.799  1.00  0.00     0.005 C 
ATOM      3  C   UNL     1     -27.489  -0.072  26.725  1.00  0.00     0.005 C 
ATOM      4  C   UNL     1     -28.654  -0.729  25.942  1.00  0.00    -0.001 C 
ATOM      5  C   UNL     1     -29.974  -0.133  26.542  1.00  0.00    -0.026 C 
ATOM      6  C   UNL     1     -30.407   1.053  25.631  1.00  0.00     0.007 C 
ATOM      7  C   UNL     1     -30.663   0.650  24.160  1.00  0.00     0.005 C 
ATOM      8  C   UNL     1     -29.914  -0.633  23.697  1.00  0.00     0.003 C 
ATOM      9  C   UNL     1     -28.520  -0.711  24.366  1.00  0.00     0.000 C 
ATOM     10  C   UNL     1     -27.613   0.385  23.751  1.00  0.00     0.031 C 
ATOM     11  C   UNL     1     -27.645   0.395  22.242  1.00  0.00    -0.027 C 
ATOM     12  C   UNL     1     -28.631  -0.163  21.505  1.00  0.00    -0.065 C 
ATOM     13  C   UNL     1     -29.842  -0.850  22.128  1.00  0.00    -0.008 C 
ATOM     14  C   UNL     1     -29.732  -2.387  21.835  1.00  0.00     0.014 C 
ATOM     15  C   UNL     1     -28.884  -2.787  20.594  1.00  0.00     0.033 C 
ATOM     16  C   UNL     1     -28.901  -1.716  19.483  1.00  0.00     0.125 C 
ATOM     17  C   UNL     1     -28.383  -0.355  20.022  1.00  0.00     0.063 C 
ATOM     18  C   UNL     1     -31.152  -0.300  21.466  1.00  0.00     0.016 C 
ATOM     19  C   UNL     1     -31.118  -1.204  26.655  1.00  0.00     0.012 C 
ENDROOT
BRANCH   1  20
ATOM     20  C   UNL     1     -30.434   1.379  28.739  1.00  0.00    -0.011 C 
ATOM     21  C   UNL     1     -31.612   0.723  29.491  1.00  0.00     0.008 C 
BRANCH  20  22
ATOM     22  C   UNL     1     -29.570   2.163  29.781  1.00  0.00     0.004 C 
BRANCH  22  23
ATOM     23  C   UNL     1     -30.321   2.533  31.085  1.00  0.00     0.004 C 
BRANCH  23  24
ATOM     24  C   UNL     1     -29.540   2.197  32.387  1.00  0.00    -0.009 C 
BRANCH  24  25
ATOM     25  C   UNL     1     -28.328   3.150  32.671  1.00  0.00     0.000 C 
ATOM     26  C   UNL     1     -26.974   2.469  32.923  1.00  0.00     0.004 C 
ENDBRANCH  24  25
BRANCH  24  27
ATOM     27  C   UNL     1     -30.506   2.022  33.607  1.00  0.00    -0.014 C 
ATOM     28  C   UNL     1     -31.599   0.951  33.395  1.00  0.00     0.007 C 
ATOM     29  C   UNL     1     -31.137   3.352  34.038  1.00  0.00     0.007 C 
ENDBRANCH  24  27
ENDBRANCH  23  24
ENDBRANCH  22  23
ENDBRANCH  20  22
ENDBRANCH   1  20
BRANCH  16  30
ATOM     30  O   UNL     1     -28.027  -2.152  18.444  1.00  0.00    -0.346 OA
BRANCH  30  31
ATOM     31  C   UNL     1     -28.660  -2.296  17.178  1.00  0.00     0.282 C 
ATOM     32  C   UNL     1     -29.428  -3.635  17.072  1.00  0.00     0.202 C 
ATOM     33  O   UNL     1     -27.794  -1.949  16.098  1.00  0.00    -0.341 OA
ATOM     34  C   UNL     1     -30.063  -3.770  15.659  1.00  0.00     0.179 C 
ATOM     35  C   UNL     1     -27.715  -2.942  15.087  1.00  0.00     0.178 C 
ATOM     36  C   UNL     1     -29.125  -3.267  14.530  1.00  0.00     0.177 C 
BRANCH  32  37
ATOM     37  O   UNL     1     -28.574  -4.727  17.349  1.00  0.00    -0.385 OA
ATOM     38  H   UNL     1     -28.787  -5.021  18.278  1.00  0.00     0.211 HD
ENDBRANCH  32  37
BRANCH  34  39
ATOM     39  O   UNL     1     -30.498  -5.093  15.414  1.00  0.00    -0.387 OA
ATOM     40  H   UNL     1     -30.975  -5.085  14.543  1.00  0.00     0.211 HD
ENDBRANCH  34  39
BRANCH  35  41
ATOM     41  C   UNL     1     -26.768  -2.459  13.981  1.00  0.00     0.191 C 
BRANCH  41  42
ATOM     42  O   UNL     1     -26.675  -1.057  14.017  1.00  0.00    -0.394 OA
ATOM     43  H   UNL     1     -26.453  -0.781  13.086  1.00  0.00     0.210 HD
ENDBRANCH  41  42
ENDBRANCH  35  41
BRANCH  36  44
ATOM     44  O   UNL     1     -29.689  -2.152  13.875  1.00  0.00    -0.387 OA
ATOM     45  H   UNL     1     -30.380  -1.762  14.481  1.00  0.00     0.211 HD
ENDBRANCH  36  44
ENDBRANCH  30  31
ENDBRANCH  16  30
TORSDOF 13
ENDMDL
MODEL 9
REMARK VINA RESULT:    -4.317      5.958     13.486
REMARK INTER + INTRA:          -8.156
REMARK INTER:                  -7.447
REMARK INTRA:                  -0.709
REMARK UNBOUND:                -1.063
REMARK SMILES CC[C@H](CC[C@H](C)[C@@H]1CC[C@@H]2[C@@H]3CC=C4C[C@@H](O[C@H]5O[C@H](CO)[C@H](O)[C@@H](O)[C@H]5O)CC[C@@]4(C)[C@@H]3CC[C@@]21C)C(C)C
REMARK SMILES IDX 8 1 9 2 10 3 11 4 37 5 36 6 35 7 34 8 12 9 13 10 14 11 15 12
REMARK SMILES IDX 32 13 31 14 30 15 17 16 16 17 33 18 38 19 6 20 7 21 5 22
REMARK SMILES IDX 4 23 3 24 2 25 1 26 39 27 40 28 41 29 18 30 19 31 28 32
REMARK SMILES IDX 20 33 26 34 21 35 24 36 29 37 27 39 22 41 23 42 25 44
REMARK H PARENT 29 38 27 40 23 43 25 45
REMARK Flexibility Score: inf
ROOT
ATOM      1  C   UNL     1     -30.091   0.572  27.220  1.00  0.00    -0.002 C 
ATOM      2  C   UNL     1     -31.298  -0.355  27.068  1.00  0.00     0.005 C 
ATOM      3  C   UNL     1     -31.669  -0.323  25.592  1.00  0.00     0.005 C 
ATOM      4  C   UNL     1     -30.436   0.201  24.814  1.00  0.00    -0.001 C 
ATOM      5  C   UNL     1     -29.300   0.399  25.876  1.00  0.00    -0.026 C 
ATOM      6  C   UNL     1     -28.414  -0.880  25.856  1.00  0.00     0.007 C 
ATOM      7  C   UNL     1     -27.768  -1.171  24.482  1.00  0.00     0.005 C 
ATOM      8  C   UNL     1     -28.523  -0.563  23.265  1.00  0.00     0.003 C 
ATOM      9  C   UNL     1     -30.052  -0.605  23.509  1.00  0.00     0.000 C 
ATOM     10  C   UNL     1     -30.525  -2.079  23.429  1.00  0.00     0.031 C 
ATOM     11  C   UNL     1     -30.010  -2.797  22.206  1.00  0.00    -0.027 C 
ATOM     12  C   UNL     1     -28.942  -2.387  21.485  1.00  0.00    -0.065 C 
ATOM     13  C   UNL     1     -28.122  -1.154  21.850  1.00  0.00    -0.008 C 
ATOM     14  C   UNL     1     -28.377  -0.060  20.755  1.00  0.00     0.014 C 
ATOM     15  C   UNL     1     -28.835  -0.581  19.363  1.00  0.00     0.033 C 
ATOM     16  C   UNL     1     -28.290  -1.988  19.038  1.00  0.00     0.125 C 
ATOM     17  C   UNL     1     -28.728  -3.011  20.120  1.00  0.00     0.063 C 
ATOM     18  C   UNL     1     -26.599  -1.522  21.853  1.00  0.00     0.016 C 
ATOM     19  C   UNL     1     -28.441   1.686  25.602  1.00  0.00     0.012 C 
ENDROOT
BRANCH   1  20
ATOM     20  C   UNL     1     -29.333   0.341  28.581  1.00  0.00    -0.011 C 
ATOM     21  C   UNL     1     -27.866   0.820  28.533  1.00  0.00     0.008 C 
BRANCH  20  22
ATOM     22  C   UNL     1     -30.056   1.111  29.736  1.00  0.00     0.004 C 
BRANCH  22  23
ATOM     23  C   UNL     1     -29.110   1.632  30.847  1.00  0.00     0.004 C 
BRANCH  23  24
ATOM     24  C   UNL     1     -29.761   2.673  31.802  1.00  0.00    -0.009 C 
BRANCH  24  25
ATOM     25  C   UNL     1     -31.329   2.652  31.801  1.00  0.00     0.000 C 
ATOM     26  C   UNL     1     -32.009   2.674  33.177  1.00  0.00     0.004 C 
ENDBRANCH  24  25
BRANCH  24  27
ATOM     27  C   UNL     1     -29.129   2.614  33.233  1.00  0.00    -0.014 C 
ATOM     28  C   UNL     1     -28.478   3.940  33.687  1.00  0.00     0.007 C 
ATOM     29  C   UNL     1     -28.136   1.454  33.377  1.00  0.00     0.007 C 
ENDBRANCH  24  27
ENDBRANCH  23  24
ENDBRANCH  22  23
ENDBRANCH  20  22
ENDBRANCH   1  20
BRANCH  16  30
ATOM     30  O   UNL     1     -28.842  -2.391  17.787  1.00  0.00    -0.346 OA
BRANCH  30  31
ATOM     31  C   UNL     1     -27.891  -2.946  16.886  1.00  0.00     0.282 C 
ATOM     32  C   UNL     1     -27.061  -1.846  16.182  1.00  0.00     0.202 C 
ATOM     33  O   UNL     1     -28.456  -3.968  16.064  1.00  0.00    -0.341 OA
ATOM     34  C   UNL     1     -26.068  -2.495  15.176  1.00  0.00     0.179 C 
ATOM     35  C   UNL     1     -28.217  -3.783  14.679  1.00  0.00     0.178 C 
ATOM     36  C   UNL     1     -26.696  -3.679  14.395  1.00  0.00     0.177 C 
BRANCH  32  37
ATOM     37  O   UNL     1     -27.905  -0.918  15.533  1.00  0.00    -0.385 OA
ATOM     38  H   UNL     1     -28.358  -1.416  14.797  1.00  0.00     0.211 HD
ENDBRANCH  32  37
BRANCH  34  39
ATOM     39  O   UNL     1     -25.523  -1.531  14.298  1.00  0.00    -0.387 OA
ATOM     40  H   UNL     1     -26.279  -1.154  13.775  1.00  0.00     0.211 HD
ENDBRANCH  34  39
BRANCH  35  41
ATOM     41  C   UNL     1     -28.859  -4.939  13.900  1.00  0.00     0.191 C 
BRANCH  41  42
ATOM     42  O   UNL     1     -29.760  -5.626  14.731  1.00  0.00    -0.394 OA
ATOM     43  H   UNL     1     -29.270  -5.780  15.584  1.00  0.00     0.210 HD
ENDBRANCH  41  42
ENDBRANCH  35  41
BRANCH  36  44
ATOM     44  O   UNL     1     -26.032  -4.885  14.702  1.00  0.00    -0.387 OA
ATOM     45  H   UNL     1     -25.051  -4.714  14.647  1.00  0.00     0.211 HD
ENDBRANCH  36  44
ENDBRANCH  30  31
ENDBRANCH  16  30
TORSDOF 13
ENDMDL
