MODEL 1
REMARK VINA RESULT:     5.302      0.000      0.000
REMARK INTER + INTRA:           9.680
REMARK INTER:                   9.642
REMARK INTRA:                   0.038
REMARK UNBOUND:                 0.038
REMARK SMILES CCCCCCCCCCCCCCCC(=O)[O-]
REMARK SMILES IDX 9 1 10 2 11 3 12 4 13 5 14 6 15 7 16 8 17 9 18 10 8 11 7 12
REMARK SMILES IDX 6 13 5 14 4 15 3 16 2 17 1 18
REMARK H PARENT
REMARK Flexibility Score: inf
ROOT
ATOM      1  C   UNL     1     -29.365   7.122  -1.915  1.00  0.00     0.000 C 
ENDROOT
BRANCH   1   2
ATOM      2  C   UNL     1     -28.015   7.789  -1.605  1.00  0.00     0.000 C 
BRANCH   2   3
ATOM      3  C   UNL     1     -27.887   8.215  -0.132  1.00  0.00     0.000 C 
BRANCH   3   4
ATOM      4  C   UNL     1     -28.442   7.156   0.835  1.00  0.00     0.000 C 
BRANCH   4   5
ATOM      5  C   UNL     1     -29.604   7.689   1.694  1.00  0.00     0.000 C 
BRANCH   5   6
ATOM      6  C   UNL     1     -30.895   6.876   1.507  1.00  0.00     0.006 C 
BRANCH   6   7
ATOM      7  C   UNL     1     -31.414   6.920   0.065  1.00  0.00     0.053 C 
BRANCH   7   8
ATOM      8  C   UNL     1     -32.434   8.004  -0.092  1.00  0.00     0.041 C 
ATOM      9  O   UNL     1     -32.856   8.626   0.918  1.00  0.00    -0.550 OA
ATOM     10  O   UNL     1     -32.950   8.299  -1.349  1.00  0.00    -0.550 OA
ENDBRANCH   7   8
ENDBRANCH   6   7
ENDBRANCH   5   6
ENDBRANCH   4   5
ENDBRANCH   3   4
ENDBRANCH   2   3
ENDBRANCH   1   2
BRANCH   1  11
ATOM     11  C   UNL     1     -29.801   7.318  -3.378  1.00  0.00     0.000 C 
BRANCH  11  12
ATOM     12  C   UNL     1     -28.647   7.115  -4.378  1.00  0.00    -0.000 C 
BRANCH  12  13
ATOM     13  C   UNL     1     -27.679   8.306  -4.512  1.00  0.00    -0.000 C 
BRANCH  13  14
ATOM     14  C   UNL     1     -28.051   9.334  -5.598  1.00  0.00    -0.000 C 
BRANCH  14  15
ATOM     15  C   UNL     1     -27.414   9.043  -6.975  1.00  0.00    -0.000 C 
BRANCH  15  16
ATOM     16  C   UNL     1     -26.019   9.677  -7.125  1.00  0.00    -0.000 C 
BRANCH  16  17
ATOM     17  C   UNL     1     -24.885   8.651  -6.968  1.00  0.00    -0.003 C 
ATOM     18  C   UNL     1     -25.388   7.206  -6.995  1.00  0.00     0.004 C 
ENDBRANCH  16  17
ENDBRANCH  15  16
ENDBRANCH  14  15
ENDBRANCH  13  14
ENDBRANCH  12  13
ENDBRANCH  11  12
ENDBRANCH   1  11
TORSDOF 14
ENDMDL
MODEL 2
REMARK VINA RESULT:     5.642      3.871      7.766
REMARK INTER + INTRA:          10.297
REMARK INTER:                  11.013
REMARK INTRA:                  -0.715
REMARK UNBOUND:                 0.038
REMARK SMILES CCCCCCCCCCCCCCCC(=O)[O-]
REMARK SMILES IDX 9 1 10 2 11 3 12 4 13 5 14 6 15 7 16 8 17 9 18 10 8 11 7 12
REMARK SMILES IDX 6 13 5 14 4 15 3 16 2 17 1 18
REMARK H PARENT
REMARK Flexibility Score: inf
ROOT
ATOM      1  C   UNL     1     -29.975   7.285   0.613  1.00  0.00     0.000 C 
ENDROOT
BRANCH   1   2
ATOM      2  C   UNL     1     -28.949   7.477  -0.516  1.00  0.00     0.000 C 
BRANCH   2   3
ATOM      3  C   UNL     1     -29.466   6.985  -1.879  1.00  0.00     0.000 C 
BRANCH   3   4
ATOM      4  C   UNL     1     -28.954   7.847  -3.046  1.00  0.00     0.000 C 
BRANCH   4   5
ATOM      5  C   UNL     1     -27.432   8.077  -2.988  1.00  0.00     0.000 C 
BRANCH   5   6
ATOM      6  C   UNL     1     -26.726   7.671  -4.291  1.00  0.00     0.006 C 
BRANCH   6   7
ATOM      7  C   UNL     1     -27.434   8.216  -5.538  1.00  0.00     0.053 C 
BRANCH   7   8
ATOM      8  C   UNL     1     -26.435   8.732  -6.525  1.00  0.00     0.041 C 
ATOM      9  O   UNL     1     -26.570   9.883  -7.018  1.00  0.00    -0.550 OA
ATOM     10  O   UNL     1     -25.378   7.927  -6.933  1.00  0.00    -0.550 OA
ENDBRANCH   7   8
ENDBRANCH   6   7
ENDBRANCH   5   6
ENDBRANCH   4   5
ENDBRANCH   3   4
ENDBRANCH   2   3
ENDBRANCH   1   2
BRANCH   1  11
ATOM     11  C   UNL     1     -31.357   6.852   0.091  1.00  0.00     0.000 C 
BRANCH  11  12
ATOM     12  C   UNL     1     -32.350   8.025  -0.011  1.00  0.00    -0.000 C 
BRANCH  12  13
ATOM     13  C   UNL     1     -32.820   8.604   1.336  1.00  0.00    -0.000 C 
BRANCH  13  14
ATOM     14  C   UNL     1     -33.547   9.960   1.249  1.00  0.00    -0.000 C 
BRANCH  14  15
ATOM     15  C   UNL     1     -33.078  10.845   0.073  1.00  0.00    -0.000 C 
BRANCH  15  16
ATOM     16  C   UNL     1     -33.395  12.334   0.293  1.00  0.00    -0.000 C 
BRANCH  16  17
ATOM     17  C   UNL     1     -33.467  13.123  -1.025  1.00  0.00    -0.003 C 
ATOM     18  C   UNL     1     -34.566  12.611  -1.959  1.00  0.00     0.004 C 
ENDBRANCH  16  17
ENDBRANCH  15  16
ENDBRANCH  14  15
ENDBRANCH  13  14
ENDBRANCH  12  13
ENDBRANCH  11  12
ENDBRANCH   1  11
TORSDOF 14
ENDMDL
MODEL 3
REMARK VINA RESULT:     5.660      2.230      3.136
REMARK INTER + INTRA:          10.330
REMARK INTER:                   9.333
REMARK INTRA:                   0.996
REMARK UNBOUND:                 0.038
REMARK SMILES CCCCCCCCCCCCCCCC(=O)[O-]
REMARK SMILES IDX 9 1 10 2 11 3 12 4 13 5 14 6 15 7 16 8 17 9 18 10 8 11 7 12
REMARK SMILES IDX 6 13 5 14 4 15 3 16 2 17 1 18
REMARK H PARENT
REMARK Flexibility Score: inf
ROOT
ATOM      1  C   UNL     1     -30.526   6.583  -1.552  1.00  0.00     0.000 C 
ENDROOT
BRANCH   1   2
ATOM      2  C   UNL     1     -31.725   7.543  -1.493  1.00  0.00     0.000 C 
BRANCH   2   3
ATOM      3  C   UNL     1     -32.206   7.806  -0.055  1.00  0.00     0.000 C 
BRANCH   3   4
ATOM      4  C   UNL     1     -31.632   6.793   0.950  1.00  0.00     0.000 C 
BRANCH   4   5
ATOM      5  C   UNL     1     -30.821   7.466   2.072  1.00  0.00     0.000 C 
BRANCH   5   6
ATOM      6  C   UNL     1     -29.305   7.379   1.836  1.00  0.00     0.006 C 
BRANCH   6   7
ATOM      7  C   UNL     1     -28.939   7.406   0.347  1.00  0.00     0.053 C 
BRANCH   7   8
ATOM      8  C   UNL     1     -27.468   7.615   0.172  1.00  0.00     0.041 C 
ATOM      9  O   UNL     1     -27.037   8.300  -0.793  1.00  0.00    -0.550 OA
ATOM     10  O   UNL     1     -26.570   7.019   1.050  1.00  0.00    -0.550 OA
ENDBRANCH   7   8
ENDBRANCH   6   7
ENDBRANCH   5   6
ENDBRANCH   4   5
ENDBRANCH   3   4
ENDBRANCH   2   3
ENDBRANCH   1   2
BRANCH   1  11
ATOM     11  C   UNL     1     -30.019   6.355  -2.987  1.00  0.00     0.000 C 
BRANCH  11  12
ATOM     12  C   UNL     1     -29.471   7.639  -3.639  1.00  0.00    -0.000 C 
BRANCH  12  13
ATOM     13  C   UNL     1     -27.957   7.861  -3.472  1.00  0.00    -0.000 C 
BRANCH  13  14
ATOM     14  C   UNL     1     -27.174   8.059  -4.786  1.00  0.00    -0.000 C 
BRANCH  14  15
ATOM     15  C   UNL     1     -27.869   9.008  -5.788  1.00  0.00    -0.000 C 
BRANCH  15  16
ATOM     16  C   UNL     1     -27.045   9.216  -7.071  1.00  0.00    -0.000 C 
BRANCH  16  17
ATOM     17  C   UNL     1     -25.531   9.216  -6.807  1.00  0.00    -0.003 C 
ATOM     18  C   UNL     1     -24.876   7.870  -7.125  1.00  0.00     0.004 C 
ENDBRANCH  16  17
ENDBRANCH  15  16
ENDBRANCH  14  15
ENDBRANCH  13  14
ENDBRANCH  12  13
ENDBRANCH  11  12
ENDBRANCH   1  11
TORSDOF 14
ENDMDL
MODEL 4
REMARK VINA RESULT:     5.923      3.968      6.286
REMARK INTER + INTRA:          10.808
REMARK INTER:                  11.816
REMARK INTRA:                  -1.008
REMARK UNBOUND:                 0.038
REMARK SMILES CCCCCCCCCCCCCCCC(=O)[O-]
REMARK SMILES IDX 9 1 10 2 11 3 12 4 13 5 14 6 15 7 16 8 17 9 18 10 8 11 7 12
REMARK SMILES IDX 6 13 5 14 4 15 3 16 2 17 1 18
REMARK H PARENT
REMARK Flexibility Score: inf
ROOT
ATOM      1  C   UNL     1     -30.331   7.132   0.091  1.00  0.00     0.000 C 
ENDROOT
BRANCH   1   2
ATOM      2  C   UNL     1     -28.971   7.834   0.246  1.00  0.00     0.000 C 
BRANCH   2   3
ATOM      3  C   UNL     1     -27.981   7.465  -0.873  1.00  0.00     0.000 C 
BRANCH   3   4
ATOM      4  C   UNL     1     -27.991   8.487  -2.023  1.00  0.00     0.000 C 
BRANCH   4   5
ATOM      5  C   UNL     1     -27.044   8.093  -3.173  1.00  0.00     0.000 C 
BRANCH   5   6
ATOM      6  C   UNL     1     -27.643   8.391  -4.557  1.00  0.00     0.006 C 
BRANCH   6   7
ATOM      7  C   UNL     1     -26.910   7.656  -5.685  1.00  0.00     0.053 C 
BRANCH   7   8
ATOM      8  C   UNL     1     -26.144   8.624  -6.530  1.00  0.00     0.041 C 
ATOM      9  O   UNL     1     -26.648   9.739  -6.830  1.00  0.00    -0.550 OA
ATOM     10  O   UNL     1     -24.891   8.280  -7.024  1.00  0.00    -0.550 OA
ENDBRANCH   7   8
ENDBRANCH   6   7
ENDBRANCH   5   6
ENDBRANCH   4   5
ENDBRANCH   3   4
ENDBRANCH   2   3
ENDBRANCH   1   2
BRANCH   1  11
ATOM     11  C   UNL     1     -30.427   6.306  -1.204  1.00  0.00     0.000 C 
BRANCH  11  12
ATOM     12  C   UNL     1     -31.214   7.027  -2.315  1.00  0.00    -0.000 C 
BRANCH  12  13
ATOM     13  C   UNL     1     -30.683   6.802  -3.743  1.00  0.00    -0.000 C 
BRANCH  13  14
ATOM     14  C   UNL     1     -31.216   7.785  -4.804  1.00  0.00    -0.000 C 
BRANCH  14  15
ATOM     15  C   UNL     1     -32.708   7.579  -5.151  1.00  0.00    -0.000 C 
BRANCH  15  16
ATOM     16  C   UNL     1     -32.957   7.524  -6.668  1.00  0.00    -0.000 C 
BRANCH  16  17
ATOM     17  C   UNL     1     -33.855   6.344  -7.076  1.00  0.00    -0.003 C 
ATOM     18  C   UNL     1     -33.099   5.015  -7.123  1.00  0.00     0.004 C 
ENDBRANCH  16  17
ENDBRANCH  15  16
ENDBRANCH  14  15
ENDBRANCH  13  14
ENDBRANCH  12  13
ENDBRANCH  11  12
ENDBRANCH   1  11
TORSDOF 14
ENDMDL
MODEL 5
REMARK VINA RESULT:     5.977      1.795      3.064
REMARK INTER + INTRA:          10.906
REMARK INTER:                   7.585
REMARK INTRA:                   3.321
REMARK UNBOUND:                 0.038
REMARK SMILES CCCCCCCCCCCCCCCC(=O)[O-]
REMARK SMILES IDX 9 1 10 2 11 3 12 4 13 5 14 6 15 7 16 8 17 9 18 10 8 11 7 12
REMARK SMILES IDX 6 13 5 14 4 15 3 16 2 17 1 18
REMARK H PARENT
REMARK Flexibility Score: inf
ROOT
ATOM      1  C   UNL     1     -28.154   7.521   1.008  1.00  0.00     0.000 C 
ENDROOT
BRANCH   1   2
ATOM      2  C   UNL     1     -29.369   7.290   1.921  1.00  0.00     0.000 C 
BRANCH   2   3
ATOM      3  C   UNL     1     -30.668   7.045   1.132  1.00  0.00     0.000 C 
BRANCH   3   4
ATOM      4  C   UNL     1     -31.808   7.976   1.577  1.00  0.00     0.000 C 
BRANCH   4   5
ATOM      5  C   UNL     1     -32.771   8.325   0.426  1.00  0.00     0.000 C 
BRANCH   5   6
ATOM      6  C   UNL     1     -32.431   7.577  -0.873  1.00  0.00     0.006 C 
BRANCH   6   7
ATOM      7  C   UNL     1     -30.919   7.425  -1.085  1.00  0.00     0.053 C 
BRANCH   7   8
ATOM      8  C   UNL     1     -30.635   6.341  -2.075  1.00  0.00     0.041 C 
ATOM      9  O   UNL     1     -30.475   6.621  -3.293  1.00  0.00    -0.550 OA
ATOM     10  O   UNL     1     -30.591   5.014  -1.663  1.00  0.00    -0.550 OA
ENDBRANCH   7   8
ENDBRANCH   6   7
ENDBRANCH   5   6
ENDBRANCH   4   5
ENDBRANCH   3   4
ENDBRANCH   2   3
ENDBRANCH   1   2
BRANCH   1  11
ATOM     11  C   UNL     1     -28.555   7.821  -0.448  1.00  0.00     0.000 C 
BRANCH  11  12
ATOM     12  C   UNL     1     -27.357   8.236  -1.324  1.00  0.00    -0.000 C 
BRANCH  12  13
ATOM     13  C   UNL     1     -27.445   7.804  -2.799  1.00  0.00    -0.000 C 
BRANCH  13  14
ATOM     14  C   UNL     1     -28.289   8.724  -3.703  1.00  0.00    -0.000 C 
BRANCH  14  15
ATOM     15  C   UNL     1     -27.931   8.623  -5.203  1.00  0.00    -0.000 C 
BRANCH  15  16
ATOM     16  C   UNL     1     -26.607   7.876  -5.443  1.00  0.00    -0.000 C 
BRANCH  16  17
ATOM     17  C   UNL     1     -26.129   7.976  -6.901  1.00  0.00    -0.003 C 
ATOM     18  C   UNL     1     -24.877   8.842  -7.053  1.00  0.00     0.004 C 
ENDBRANCH  16  17
ENDBRANCH  15  16
ENDBRANCH  14  15
ENDBRANCH  13  14
ENDBRANCH  12  13
ENDBRANCH  11  12
ENDBRANCH   1  11
TORSDOF 14
ENDMDL
MODEL 6
REMARK VINA RESULT:     6.044      3.589      8.259
REMARK INTER + INTRA:          11.029
REMARK INTER:                  11.835
REMARK INTRA:                  -0.806
REMARK UNBOUND:                 0.038
REMARK SMILES CCCCCCCCCCCCCCCC(=O)[O-]
REMARK SMILES IDX 9 1 10 2 11 3 12 4 13 5 14 6 15 7 16 8 17 9 18 10 8 11 7 12
REMARK SMILES IDX 6 13 5 14 4 15 3 16 2 17 1 18
REMARK H PARENT
REMARK Flexibility Score: inf
ROOT
ATOM      1  C   UNL     1     -28.063   8.294  -0.744  1.00  0.00     0.000 C 
ENDROOT
BRANCH   1   2
ATOM      2  C   UNL     1     -26.868   7.845  -1.600  1.00  0.00     0.000 C 
BRANCH   2   3
ATOM      3  C   UNL     1     -27.190   7.820  -3.105  1.00  0.00     0.000 C 
BRANCH   3   4
ATOM      4  C   UNL     1     -28.505   8.547  -3.434  1.00  0.00     0.000 C 
BRANCH   4   5
ATOM      5  C   UNL     1     -28.548   9.065  -4.884  1.00  0.00     0.000 C 
BRANCH   5   6
ATOM      6  C   UNL     1     -27.877   8.100  -5.874  1.00  0.00     0.006 C 
BRANCH   6   7
ATOM      7  C   UNL     1     -27.021   8.829  -6.918  1.00  0.00     0.053 C 
BRANCH   7   8
ATOM      8  C   UNL     1     -25.566   8.647  -6.622  1.00  0.00     0.041 C 
ATOM      9  O   UNL     1     -24.945   9.513  -5.950  1.00  0.00    -0.550 OA
ATOM     10  O   UNL     1     -24.884   7.545  -7.125  1.00  0.00    -0.550 OA
ENDBRANCH   7   8
ENDBRANCH   6   7
ENDBRANCH   5   6
ENDBRANCH   4   5
ENDBRANCH   3   4
ENDBRANCH   2   3
ENDBRANCH   1   2
BRANCH   1  11
ATOM     11  C   UNL     1     -29.007   7.132  -0.387  1.00  0.00     0.000 C 
BRANCH  11  12
ATOM     12  C   UNL     1     -29.553   7.226   1.050  1.00  0.00    -0.000 C 
BRANCH  12  13
ATOM     13  C   UNL     1     -31.075   7.032   1.185  1.00  0.00    -0.000 C 
BRANCH  13  14
ATOM     14  C   UNL     1     -31.900   7.427  -0.056  1.00  0.00    -0.000 C 
BRANCH  14  15
ATOM     15  C   UNL     1     -32.821   8.646   0.171  1.00  0.00    -0.000 C 
BRANCH  15  16
ATOM     16  C   UNL     1     -32.870   9.081   1.647  1.00  0.00    -0.000 C 
BRANCH  16  17
ATOM     17  C   UNL     1     -34.307   9.183   2.184  1.00  0.00    -0.003 C 
ATOM     18  C   UNL     1     -34.418   8.773   3.655  1.00  0.00     0.004 C 
ENDBRANCH  16  17
ENDBRANCH  15  16
ENDBRANCH  14  15
ENDBRANCH  13  14
ENDBRANCH  12  13
ENDBRANCH  11  12
ENDBRANCH   1  11
TORSDOF 14
ENDMDL
MODEL 7
REMARK VINA RESULT:     6.360      3.392      7.188
REMARK INTER + INTRA:          11.603
REMARK INTER:                  11.608
REMARK INTRA:                  -0.005
REMARK UNBOUND:                 0.038
REMARK SMILES CCCCCCCCCCCCCCCC(=O)[O-]
REMARK SMILES IDX 9 1 10 2 11 3 12 4 13 5 14 6 15 7 16 8 17 9 18 10 8 11 7 12
REMARK SMILES IDX 6 13 5 14 4 15 3 16 2 17 1 18
REMARK H PARENT
REMARK Flexibility Score: inf
ROOT
ATOM      1  C   UNL     1     -28.823   7.536   0.332  1.00  0.00     0.000 C 
ENDROOT
BRANCH   1   2
ATOM      2  C   UNL     1     -29.632   6.912  -0.816  1.00  0.00     0.000 C 
BRANCH   2   3
ATOM      3  C   UNL     1     -29.151   7.373  -2.203  1.00  0.00     0.000 C 
BRANCH   3   4
ATOM      4  C   UNL     1     -27.743   7.992  -2.159  1.00  0.00     0.000 C 
BRANCH   4   5
ATOM      5  C   UNL     1     -27.025   7.927  -3.519  1.00  0.00     0.000 C 
BRANCH   5   6
ATOM      6  C   UNL     1     -27.949   8.293  -4.691  1.00  0.00     0.006 C 
BRANCH   6   7
ATOM      7  C   UNL     1     -27.250   9.166  -5.741  1.00  0.00     0.053 C 
BRANCH   7   8
ATOM      8  C   UNL     1     -26.000   8.504  -6.226  1.00  0.00     0.041 C 
ATOM      9  O   UNL     1     -24.875   9.010  -5.970  1.00  0.00    -0.550 OA
ATOM     10  O   UNL     1     -26.076   7.350  -6.998  1.00  0.00    -0.550 OA
ENDBRANCH   7   8
ENDBRANCH   6   7
ENDBRANCH   5   6
ENDBRANCH   4   5
ENDBRANCH   3   4
ENDBRANCH   2   3
ENDBRANCH   1   2
BRANCH   1  11
ATOM     11  C   UNL     1     -29.575   7.504   1.674  1.00  0.00     0.000 C 
BRANCH  11  12
ATOM     12  C   UNL     1     -30.864   6.662   1.616  1.00  0.00    -0.000 C 
BRANCH  12  13
ATOM     13  C   UNL     1     -31.843   7.042   0.488  1.00  0.00    -0.000 C 
BRANCH  13  14
ATOM     14  C   UNL     1     -32.596   8.371   0.693  1.00  0.00    -0.000 C 
BRANCH  14  15
ATOM     15  C   UNL     1     -33.182   8.962  -0.609  1.00  0.00    -0.000 C 
BRANCH  15  16
ATOM     16  C   UNL     1     -33.130   7.968  -1.782  1.00  0.00    -0.000 C 
BRANCH  16  17
ATOM     17  C   UNL     1     -33.942   8.446  -2.997  1.00  0.00    -0.003 C 
ATOM     18  C   UNL     1     -33.135   8.411  -4.297  1.00  0.00     0.004 C 
ENDBRANCH  16  17
ENDBRANCH  15  16
ENDBRANCH  14  15
ENDBRANCH  13  14
ENDBRANCH  12  13
ENDBRANCH  11  12
ENDBRANCH   1  11
TORSDOF 14
ENDMDL
MODEL 8
REMARK VINA RESULT:     6.635      3.237      7.917
REMARK INTER + INTRA:          12.103
REMARK INTER:                  11.938
REMARK INTRA:                   0.165
REMARK UNBOUND:                 0.038
REMARK SMILES CCCCCCCCCCCCCCCC(=O)[O-]
REMARK SMILES IDX 9 1 10 2 11 3 12 4 13 5 14 6 15 7 16 8 17 9 18 10 8 11 7 12
REMARK SMILES IDX 6 13 5 14 4 15 3 16 2 17 1 18
REMARK H PARENT
REMARK Flexibility Score: inf
ROOT
ATOM      1  C   UNL     1     -27.890   8.550  -2.121  1.00  0.00     0.000 C 
ENDROOT
BRANCH   1   2
ATOM      2  C   UNL     1     -28.657   7.300  -2.580  1.00  0.00     0.000 C 
BRANCH   2   3
ATOM      3  C   UNL     1     -28.738   7.180  -4.113  1.00  0.00     0.000 C 
BRANCH   3   4
ATOM      4  C   UNL     1     -28.388   8.499  -4.822  1.00  0.00     0.000 C 
BRANCH   4   5
ATOM      5  C   UNL     1     -27.830   8.279  -6.241  1.00  0.00     0.000 C 
BRANCH   5   6
ATOM      6  C   UNL     1     -27.405   9.592  -6.916  1.00  0.00     0.006 C 
BRANCH   6   7
ATOM      7  C   UNL     1     -25.883   9.779  -6.933  1.00  0.00     0.053 C 
BRANCH   7   8
ATOM      8  C   UNL     1     -25.200   8.569  -6.379  1.00  0.00     0.041 C 
ATOM      9  O   UNL     1     -24.953   7.585  -7.124  1.00  0.00    -0.550 OA
ATOM     10  O   UNL     1     -24.875   8.509  -5.028  1.00  0.00    -0.550 OA
ENDBRANCH   7   8
ENDBRANCH   6   7
ENDBRANCH   5   6
ENDBRANCH   4   5
ENDBRANCH   3   4
ENDBRANCH   2   3
ENDBRANCH   1   2
BRANCH   1  11
ATOM     11  C   UNL     1     -26.825   8.234  -1.056  1.00  0.00     0.000 C 
BRANCH  11  12
ATOM     12  C   UNL     1     -27.423   7.616   0.222  1.00  0.00    -0.000 C 
BRANCH  12  13
ATOM     13  C   UNL     1     -28.942   7.364   0.178  1.00  0.00    -0.000 C 
BRANCH  13  14
ATOM     14  C   UNL     1     -29.643   7.347   1.550  1.00  0.00    -0.000 C 
BRANCH  14  15
ATOM     15  C   UNL     1     -31.171   7.130   1.466  1.00  0.00    -0.000 C 
BRANCH  15  16
ATOM     16  C   UNL     1     -31.676   7.053   0.014  1.00  0.00    -0.000 C 
BRANCH  16  17
ATOM     17  C   UNL     1     -32.566   8.248  -0.364  1.00  0.00    -0.003 C 
ATOM     18  C   UNL     1     -33.179   8.937   0.857  1.00  0.00     0.004 C 
ENDBRANCH  16  17
ENDBRANCH  15  16
ENDBRANCH  14  15
ENDBRANCH  13  14
ENDBRANCH  12  13
ENDBRANCH  11  12
ENDBRANCH   1  11
TORSDOF 14
ENDMDL
