MODEL 1
REMARK VINA RESULT:    11.646      0.000      0.000
REMARK INTER + INTRA:          28.503
REMARK INTER:                  29.347
REMARK INTRA:                  -0.844
REMARK UNBOUND:                -0.844
REMARK SMILES CCCCCCCCCCCCCCCCCCCCCCCCCCCC(=O)[O-]
REMARK SMILES IDX 15 1 16 2 17 3 18 4 19 5 20 6 21 7 22 8 23 9 24 10 25 11
REMARK SMILES IDX 26 12 27 13 28 14 29 15 30 16 14 17 13 18 12 19 11 20 10 21
REMARK SMILES IDX 9 22 8 23 7 24 6 25 5 26 4 27 3 28 2 29 1 30
REMARK H PARENT
REMARK Flexibility Score: inf
ROOT
ATOM      1  C   UNL     1       7.751  43.763  10.062  1.00  0.00     0.000 C 
ENDROOT
BRANCH   1   2
ATOM      2  C   UNL     1       7.140  42.355  10.210  1.00  0.00     0.000 C 
BRANCH   2   3
ATOM      3  C   UNL     1       7.824  41.452  11.257  1.00  0.00     0.000 C 
BRANCH   3   4
ATOM      4  C   UNL     1       8.104  42.131  12.609  1.00  0.00     0.000 C 
BRANCH   4   5
ATOM      5  C   UNL     1       7.171  41.633  13.727  1.00  0.00     0.000 C 
BRANCH   5   6
ATOM      6  C   UNL     1       6.036  42.621  14.030  1.00  0.00     0.000 C 
BRANCH   6   7
ATOM      7  C   UNL     1       5.216  42.216  15.267  1.00  0.00     0.000 C 
BRANCH   7   8
ATOM      8  C   UNL     1       5.935  41.170  16.134  1.00  0.00     0.000 C 
BRANCH   8   9
ATOM      9  C   UNL     1       5.105  40.752  17.361  1.00  0.00     0.000 C 
BRANCH   9  10
ATOM     10  C   UNL     1       5.942  40.012  18.418  1.00  0.00     0.000 C 
BRANCH  10  11
ATOM     11  C   UNL     1       5.187  39.832  19.747  1.00  0.00     0.000 C 
BRANCH  11  12
ATOM     12  C   UNL     1       3.906  40.681  19.830  1.00  0.00     0.006 C 
BRANCH  12  13
ATOM     13  C   UNL     1       4.158  42.199  19.805  1.00  0.00     0.053 C 
BRANCH  13  14
ATOM     14  C   UNL     1       3.305  42.944  20.788  1.00  0.00     0.041 C 
ATOM     15  O   UNL     1       3.820  43.798  21.557  1.00  0.00    -0.550 OA
ATOM     16  O   UNL     1       1.935  42.719  20.830  1.00  0.00    -0.550 OA
ENDBRANCH  13  14
ENDBRANCH  12  13
ENDBRANCH  11  12
ENDBRANCH  10  11
ENDBRANCH   9  10
ENDBRANCH   8   9
ENDBRANCH   7   8
ENDBRANCH   6   7
ENDBRANCH   5   6
ENDBRANCH   4   5
ENDBRANCH   3   4
ENDBRANCH   2   3
ENDBRANCH   1   2
BRANCH   1  17
ATOM     17  C   UNL     1       6.742  44.923  10.136  1.00  0.00     0.000 C 
BRANCH  17  18
ATOM     18  C   UNL     1       6.170  45.124  11.547  1.00  0.00     0.000 C 
BRANCH  18  19
ATOM     19  C   UNL     1       4.655  44.872  11.569  1.00  0.00     0.000 C 
BRANCH  19  20
ATOM     20  C   UNL     1       4.306  43.405  11.866  1.00  0.00     0.000 C 
BRANCH  20  21
ATOM     21  C   UNL     1       3.653  42.698  10.665  1.00  0.00     0.000 C 
BRANCH  21  22
ATOM     22  C   UNL     1       2.171  43.068  10.497  1.00  0.00    -0.000 C 
BRANCH  22  23
ATOM     23  C   UNL     1       1.745  44.221  11.423  1.00  0.00    -0.000 C 
BRANCH  23  24
ATOM     24  C   UNL     1       0.637  43.811  12.405  1.00  0.00    -0.000 C 
BRANCH  24  25
ATOM     25  C   UNL     1       0.551  44.746  13.621  1.00  0.00    -0.000 C 
BRANCH  25  26
ATOM     26  C   UNL     1      -0.669  44.412  14.488  1.00  0.00    -0.000 C 
BRANCH  26  27
ATOM     27  C   UNL     1      -1.601  43.425  13.770  1.00  0.00    -0.000 C 
BRANCH  27  28
ATOM     28  C   UNL     1      -2.349  42.492  14.737  1.00  0.00    -0.000 C 
BRANCH  28  29
ATOM     29  C   UNL     1      -3.612  41.849  14.127  1.00  0.00    -0.003 C 
ATOM     30  C   UNL     1      -4.169  40.721  14.994  1.00  0.00     0.004 C 
ENDBRANCH  28  29
ENDBRANCH  27  28
ENDBRANCH  26  27
ENDBRANCH  25  26
ENDBRANCH  24  25
ENDBRANCH  23  24
ENDBRANCH  22  23
ENDBRANCH  21  22
ENDBRANCH  20  21
ENDBRANCH  19  20
ENDBRANCH  18  19
ENDBRANCH  17  18
ENDBRANCH   1  17
TORSDOF 26
ENDMDL
MODEL 2
REMARK VINA RESULT:    13.975      1.025      1.965
REMARK INTER + INTRA:          34.374
REMARK INTER:                  35.857
REMARK INTRA:                  -1.484
REMARK UNBOUND:                -0.844
REMARK SMILES CCCCCCCCCCCCCCCCCCCCCCCCCCCC(=O)[O-]
REMARK SMILES IDX 15 1 16 2 17 3 18 4 19 5 20 6 21 7 22 8 23 9 24 10 25 11
REMARK SMILES IDX 26 12 27 13 28 14 29 15 30 16 14 17 13 18 12 19 11 20 10 21
REMARK SMILES IDX 9 22 8 23 7 24 6 25 5 26 4 27 3 28 2 29 1 30
REMARK H PARENT
REMARK Flexibility Score: inf
ROOT
ATOM      1  C   UNL     1       6.677  44.600  10.385  1.00  0.00     0.000 C 
ENDROOT
BRANCH   1   2
ATOM      2  C   UNL     1       7.195  43.230   9.902  1.00  0.00     0.000 C 
BRANCH   2   3
ATOM      3  C   UNL     1       7.623  42.261  11.023  1.00  0.00     0.000 C 
BRANCH   3   4
ATOM      4  C   UNL     1       7.787  42.909  12.408  1.00  0.00     0.000 C 
BRANCH   4   5
ATOM      5  C   UNL     1       6.507  42.826  13.258  1.00  0.00     0.000 C 
BRANCH   5   6
ATOM      6  C   UNL     1       6.533  41.652  14.248  1.00  0.00     0.000 C 
BRANCH   6   7
ATOM      7  C   UNL     1       5.571  41.857  15.431  1.00  0.00     0.000 C 
BRANCH   7   8
ATOM      8  C   UNL     1       5.931  40.980  16.641  1.00  0.00     0.000 C 
BRANCH   8   9
ATOM      9  C   UNL     1       4.915  41.117  17.789  1.00  0.00     0.000 C 
BRANCH   9  10
ATOM     10  C   UNL     1       4.567  39.765  18.436  1.00  0.00     0.000 C 
BRANCH  10  11
ATOM     11  C   UNL     1       4.444  39.859  19.967  1.00  0.00     0.000 C 
BRANCH  11  12
ATOM     12  C   UNL     1       3.161  40.577  20.423  1.00  0.00     0.006 C 
BRANCH  12  13
ATOM     13  C   UNL     1       3.410  41.939  21.095  1.00  0.00     0.053 C 
BRANCH  13  14
ATOM     14  C   UNL     1       2.705  43.065  20.400  1.00  0.00     0.041 C 
ATOM     15  O   UNL     1       3.366  43.968  19.822  1.00  0.00    -0.550 OA
ATOM     16  O   UNL     1       1.317  43.098  20.359  1.00  0.00    -0.550 OA
ENDBRANCH  13  14
ENDBRANCH  12  13
ENDBRANCH  11  12
ENDBRANCH  10  11
ENDBRANCH   9  10
ENDBRANCH   8   9
ENDBRANCH   7   8
ENDBRANCH   6   7
ENDBRANCH   5   6
ENDBRANCH   4   5
ENDBRANCH   3   4
ENDBRANCH   2   3
ENDBRANCH   1   2
BRANCH   1  17
ATOM     17  C   UNL     1       5.247  44.951   9.936  1.00  0.00     0.000 C 
BRANCH  17  18
ATOM     18  C   UNL     1       4.266  45.068  11.111  1.00  0.00     0.000 C 
BRANCH  18  19
ATOM     19  C   UNL     1       3.119  44.054  10.974  1.00  0.00     0.000 C 
BRANCH  19  20
ATOM     20  C   UNL     1       2.489  43.692  12.328  1.00  0.00     0.000 C 
BRANCH  20  21
ATOM     21  C   UNL     1       0.958  43.850  12.330  1.00  0.00     0.000 C 
BRANCH  21  22
ATOM     22  C   UNL     1       0.459  44.739  13.480  1.00  0.00    -0.000 C 
BRANCH  22  23
ATOM     23  C   UNL     1      -1.069  44.911  13.468  1.00  0.00    -0.000 C 
BRANCH  23  24
ATOM     24  C   UNL     1      -1.690  44.778  14.868  1.00  0.00    -0.000 C 
BRANCH  24  25
ATOM     25  C   UNL     1      -1.683  43.330  15.381  1.00  0.00    -0.000 C 
BRANCH  25  26
ATOM     26  C   UNL     1      -1.714  42.334  14.216  1.00  0.00    -0.000 C 
BRANCH  26  27
ATOM     27  C   UNL     1      -3.156  41.935  13.870  1.00  0.00    -0.000 C 
BRANCH  27  28
ATOM     28  C   UNL     1      -3.845  41.140  14.991  1.00  0.00    -0.000 C 
BRANCH  28  29
ATOM     29  C   UNL     1      -5.240  40.605  14.605  1.00  0.00    -0.003 C 
ATOM     30  C   UNL     1      -5.716  39.491  15.537  1.00  0.00     0.004 C 
ENDBRANCH  28  29
ENDBRANCH  27  28
ENDBRANCH  26  27
ENDBRANCH  25  26
ENDBRANCH  24  25
ENDBRANCH  23  24
ENDBRANCH  22  23
ENDBRANCH  21  22
ENDBRANCH  20  21
ENDBRANCH  19  20
ENDBRANCH  18  19
ENDBRANCH  17  18
ENDBRANCH   1  17
TORSDOF 26
ENDMDL
MODEL 3
REMARK VINA RESULT:    14.045      2.157      4.799
REMARK INTER + INTRA:          34.550
REMARK INTER:                  33.270
REMARK INTRA:                   1.280
REMARK UNBOUND:                -0.844
REMARK SMILES CCCCCCCCCCCCCCCCCCCCCCCCCCCC(=O)[O-]
REMARK SMILES IDX 15 1 16 2 17 3 18 4 19 5 20 6 21 7 22 8 23 9 24 10 25 11
REMARK SMILES IDX 26 12 27 13 28 14 29 15 30 16 14 17 13 18 12 19 11 20 10 21
REMARK SMILES IDX 9 22 8 23 7 24 6 25 5 26 4 27 3 28 2 29 1 30
REMARK H PARENT
REMARK Flexibility Score: inf
ROOT
ATOM      1  C   UNL     1       5.513  42.625  15.240  1.00  0.00     0.000 C 
ENDROOT
BRANCH   1   2
ATOM      2  C   UNL     1       5.029  41.285  15.832  1.00  0.00     0.000 C 
BRANCH   2   3
ATOM      3  C   UNL     1       6.149  40.333  16.296  1.00  0.00     0.000 C 
BRANCH   3   4
ATOM      4  C   UNL     1       6.772  40.685  17.658  1.00  0.00     0.000 C 
BRANCH   4   5
ATOM      5  C   UNL     1       6.154  39.885  18.818  1.00  0.00     0.000 C 
BRANCH   5   6
ATOM      6  C   UNL     1       4.645  40.129  18.964  1.00  0.00     0.000 C 
BRANCH   6   7
ATOM      7  C   UNL     1       4.195  40.185  20.434  1.00  0.00     0.000 C 
BRANCH   7   8
ATOM      8  C   UNL     1       2.685  40.434  20.579  1.00  0.00     0.000 C 
BRANCH   8   9
ATOM      9  C   UNL     1       2.368  41.849  21.093  1.00  0.00     0.000 C 
BRANCH   9  10
ATOM     10  C   UNL     1       1.311  42.568  20.238  1.00  0.00     0.000 C 
BRANCH  10  11
ATOM     11  C   UNL     1       1.643  44.054  20.016  1.00  0.00     0.000 C 
BRANCH  11  12
ATOM     12  C   UNL     1       3.023  44.450  20.571  1.00  0.00     0.006 C 
BRANCH  12  13
ATOM     13  C   UNL     1       3.816  43.277  21.174  1.00  0.00     0.053 C 
BRANCH  13  14
ATOM     14  C   UNL     1       4.975  43.730  22.010  1.00  0.00     0.041 C 
ATOM     15  O   UNL     1       6.155  43.565  21.603  1.00  0.00    -0.550 OA
ATOM     16  O   UNL     1       4.751  44.367  23.224  1.00  0.00    -0.550 OA
ENDBRANCH  13  14
ENDBRANCH  12  13
ENDBRANCH  11  12
ENDBRANCH  10  11
ENDBRANCH   9  10
ENDBRANCH   8   9
ENDBRANCH   7   8
ENDBRANCH   6   7
ENDBRANCH   5   6
ENDBRANCH   4   5
ENDBRANCH   3   4
ENDBRANCH   2   3
ENDBRANCH   1   2
BRANCH   1  17
ATOM     17  C   UNL     1       5.958  42.563  13.768  1.00  0.00     0.000 C 
BRANCH  17  18
ATOM     18  C   UNL     1       7.471  42.359  13.610  1.00  0.00     0.000 C 
BRANCH  18  19
ATOM     19  C   UNL     1       7.838  42.056  12.149  1.00  0.00     0.000 C 
BRANCH  19  20
ATOM     20  C   UNL     1       8.855  43.057  11.578  1.00  0.00     0.000 C 
BRANCH  20  21
ATOM     21  C   UNL     1       8.188  44.334  11.036  1.00  0.00     0.000 C 
BRANCH  21  22
ATOM     22  C   UNL     1       7.223  44.048   9.876  1.00  0.00    -0.000 C 
BRANCH  22  23
ATOM     23  C   UNL     1       5.873  44.767  10.043  1.00  0.00    -0.000 C 
BRANCH  23  24
ATOM     24  C   UNL     1       4.710  43.792  10.285  1.00  0.00    -0.000 C 
BRANCH  24  25
ATOM     25  C   UNL     1       3.709  44.314  11.327  1.00  0.00    -0.000 C 
BRANCH  25  26
ATOM     26  C   UNL     1       2.266  44.067  10.875  1.00  0.00    -0.000 C 
BRANCH  26  27
ATOM     27  C   UNL     1       2.166  42.801  10.013  1.00  0.00    -0.000 C 
BRANCH  27  28
ATOM     28  C   UNL     1       0.726  42.278   9.876  1.00  0.00    -0.000 C 
BRANCH  28  29
ATOM     29  C   UNL     1      -0.064  42.281  11.202  1.00  0.00    -0.003 C 
ATOM     30  C   UNL     1      -1.051  41.118  11.295  1.00  0.00     0.004 C 
ENDBRANCH  28  29
ENDBRANCH  27  28
ENDBRANCH  26  27
ENDBRANCH  25  26
ENDBRANCH  24  25
ENDBRANCH  23  24
ENDBRANCH  22  23
ENDBRANCH  21  22
ENDBRANCH  20  21
ENDBRANCH  19  20
ENDBRANCH  18  19
ENDBRANCH  17  18
ENDBRANCH   1  17
TORSDOF 26
ENDMDL
