MODEL 1
REMARK VINA RESULT:    -7.052      0.000      0.000
REMARK INTER + INTRA:          -8.780
REMARK INTER:                  -8.494
REMARK INTRA:                  -0.286
REMARK UNBOUND:                -0.286
REMARK SMILES O=c1c(O)c(-c2ccc(O)c(O)c2)oc2cc(O)cc(O)c12
REMARK SMILES IDX 5 1 3 2 2 3 1 4 22 5 20 6 19 7 17 8 16 9 15 10 14 11 6 12
REMARK SMILES IDX 7 13 8 14 9 15 13 16 11 17 10 18 12 20 4 22 21 24 18 26
REMARK H PARENT 10 19 12 21 4 23 21 25 18 27
REMARK Flexibility Score: inf
ROOT
ATOM      1  C   UNL     1     127.098 111.522 111.782  1.00  0.00     0.180 A 
ATOM      2  C   UNL     1     127.795 110.532 111.068  1.00  0.00     0.208 A 
ATOM      3  C   UNL     1     129.028 110.078 111.562  1.00  0.00     0.238 A 
ATOM      4  O   UNL     1     129.610 109.140 110.959  1.00  0.00    -0.285 OA
ATOM      5  C   UNL     1     129.578 110.660 112.730  1.00  0.00     0.111 A 
ATOM      6  C   UNL     1     130.842 110.310 113.295  1.00  0.00     0.134 A 
ATOM      7  C   UNL     1     131.234 110.877 114.513  1.00  0.00     0.093 A 
ATOM      8  C   UNL     1     130.441 111.827 115.155  1.00  0.00     0.123 A 
ATOM      9  C   UNL     1     129.229 112.217 114.585  1.00  0.00     0.094 A 
ATOM     10  C   UNL     1     128.791 111.642 113.390  1.00  0.00     0.146 A 
ATOM     11  O   UNL     1     127.623 112.025 112.892  1.00  0.00    -0.452 OA
ENDROOT
BRANCH   1  12
ATOM     12  C   UNL     1     125.785 112.041 111.333  1.00  0.00     0.025 A 
ATOM     13  C   UNL     1     125.679 113.253 110.629  1.00  0.00     0.016 A 
ATOM     14  C   UNL     1     124.432 113.709 110.194  1.00  0.00     0.051 A 
ATOM     15  C   UNL     1     123.278 112.960 110.442  1.00  0.00     0.157 A 
ATOM     16  C   UNL     1     124.628 111.280 111.562  1.00  0.00     0.062 A 
ATOM     17  C   UNL     1     123.375 111.738 111.127  1.00  0.00     0.158 A 
BRANCH  15  18
ATOM     18  O   UNL     1     122.048 113.443 109.997  1.00  0.00    -0.504 OA
ATOM     19  H   UNL     1     121.484 112.940 109.323  1.00  0.00     0.293 HD
ENDBRANCH  15  18
BRANCH  17  20
ATOM     20  O   UNL     1     122.229 110.982 111.372  1.00  0.00    -0.504 OA
ATOM     21  H   UNL     1     121.835 110.371 110.666  1.00  0.00     0.293 HD
ENDBRANCH  17  20
ENDBRANCH   1  12
BRANCH   2  22
ATOM     22  O   UNL     1     127.272 110.025 109.875  1.00  0.00    -0.502 OA
ATOM     23  H   UNL     1     126.516 110.479 109.377  1.00  0.00     0.293 HD
ENDBRANCH   2  22
BRANCH   6  24
ATOM     24  O   UNL     1     131.754 109.438 112.693  1.00  0.00    -0.507 OA
ATOM     25  H   UNL     1     131.664 109.060 111.763  1.00  0.00     0.293 HD
ENDBRANCH   6  24
BRANCH   8  26
ATOM     26  O   UNL     1     130.872 112.383 116.358  1.00  0.00    -0.508 OA
ATOM     27  H   UNL     1     130.871 111.848 117.219  1.00  0.00     0.293 HD
ENDBRANCH   8  26
TORSDOF 6
ENDMDL
MODEL 2
REMARK VINA RESULT:    -6.987      0.598      1.453
REMARK INTER + INTRA:          -8.703
REMARK INTER:                  -8.416
REMARK INTRA:                  -0.287
REMARK UNBOUND:                -0.286
REMARK SMILES O=c1c(O)c(-c2ccc(O)c(O)c2)oc2cc(O)cc(O)c12
REMARK SMILES IDX 5 1 3 2 2 3 1 4 22 5 20 6 19 7 17 8 16 9 15 10 14 11 6 12
REMARK SMILES IDX 7 13 8 14 9 15 13 16 11 17 10 18 12 20 4 22 21 24 18 26
REMARK H PARENT 10 19 12 21 4 23 21 25 18 27
REMARK Flexibility Score: inf
ROOT
ATOM      1  C   UNL     1     127.019 111.467 111.804  1.00  0.00     0.180 A 
ATOM      2  C   UNL     1     127.722 110.494 111.073  1.00  0.00     0.208 A 
ATOM      3  C   UNL     1     128.969 110.057 111.544  1.00  0.00     0.238 A 
ATOM      4  O   UNL     1     129.558 109.133 110.926  1.00  0.00    -0.285 OA
ATOM      5  C   UNL     1     129.526 110.637 112.710  1.00  0.00     0.111 A 
ATOM      6  C   UNL     1     130.803 110.303 113.255  1.00  0.00     0.134 A 
ATOM      7  C   UNL     1     131.204 110.866 114.472  1.00  0.00     0.093 A 
ATOM      8  C   UNL     1     130.405 111.798 115.133  1.00  0.00     0.123 A 
ATOM      9  C   UNL     1     129.178 112.173 114.583  1.00  0.00     0.094 A 
ATOM     10  C   UNL     1     128.733 111.600 113.389  1.00  0.00     0.146 A 
ATOM     11  O   UNL     1     127.552 111.969 112.912  1.00  0.00    -0.452 OA
ENDROOT
BRANCH   1  12
ATOM     12  C   UNL     1     125.692 111.968 111.379  1.00  0.00     0.025 A 
ATOM     13  C   UNL     1     124.526 111.206 111.570  1.00  0.00     0.016 A 
ATOM     14  C   UNL     1     123.282 111.710 111.182  1.00  0.00     0.051 A 
ATOM     15  C   UNL     1     123.180 112.983 110.613  1.00  0.00     0.157 A 
ATOM     16  C   UNL     1     125.584 113.254 110.827  1.00  0.00     0.062 A 
ATOM     17  C   UNL     1     124.336 113.762 110.436  1.00  0.00     0.158 A 
BRANCH  15  18
ATOM     18  O   UNL     1     121.925 113.458 110.235  1.00  0.00    -0.504 OA
ATOM     19  H   UNL     1     121.752 114.440 110.056  1.00  0.00     0.293 HD
ENDBRANCH  15  18
BRANCH  17  20
ATOM     20  O   UNL     1     124.242 115.035 109.876  1.00  0.00    -0.504 OA
ATOM     21  H   UNL     1     124.779 115.815 110.235  1.00  0.00     0.293 HD
ENDBRANCH  17  20
ENDBRANCH   1  12
BRANCH   2  22
ATOM     22  O   UNL     1     127.191 109.989 109.882  1.00  0.00    -0.502 OA
ATOM     23  H   UNL     1     126.371 109.395 109.862  1.00  0.00     0.293 HD
ENDBRANCH   2  22
BRANCH   6  24
ATOM     24  O   UNL     1     131.721 109.452 112.632  1.00  0.00    -0.507 OA
ATOM     25  H   UNL     1     132.681 109.683 112.432  1.00  0.00     0.293 HD
ENDBRANCH   6  24
BRANCH   8  26
ATOM     26  O   UNL     1     130.843 112.351 116.335  1.00  0.00    -0.508 OA
ATOM     27  H   UNL     1     130.443 112.073 117.223  1.00  0.00     0.293 HD
ENDBRANCH   8  26
TORSDOF 6
ENDMDL
MODEL 3
REMARK VINA RESULT:    -6.746      1.611      7.164
REMARK INTER + INTRA:          -8.412
REMARK INTER:                  -8.164
REMARK INTRA:                  -0.248
REMARK UNBOUND:                -0.286
REMARK SMILES O=c1c(O)c(-c2ccc(O)c(O)c2)oc2cc(O)cc(O)c12
REMARK SMILES IDX 5 1 3 2 2 3 1 4 22 5 20 6 19 7 17 8 16 9 15 10 14 11 6 12
REMARK SMILES IDX 7 13 8 14 9 15 13 16 11 17 10 18 12 20 4 22 21 24 18 26
REMARK H PARENT 10 19 12 21 4 23 21 25 18 27
REMARK Flexibility Score: inf
ROOT
ATOM      1  C   UNL     1     127.881 112.335 112.777  1.00  0.00     0.180 A 
ATOM      2  C   UNL     1     127.903 113.734 112.646  1.00  0.00     0.208 A 
ATOM      3  C   UNL     1     126.773 114.388 112.130  1.00  0.00     0.238 A 
ATOM      4  O   UNL     1     126.772 115.645 112.085  1.00  0.00    -0.285 OA
ATOM      5  C   UNL     1     125.657 113.632 111.699  1.00  0.00     0.111 A 
ATOM      6  C   UNL     1     124.475 114.185 111.118  1.00  0.00     0.134 A 
ATOM      7  C   UNL     1     123.392 113.348 110.826  1.00  0.00     0.093 A 
ATOM      8  C   UNL     1     123.468 111.971 111.033  1.00  0.00     0.123 A 
ATOM      9  C   UNL     1     124.637 111.412 111.550  1.00  0.00     0.094 A 
ATOM     10  C   UNL     1     125.722 112.225 111.887  1.00  0.00     0.146 A 
ATOM     11  O   UNL     1     126.807 111.656 112.394  1.00  0.00    -0.452 OA
ENDROOT
BRANCH   1  12
ATOM     12  C   UNL     1     129.028 111.576 113.326  1.00  0.00     0.025 A 
ATOM     13  C   UNL     1     129.358 111.634 114.692  1.00  0.00     0.016 A 
ATOM     14  C   UNL     1     130.430 110.890 115.190  1.00  0.00     0.051 A 
ATOM     15  C   UNL     1     131.178 110.069 114.342  1.00  0.00     0.157 A 
ATOM     16  C   UNL     1     129.768 110.735 112.480  1.00  0.00     0.062 A 
ATOM     17  C   UNL     1     130.845 109.987 112.979  1.00  0.00     0.158 A 
BRANCH  15  18
ATOM     18  O   UNL     1     132.243 109.340 114.869  1.00  0.00    -0.504 OA
ATOM     19  H   UNL     1     133.203 109.515 114.597  1.00  0.00     0.293 HD
ENDBRANCH  15  18
BRANCH  17  20
ATOM     20  O   UNL     1     131.582 109.166 112.128  1.00  0.00    -0.504 OA
ATOM     21  H   UNL     1     132.526 109.401 111.848  1.00  0.00     0.293 HD
ENDBRANCH  17  20
ENDBRANCH   1  12
BRANCH   2  22
ATOM     22  O   UNL     1     129.045 114.457 113.006  1.00  0.00    -0.502 OA
ATOM     23  H   UNL     1     129.701 114.813 112.322  1.00  0.00     0.293 HD
ENDBRANCH   2  22
BRANCH   6  24
ATOM     24  O   UNL     1     124.325 115.534 110.785  1.00  0.00    -0.507 OA
ATOM     25  H   UNL     1     123.759 116.196 111.294  1.00  0.00     0.293 HD
ENDBRANCH   6  24
BRANCH   8  26
ATOM     26  O   UNL     1     122.375 111.167 110.716  1.00  0.00    -0.508 OA
ATOM     27  H   UNL     1     121.742 110.827 111.430  1.00  0.00     0.293 HD
ENDBRANCH   8  26
TORSDOF 6
ENDMDL
MODEL 4
REMARK VINA RESULT:    -6.649      5.533      7.891
REMARK INTER + INTRA:          -8.295
REMARK INTER:                  -7.987
REMARK INTRA:                  -0.308
REMARK UNBOUND:                -0.286
REMARK SMILES O=c1c(O)c(-c2ccc(O)c(O)c2)oc2cc(O)cc(O)c12
REMARK SMILES IDX 5 1 3 2 2 3 1 4 22 5 20 6 19 7 17 8 16 9 15 10 14 11 6 12
REMARK SMILES IDX 7 13 8 14 9 15 13 16 11 17 10 18 12 20 4 22 21 24 18 26
REMARK H PARENT 10 19 12 21 4 23 21 25 18 27
REMARK Flexibility Score: inf
ROOT
ATOM      1  C   UNL     1     123.028 113.738 114.594  1.00  0.00     0.180 A 
ATOM      2  C   UNL     1     121.948 114.620 114.419  1.00  0.00     0.208 A 
ATOM      3  C   UNL     1     121.323 115.165 115.552  1.00  0.00     0.238 A 
ATOM      4  O   UNL     1     120.406 116.010 115.387  1.00  0.00    -0.285 OA
ATOM      5  C   UNL     1     121.748 114.779 116.846  1.00  0.00     0.111 A 
ATOM      6  C   UNL     1     121.159 115.232 118.065  1.00  0.00     0.134 A 
ATOM      7  C   UNL     1     121.732 114.865 119.288  1.00  0.00     0.093 A 
ATOM      8  C   UNL     1     122.832 114.011 119.341  1.00  0.00     0.123 A 
ATOM      9  C   UNL     1     123.383 113.517 118.158  1.00  0.00     0.094 A 
ATOM     10  C   UNL     1     122.859 113.896 116.921  1.00  0.00     0.146 A 
ATOM     11  O   UNL     1     123.426 113.420 115.820  1.00  0.00    -0.452 OA
ENDROOT
BRANCH   1  12
ATOM     12  C   UNL     1     123.747 113.134 113.448  1.00  0.00     0.025 A 
ATOM     13  C   UNL     1     123.251 111.994 112.792  1.00  0.00     0.016 A 
ATOM     14  C   UNL     1     123.934 111.457 111.698  1.00  0.00     0.051 A 
ATOM     15  C   UNL     1     125.110 112.055 111.234  1.00  0.00     0.157 A 
ATOM     16  C   UNL     1     124.916 113.745 112.967  1.00  0.00     0.062 A 
ATOM     17  C   UNL     1     125.603 113.206 111.869  1.00  0.00     0.158 A 
BRANCH  15  18
ATOM     18  O   UNL     1     125.770 111.494 110.141  1.00  0.00    -0.504 OA
ATOM     19  H   UNL     1     126.321 110.648 110.221  1.00  0.00     0.293 HD
ENDBRANCH  15  18
BRANCH  17  20
ATOM     20  O   UNL     1     126.771 113.812 111.409  1.00  0.00    -0.504 OA
ATOM     21  H   UNL     1     127.671 113.351 111.476  1.00  0.00     0.293 HD
ENDBRANCH  17  20
ENDBRANCH   1  12
BRANCH   2  22
ATOM     22  O   UNL     1     121.493 114.929 113.134  1.00  0.00    -0.502 OA
ATOM     23  H   UNL     1     121.313 114.219 112.435  1.00  0.00     0.293 HD
ENDBRANCH   2  22
BRANCH   6  24
ATOM     24  O   UNL     1     120.004 116.017 118.130  1.00  0.00    -0.507 OA
ATOM     25  H   UNL     1     119.500 116.236 118.976  1.00  0.00     0.293 HD
ENDBRANCH   6  24
BRANCH   8  26
ATOM     26  O   UNL     1     123.366 113.653 120.578  1.00  0.00    -0.508 OA
ATOM     27  H   UNL     1     123.784 114.341 121.193  1.00  0.00     0.293 HD
ENDBRANCH   8  26
TORSDOF 6
ENDMDL
MODEL 5
REMARK VINA RESULT:    -6.579      2.387      7.737
REMARK INTER + INTRA:          -8.211
REMARK INTER:                  -7.880
REMARK INTRA:                  -0.331
REMARK UNBOUND:                -0.286
REMARK SMILES O=c1c(O)c(-c2ccc(O)c(O)c2)oc2cc(O)cc(O)c12
REMARK SMILES IDX 5 1 3 2 2 3 1 4 22 5 20 6 19 7 17 8 16 9 15 10 14 11 6 12
REMARK SMILES IDX 7 13 8 14 9 15 13 16 11 17 10 18 12 20 4 22 21 24 18 26
REMARK H PARENT 10 19 12 21 4 23 21 25 18 27
REMARK Flexibility Score: inf
ROOT
ATOM      1  C   UNL     1     130.350 111.113 114.291  1.00  0.00     0.180 A 
ATOM      2  C   UNL     1     130.607 112.477 114.513  1.00  0.00     0.208 A 
ATOM      3  C   UNL     1     129.763 113.433 113.928  1.00  0.00     0.238 A 
ATOM      4  O   UNL     1     129.953 114.649 114.192  1.00  0.00    -0.285 OA
ATOM      5  C   UNL     1     128.706 113.018 113.081  1.00  0.00     0.111 A 
ATOM      6  C   UNL     1     127.816 113.901 112.398  1.00  0.00     0.134 A 
ATOM      7  C   UNL     1     126.742 113.374 111.672  1.00  0.00     0.093 A 
ATOM      8  C   UNL     1     126.562 111.997 111.549  1.00  0.00     0.123 A 
ATOM      9  C   UNL     1     127.457 111.123 112.167  1.00  0.00     0.094 A 
ATOM     10  C   UNL     1     128.516 111.618 112.931  1.00  0.00     0.146 A 
ATOM     11  O   UNL     1     129.332 110.753 113.519  1.00  0.00    -0.452 OA
ENDROOT
BRANCH   1  12
ATOM     12  C   UNL     1     131.187 110.046 114.886  1.00  0.00     0.025 A 
ATOM     13  C   UNL     1     130.879 109.487 116.138  1.00  0.00     0.016 A 
ATOM     14  C   UNL     1     131.669 108.464 116.668  1.00  0.00     0.051 A 
ATOM     15  C   UNL     1     132.767 107.974 115.953  1.00  0.00     0.157 A 
ATOM     16  C   UNL     1     132.276 109.538 114.161  1.00  0.00     0.062 A 
ATOM     17  C   UNL     1     133.071 108.511 114.691  1.00  0.00     0.158 A 
BRANCH  15  18
ATOM     18  O   UNL     1     133.537 106.954 116.509  1.00  0.00    -0.504 OA
ATOM     19  H   UNL     1     133.544 106.016 116.127  1.00  0.00     0.293 HD
ENDBRANCH  15  18
BRANCH  17  20
ATOM     20  O   UNL     1     134.160 108.024 113.970  1.00  0.00    -0.504 OA
ATOM     21  H   UNL     1     134.037 107.512 113.104  1.00  0.00     0.293 HD
ENDBRANCH  17  20
ENDBRANCH   1  12
BRANCH   2  22
ATOM     22  O   UNL     1     131.701 112.870 115.290  1.00  0.00    -0.502 OA
ATOM     23  H   UNL     1     131.808 113.814 115.639  1.00  0.00     0.293 HD
ENDBRANCH   2  22
BRANCH   6  24
ATOM     24  O   UNL     1     127.955 115.292 112.379  1.00  0.00    -0.507 OA
ATOM     25  H   UNL     1     127.744 115.905 113.151  1.00  0.00     0.293 HD
ENDBRANCH   6  24
BRANCH   8  26
ATOM     26  O   UNL     1     125.491 111.507 110.803  1.00  0.00    -0.508 OA
ATOM     27  H   UNL     1     124.542 111.820 110.970  1.00  0.00     0.293 HD
ENDBRANCH   8  26
TORSDOF 6
ENDMDL
MODEL 6
REMARK VINA RESULT:    -6.515     10.706     13.081
REMARK INTER + INTRA:          -8.134
REMARK INTER:                  -7.809
REMARK INTRA:                  -0.325
REMARK UNBOUND:                -0.286
REMARK SMILES O=c1c(O)c(-c2ccc(O)c(O)c2)oc2cc(O)cc(O)c12
REMARK SMILES IDX 5 1 3 2 2 3 1 4 22 5 20 6 19 7 17 8 16 9 15 10 14 11 6 12
REMARK SMILES IDX 7 13 8 14 9 15 13 16 11 17 10 18 12 20 4 22 21 24 18 26
REMARK H PARENT 10 19 12 21 4 23 21 25 18 27
REMARK Flexibility Score: inf
ROOT
ATOM      1  C   UNL     1     122.572 115.908 120.958  1.00  0.00     0.180 A 
ATOM      2  C   UNL     1     121.454 115.427 120.253  1.00  0.00     0.208 A 
ATOM      3  C   UNL     1     120.183 115.933 120.566  1.00  0.00     0.238 A 
ATOM      4  O   UNL     1     119.197 115.555 119.882  1.00  0.00    -0.285 OA
ATOM      5  C   UNL     1     120.036 116.871 121.618  1.00  0.00     0.111 A 
ATOM      6  C   UNL     1     118.790 117.418 122.052  1.00  0.00     0.134 A 
ATOM      7  C   UNL     1     118.778 118.418 123.031  1.00  0.00     0.093 A 
ATOM      8  C   UNL     1     119.958 118.846 123.638  1.00  0.00     0.123 A 
ATOM      9  C   UNL     1     121.176 118.280 123.261  1.00  0.00     0.094 A 
ATOM     10  C   UNL     1     121.225 117.308 122.259  1.00  0.00     0.146 A 
ATOM     11  O   UNL     1     122.406 116.811 121.916  1.00  0.00    -0.452 OA
ENDROOT
BRANCH   1  12
ATOM     12  C   UNL     1     123.945 115.433 120.675  1.00  0.00     0.025 A 
ATOM     13  C   UNL     1     124.790 116.122 119.787  1.00  0.00     0.016 A 
ATOM     14  C   UNL     1     126.091 115.669 119.555  1.00  0.00     0.051 A 
ATOM     15  C   UNL     1     126.573 114.533 120.213  1.00  0.00     0.157 A 
ATOM     16  C   UNL     1     124.439 114.305 121.350  1.00  0.00     0.062 A 
ATOM     17  C   UNL     1     125.745 113.848 121.118  1.00  0.00     0.158 A 
BRANCH  15  18
ATOM     18  O   UNL     1     127.875 114.104 119.959  1.00  0.00    -0.504 OA
ATOM     19  H   UNL     1     128.095 113.133 119.770  1.00  0.00     0.293 HD
ENDBRANCH  15  18
BRANCH  17  20
ATOM     20  O   UNL     1     126.220 112.719 121.783  1.00  0.00    -0.504 OA
ATOM     21  H   UNL     1     126.897 112.097 121.357  1.00  0.00     0.293 HD
ENDBRANCH  17  20
ENDBRANCH   1  12
BRANCH   2  22
ATOM     22  O   UNL     1     121.610 114.445 119.271  1.00  0.00    -0.502 OA
ATOM     23  H   UNL     1     121.224 114.541 118.340  1.00  0.00     0.293 HD
ENDBRANCH   2  22
BRANCH   6  24
ATOM     24  O   UNL     1     117.544 116.999 121.576  1.00  0.00    -0.507 OA
ATOM     25  H   UNL     1     116.955 116.313 122.023  1.00  0.00     0.293 HD
ENDBRANCH   6  24
BRANCH   8  26
ATOM     26  O   UNL     1     119.907 119.832 124.622  1.00  0.00    -0.508 OA
ATOM     27  H   UNL     1     119.965 119.601 125.607  1.00  0.00     0.293 HD
ENDBRANCH   8  26
TORSDOF 6
ENDMDL
MODEL 7
REMARK VINA RESULT:    -6.504      5.394      7.412
REMARK INTER + INTRA:          -8.121
REMARK INTER:                  -7.946
REMARK INTRA:                  -0.174
REMARK UNBOUND:                -0.286
REMARK SMILES O=c1c(O)c(-c2ccc(O)c(O)c2)oc2cc(O)cc(O)c12
REMARK SMILES IDX 5 1 3 2 2 3 1 4 22 5 20 6 19 7 17 8 16 9 15 10 14 11 6 12
REMARK SMILES IDX 7 13 8 14 9 15 13 16 11 17 10 18 12 20 4 22 21 24 18 26
REMARK H PARENT 10 19 12 21 4 23 21 25 18 27
REMARK Flexibility Score: inf
ROOT
ATOM      1  C   UNL     1     123.816 113.806 115.628  1.00  0.00     0.180 A 
ATOM      2  C   UNL     1     125.137 114.241 115.424  1.00  0.00     0.208 A 
ATOM      3  C   UNL     1     125.758 113.980 114.192  1.00  0.00     0.238 A 
ATOM      4  O   UNL     1     126.912 114.436 113.989  1.00  0.00    -0.285 OA
ATOM      5  C   UNL     1     125.071 113.238 113.200  1.00  0.00     0.111 A 
ATOM      6  C   UNL     1     125.618 112.876 111.931  1.00  0.00     0.134 A 
ATOM      7  C   UNL     1     124.809 112.232 110.988  1.00  0.00     0.093 A 
ATOM      8  C   UNL     1     123.494 111.880 111.287  1.00  0.00     0.123 A 
ATOM      9  C   UNL     1     122.965 112.181 112.543  1.00  0.00     0.094 A 
ATOM     10  C   UNL     1     123.735 112.857 113.492  1.00  0.00     0.146 A 
ATOM     11  O   UNL     1     123.187 113.142 114.666  1.00  0.00    -0.452 OA
ENDROOT
BRANCH   1  12
ATOM     12  C   UNL     1     123.090 114.057 116.894  1.00  0.00     0.025 A 
ATOM     13  C   UNL     1     123.509 113.478 118.105  1.00  0.00     0.016 A 
ATOM     14  C   UNL     1     122.823 113.749 119.291  1.00  0.00     0.051 A 
ATOM     15  C   UNL     1     121.720 114.609 119.291  1.00  0.00     0.157 A 
ATOM     16  C   UNL     1     121.996 114.937 116.900  1.00  0.00     0.062 A 
ATOM     17  C   UNL     1     121.305 115.209 118.091  1.00  0.00     0.158 A 
BRANCH  15  18
ATOM     18  O   UNL     1     121.055 114.858 120.490  1.00  0.00    -0.504 OA
ATOM     19  H   UNL     1     120.933 115.795 120.854  1.00  0.00     0.293 HD
ENDBRANCH  15  18
BRANCH  17  20
ATOM     20  O   UNL     1     120.211 116.073 118.083  1.00  0.00    -0.504 OA
ATOM     21  H   UNL     1     120.153 116.862 118.716  1.00  0.00     0.293 HD
ENDBRANCH  17  20
ENDBRANCH   1  12
BRANCH   2  22
ATOM     22  O   UNL     1     125.825 114.904 116.444  1.00  0.00    -0.502 OA
ATOM     23  H   UNL     1     126.381 114.413 117.133  1.00  0.00     0.293 HD
ENDBRANCH   2  22
BRANCH   6  24
ATOM     24  O   UNL     1     126.948 113.099 111.561  1.00  0.00    -0.507 OA
ATOM     25  H   UNL     1     127.269 113.240 110.615  1.00  0.00     0.293 HD
ENDBRANCH   6  24
BRANCH   8  26
ATOM     26  O   UNL     1     122.722 111.226 110.329  1.00  0.00    -0.508 OA
ATOM     27  H   UNL     1     121.917 110.669 110.589  1.00  0.00     0.293 HD
ENDBRANCH   8  26
TORSDOF 6
ENDMDL
MODEL 8
REMARK VINA RESULT:    -6.333      1.410      3.230
REMARK INTER + INTRA:          -7.914
REMARK INTER:                  -7.723
REMARK INTRA:                  -0.192
REMARK UNBOUND:                -0.286
REMARK SMILES O=c1c(O)c(-c2ccc(O)c(O)c2)oc2cc(O)cc(O)c12
REMARK SMILES IDX 5 1 3 2 2 3 1 4 22 5 20 6 19 7 17 8 16 9 15 10 14 11 6 12
REMARK SMILES IDX 7 13 8 14 9 15 13 16 11 17 10 18 12 20 4 22 21 24 18 26
REMARK H PARENT 10 19 12 21 4 23 21 25 18 27
REMARK Flexibility Score: inf
ROOT
ATOM      1  C   UNL     1     127.266 111.743 112.050  1.00  0.00     0.180 A 
ATOM      2  C   UNL     1     127.680 112.150 113.331  1.00  0.00     0.208 A 
ATOM      3  C   UNL     1     128.924 111.716 113.814  1.00  0.00     0.238 A 
ATOM      4  O   UNL     1     129.321 112.144 114.929  1.00  0.00    -0.285 OA
ATOM      5  C   UNL     1     129.714 110.835 113.037  1.00  0.00     0.111 A 
ATOM      6  C   UNL     1     130.971 110.294 113.446  1.00  0.00     0.134 A 
ATOM      7  C   UNL     1     131.714 109.517 112.550  1.00  0.00     0.093 A 
ATOM      8  C   UNL     1     131.219 109.205 111.285  1.00  0.00     0.123 A 
ATOM      9  C   UNL     1     129.967 109.682 110.893  1.00  0.00     0.094 A 
ATOM     10  C   UNL     1     129.219 110.493 111.750  1.00  0.00     0.146 A 
ATOM     11  O   UNL     1     128.043 110.943 111.332  1.00  0.00    -0.452 OA
ENDROOT
BRANCH   1  12
ATOM     12  C   UNL     1     125.974 112.171 111.466  1.00  0.00     0.025 A 
ATOM     13  C   UNL     1     124.916 111.264 111.284  1.00  0.00     0.016 A 
ATOM     14  C   UNL     1     123.699 111.696 110.754  1.00  0.00     0.051 A 
ATOM     15  C   UNL     1     123.513 113.039 110.410  1.00  0.00     0.157 A 
ATOM     16  C   UNL     1     125.778 113.523 111.140  1.00  0.00     0.062 A 
ATOM     17  C   UNL     1     124.556 113.959 110.606  1.00  0.00     0.158 A 
BRANCH  15  18
ATOM     18  O   UNL     1     122.287 113.440 109.881  1.00  0.00    -0.504 OA
ATOM     19  H   UNL     1     122.065 114.414 109.715  1.00  0.00     0.293 HD
ENDBRANCH  15  18
BRANCH  17  20
ATOM     20  O   UNL     1     124.376 115.300 110.273  1.00  0.00    -0.504 OA
ATOM     21  H   UNL     1     124.071 115.982 110.957  1.00  0.00     0.293 HD
ENDBRANCH  17  20
ENDBRANCH   1  12
BRANCH   2  22
ATOM     22  O   UNL     1     126.851 112.959 114.114  1.00  0.00    -0.502 OA
ATOM     23  H   UNL     1     125.842 112.947 114.028  1.00  0.00     0.293 HD
ENDBRANCH   2  22
BRANCH   6  24
ATOM     24  O   UNL     1     131.520 110.468 114.721  1.00  0.00    -0.507 OA
ATOM     25  H   UNL     1     132.243 109.892 115.123  1.00  0.00     0.293 HD
ENDBRANCH   6  24
BRANCH   8  26
ATOM     26  O   UNL     1     131.978 108.414 110.425  1.00  0.00    -0.508 OA
ATOM     27  H   UNL     1     131.931 107.403 110.455  1.00  0.00     0.293 HD
ENDBRANCH   8  26
TORSDOF 6
ENDMDL
