MODEL 1
REMARK VINA RESULT:    -5.827      0.000      0.000
REMARK INTER + INTRA:          -7.350
REMARK INTER:                  -7.020
REMARK INTRA:                  -0.330
REMARK UNBOUND:                -0.330
REMARK SMILES O=c1c(O)c(-c2ccc(O)c(O)c2)oc2cc(O)cc(O)c12
REMARK SMILES IDX 5 1 3 2 2 3 1 4 22 5 20 6 19 7 17 8 16 9 15 10 14 11 6 12
REMARK SMILES IDX 7 13 8 14 9 15 13 16 11 17 10 18 12 20 4 22 21 24 18 26
REMARK H PARENT 10 19 12 21 4 23 21 25 18 27
REMARK Flexibility Score: inf
ROOT
ATOM      1  C   UNL     1     130.906 135.315 126.989  1.00  0.00     0.180 A 
ATOM      2  C   UNL     1     131.946 134.481 127.444  1.00  0.00     0.208 A 
ATOM      3  C   UNL     1     132.785 134.940 128.471  1.00  0.00     0.238 A 
ATOM      4  O   UNL     1     133.725 134.206 128.879  1.00  0.00    -0.285 OA
ATOM      5  C   UNL     1     132.560 136.211 129.038  1.00  0.00     0.111 A 
ATOM      6  C   UNL     1     133.357 136.746 130.081  1.00  0.00     0.134 A 
ATOM      7  C   UNL     1     133.062 138.015 130.598  1.00  0.00     0.093 A 
ATOM      8  C   UNL     1     131.988 138.759 130.096  1.00  0.00     0.123 A 
ATOM      9  C   UNL     1     131.201 138.236 129.069  1.00  0.00     0.094 A 
ATOM     10  C   UNL     1     131.479 136.973 128.539  1.00  0.00     0.146 A 
ATOM     11  O   UNL     1     130.715 136.502 127.559  1.00  0.00    -0.452 OA
ENDROOT
BRANCH   1  12
ATOM     12  C   UNL     1     129.992 134.910 125.897  1.00  0.00     0.025 A 
ATOM     13  C   UNL     1     128.737 134.368 126.214  1.00  0.00     0.016 A 
ATOM     14  C   UNL     1     127.850 133.998 125.200  1.00  0.00     0.051 A 
ATOM     15  C   UNL     1     128.199 134.179 123.855  1.00  0.00     0.157 A 
ATOM     16  C   UNL     1     130.330 135.110 124.547  1.00  0.00     0.062 A 
ATOM     17  C   UNL     1     129.443 134.742 123.528  1.00  0.00     0.158 A 
BRANCH  15  18
ATOM     18  O   UNL     1     127.312 133.807 122.846  1.00  0.00    -0.504 OA
ATOM     19  H   UNL     1     127.582 133.822 121.869  1.00  0.00     0.293 HD
ENDBRANCH  15  18
BRANCH  17  20
ATOM     20  O   UNL     1     129.815 134.950 122.200  1.00  0.00    -0.504 OA
ATOM     21  H   UNL     1     129.524 134.326 121.457  1.00  0.00     0.293 HD
ENDBRANCH  17  20
ENDBRANCH   1  12
BRANCH   2  22
ATOM     22  O   UNL     1     132.116 133.205 126.899  1.00  0.00    -0.502 OA
ATOM     23  H   UNL     1     131.496 132.435 127.118  1.00  0.00     0.293 HD
ENDBRANCH   2  22
BRANCH   6  24
ATOM     24  O   UNL     1     134.434 136.028 130.602  1.00  0.00    -0.507 OA
ATOM     25  H   UNL     1     134.974 135.388 130.030  1.00  0.00     0.293 HD
ENDBRANCH   6  24
BRANCH   8  26
ATOM     26  O   UNL     1     131.695 140.020 130.612  1.00  0.00    -0.508 OA
ATOM     27  H   UNL     1     130.796 140.225 131.032  1.00  0.00     0.293 HD
ENDBRANCH   8  26
TORSDOF 6
ENDMDL
MODEL 2
REMARK VINA RESULT:    -5.807      1.640      3.410
REMARK INTER + INTRA:          -7.325
REMARK INTER:                  -6.993
REMARK INTRA:                  -0.332
REMARK UNBOUND:                -0.330
REMARK SMILES O=c1c(O)c(-c2ccc(O)c(O)c2)oc2cc(O)cc(O)c12
REMARK SMILES IDX 5 1 3 2 2 3 1 4 22 5 20 6 19 7 17 8 16 9 15 10 14 11 6 12
REMARK SMILES IDX 7 13 8 14 9 15 13 16 11 17 10 18 12 20 4 22 21 24 18 26
REMARK H PARENT 10 19 12 21 4 23 21 25 18 27
REMARK Flexibility Score: inf
ROOT
ATOM      1  C   UNL     1     131.572 135.745 127.651  1.00  0.00     0.180 A 
ATOM      2  C   UNL     1     131.504 137.052 128.170  1.00  0.00     0.208 A 
ATOM      3  C   UNL     1     132.187 137.346 129.360  1.00  0.00     0.238 A 
ATOM      4  O   UNL     1     132.125 138.509 129.841  1.00  0.00    -0.285 OA
ATOM      5  C   UNL     1     132.940 136.338 129.998  1.00  0.00     0.111 A 
ATOM      6  C   UNL     1     133.662 136.553 131.198  1.00  0.00     0.134 A 
ATOM      7  C   UNL     1     134.395 135.501 131.766  1.00  0.00     0.093 A 
ATOM      8  C   UNL     1     134.422 134.240 131.158  1.00  0.00     0.123 A 
ATOM      9  C   UNL     1     133.711 134.024 129.976  1.00  0.00     0.094 A 
ATOM     10  C   UNL     1     132.973 135.060 129.394  1.00  0.00     0.146 A 
ATOM     11  O   UNL     1     132.304 134.824 128.271  1.00  0.00    -0.452 OA
ENDROOT
BRANCH   1  12
ATOM     12  C   UNL     1     130.862 135.353 126.411  1.00  0.00     0.025 A 
ATOM     13  C   UNL     1     131.531 135.436 125.179  1.00  0.00     0.016 A 
ATOM     14  C   UNL     1     130.888 135.051 124.000  1.00  0.00     0.051 A 
ATOM     15  C   UNL     1     129.575 134.564 124.036  1.00  0.00     0.157 A 
ATOM     16  C   UNL     1     129.553 134.844 126.446  1.00  0.00     0.062 A 
ATOM     17  C   UNL     1     128.907 134.456 125.266  1.00  0.00     0.158 A 
BRANCH  15  18
ATOM     18  O   UNL     1     128.936 134.184 122.856  1.00  0.00    -0.504 OA
ATOM     19  H   UNL     1     128.284 133.409 122.831  1.00  0.00     0.293 HD
ENDBRANCH  15  18
BRANCH  17  20
ATOM     20  O   UNL     1     127.605 133.961 125.338  1.00  0.00    -0.504 OA
ATOM     21  H   UNL     1     127.021 133.863 124.517  1.00  0.00     0.293 HD
ENDBRANCH  17  20
ENDBRANCH   1  12
BRANCH   2  22
ATOM     22  O   UNL     1     130.791 138.045 127.492  1.00  0.00    -0.502 OA
ATOM     23  H   UNL     1     129.834 138.280 127.725  1.00  0.00     0.293 HD
ENDBRANCH   2  22
BRANCH   6  24
ATOM     24  O   UNL     1     133.654 137.799 131.827  1.00  0.00    -0.507 OA
ATOM     25  H   UNL     1     132.812 138.182 132.239  1.00  0.00     0.293 HD
ENDBRANCH   6  24
BRANCH   8  26
ATOM     26  O   UNL     1     135.151 133.195 131.722  1.00  0.00    -0.508 OA
ATOM     27  H   UNL     1     134.954 132.228 131.493  1.00  0.00     0.293 HD
ENDBRANCH   8  26
TORSDOF 6
ENDMDL
MODEL 3
REMARK VINA RESULT:    -5.700      4.151      6.331
REMARK INTER + INTRA:          -7.196
REMARK INTER:                  -6.932
REMARK INTRA:                  -0.264
REMARK UNBOUND:                -0.330
REMARK SMILES O=c1c(O)c(-c2ccc(O)c(O)c2)oc2cc(O)cc(O)c12
REMARK SMILES IDX 5 1 3 2 2 3 1 4 22 5 20 6 19 7 17 8 16 9 15 10 14 11 6 12
REMARK SMILES IDX 7 13 8 14 9 15 13 16 11 17 10 18 12 20 4 22 21 24 18 26
REMARK H PARENT 10 19 12 21 4 23 21 25 18 27
REMARK Flexibility Score: inf
ROOT
ATOM      1  C   UNL     1     133.625 137.240 130.473  1.00  0.00     0.180 A 
ATOM      2  C   UNL     1     132.606 138.212 130.449  1.00  0.00     0.208 A 
ATOM      3  C   UNL     1     132.935 139.546 130.737  1.00  0.00     0.238 A 
ATOM      4  O   UNL     1     132.030 140.424 130.729  1.00  0.00    -0.285 OA
ATOM      5  C   UNL     1     134.273 139.888 131.022  1.00  0.00     0.111 A 
ATOM      6  C   UNL     1     134.688 141.209 131.318  1.00  0.00     0.134 A 
ATOM      7  C   UNL     1     136.041 141.470 131.582  1.00  0.00     0.093 A 
ATOM      8  C   UNL     1     136.985 140.436 131.556  1.00  0.00     0.123 A 
ATOM      9  C   UNL     1     136.580 139.133 131.265  1.00  0.00     0.094 A 
ATOM     10  C   UNL     1     135.236 138.852 131.000  1.00  0.00     0.146 A 
ATOM     11  O   UNL     1     134.878 137.601 130.731  1.00  0.00    -0.452 OA
ENDROOT
BRANCH   1  12
ATOM     12  C   UNL     1     133.353 135.809 130.200  1.00  0.00     0.025 A 
ATOM     13  C   UNL     1     133.157 135.386 128.876  1.00  0.00     0.016 A 
ATOM     14  C   UNL     1     132.920 134.038 128.593  1.00  0.00     0.051 A 
ATOM     15  C   UNL     1     132.892 133.093 129.626  1.00  0.00     0.157 A 
ATOM     16  C   UNL     1     133.345 134.855 131.231  1.00  0.00     0.062 A 
ATOM     17  C   UNL     1     133.110 133.503 130.951  1.00  0.00     0.158 A 
BRANCH  15  18
ATOM     18  O   UNL     1     132.654 131.750 129.340  1.00  0.00    -0.504 OA
ATOM     19  H   UNL     1     131.792 131.445 128.904  1.00  0.00     0.293 HD
ENDBRANCH  15  18
BRANCH  17  20
ATOM     20  O   UNL     1     133.103 132.586 132.001  1.00  0.00    -0.504 OA
ATOM     21  H   UNL     1     133.724 132.675 132.797  1.00  0.00     0.293 HD
ENDBRANCH  17  20
ENDBRANCH   1  12
BRANCH   2  22
ATOM     22  O   UNL     1     131.297 137.855 130.115  1.00  0.00    -0.502 OA
ATOM     23  H   UNL     1     131.012 136.891 129.995  1.00  0.00     0.293 HD
ENDBRANCH   2  22
BRANCH   6  24
ATOM     24  O   UNL     1     133.771 142.260 131.351  1.00  0.00    -0.507 OA
ATOM     25  H   UNL     1     133.631 142.819 132.185  1.00  0.00     0.293 HD
ENDBRANCH   6  24
BRANCH   8  26
ATOM     26  O   UNL     1     138.329 140.695 131.817  1.00  0.00    -0.508 OA
ATOM     27  H   UNL     1     138.952 139.972 132.156  1.00  0.00     0.293 HD
ENDBRANCH   8  26
TORSDOF 6
ENDMDL
MODEL 4
REMARK VINA RESULT:    -5.629      2.444      5.037
REMARK INTER + INTRA:          -7.111
REMARK INTER:                  -7.033
REMARK INTRA:                  -0.078
REMARK UNBOUND:                -0.330
REMARK SMILES O=c1c(O)c(-c2ccc(O)c(O)c2)oc2cc(O)cc(O)c12
REMARK SMILES IDX 5 1 3 2 2 3 1 4 22 5 20 6 19 7 17 8 16 9 15 10 14 11 6 12
REMARK SMILES IDX 7 13 8 14 9 15 13 16 11 17 10 18 12 20 4 22 21 24 18 26
REMARK H PARENT 10 19 12 21 4 23 21 25 18 27
REMARK Flexibility Score: inf
ROOT
ATOM      1  C   UNL     1     132.784 137.946 129.180  1.00  0.00     0.180 A 
ATOM      2  C   UNL     1     131.978 138.885 129.853  1.00  0.00     0.208 A 
ATOM      3  C   UNL     1     132.595 139.876 130.631  1.00  0.00     0.238 A 
ATOM      4  O   UNL     1     131.884 140.716 131.246  1.00  0.00    -0.285 OA
ATOM      5  C   UNL     1     134.003 139.925 130.708  1.00  0.00     0.111 A 
ATOM      6  C   UNL     1     134.703 140.894 131.467  1.00  0.00     0.134 A 
ATOM      7  C   UNL     1     136.105 140.881 131.486  1.00  0.00     0.093 A 
ATOM      8  C   UNL     1     136.820 139.920 130.760  1.00  0.00     0.123 A 
ATOM      9  C   UNL     1     136.133 138.963 130.012  1.00  0.00     0.094 A 
ATOM     10  C   UNL     1     134.735 138.958 129.982  1.00  0.00     0.146 A 
ATOM     11  O   UNL     1     134.108 138.032 129.264  1.00  0.00    -0.452 OA
ENDROOT
BRANCH   1  12
ATOM     12  C   UNL     1     132.206 136.860 128.356  1.00  0.00     0.025 A 
ATOM     13  C   UNL     1     131.391 137.185 127.260  1.00  0.00     0.016 A 
ATOM     14  C   UNL     1     130.853 136.177 126.456  1.00  0.00     0.051 A 
ATOM     15  C   UNL     1     131.133 134.831 126.726  1.00  0.00     0.157 A 
ATOM     16  C   UNL     1     132.502 135.510 128.611  1.00  0.00     0.062 A 
ATOM     17  C   UNL     1     131.966 134.497 127.806  1.00  0.00     0.158 A 
BRANCH  15  18
ATOM     18  O   UNL     1     130.592 133.829 125.923  1.00  0.00    -0.504 OA
ATOM     19  H   UNL     1     130.296 132.940 126.310  1.00  0.00     0.293 HD
ENDBRANCH  15  18
BRANCH  17  20
ATOM     20  O   UNL     1     132.277 133.168 128.094  1.00  0.00    -0.504 OA
ATOM     21  H   UNL     1     131.594 132.529 128.481  1.00  0.00     0.293 HD
ENDBRANCH  17  20
ENDBRANCH   1  12
BRANCH   2  22
ATOM     22  O   UNL     1     130.587 138.845 129.719  1.00  0.00    -0.502 OA
ATOM     23  H   UNL     1     129.962 139.085 130.480  1.00  0.00     0.293 HD
ENDBRANCH   2  22
BRANCH   6  24
ATOM     24  O   UNL     1     134.019 141.865 132.199  1.00  0.00    -0.507 OA
ATOM     25  H   UNL     1     133.755 141.715 133.166  1.00  0.00     0.293 HD
ENDBRANCH   6  24
BRANCH   8  26
ATOM     26  O   UNL     1     138.213 139.908 130.778  1.00  0.00    -0.508 OA
ATOM     27  H   UNL     1     138.748 139.431 130.063  1.00  0.00     0.293 HD
ENDBRANCH   8  26
TORSDOF 6
ENDMDL
MODEL 5
REMARK VINA RESULT:    -5.604      3.186      7.947
REMARK INTER + INTRA:          -7.081
REMARK INTER:                  -6.843
REMARK INTRA:                  -0.238
REMARK UNBOUND:                -0.330
REMARK SMILES O=c1c(O)c(-c2ccc(O)c(O)c2)oc2cc(O)cc(O)c12
REMARK SMILES IDX 5 1 3 2 2 3 1 4 22 5 20 6 19 7 17 8 16 9 15 10 14 11 6 12
REMARK SMILES IDX 7 13 8 14 9 15 13 16 11 17 10 18 12 20 4 22 21 24 18 26
REMARK H PARENT 10 19 12 21 4 23 21 25 18 27
REMARK Flexibility Score: inf
ROOT
ATOM      1  C   UNL     1     133.974 135.151 130.748  1.00  0.00     0.180 A 
ATOM      2  C   UNL     1     133.488 136.441 131.036  1.00  0.00     0.208 A 
ATOM      3  C   UNL     1     132.570 137.033 130.155  1.00  0.00     0.238 A 
ATOM      4  O   UNL     1     132.136 138.191 130.396  1.00  0.00    -0.285 OA
ATOM      5  C   UNL     1     132.138 136.320 129.017  1.00  0.00     0.111 A 
ATOM      6  C   UNL     1     131.211 136.842 128.082  1.00  0.00     0.134 A 
ATOM      7  C   UNL     1     130.825 136.066 126.980  1.00  0.00     0.093 A 
ATOM      8  C   UNL     1     131.345 134.780 126.794  1.00  0.00     0.123 A 
ATOM      9  C   UNL     1     132.259 134.262 127.713  1.00  0.00     0.094 A 
ATOM     10  C   UNL     1     132.658 135.020 128.818  1.00  0.00     0.146 A 
ATOM     11  O   UNL     1     133.533 134.503 129.674  1.00  0.00    -0.452 OA
ENDROOT
BRANCH   1  12
ATOM     12  C   UNL     1     134.960 134.469 131.619  1.00  0.00     0.025 A 
ATOM     13  C   UNL     1     136.288 134.924 131.645  1.00  0.00     0.016 A 
ATOM     14  C   UNL     1     137.229 134.310 132.474  1.00  0.00     0.051 A 
ATOM     15  C   UNL     1     136.854 133.242 133.301  1.00  0.00     0.157 A 
ATOM     16  C   UNL     1     134.582 133.412 132.464  1.00  0.00     0.062 A 
ATOM     17  C   UNL     1     135.523 132.795 133.299  1.00  0.00     0.158 A 
BRANCH  15  18
ATOM     18  O   UNL     1     137.796 132.630 134.125  1.00  0.00    -0.504 OA
ATOM     19  H   UNL     1     137.818 131.625 134.252  1.00  0.00     0.293 HD
ENDBRANCH  15  18
BRANCH  17  20
ATOM     20  O   UNL     1     135.113 131.745 134.120  1.00  0.00    -0.504 OA
ATOM     21  H   UNL     1     134.153 131.424 134.142  1.00  0.00     0.293 HD
ENDBRANCH  17  20
ENDBRANCH   1  12
BRANCH   2  22
ATOM     22  O   UNL     1     133.894 137.106 132.196  1.00  0.00    -0.502 OA
ATOM     23  H   UNL     1     133.233 137.471 132.871  1.00  0.00     0.293 HD
ENDBRANCH   2  22
BRANCH   6  24
ATOM     24  O   UNL     1     130.675 138.120 128.240  1.00  0.00    -0.507 OA
ATOM     25  H   UNL     1     130.454 138.708 127.444  1.00  0.00     0.293 HD
ENDBRANCH   6  24
BRANCH   8  26
ATOM     26  O   UNL     1     130.960 134.009 125.699  1.00  0.00    -0.508 OA
ATOM     27  H   UNL     1     131.267 134.232 124.760  1.00  0.00     0.293 HD
ENDBRANCH   8  26
TORSDOF 6
ENDMDL
MODEL 6
REMARK VINA RESULT:    -5.504      1.639      6.924
REMARK INTER + INTRA:          -6.960
REMARK INTER:                  -6.628
REMARK INTRA:                  -0.332
REMARK UNBOUND:                -0.330
REMARK SMILES O=c1c(O)c(-c2ccc(O)c(O)c2)oc2cc(O)cc(O)c12
REMARK SMILES IDX 5 1 3 2 2 3 1 4 22 5 20 6 19 7 17 8 16 9 15 10 14 11 6 12
REMARK SMILES IDX 7 13 8 14 9 15 13 16 11 17 10 18 12 20 4 22 21 24 18 26
REMARK H PARENT 10 19 12 21 4 23 21 25 18 27
REMARK Flexibility Score: inf
ROOT
ATOM      1  C   UNL     1     131.893 135.726 127.468  1.00  0.00     0.180 A 
ATOM      2  C   UNL     1     132.638 135.984 126.301  1.00  0.00     0.208 A 
ATOM      3  C   UNL     1     132.076 135.673 125.053  1.00  0.00     0.238 A 
ATOM      4  O   UNL     1     132.738 135.890 124.003  1.00  0.00    -0.285 OA
ATOM      5  C   UNL     1     130.776 135.129 124.992  1.00  0.00     0.111 A 
ATOM      6  C   UNL     1     130.136 134.791 123.774  1.00  0.00     0.134 A 
ATOM      7  C   UNL     1     128.837 134.264 123.796  1.00  0.00     0.093 A 
ATOM      8  C   UNL     1     128.166 134.068 125.010  1.00  0.00     0.123 A 
ATOM      9  C   UNL     1     128.794 134.399 126.211  1.00  0.00     0.094 A 
ATOM     10  C   UNL     1     130.090 134.925 126.211  1.00  0.00     0.146 A 
ATOM     11  O   UNL     1     130.665 135.227 127.370  1.00  0.00    -0.452 OA
ENDROOT
BRANCH   1  12
ATOM     12  C   UNL     1     132.426 136.010 128.820  1.00  0.00     0.025 A 
ATOM     13  C   UNL     1     132.130 137.237 129.434  1.00  0.00     0.016 A 
ATOM     14  C   UNL     1     132.604 137.517 130.718  1.00  0.00     0.051 A 
ATOM     15  C   UNL     1     133.367 136.569 131.413  1.00  0.00     0.157 A 
ATOM     16  C   UNL     1     133.173 135.053 129.529  1.00  0.00     0.062 A 
ATOM     17  C   UNL     1     133.648 135.330 130.817  1.00  0.00     0.158 A 
BRANCH  15  18
ATOM     18  O   UNL     1     133.840 136.854 132.693  1.00  0.00    -0.504 OA
ATOM     19  H   UNL     1     133.846 136.153 133.425  1.00  0.00     0.293 HD
ENDBRANCH  15  18
BRANCH  17  20
ATOM     20  O   UNL     1     134.392 134.359 131.487  1.00  0.00    -0.504 OA
ATOM     21  H   UNL     1     134.087 133.962 132.367  1.00  0.00     0.293 HD
ENDBRANCH  17  20
ENDBRANCH   1  12
BRANCH   2  22
ATOM     22  O   UNL     1     133.905 136.570 126.387  1.00  0.00    -0.502 OA
ATOM     23  H   UNL     1     134.590 136.280 127.074  1.00  0.00     0.293 HD
ENDBRANCH   2  22
BRANCH   6  24
ATOM     24  O   UNL     1     130.778 134.976 122.550  1.00  0.00    -0.507 OA
ATOM     25  H   UNL     1     130.446 134.531 121.701  1.00  0.00     0.293 HD
ENDBRANCH   6  24
BRANCH   8  26
ATOM     26  O   UNL     1     126.875 133.544 125.031  1.00  0.00    -0.508 OA
ATOM     27  H   UNL     1     126.700 132.576 125.274  1.00  0.00     0.293 HD
ENDBRANCH   8  26
TORSDOF 6
ENDMDL
MODEL 7
REMARK VINA RESULT:    -5.493      3.340      5.610
REMARK INTER + INTRA:          -6.947
REMARK INTER:                  -6.687
REMARK INTRA:                  -0.260
REMARK UNBOUND:                -0.330
REMARK SMILES O=c1c(O)c(-c2ccc(O)c(O)c2)oc2cc(O)cc(O)c12
REMARK SMILES IDX 5 1 3 2 2 3 1 4 22 5 20 6 19 7 17 8 16 9 15 10 14 11 6 12
REMARK SMILES IDX 7 13 8 14 9 15 13 16 11 17 10 18 12 20 4 22 21 24 18 26
REMARK H PARENT 10 19 12 21 4 23 21 25 18 27
REMARK Flexibility Score: inf
ROOT
ATOM      1  C   UNL     1     134.410 136.780 130.176  1.00  0.00     0.180 A 
ATOM      2  C   UNL     1     134.335 136.328 131.508  1.00  0.00     0.208 A 
ATOM      3  C   UNL     1     135.433 136.534 132.357  1.00  0.00     0.238 A 
ATOM      4  O   UNL     1     135.382 136.125 133.548  1.00  0.00    -0.285 OA
ATOM      5  C   UNL     1     136.575 137.203 131.870  1.00  0.00     0.111 A 
ATOM      6  C   UNL     1     137.722 137.455 132.663  1.00  0.00     0.134 A 
ATOM      7  C   UNL     1     138.815 138.135 132.107  1.00  0.00     0.093 A 
ATOM      8  C   UNL     1     138.783 138.569 130.776  1.00  0.00     0.123 A 
ATOM      9  C   UNL     1     137.656 138.323 129.992  1.00  0.00     0.094 A 
ATOM     10  C   UNL     1     136.556 137.645 130.527  1.00  0.00     0.146 A 
ATOM     11  O   UNL     1     135.498 137.420 129.756  1.00  0.00    -0.452 OA
ENDROOT
BRANCH   1  12
ATOM     12  C   UNL     1     133.302 136.583 129.214  1.00  0.00     0.025 A 
ATOM     13  C   UNL     1     133.071 135.305 128.681  1.00  0.00     0.016 A 
ATOM     14  C   UNL     1     132.018 135.091 127.788  1.00  0.00     0.051 A 
ATOM     15  C   UNL     1     131.170 136.147 127.428  1.00  0.00     0.157 A 
ATOM     16  C   UNL     1     132.437 137.635 128.867  1.00  0.00     0.062 A 
ATOM     17  C   UNL     1     131.379 137.424 127.974  1.00  0.00     0.158 A 
BRANCH  15  18
ATOM     18  O   UNL     1     130.122 135.931 126.535  1.00  0.00    -0.504 OA
ATOM     19  H   UNL     1     129.824 136.646 125.882  1.00  0.00     0.293 HD
ENDBRANCH  15  18
BRANCH  17  20
ATOM     20  O   UNL     1     130.545 138.493 127.648  1.00  0.00    -0.504 OA
ATOM     21  H   UNL     1     130.807 139.454 127.832  1.00  0.00     0.293 HD
ENDBRANCH  17  20
ENDBRANCH   1  12
BRANCH   2  22
ATOM     22  O   UNL     1     133.173 135.712 131.979  1.00  0.00    -0.502 OA
ATOM     23  H   UNL     1     132.647 135.048 131.423  1.00  0.00     0.293 HD
ENDBRANCH   2  22
BRANCH   6  24
ATOM     24  O   UNL     1     137.782 137.035 133.992  1.00  0.00    -0.507 OA
ATOM     25  H   UNL     1     138.258 137.580 134.702  1.00  0.00     0.293 HD
ENDBRANCH   6  24
BRANCH   8  26
ATOM     26  O   UNL     1     139.869 139.246 130.224  1.00  0.00    -0.508 OA
ATOM     27  H   UNL     1     140.719 138.760 129.963  1.00  0.00     0.293 HD
ENDBRANCH   8  26
TORSDOF 6
ENDMDL
MODEL 8
REMARK VINA RESULT:    -5.446      3.551      8.587
REMARK INTER + INTRA:          -6.890
REMARK INTER:                  -6.559
REMARK INTRA:                  -0.331
REMARK UNBOUND:                -0.330
REMARK SMILES O=c1c(O)c(-c2ccc(O)c(O)c2)oc2cc(O)cc(O)c12
REMARK SMILES IDX 5 1 3 2 2 3 1 4 22 5 20 6 19 7 17 8 16 9 15 10 14 11 6 12
REMARK SMILES IDX 7 13 8 14 9 15 13 16 11 17 10 18 12 20 4 22 21 24 18 26
REMARK H PARENT 10 19 12 21 4 23 21 25 18 27
REMARK Flexibility Score: inf
ROOT
ATOM      1  C   UNL     1     135.174 138.150 130.262  1.00  0.00     0.180 A 
ATOM      2  C   UNL     1     134.224 139.112 130.658  1.00  0.00     0.208 A 
ATOM      3  C   UNL     1     132.918 139.026 130.151  1.00  0.00     0.238 A 
ATOM      4  O   UNL     1     132.062 139.887 130.490  1.00  0.00    -0.285 OA
ATOM      5  C   UNL     1     132.580 137.974 129.275  1.00  0.00     0.111 A 
ATOM      6  C   UNL     1     131.285 137.813 128.723  1.00  0.00     0.134 A 
ATOM      7  C   UNL     1     131.025 136.733 127.866  1.00  0.00     0.093 A 
ATOM      8  C   UNL     1     132.032 135.812 127.552  1.00  0.00     0.123 A 
ATOM      9  C   UNL     1     133.308 135.968 128.094  1.00  0.00     0.094 A 
ATOM     10  C   UNL     1     133.588 137.038 128.949  1.00  0.00     0.146 A 
ATOM     11  O   UNL     1     134.814 137.164 129.447  1.00  0.00    -0.452 OA
ENDROOT
BRANCH   1  12
ATOM     12  C   UNL     1     136.575 138.186 130.740  1.00  0.00     0.025 A 
ATOM     13  C   UNL     1     136.953 137.384 131.828  1.00  0.00     0.016 A 
ATOM     14  C   UNL     1     138.274 137.385 132.282  1.00  0.00     0.051 A 
ATOM     15  C   UNL     1     139.240 138.175 131.645  1.00  0.00     0.157 A 
ATOM     16  C   UNL     1     137.551 138.961 130.090  1.00  0.00     0.062 A 
ATOM     17  C   UNL     1     138.877 138.963 130.541  1.00  0.00     0.158 A 
BRANCH  15  18
ATOM     18  O   UNL     1     140.557 138.176 132.102  1.00  0.00    -0.504 OA
ATOM     19  H   UNL     1     141.008 137.327 132.422  1.00  0.00     0.293 HD
ENDBRANCH  15  18
BRANCH  17  20
ATOM     20  O   UNL     1     139.817 139.749 129.875  1.00  0.00    -0.504 OA
ATOM     21  H   UNL     1     139.613 140.196 128.989  1.00  0.00     0.293 HD
ENDBRANCH  17  20
ENDBRANCH   1  12
BRANCH   2  22
ATOM     22  O   UNL     1     134.572 140.116 131.566  1.00  0.00    -0.502 OA
ATOM     23  H   UNL     1     133.962 140.899 131.770  1.00  0.00     0.293 HD
ENDBRANCH   2  22
BRANCH   6  24
ATOM     24  O   UNL     1     130.261 138.714 129.017  1.00  0.00    -0.507 OA
ATOM     25  H   UNL     1     130.456 139.674 129.279  1.00  0.00     0.293 HD
ENDBRANCH   6  24
BRANCH   8  26
ATOM     26  O   UNL     1     131.772 134.739 126.702  1.00  0.00    -0.508 OA
ATOM     27  H   UNL     1     132.324 134.580 125.867  1.00  0.00     0.293 HD
ENDBRANCH   8  26
TORSDOF 6
ENDMDL
MODEL 9
REMARK VINA RESULT:    -5.039      3.846      6.764
REMARK INTER + INTRA:          -6.401
REMARK INTER:                  -6.073
REMARK INTRA:                  -0.328
REMARK UNBOUND:                -0.330
REMARK SMILES O=c1c(O)c(-c2ccc(O)c(O)c2)oc2cc(O)cc(O)c12
REMARK SMILES IDX 5 1 3 2 2 3 1 4 22 5 20 6 19 7 17 8 16 9 15 10 14 11 6 12
REMARK SMILES IDX 7 13 8 14 9 15 13 16 11 17 10 18 12 20 4 22 21 24 18 26
REMARK H PARENT 10 19 12 21 4 23 21 25 18 27
REMARK Flexibility Score: inf
ROOT
ATOM      1  C   UNL     1     134.602 136.305 130.987  1.00  0.00     0.180 A 
ATOM      2  C   UNL     1     135.742 137.049 131.350  1.00  0.00     0.208 A 
ATOM      3  C   UNL     1     136.660 136.488 132.251  1.00  0.00     0.238 A 
ATOM      4  O   UNL     1     137.679 137.148 132.591  1.00  0.00    -0.285 OA
ATOM      5  C   UNL     1     136.435 135.191 132.758  1.00  0.00     0.111 A 
ATOM      6  C   UNL     1     137.314 134.552 133.666  1.00  0.00     0.134 A 
ATOM      7  C   UNL     1     137.025 133.256 134.117  1.00  0.00     0.093 A 
ATOM      8  C   UNL     1     135.876 132.587 133.677  1.00  0.00     0.123 A 
ATOM      9  C   UNL     1     135.008 133.214 132.782  1.00  0.00     0.094 A 
ATOM     10  C   UNL     1     135.278 134.506 132.322  1.00  0.00     0.146 A 
ATOM     11  O   UNL     1     134.431 135.079 131.474  1.00  0.00    -0.452 OA
ENDROOT
BRANCH   1  12
ATOM     12  C   UNL     1     133.579 136.836 130.058  1.00  0.00     0.025 A 
ATOM     13  C   UNL     1     133.615 136.461 128.705  1.00  0.00     0.016 A 
ATOM     14  C   UNL     1     132.648 136.933 127.815  1.00  0.00     0.051 A 
ATOM     15  C   UNL     1     131.622 137.774 128.265  1.00  0.00     0.157 A 
ATOM     16  C   UNL     1     132.536 137.662 130.511  1.00  0.00     0.062 A 
ATOM     17  C   UNL     1     131.564 138.135 129.621  1.00  0.00     0.158 A 
BRANCH  15  18
ATOM     18  O   UNL     1     130.660 138.244 127.373  1.00  0.00    -0.504 OA
ATOM     19  H   UNL     1     130.916 138.647 126.480  1.00  0.00     0.293 HD
ENDBRANCH  15  18
BRANCH  17  20
ATOM     20  O   UNL     1     130.547 138.958 130.105  1.00  0.00    -0.504 OA
ATOM     21  H   UNL     1     130.742 139.782 130.662  1.00  0.00     0.293 HD
ENDBRANCH  17  20
ENDBRANCH   1  12
BRANCH   2  22
ATOM     22  O   UNL     1     135.967 138.312 130.794  1.00  0.00    -0.502 OA
ATOM     23  H   UNL     1     136.255 139.106 131.353  1.00  0.00     0.293 HD
ENDBRANCH   2  22
BRANCH   6  24
ATOM     24  O   UNL     1     138.467 135.193 134.122  1.00  0.00    -0.507 OA
ATOM     25  H   UNL     1     139.383 134.971 133.749  1.00  0.00     0.293 HD
ENDBRANCH   6  24
BRANCH   8  26
ATOM     26  O   UNL     1     135.590 131.299 134.125  1.00  0.00    -0.508 OA
ATOM     27  H   UNL     1     134.860 130.740 133.699  1.00  0.00     0.293 HD
ENDBRANCH   8  26
TORSDOF 6
ENDMDL
