MODEL 1
REMARK VINA RESULT:    -3.285      0.000      0.000
REMARK INTER + INTRA:          -3.285
REMARK INTER:                  -3.285
REMARK INTRA:                   0.000
REMARK UNBOUND:                 0.000
REMARK SMILES CC1(C)O[C@]2(C)CC[C@H]1CC2
REMARK SMILES IDX 1 1 2 2 9 3 8 4 7 5 5 6 4 7 11 8 10 9 6 10 3 11
REMARK H PARENT
REMARK Flexibility Score: inf
ROOT
ATOM      1  C   UNL     1     135.050 148.697 143.341  1.00  0.00     0.042 C 
ATOM      2  C   UNL     1     135.769 147.931 144.472  1.00  0.00     0.066 C 
ATOM      3  C   UNL     1     136.836 148.855 145.179  1.00  0.00     0.021 C 
ATOM      4  C   UNL     1     137.917 149.238 144.141  1.00  0.00     0.009 C 
ATOM      5  C   UNL     1     138.447 147.953 143.460  1.00  0.00     0.035 C 
ATOM      6  C   UNL     1     137.786 146.702 144.107  1.00  0.00     0.066 C 
ATOM      7  O   UNL     1     136.373 146.760 143.903  1.00  0.00    -0.369 OA
ATOM      8  C   UNL     1     138.081 146.708 145.635  1.00  0.00     0.035 C 
ATOM      9  C   UNL     1     137.559 148.022 146.265  1.00  0.00     0.009 C 
ATOM     10  C   UNL     1     138.326 145.420 143.465  1.00  0.00     0.042 C 
ATOM     11  C   UNL     1     134.690 147.475 145.477  1.00  0.00     0.042 C 
ENDROOT
TORSDOF 0
ENDMDL
MODEL 2
REMARK VINA RESULT:    -3.276      9.777     11.277
REMARK INTER + INTRA:          -3.276
REMARK INTER:                  -3.276
REMARK INTRA:                   0.000
REMARK UNBOUND:                 0.000
REMARK SMILES CC1(C)O[C@]2(C)CC[C@H]1CC2
REMARK SMILES IDX 1 1 2 2 9 3 8 4 7 5 5 6 4 7 11 8 10 9 6 10 3 11
REMARK H PARENT
REMARK Flexibility Score: inf
ROOT
ATOM      1  C   UNL     1     133.006 135.035 143.355  1.00  0.00     0.042 C 
ATOM      2  C   UNL     1     133.757 135.771 144.486  1.00  0.00     0.066 C 
ATOM      3  C   UNL     1     132.812 136.819 145.191  1.00  0.00     0.021 C 
ATOM      4  C   UNL     1     132.408 137.892 144.152  1.00  0.00     0.009 C 
ATOM      5  C   UNL     1     133.683 138.446 143.471  1.00  0.00     0.035 C 
ATOM      6  C   UNL     1     134.946 137.811 144.120  1.00  0.00     0.066 C 
ATOM      7  O   UNL     1     134.916 136.398 143.917  1.00  0.00    -0.369 OA
ATOM      8  C   UNL     1     134.933 138.108 145.648  1.00  0.00     0.035 C 
ATOM      9  C   UNL     1     133.629 137.560 146.277  1.00  0.00     0.009 C 
ATOM     10  C   UNL     1     136.217 138.377 143.478  1.00  0.00     0.042 C 
ATOM     11  C   UNL     1     134.234 134.702 145.492  1.00  0.00     0.042 C 
ENDROOT
TORSDOF 0
ENDMDL
MODEL 3
REMARK VINA RESULT:    -3.265     13.424     15.942
REMARK INTER + INTRA:          -3.265
REMARK INTER:                  -3.265
REMARK INTRA:                   0.000
REMARK UNBOUND:                 0.000
REMARK SMILES CC1(C)O[C@]2(C)CC[C@H]1CC2
REMARK SMILES IDX 1 1 2 2 9 3 8 4 7 5 5 6 4 7 11 8 10 9 6 10 3 11
REMARK H PARENT
REMARK Flexibility Score: inf
ROOT
ATOM      1  C   UNL     1     146.616 132.989 143.390  1.00  0.00     0.042 C 
ATOM      2  C   UNL     1     145.884 133.763 144.508  1.00  0.00     0.066 C 
ATOM      3  C   UNL     1     144.845 132.829 145.243  1.00  0.00     0.021 C 
ATOM      4  C   UNL     1     143.768 132.395 144.221  1.00  0.00     0.009 C 
ATOM      5  C   UNL     1     143.202 133.651 143.514  1.00  0.00     0.035 C 
ATOM      6  C   UNL     1     143.835 134.932 144.128  1.00  0.00     0.066 C 
ATOM      7  O   UNL     1     145.247 134.905 143.917  1.00  0.00    -0.369 OA
ATOM      8  C   UNL     1     143.549 134.954 145.658  1.00  0.00     0.035 C 
ATOM      9  C   UNL     1     144.107 133.668 146.314  1.00  0.00     0.009 C 
ATOM     10  C   UNL     1     143.259 136.185 143.460  1.00  0.00     0.042 C 
ATOM     11  C   UNL     1     146.957 134.269 145.496  1.00  0.00     0.042 C 
ENDROOT
TORSDOF 0
ENDMDL
MODEL 4
REMARK VINA RESULT:    -3.243      9.729     11.182
REMARK INTER + INTRA:          -3.243
REMARK INTER:                  -3.243
REMARK INTRA:                   0.000
REMARK UNBOUND:                 0.000
REMARK SMILES CC1(C)O[C@]2(C)CC[C@H]1CC2
REMARK SMILES IDX 1 1 2 2 9 3 8 4 7 5 5 6 4 7 11 8 10 9 6 10 3 11
REMARK H PARENT
REMARK Flexibility Score: inf
ROOT
ATOM      1  C   UNL     1     148.618 146.627 143.378  1.00  0.00     0.042 C 
ATOM      2  C   UNL     1     147.825 145.892 144.480  1.00  0.00     0.066 C 
ATOM      3  C   UNL     1     148.734 144.821 145.200  1.00  0.00     0.021 C 
ATOM      4  C   UNL     1     149.148 143.753 144.160  1.00  0.00     0.009 C 
ATOM      5  C   UNL     1     147.883 143.226 143.440  1.00  0.00     0.035 C 
ATOM      6  C   UNL     1     146.613 143.876 144.061  1.00  0.00     0.066 C 
ATOM      7  O   UNL     1     146.671 145.291 143.874  1.00  0.00    -0.369 OA
ATOM      8  C   UNL     1     146.580 143.564 145.586  1.00  0.00     0.035 C 
ATOM      9  C   UNL     1     147.875 144.083 146.255  1.00  0.00     0.009 C 
ATOM     10  C   UNL     1     145.351 143.338 143.379  1.00  0.00     0.042 C 
ATOM     11  C   UNL     1     147.339 146.959 145.484  1.00  0.00     0.042 C 
ENDROOT
TORSDOF 0
ENDMDL
MODEL 5
REMARK VINA RESULT:    -3.117      9.592     11.139
REMARK INTER + INTRA:          -3.117
REMARK INTER:                  -3.117
REMARK INTRA:                   0.000
REMARK UNBOUND:                 0.000
REMARK SMILES CC1(C)O[C@]2(C)CC[C@H]1CC2
REMARK SMILES IDX 1 1 2 2 9 3 8 4 7 5 5 6 4 7 11 8 10 9 6 10 3 11
REMARK H PARENT
REMARK Flexibility Score: inf
ROOT
ATOM      1  C   UNL     1     135.658 136.310 146.221  1.00  0.00     0.042 C 
ATOM      2  C   UNL     1     134.847 137.135 145.198  1.00  0.00     0.066 C 
ATOM      3  C   UNL     1     134.531 138.573 145.767  1.00  0.00     0.021 C 
ATOM      4  C   UNL     1     133.640 138.418 147.022  1.00  0.00     0.009 C 
ATOM      5  C   UNL     1     132.427 137.520 146.677  1.00  0.00     0.035 C 
ATOM      6  C   UNL     1     132.458 137.149 145.167  1.00  0.00     0.066 C 
ATOM      7  O   UNL     1     133.648 136.409 144.890  1.00  0.00    -0.369 OA
ATOM      8  C   UNL     1     132.464 138.459 144.325  1.00  0.00     0.035 C 
ATOM      9  C   UNL     1     133.676 139.334 144.725  1.00  0.00     0.009 C 
ATOM     10  C   UNL     1     131.244 136.288 144.804  1.00  0.00     0.042 C 
ATOM     11  C   UNL     1     135.694 137.232 143.911  1.00  0.00     0.042 C 
ENDROOT
TORSDOF 0
ENDMDL
MODEL 6
REMARK VINA RESULT:    -3.103     10.261     11.808
REMARK INTER + INTRA:          -3.103
REMARK INTER:                  -3.103
REMARK INTRA:                   0.000
REMARK UNBOUND:                 0.000
REMARK SMILES CC1(C)O[C@]2(C)CC[C@H]1CC2
REMARK SMILES IDX 1 1 2 2 9 3 8 4 7 5 5 6 4 7 11 8 10 9 6 10 3 11
REMARK H PARENT
REMARK Flexibility Score: inf
ROOT
ATOM      1  C   UNL     1     145.944 145.325 146.247  1.00  0.00     0.042 C 
ATOM      2  C   UNL     1     146.765 144.512 145.223  1.00  0.00     0.066 C 
ATOM      3  C   UNL     1     147.058 143.061 145.771  1.00  0.00     0.021 C 
ATOM      4  C   UNL     1     147.930 143.186 147.043  1.00  0.00     0.009 C 
ATOM      5  C   UNL     1     149.156 144.079 146.734  1.00  0.00     0.035 C 
ATOM      6  C   UNL     1     149.154 144.477 145.231  1.00  0.00     0.066 C 
ATOM      7  O   UNL     1     147.975 145.232 144.947  1.00  0.00    -0.369 OA
ATOM      8  C   UNL     1     149.150 143.183 144.365  1.00  0.00     0.035 C 
ATOM      9  C   UNL     1     147.924 142.312 144.729  1.00  0.00     0.009 C 
ATOM     10  C   UNL     1     150.381 145.334 144.903  1.00  0.00     0.042 C 
ATOM     11  C   UNL     1     145.938 144.446 143.921  1.00  0.00     0.042 C 
ENDROOT
TORSDOF 0
ENDMDL
MODEL 7
REMARK VINA RESULT:    -3.095     14.363     15.967
REMARK INTER + INTRA:          -3.095
REMARK INTER:                  -3.095
REMARK INTRA:                   0.000
REMARK UNBOUND:                 0.000
REMARK SMILES CC1(C)O[C@]2(C)CC[C@H]1CC2
REMARK SMILES IDX 1 1 2 2 9 3 8 4 7 5 5 6 4 7 11 8 10 9 6 10 3 11
REMARK H PARENT
REMARK Flexibility Score: inf
ROOT
ATOM      1  C   UNL     1     145.251 135.628 146.280  1.00  0.00     0.042 C 
ATOM      2  C   UNL     1     144.457 134.810 145.238  1.00  0.00     0.066 C 
ATOM      3  C   UNL     1     143.032 134.430 145.798  1.00  0.00     0.021 C 
ATOM      4  C   UNL     1     143.218 133.518 147.034  1.00  0.00     0.009 C 
ATOM      5  C   UNL     1     144.160 132.347 146.664  1.00  0.00     0.035 C 
ATOM      6  C   UNL     1     144.530 132.424 145.155  1.00  0.00     0.066 C 
ATOM      7  O   UNL     1     145.226 133.645 144.905  1.00  0.00    -0.369 OA
ATOM      8  C   UNL     1     143.222 132.400 144.312  1.00  0.00     0.035 C 
ATOM      9  C   UNL     1     142.303 133.571 144.737  1.00  0.00     0.009 C 
ATOM     10  C   UNL     1     145.435 131.250 144.767  1.00  0.00     0.042 C 
ATOM     11  C   UNL     1     144.331 135.681 143.970  1.00  0.00     0.042 C 
ENDROOT
TORSDOF 0
ENDMDL
MODEL 8
REMARK VINA RESULT:    -3.088      1.492      3.255
REMARK INTER + INTRA:          -3.088
REMARK INTER:                  -3.088
REMARK INTRA:                   0.000
REMARK UNBOUND:                 0.000
REMARK SMILES CC1(C)O[C@]2(C)CC[C@H]1CC2
REMARK SMILES IDX 1 1 2 2 9 3 8 4 7 5 5 6 4 7 11 8 10 9 6 10 3 11
REMARK H PARENT
REMARK Flexibility Score: inf
ROOT
ATOM      1  C   UNL     1     136.361 145.957 146.192  1.00  0.00     0.042 C 
ATOM      2  C   UNL     1     137.152 146.811 145.177  1.00  0.00     0.066 C 
ATOM      3  C   UNL     1     138.568 147.197 145.758  1.00  0.00     0.021 C 
ATOM      4  C   UNL     1     138.359 148.075 147.014  1.00  0.00     0.009 C 
ATOM      5  C   UNL     1     137.404 149.243 146.665  1.00  0.00     0.035 C 
ATOM      6  C   UNL     1     137.046 149.198 145.152  1.00  0.00     0.066 C 
ATOM      7  O   UNL     1     136.369 147.973 144.867  1.00  0.00    -0.369 OA
ATOM      8  C   UNL     1     138.361 149.260 144.321  1.00  0.00     0.035 C 
ATOM      9  C   UNL     1     139.292 148.092 144.724  1.00  0.00     0.009 C 
ATOM     10  C   UNL     1     136.128 150.368 144.786  1.00  0.00     0.042 C 
ATOM     11  C   UNL     1     137.300 145.974 143.889  1.00  0.00     0.042 C 
ENDROOT
TORSDOF 0
ENDMDL
MODEL 9
REMARK VINA RESULT:    -3.055      1.185      2.574
REMARK INTER + INTRA:          -3.055
REMARK INTER:                  -3.055
REMARK INTRA:                   0.000
REMARK UNBOUND:                 0.000
REMARK SMILES CC1(C)O[C@]2(C)CC[C@H]1CC2
REMARK SMILES IDX 1 1 2 2 9 3 8 4 7 5 5 6 4 7 11 8 10 9 6 10 3 11
REMARK H PARENT
REMARK Flexibility Score: inf
ROOT
ATOM      1  C   UNL     1     136.284 148.005 147.426  1.00  0.00     0.042 C 
ATOM      2  C   UNL     1     137.410 148.009 146.369  1.00  0.00     0.066 C 
ATOM      3  C   UNL     1     137.237 149.223 145.376  1.00  0.00     0.021 C 
ATOM      4  C   UNL     1     135.906 149.043 144.609  1.00  0.00     0.009 C 
ATOM      5  C   UNL     1     135.862 147.623 143.993  1.00  0.00     0.035 C 
ATOM      6  C   UNL     1     137.203 146.886 144.270  1.00  0.00     0.066 C 
ATOM      7  O   UNL     1     137.380 146.750 145.681  1.00  0.00    -0.369 OA
ATOM      8  C   UNL     1     138.374 147.731 143.689  1.00  0.00     0.035 C 
ATOM      9  C   UNL     1     138.359 149.148 144.313  1.00  0.00     0.009 C 
ATOM     10  C   UNL     1     137.186 145.491 143.637  1.00  0.00     0.042 C 
ATOM     11  C   UNL     1     138.751 148.110 147.128  1.00  0.00     0.042 C 
ENDROOT
TORSDOF 0
ENDMDL
