MODEL 1
REMARK VINA RESULT:     8.379      0.000      0.000
REMARK INTER + INTRA:          20.074
REMARK INTER:                  12.298
REMARK INTRA:                   7.776
REMARK UNBOUND:                 7.776
REMARK SMILES O=c1c(O[C@@H]2O[C@@H](CO)[C@@H](O)[C@@H](O)[C@H]2O)c(-c2ccc(O)c(O)c2)oc2cc(O)cc(O)c12
REMARK SMILES IDX 4 1 3 2 16 3 25 4 2 5 26 6 1 7 33 8 27 9 31 10 28 11 30 12
REMARK SMILES IDX 17 13 18 14 19 15 20 16 24 17 22 18 21 19 23 21 32 23 29 25
REMARK SMILES IDX 5 27 14 28 6 29 12 30 7 31 10 32 15 33 13 35 8 37 9 38 11 40
REMARK H PARENT 21 20 23 22 32 24 29 26 15 34 13 36 9 39 11 41
REMARK Flexibility Score: inf
ROOT
ATOM      1  O   UNL     1       1.403  10.561  11.211  1.00  0.00    -0.454 OA
ENDROOT
BRANCH   1   2
ATOM      2  C   UNL     1       2.214  11.713  11.212  1.00  0.00     0.214 A 
ATOM      3  C   UNL     1       3.607  11.565  11.394  1.00  0.00     0.180 A 
ATOM      4  O   UNL     1       4.382  12.643  11.460  1.00  0.00    -0.452 OA
ATOM      5  C   UNL     1       1.689  13.021  11.088  1.00  0.00     0.239 A 
ATOM      6  C   UNL     1       3.930  13.885  11.358  1.00  0.00     0.146 A 
ATOM      7  O   UNL     1       0.450  13.196  10.943  1.00  0.00    -0.285 OA
ATOM      8  C   UNL     1       2.554  14.133  11.160  1.00  0.00     0.111 A 
ATOM      9  C   UNL     1       4.835  14.946  11.457  1.00  0.00     0.094 A 
ATOM     10  C   UNL     1       2.105  15.475  11.068  1.00  0.00     0.134 A 
ATOM     11  C   UNL     1       4.385  16.268  11.374  1.00  0.00     0.123 A 
ATOM     12  C   UNL     1       3.027  16.528  11.179  1.00  0.00     0.093 A 
BRANCH   3  13
ATOM     13  C   UNL     1       4.262  10.239  11.561  1.00  0.00     0.025 A 
ATOM     14  C   UNL     1       3.826   9.086  10.876  1.00  0.00     0.016 A 
ATOM     15  C   UNL     1       4.441   7.851  11.099  1.00  0.00     0.051 A 
ATOM     16  C   UNL     1       5.538   7.753  11.965  1.00  0.00     0.157 A 
ATOM     17  C   UNL     1       5.392  10.138  12.395  1.00  0.00     0.062 A 
ATOM     18  C   UNL     1       6.038   8.910  12.586  1.00  0.00     0.158 A 
BRANCH  16  19
ATOM     19  O   UNL     1       6.148   6.519  12.180  1.00  0.00    -0.504 OA
ATOM     20  H   UNL     1       5.696   5.795  12.727  1.00  0.00     0.293 HD
ENDBRANCH  16  19
BRANCH  18  21
ATOM     21  O   UNL     1       7.181   8.863  13.388  1.00  0.00    -0.504 OA
ATOM     22  H   UNL     1       8.098   9.088  13.026  1.00  0.00     0.293 HD
ENDBRANCH  18  21
ENDBRANCH   3  13
BRANCH  10  23
ATOM     23  O   UNL     1       0.755  15.769  10.875  1.00  0.00    -0.507 OA
ATOM     24  H   UNL     1       0.156  15.182  10.303  1.00  0.00     0.293 HD
ENDBRANCH  10  23
BRANCH  11  25
ATOM     25  O   UNL     1       5.280  17.332  11.487  1.00  0.00    -0.508 OA
ATOM     26  H   UNL     1       5.842  17.630  10.701  1.00  0.00     0.293 HD
ENDBRANCH  11  25
ENDBRANCH   1   2
BRANCH   1  27
ATOM     27  C   UNL     1       0.896   9.878  12.363  1.00  0.00     0.339 C 
ATOM     28  C   UNL     1       2.049   9.425  13.281  1.00  0.00     0.214 C 
ATOM     29  O   UNL     1      -0.036  10.676  13.070  1.00  0.00    -0.332 OA
ATOM     30  C   UNL     1       2.769  10.620  13.960  1.00  0.00     0.180 C 
ATOM     31  C   UNL     1       0.506  11.853  13.665  1.00  0.00     0.179 C 
ATOM     32  C   UNL     1       2.066  11.964  13.668  1.00  0.00     0.177 C 
BRANCH  28  33
ATOM     33  O   UNL     1       1.551   8.537  14.251  1.00  0.00    -0.384 OA
ATOM     34  H   UNL     1       2.119   8.639  15.055  1.00  0.00     0.211 HD
ENDBRANCH  28  33
BRANCH  30  35
ATOM     35  O   UNL     1       2.867  10.407  15.349  1.00  0.00    -0.387 OA
ATOM     36  H   UNL     1       2.761  11.290  15.793  1.00  0.00     0.211 HD
ENDBRANCH  30  35
BRANCH  31  37
ATOM     37  C   UNL     1      -0.121  12.003  15.061  1.00  0.00     0.191 C 
BRANCH  37  38
ATOM     38  O   UNL     1       0.863  11.922  16.056  1.00  0.00    -0.394 OA
ATOM     39  H   UNL     1       1.054  10.959  16.184  1.00  0.00     0.210 HD
ENDBRANCH  37  38
ENDBRANCH  31  37
BRANCH  32  40
ATOM     40  O   UNL     1       2.521  12.953  14.558  1.00  0.00    -0.387 OA
ATOM     41  H   UNL     1       3.510  12.987  14.473  1.00  0.00     0.211 HD
ENDBRANCH  32  40
ENDBRANCH   1  27
TORSDOF 12
ENDMDL
MODEL 2
REMARK VINA RESULT:     8.755      2.379      5.456
REMARK INTER + INTRA:          20.625
REMARK INTER:                  19.439
REMARK INTRA:                   1.186
REMARK UNBOUND:                 7.776
REMARK SMILES O=c1c(O[C@@H]2O[C@@H](CO)[C@@H](O)[C@@H](O)[C@H]2O)c(-c2ccc(O)c(O)c2)oc2cc(O)cc(O)c12
REMARK SMILES IDX 4 1 3 2 16 3 25 4 2 5 26 6 1 7 33 8 27 9 31 10 28 11 30 12
REMARK SMILES IDX 17 13 18 14 19 15 20 16 24 17 22 18 21 19 23 21 32 23 29 25
REMARK SMILES IDX 5 27 14 28 6 29 12 30 7 31 10 32 15 33 13 35 8 37 9 38 11 40
REMARK H PARENT 21 20 23 22 32 24 29 26 15 34 13 36 9 39 11 41
REMARK Flexibility Score: inf
ROOT
ATOM      1  O   UNL     1       3.214  11.291  14.804  1.00  0.00    -0.454 OA
ENDROOT
BRANCH   1   2
ATOM      2  C   UNL     1       3.272  12.653  14.450  1.00  0.00     0.214 A 
ATOM      3  C   UNL     1       2.627  13.599  15.277  1.00  0.00     0.180 A 
ATOM      4  O   UNL     1       2.616  14.882  14.929  1.00  0.00    -0.452 OA
ATOM      5  C   UNL     1       3.906  13.114  13.273  1.00  0.00     0.239 A 
ATOM      6  C   UNL     1       3.190  15.354  13.832  1.00  0.00     0.146 A 
ATOM      7  O   UNL     1       4.476  12.299  12.498  1.00  0.00    -0.285 OA
ATOM      8  C   UNL     1       3.871  14.487  12.949  1.00  0.00     0.111 A 
ATOM      9  C   UNL     1       3.104  16.722  13.556  1.00  0.00     0.094 A 
ATOM     10  C   UNL     1       4.462  15.025  11.777  1.00  0.00     0.134 A 
ATOM     11  C   UNL     1       3.682  17.246  12.394  1.00  0.00     0.123 A 
ATOM     12  C   UNL     1       4.358  16.399  11.513  1.00  0.00     0.093 A 
BRANCH   3  13
ATOM     13  C   UNL     1       1.907  13.222  16.525  1.00  0.00     0.025 A 
ATOM     14  C   UNL     1       0.706  12.484  16.514  1.00  0.00     0.016 A 
ATOM     15  C   UNL     1       0.040  12.194  17.708  1.00  0.00     0.051 A 
ATOM     16  C   UNL     1       0.586  12.585  18.937  1.00  0.00     0.157 A 
ATOM     17  C   UNL     1       2.470  13.572  17.768  1.00  0.00     0.062 A 
ATOM     18  C   UNL     1       1.827  13.244  18.967  1.00  0.00     0.158 A 
BRANCH  16  19
ATOM     19  O   UNL     1      -0.083  12.288  20.123  1.00  0.00    -0.504 OA
ATOM     20  H   UNL     1      -0.368  11.341  20.345  1.00  0.00     0.293 HD
ENDBRANCH  16  19
BRANCH  18  21
ATOM     21  O   UNL     1       2.442  13.572  20.178  1.00  0.00    -0.504 OA
ATOM     22  H   UNL     1       2.262  14.448  20.648  1.00  0.00     0.293 HD
ENDBRANCH  18  21
ENDBRANCH   3  13
BRANCH  10  23
ATOM     23  O   UNL     1       5.143  14.207  10.875  1.00  0.00    -0.507 OA
ATOM     24  H   UNL     1       4.662  13.506  10.320  1.00  0.00     0.293 HD
ENDBRANCH  10  23
BRANCH  11  25
ATOM     25  O   UNL     1       3.587  18.607  12.105  1.00  0.00    -0.508 OA
ATOM     26  H   UNL     1       4.413  19.162  11.919  1.00  0.00     0.293 HD
ENDBRANCH  11  25
ENDBRANCH   1   2
BRANCH   1  27
ATOM     27  C   UNL     1       2.188  10.361  14.437  1.00  0.00     0.339 C 
ATOM     28  C   UNL     1       1.571  10.736  13.075  1.00  0.00     0.214 C 
ATOM     29  O   UNL     1       2.673   9.031  14.430  1.00  0.00    -0.332 OA
ATOM     30  C   UNL     1       2.564  10.532  11.901  1.00  0.00     0.180 C 
ATOM     31  C   UNL     1       3.661   8.755  13.438  1.00  0.00     0.179 C 
ATOM     32  C   UNL     1       3.880   9.866  12.360  1.00  0.00     0.177 C 
BRANCH  28  33
ATOM     33  O   UNL     1       0.405   9.980  12.868  1.00  0.00    -0.384 OA
ATOM     34  H   UNL     1      -0.191  10.147  13.641  1.00  0.00     0.211 HD
ENDBRANCH  28  33
BRANCH  30  35
ATOM     35  O   UNL     1       1.961   9.777  10.875  1.00  0.00    -0.387 OA
ATOM     36  H   UNL     1       0.985   9.963  10.904  1.00  0.00     0.211 HD
ENDBRANCH  30  35
BRANCH  31  37
ATOM     37  C   UNL     1       3.349   7.374  12.839  1.00  0.00     0.191 C 
BRANCH  37  38
ATOM     38  O   UNL     1       4.527   6.634  12.665  1.00  0.00    -0.394 OA
ATOM     39  H   UNL     1       5.258   7.292  12.554  1.00  0.00     0.210 HD
ENDBRANCH  37  38
ENDBRANCH  31  37
BRANCH  32  40
ATOM     40  O   UNL     1       4.595   9.386  11.249  1.00  0.00    -0.387 OA
ATOM     41  H   UNL     1       5.553   9.357  11.511  1.00  0.00     0.211 HD
ENDBRANCH  32  40
ENDBRANCH   1  27
TORSDOF 12
ENDMDL
MODEL 3
REMARK VINA RESULT:    10.123      2.155      3.910
REMARK INTER + INTRA:          22.633
REMARK INTER:                  20.304
REMARK INTRA:                   2.328
REMARK UNBOUND:                 7.776
REMARK SMILES O=c1c(O[C@@H]2O[C@@H](CO)[C@@H](O)[C@@H](O)[C@H]2O)c(-c2ccc(O)c(O)c2)oc2cc(O)cc(O)c12
REMARK SMILES IDX 4 1 3 2 16 3 25 4 2 5 26 6 1 7 33 8 27 9 31 10 28 11 30 12
REMARK SMILES IDX 17 13 18 14 19 15 20 16 24 17 22 18 21 19 23 21 32 23 29 25
REMARK SMILES IDX 5 27 14 28 6 29 12 30 7 31 10 32 15 33 13 35 8 37 9 38 11 40
REMARK H PARENT 21 20 23 22 32 24 29 26 15 34 13 36 9 39 11 41
REMARK Flexibility Score: inf
ROOT
ATOM      1  O   UNL     1       4.039   8.149  11.412  1.00  0.00    -0.454 OA
ENDROOT
BRANCH   1   2
ATOM      2  C   UNL     1       4.015   9.550  11.557  1.00  0.00     0.214 A 
ATOM      3  C   UNL     1       5.179  10.207  12.016  1.00  0.00     0.180 A 
ATOM      4  O   UNL     1       5.158  11.521  12.219  1.00  0.00    -0.452 OA
ATOM      5  C   UNL     1       2.859  10.327  11.312  1.00  0.00     0.239 A 
ATOM      6  C   UNL     1       4.095  12.283  12.009  1.00  0.00     0.146 A 
ATOM      7  O   UNL     1       1.795   9.776  10.920  1.00  0.00    -0.285 OA
ATOM      8  C   UNL     1       2.889  11.719  11.538  1.00  0.00     0.111 A 
ATOM      9  C   UNL     1       4.182  13.654  12.271  1.00  0.00     0.094 A 
ATOM     10  C   UNL     1       1.768  12.564  11.338  1.00  0.00     0.134 A 
ATOM     11  C   UNL     1       3.070  14.482  12.080  1.00  0.00     0.123 A 
ATOM     12  C   UNL     1       1.871  13.936  11.614  1.00  0.00     0.093 A 
BRANCH   3  13
ATOM     13  C   UNL     1       6.443   9.485  12.329  1.00  0.00     0.025 A 
ATOM     14  C   UNL     1       7.298   9.875  13.381  1.00  0.00     0.016 A 
ATOM     15  C   UNL     1       8.498   9.196  13.609  1.00  0.00     0.051 A 
ATOM     16  C   UNL     1       8.842   8.084  12.830  1.00  0.00     0.157 A 
ATOM     17  C   UNL     1       6.776   8.339  11.582  1.00  0.00     0.062 A 
ATOM     18  C   UNL     1       7.957   7.632  11.837  1.00  0.00     0.158 A 
BRANCH  16  19
ATOM     19  O   UNL     1      10.039   7.411  13.066  1.00  0.00    -0.504 OA
ATOM     20  H   UNL     1      10.097   6.661  13.746  1.00  0.00     0.293 HD
ENDBRANCH  16  19
BRANCH  18  21
ATOM     21  O   UNL     1       8.228   6.476  11.099  1.00  0.00    -0.504 OA
ATOM     22  H   UNL     1       8.126   5.553  11.497  1.00  0.00     0.293 HD
ENDBRANCH  18  21
ENDBRANCH   3  13
BRANCH  10  23
ATOM     23  O   UNL     1       0.555  12.052  10.876  1.00  0.00    -0.507 OA
ATOM     24  H   UNL     1       0.502  11.475  10.042  1.00  0.00     0.293 HD
ENDBRANCH  10  23
BRANCH  11  25
ATOM     25  O   UNL     1       3.144  15.847  12.353  1.00  0.00    -0.508 OA
ATOM     26  H   UNL     1       2.477  16.498  11.958  1.00  0.00     0.293 HD
ENDBRANCH  11  25
ENDBRANCH   1   2
BRANCH   1  27
ATOM     27  C   UNL     1       3.258   7.205  12.153  1.00  0.00     0.339 C 
ATOM     28  C   UNL     1       3.983   5.847  12.244  1.00  0.00     0.214 C 
ATOM     29  O   UNL     1       2.933   7.697  13.440  1.00  0.00    -0.332 OA
ATOM     30  C   UNL     1       5.254   5.914  13.131  1.00  0.00     0.180 C 
ATOM     31  C   UNL     1       4.045   7.880  14.315  1.00  0.00     0.179 C 
ATOM     32  C   UNL     1       5.407   7.285  13.827  1.00  0.00     0.177 C 
BRANCH  28  33
ATOM     33  O   UNL     1       3.094   4.876  12.735  1.00  0.00    -0.384 OA
ATOM     34  H   UNL     1       2.677   5.250  13.551  1.00  0.00     0.211 HD
ENDBRANCH  28  33
BRANCH  30  35
ATOM     35  O   UNL     1       5.242   4.877  14.085  1.00  0.00    -0.387 OA
ATOM     36  H   UNL     1       6.168   4.782  14.432  1.00  0.00     0.211 HD
ENDBRANCH  30  35
BRANCH  31  37
ATOM     37  C   UNL     1       3.628   7.389  15.711  1.00  0.00     0.191 C 
BRANCH  37  38
ATOM     38  O   UNL     1       3.392   8.475  16.566  1.00  0.00    -0.394 OA
ATOM     39  H   UNL     1       3.524   8.139  17.488  1.00  0.00     0.210 HD
ENDBRANCH  37  38
ENDBRANCH  31  37
BRANCH  32  40
ATOM     40  O   UNL     1       6.346   7.199  14.869  1.00  0.00    -0.387 OA
ATOM     41  H   UNL     1       5.873   6.819  15.656  1.00  0.00     0.211 HD
ENDBRANCH  32  40
ENDBRANCH   1  27
TORSDOF 12
ENDMDL
MODEL 4
REMARK VINA RESULT:    10.463      1.709      6.074
REMARK INTER + INTRA:          23.132
REMARK INTER:                  18.115
REMARK INTRA:                   5.018
REMARK UNBOUND:                 7.776
REMARK SMILES O=c1c(O[C@@H]2O[C@@H](CO)[C@@H](O)[C@@H](O)[C@H]2O)c(-c2ccc(O)c(O)c2)oc2cc(O)cc(O)c12
REMARK SMILES IDX 4 1 3 2 16 3 25 4 2 5 26 6 1 7 33 8 27 9 31 10 28 11 30 12
REMARK SMILES IDX 17 13 18 14 19 15 20 16 24 17 22 18 21 19 23 21 32 23 29 25
REMARK SMILES IDX 5 27 14 28 6 29 12 30 7 31 10 32 15 33 13 35 8 37 9 38 11 40
REMARK H PARENT 21 20 23 22 32 24 29 26 15 34 13 36 9 39 11 41
REMARK Flexibility Score: inf
ROOT
ATOM      1  O   UNL     1       3.455  10.082  10.875  1.00  0.00    -0.454 OA
ENDROOT
BRANCH   1   2
ATOM      2  C   UNL     1       4.580   9.809  11.677  1.00  0.00     0.214 A 
ATOM      3  C   UNL     1       5.242  10.886  12.310  1.00  0.00     0.180 A 
ATOM      4  O   UNL     1       6.342  10.657  13.021  1.00  0.00    -0.452 OA
ATOM      5  C   UNL     1       5.110   8.508  11.840  1.00  0.00     0.239 A 
ATOM      6  C   UNL     1       6.875   9.456  13.190  1.00  0.00     0.146 A 
ATOM      7  O   UNL     1       4.559   7.524  11.277  1.00  0.00    -0.285 OA
ATOM      8  C   UNL     1       6.277   8.317  12.609  1.00  0.00     0.111 A 
ATOM      9  C   UNL     1       8.045   9.335  13.947  1.00  0.00     0.094 A 
ATOM     10  C   UNL     1       6.884   7.049  12.800  1.00  0.00     0.134 A 
ATOM     11  C   UNL     1       8.643   8.082  14.127  1.00  0.00     0.123 A 
ATOM     12  C   UNL     1       8.062   6.948  13.556  1.00  0.00     0.093 A 
BRANCH   3  13
ATOM     13  C   UNL     1       4.787  12.298  12.186  1.00  0.00     0.025 A 
ATOM     14  C   UNL     1       4.662  12.948  10.941  1.00  0.00     0.016 A 
ATOM     15  C   UNL     1       4.276  14.289  10.875  1.00  0.00     0.051 A 
ATOM     16  C   UNL     1       3.955  14.992  12.044  1.00  0.00     0.157 A 
ATOM     17  C   UNL     1       4.420  13.000  13.350  1.00  0.00     0.062 A 
ATOM     18  C   UNL     1       3.992  14.331  13.284  1.00  0.00     0.158 A 
BRANCH  16  19
ATOM     19  O   UNL     1       3.569  16.329  11.970  1.00  0.00    -0.504 OA
ATOM     20  H   UNL     1       3.481  16.804  11.079  1.00  0.00     0.293 HD
ENDBRANCH  16  19
BRANCH  18  21
ATOM     21  O   UNL     1       3.596  14.976  14.458  1.00  0.00    -0.504 OA
ATOM     22  H   UNL     1       3.631  14.516  15.358  1.00  0.00     0.293 HD
ENDBRANCH  18  21
ENDBRANCH   3  13
BRANCH  10  23
ATOM     23  O   UNL     1       6.330   5.896  12.243  1.00  0.00    -0.507 OA
ATOM     24  H   UNL     1       5.935   5.891  11.308  1.00  0.00     0.293 HD
ENDBRANCH  10  23
BRANCH  11  25
ATOM     25  O   UNL     1       9.818   7.955  14.867  1.00  0.00    -0.508 OA
ATOM     26  H   UNL     1       9.797   7.675  15.840  1.00  0.00     0.293 HD
ENDBRANCH  11  25
ENDBRANCH   1   2
BRANCH   1  27
ATOM     27  C   UNL     1       2.304  10.844  11.257  1.00  0.00     0.339 C 
ATOM     28  C   UNL     1       1.043   9.957  11.274  1.00  0.00     0.214 C 
ATOM     29  O   UNL     1       2.496  11.483  12.505  1.00  0.00    -0.332 OA
ATOM     30  C   UNL     1       1.074   8.908  12.417  1.00  0.00     0.180 C 
ATOM     31  C   UNL     1       2.625  10.603  13.620  1.00  0.00     0.179 C 
ATOM     32  C   UNL     1       2.290   9.099  13.349  1.00  0.00     0.177 C 
BRANCH  28  33
ATOM     33  O   UNL     1      -0.098  10.770  11.387  1.00  0.00    -0.384 OA
ATOM     34  H   UNL     1      -0.007  11.282  12.229  1.00  0.00     0.211 HD
ENDBRANCH  28  33
BRANCH  30  35
ATOM     35  O   UNL     1      -0.125   8.952  13.155  1.00  0.00    -0.387 OA
ATOM     36  H   UNL     1      -0.574   8.072  13.044  1.00  0.00     0.211 HD
ENDBRANCH  30  35
BRANCH  31  37
ATOM     37  C   UNL     1       1.827  11.207  14.788  1.00  0.00     0.191 C 
BRANCH  37  38
ATOM     38  O   UNL     1       0.687  11.871  14.316  1.00  0.00    -0.394 OA
ATOM     39  H   UNL     1       0.055  11.917  15.076  1.00  0.00     0.210 HD
ENDBRANCH  37  38
ENDBRANCH  31  37
BRANCH  32  40
ATOM     40  O   UNL     1       2.105   8.379  14.543  1.00  0.00    -0.387 OA
ATOM     41  H   UNL     1       2.942   7.869  14.707  1.00  0.00     0.211 HD
ENDBRANCH  32  40
ENDBRANCH   1  27
TORSDOF 12
ENDMDL
MODEL 5
REMARK VINA RESULT:    10.725      2.776      6.708
REMARK INTER + INTRA:          23.517
REMARK INTER:                  24.439
REMARK INTRA:                  -0.922
REMARK UNBOUND:                 7.776
REMARK SMILES O=c1c(O[C@@H]2O[C@@H](CO)[C@@H](O)[C@@H](O)[C@H]2O)c(-c2ccc(O)c(O)c2)oc2cc(O)cc(O)c12
REMARK SMILES IDX 4 1 3 2 16 3 25 4 2 5 26 6 1 7 33 8 27 9 31 10 28 11 30 12
REMARK SMILES IDX 17 13 18 14 19 15 20 16 24 17 22 18 21 19 23 21 32 23 29 25
REMARK SMILES IDX 5 27 14 28 6 29 12 30 7 31 10 32 15 33 13 35 8 37 9 38 11 40
REMARK H PARENT 21 20 23 22 32 24 29 26 15 34 13 36 9 39 11 41
REMARK Flexibility Score: inf
ROOT
ATOM      1  O   UNL     1       2.424  14.187  15.072  1.00  0.00    -0.454 OA
ENDROOT
BRANCH   1   2
ATOM      2  C   UNL     1       2.856  13.131  14.245  1.00  0.00     0.214 A 
ATOM      3  C   UNL     1       3.314  13.431  12.942  1.00  0.00     0.180 A 
ATOM      4  O   UNL     1       3.668  12.444  12.124  1.00  0.00    -0.452 OA
ATOM      5  C   UNL     1       2.806  11.775  14.643  1.00  0.00     0.239 A 
ATOM      6  C   UNL     1       3.627  11.161  12.454  1.00  0.00     0.146 A 
ATOM      7  O   UNL     1       2.385  11.465  15.790  1.00  0.00    -0.285 OA
ATOM      8  C   UNL     1       3.197  10.764  13.739  1.00  0.00     0.111 A 
ATOM      9  C   UNL     1       4.009  10.206  11.508  1.00  0.00     0.094 A 
ATOM     10  C   UNL     1       3.153   9.382  14.052  1.00  0.00     0.134 A 
ATOM     11  C   UNL     1       3.956   8.842  11.819  1.00  0.00     0.123 A 
ATOM     12  C   UNL     1       3.532   8.436  13.087  1.00  0.00     0.093 A 
BRANCH   3  13
ATOM     13  C   UNL     1       3.385  14.820  12.411  1.00  0.00     0.025 A 
ATOM     14  C   UNL     1       2.301  15.436  11.753  1.00  0.00     0.016 A 
ATOM     15  C   UNL     1       2.427  16.725  11.228  1.00  0.00     0.051 A 
ATOM     16  C   UNL     1       3.617  17.445  11.398  1.00  0.00     0.157 A 
ATOM     17  C   UNL     1       4.560  15.568  12.615  1.00  0.00     0.062 A 
ATOM     18  C   UNL     1       4.675  16.876  12.129  1.00  0.00     0.158 A 
BRANCH  16  19
ATOM     19  O   UNL     1       3.735  18.731  10.875  1.00  0.00    -0.504 OA
ATOM     20  H   UNL     1       3.942  18.884   9.895  1.00  0.00     0.293 HD
ENDBRANCH  16  19
BRANCH  18  21
ATOM     21  O   UNL     1       5.842  17.597  12.391  1.00  0.00    -0.504 OA
ATOM     22  H   UNL     1       5.990  18.073  13.270  1.00  0.00     0.293 HD
ENDBRANCH  18  21
ENDBRANCH   3  13
BRANCH  10  23
ATOM     23  O   UNL     1       2.733   8.942  15.308  1.00  0.00    -0.507 OA
ATOM     24  H   UNL     1       3.023   9.408  16.163  1.00  0.00     0.293 HD
ENDBRANCH  10  23
BRANCH  11  25
ATOM     25  O   UNL     1       4.321   7.883  10.875  1.00  0.00    -0.508 OA
ATOM     26  H   UNL     1       3.829   7.802   9.994  1.00  0.00     0.293 HD
ENDBRANCH  11  25
ENDBRANCH   1   2
BRANCH   1  27
ATOM     27  C   UNL     1       3.185  14.823  16.105  1.00  0.00     0.339 C 
ATOM     28  C   UNL     1       2.397  15.995  16.721  1.00  0.00     0.214 C 
ATOM     29  O   UNL     1       3.584  13.897  17.099  1.00  0.00    -0.332 OA
ATOM     30  C   UNL     1       1.166  15.518  17.536  1.00  0.00     0.180 C 
ATOM     31  C   UNL     1       2.517  13.327  17.855  1.00  0.00     0.179 C 
ATOM     32  C   UNL     1       1.110  13.979  17.655  1.00  0.00     0.177 C 
BRANCH  28  33
ATOM     33  O   UNL     1       3.255  16.759  17.532  1.00  0.00    -0.384 OA
ATOM     34  H   UNL     1       2.914  17.688  17.521  1.00  0.00     0.211 HD
ENDBRANCH  28  33
BRANCH  30  35
ATOM     35  O   UNL     1       1.164  16.111  18.814  1.00  0.00    -0.387 OA
ATOM     36  H   UNL     1       1.097  15.378  19.481  1.00  0.00     0.211 HD
ENDBRANCH  30  35
BRANCH  31  37
ATOM     37  C   UNL     1       2.962  13.272  19.326  1.00  0.00     0.191 C 
BRANCH  37  38
ATOM     38  O   UNL     1       3.640  14.446  19.681  1.00  0.00    -0.394 OA
ATOM     39  H   UNL     1       3.577  15.053  18.901  1.00  0.00     0.210 HD
ENDBRANCH  37  38
ENDBRANCH  31  37
BRANCH  32  40
ATOM     40  O   UNL     1       0.208  13.603  18.666  1.00  0.00    -0.387 OA
ATOM     41  H   UNL     1       0.357  14.219  19.432  1.00  0.00     0.211 HD
ENDBRANCH  32  40
ENDBRANCH   1  27
TORSDOF 12
ENDMDL
