MODEL 1
REMARK VINA RESULT:    -6.314      0.000      0.000
REMARK INTER + INTRA:          -7.885
REMARK INTER:                  -7.606
REMARK INTRA:                  -0.279
REMARK UNBOUND:                -0.279
REMARK SMILES Oc1cc(O)c2cc(O)c(-c3ccc(O)c(O)c3)[o+]c2c1.[Cl-]
REMARK SMILES IDX 10 1 19 2 20 3 21 4 2 5 3 6 4 7 6 8 7 9 8 10 11 11 12 12
REMARK SMILES IDX 13 13 14 14 18 15 16 16 15 17 17 19 9 21 1 23 5 25
REMARK H PARENT 15 18 17 20 9 22 1 24 5 26
REMARK Flexibility Score: inf
ROOT
ATOM      1  C   UNL     1     132.651 131.726 143.327  1.00  0.00     0.402 A 
ATOM      2  O   UNL     1     132.896 130.928 142.291  1.00  0.00    -0.202 OA
ATOM      3  C   UNL     1     132.439 129.683 142.205  1.00  0.00     0.368 A 
ATOM      4  C   UNL     1     132.754 128.920 141.077  1.00  0.00     0.162 A 
ATOM      5  C   UNL     1     132.291 127.609 140.961  1.00  0.00     0.128 A 
ATOM      6  C   UNL     1     131.509 127.054 141.980  1.00  0.00     0.093 A 
ATOM      7  C   UNL     1     131.180 127.796 143.120  1.00  0.00     0.136 A 
ATOM      8  C   UNL     1     131.646 129.132 143.240  1.00  0.00     0.125 A 
ATOM      9  C   UNL     1     131.357 129.956 144.340  1.00  0.00     0.078 A 
ATOM     10  C   UNL     1     131.849 131.263 144.387  1.00  0.00     0.223 A 
ENDROOT
BRANCH   1  11
ATOM     11  C   UNL     1     133.224 133.091 143.311  1.00  0.00     0.087 A 
ATOM     12  C   UNL     1     132.755 134.026 142.374  1.00  0.00     0.022 A 
ATOM     13  C   UNL     1     133.295 135.314 142.328  1.00  0.00     0.051 A 
ATOM     14  C   UNL     1     134.323 135.681 143.204  1.00  0.00     0.157 A 
ATOM     15  C   UNL     1     134.271 133.457 144.176  1.00  0.00     0.068 A 
ATOM     16  C   UNL     1     134.816 134.746 144.130  1.00  0.00     0.158 A 
BRANCH  14  17
ATOM     17  O   UNL     1     134.859 136.967 143.158  1.00  0.00    -0.504 OA
ATOM     18  H   UNL     1     134.605 137.621 142.426  1.00  0.00     0.293 HD
ENDBRANCH  14  17
BRANCH  16  19
ATOM     19  O   UNL     1     135.849 135.075 145.007  1.00  0.00    -0.504 OA
ATOM     20  H   UNL     1     136.204 134.418 145.692  1.00  0.00     0.293 HD
ENDBRANCH  16  19
ENDBRANCH   1  11
BRANCH  10  21
ATOM     21  O   UNL     1     131.520 132.097 145.455  1.00  0.00    -0.500 OA
ATOM     22  H   UNL     1     131.683 131.821 146.416  1.00  0.00     0.294 HD
ENDBRANCH  10  21
BRANCH   5  23
ATOM     23  O   UNL     1     132.614 126.864 139.828  1.00  0.00    -0.507 OA
ATOM     24  H   UNL     1     133.567 126.582 139.633  1.00  0.00     0.293 HD
ENDBRANCH   5  23
BRANCH   7  25
ATOM     25  O   UNL     1     130.398 127.170 144.095  1.00  0.00    -0.507 OA
ATOM     26  H   UNL     1     130.760 126.773 144.948  1.00  0.00     0.293 HD
ENDBRANCH   7  25
TORSDOF 6
ENDMDL
MODEL 2
REMARK VINA RESULT:    -6.256      2.901      7.659
REMARK INTER + INTRA:          -7.815
REMARK INTER:                  -7.493
REMARK INTRA:                  -0.321
REMARK UNBOUND:                -0.279
REMARK SMILES Oc1cc(O)c2cc(O)c(-c3ccc(O)c(O)c3)[o+]c2c1.[Cl-]
REMARK SMILES IDX 10 1 19 2 20 3 21 4 2 5 3 6 4 7 6 8 7 9 8 10 11 11 12 12
REMARK SMILES IDX 13 13 14 14 18 15 16 16 15 17 17 19 9 21 1 23 5 25
REMARK H PARENT 15 18 17 20 9 22 1 24 5 26
REMARK Flexibility Score: inf
ROOT
ATOM      1  C   UNL     1     133.090 127.856 143.778  1.00  0.00     0.402 A 
ATOM      2  O   UNL     1     132.280 128.902 143.918  1.00  0.00    -0.202 OA
ATOM      3  C   UNL     1     132.620 130.140 143.577  1.00  0.00     0.368 A 
ATOM      4  C   UNL     1     131.700 131.175 143.766  1.00  0.00     0.162 A 
ATOM      5  C   UNL     1     132.030 132.485 143.419  1.00  0.00     0.128 A 
ATOM      6  C   UNL     1     133.291 132.766 142.880  1.00  0.00     0.093 A 
ATOM      7  C   UNL     1     134.231 131.748 142.680  1.00  0.00     0.136 A 
ATOM      8  C   UNL     1     133.897 130.413 143.029  1.00  0.00     0.125 A 
ATOM      9  C   UNL     1     134.769 129.327 142.853  1.00  0.00     0.078 A 
ATOM     10  C   UNL     1     134.369 128.038 143.217  1.00  0.00     0.223 A 
ENDROOT
BRANCH   1  11
ATOM     11  C   UNL     1     132.600 126.527 144.206  1.00  0.00     0.087 A 
ATOM     12  C   UNL     1     131.651 125.855 143.417  1.00  0.00     0.022 A 
ATOM     13  C   UNL     1     131.159 124.608 143.811  1.00  0.00     0.051 A 
ATOM     14  C   UNL     1     131.594 124.022 145.006  1.00  0.00     0.157 A 
ATOM     15  C   UNL     1     133.020 125.944 145.415  1.00  0.00     0.068 A 
ATOM     16  C   UNL     1     132.527 124.695 145.813  1.00  0.00     0.158 A 
BRANCH  14  17
ATOM     17  O   UNL     1     131.104 122.776 145.396  1.00  0.00    -0.504 OA
ATOM     18  H   UNL     1     130.618 122.649 146.276  1.00  0.00     0.293 HD
ENDBRANCH  14  17
BRANCH  16  19
ATOM     19  O   UNL     1     132.970 124.145 147.016  1.00  0.00    -0.504 OA
ATOM     20  H   UNL     1     133.122 123.150 147.128  1.00  0.00     0.293 HD
ENDBRANCH  16  19
ENDBRANCH   1  11
BRANCH  10  21
ATOM     21  O   UNL     1     135.216 126.953 142.996  1.00  0.00    -0.500 OA
ATOM     22  H   UNL     1     136.213 127.013 143.167  1.00  0.00     0.294 HD
ENDBRANCH  10  21
BRANCH   5  23
ATOM     23  O   UNL     1     131.099 133.503 143.615  1.00  0.00    -0.507 OA
ATOM     24  H   UNL     1     131.013 134.275 142.964  1.00  0.00     0.293 HD
ENDBRANCH   5  23
BRANCH   7  25
ATOM     25  O   UNL     1     135.468 132.110 142.140  1.00  0.00    -0.507 OA
ATOM     26  H   UNL     1     136.296 132.297 142.686  1.00  0.00     0.293 HD
ENDBRANCH   7  25
TORSDOF 6
ENDMDL
MODEL 3
REMARK VINA RESULT:    -6.120      1.355      7.069
REMARK INTER + INTRA:          -7.651
REMARK INTER:                  -7.318
REMARK INTRA:                  -0.334
REMARK UNBOUND:                -0.279
REMARK SMILES Oc1cc(O)c2cc(O)c(-c3ccc(O)c(O)c3)[o+]c2c1.[Cl-]
REMARK SMILES IDX 10 1 19 2 20 3 21 4 2 5 3 6 4 7 6 8 7 9 8 10 11 11 12 12
REMARK SMILES IDX 13 13 14 14 18 15 16 16 15 17 17 19 9 21 1 23 5 25
REMARK H PARENT 15 18 17 20 9 22 1 24 5 26
REMARK Flexibility Score: inf
ROOT
ATOM      1  C   UNL     1     132.118 131.631 142.538  1.00  0.00     0.402 A 
ATOM      2  O   UNL     1     133.132 132.090 143.268  1.00  0.00    -0.202 OA
ATOM      3  C   UNL     1     133.394 133.384 143.419  1.00  0.00     0.368 A 
ATOM      4  C   UNL     1     134.486 133.769 144.203  1.00  0.00     0.162 A 
ATOM      5  C   UNL     1     134.787 135.119 144.379  1.00  0.00     0.128 A 
ATOM      6  C   UNL     1     133.994 136.095 143.765  1.00  0.00     0.093 A 
ATOM      7  C   UNL     1     132.895 135.737 142.974  1.00  0.00     0.136 A 
ATOM      8  C   UNL     1     132.583 134.363 142.797  1.00  0.00     0.125 A 
ATOM      9  C   UNL     1     131.495 133.910 142.033  1.00  0.00     0.078 A 
ATOM     10  C   UNL     1     131.248 132.540 141.907  1.00  0.00     0.223 A 
ENDROOT
BRANCH   1  11
ATOM     11  C   UNL     1     131.935 130.166 142.436  1.00  0.00     0.087 A 
ATOM     12  C   UNL     1     132.408 129.488 141.301  1.00  0.00     0.022 A 
ATOM     13  C   UNL     1     132.229 128.108 141.173  1.00  0.00     0.051 A 
ATOM     14  C   UNL     1     131.560 127.388 142.171  1.00  0.00     0.157 A 
ATOM     15  C   UNL     1     131.246 129.442 143.426  1.00  0.00     0.068 A 
ATOM     16  C   UNL     1     131.063 128.059 143.301  1.00  0.00     0.158 A 
BRANCH  14  17
ATOM     17  O   UNL     1     131.385 126.011 142.043  1.00  0.00    -0.504 OA
ATOM     18  H   UNL     1     130.465 125.587 142.081  1.00  0.00     0.293 HD
ENDBRANCH  14  17
BRANCH  16  19
ATOM     19  O   UNL     1     130.380 127.373 144.304  1.00  0.00    -0.504 OA
ATOM     20  H   UNL     1     130.671 127.409 145.274  1.00  0.00     0.293 HD
ENDBRANCH  16  19
ENDBRANCH   1  11
BRANCH  10  21
ATOM     21  O   UNL     1     130.139 132.092 141.190  1.00  0.00    -0.500 OA
ATOM     22  H   UNL     1     129.839 132.546 140.335  1.00  0.00     0.294 HD
ENDBRANCH  10  21
BRANCH   5  23
ATOM     23  O   UNL     1     135.878 135.483 145.164  1.00  0.00    -0.507 OA
ATOM     24  H   UNL     1     136.423 136.313 144.962  1.00  0.00     0.293 HD
ENDBRANCH   5  23
BRANCH   7  25
ATOM     25  O   UNL     1     132.154 136.770 142.393  1.00  0.00    -0.507 OA
ATOM     26  H   UNL     1     132.556 137.601 141.988  1.00  0.00     0.293 HD
ENDBRANCH   7  25
TORSDOF 6
ENDMDL
MODEL 4
REMARK VINA RESULT:    -6.036      4.171      5.282
REMARK INTER + INTRA:          -7.550
REMARK INTER:                  -7.202
REMARK INTRA:                  -0.348
REMARK UNBOUND:                -0.279
REMARK SMILES Oc1cc(O)c2cc(O)c(-c3ccc(O)c(O)c3)[o+]c2c1.[Cl-]
REMARK SMILES IDX 10 1 19 2 20 3 21 4 2 5 3 6 4 7 6 8 7 9 8 10 11 11 12 12
REMARK SMILES IDX 13 13 14 14 18 15 16 16 15 17 17 19 9 21 1 23 5 25
REMARK H PARENT 15 18 17 20 9 22 1 24 5 26
REMARK Flexibility Score: inf
ROOT
ATOM      1  C   UNL     1     135.530 132.755 141.501  1.00  0.00     0.402 A 
ATOM      2  O   UNL     1     136.269 133.139 140.463  1.00  0.00    -0.202 OA
ATOM      3  C   UNL     1     136.806 132.289 139.595  1.00  0.00     0.368 A 
ATOM      4  C   UNL     1     137.572 132.789 138.538  1.00  0.00     0.162 A 
ATOM      5  C   UNL     1     138.151 131.921 137.613  1.00  0.00     0.128 A 
ATOM      6  C   UNL     1     137.966 130.540 137.744  1.00  0.00     0.093 A 
ATOM      7  C   UNL     1     137.204 130.012 138.794  1.00  0.00     0.136 A 
ATOM      8  C   UNL     1     136.611 130.894 139.735  1.00  0.00     0.125 A 
ATOM      9  C   UNL     1     135.821 130.457 140.811  1.00  0.00     0.078 A 
ATOM     10  C   UNL     1     135.266 131.386 141.697  1.00  0.00     0.223 A 
ENDROOT
BRANCH   1  11
ATOM     11  C   UNL     1     134.994 133.797 142.404  1.00  0.00     0.087 A 
ATOM     12  C   UNL     1     133.737 134.363 142.136  1.00  0.00     0.022 A 
ATOM     13  C   UNL     1     133.220 135.363 142.964  1.00  0.00     0.051 A 
ATOM     14  C   UNL     1     133.958 135.823 144.062  1.00  0.00     0.157 A 
ATOM     15  C   UNL     1     135.741 134.276 143.496  1.00  0.00     0.068 A 
ATOM     16  C   UNL     1     135.226 135.280 144.326  1.00  0.00     0.158 A 
BRANCH  14  17
ATOM     17  O   UNL     1     133.439 136.819 144.888  1.00  0.00    -0.504 OA
ATOM     18  H   UNL     1     132.692 136.627 145.545  1.00  0.00     0.293 HD
ENDBRANCH  14  17
BRANCH  16  19
ATOM     19  O   UNL     1     135.992 135.726 145.402  1.00  0.00    -0.504 OA
ATOM     20  H   UNL     1     135.804 135.435 146.354  1.00  0.00     0.293 HD
ENDBRANCH  16  19
ENDBRANCH   1  11
BRANCH  10  21
ATOM     21  O   UNL     1     134.441 130.956 142.736  1.00  0.00    -0.500 OA
ATOM     22  H   UNL     1     134.795 130.383 143.493  1.00  0.00     0.294 HD
ENDBRANCH  10  21
BRANCH   5  23
ATOM     23  O   UNL     1     138.909 132.439 136.565  1.00  0.00    -0.507 OA
ATOM     24  H   UNL     1     138.503 132.617 135.654  1.00  0.00     0.293 HD
ENDBRANCH   5  23
BRANCH   7  25
ATOM     25  O   UNL     1     137.069 128.623 138.858  1.00  0.00    -0.507 OA
ATOM     26  H   UNL     1     137.836 127.981 138.989  1.00  0.00     0.293 HD
ENDBRANCH   7  25
TORSDOF 6
ENDMDL
MODEL 5
REMARK VINA RESULT:    -6.034      1.202      2.639
REMARK INTER + INTRA:          -7.548
REMARK INTER:                  -7.203
REMARK INTRA:                  -0.345
REMARK UNBOUND:                -0.279
REMARK SMILES Oc1cc(O)c2cc(O)c(-c3ccc(O)c(O)c3)[o+]c2c1.[Cl-]
REMARK SMILES IDX 10 1 19 2 20 3 21 4 2 5 3 6 4 7 6 8 7 9 8 10 11 11 12 12
REMARK SMILES IDX 13 13 14 14 18 15 16 16 15 17 17 19 9 21 1 23 5 25
REMARK H PARENT 15 18 17 20 9 22 1 24 5 26
REMARK Flexibility Score: inf
ROOT
ATOM      1  C   UNL     1     132.899 132.193 142.397  1.00  0.00     0.402 A 
ATOM      2  O   UNL     1     132.180 131.354 143.138  1.00  0.00    -0.202 OA
ATOM      3  C   UNL     1     131.968 130.085 142.806  1.00  0.00     0.368 A 
ATOM      4  C   UNL     1     131.194 129.281 143.648  1.00  0.00     0.162 A 
ATOM      5  C   UNL     1     130.952 127.947 143.324  1.00  0.00     0.128 A 
ATOM      6  C   UNL     1     131.485 127.408 142.148  1.00  0.00     0.093 A 
ATOM      7  C   UNL     1     132.264 128.192 141.286  1.00  0.00     0.136 A 
ATOM      8  C   UNL     1     132.514 129.549 141.615  1.00  0.00     0.125 A 
ATOM      9  C   UNL     1     133.293 130.406 140.820  1.00  0.00     0.078 A 
ATOM     10  C   UNL     1     133.499 131.733 141.211  1.00  0.00     0.223 A 
ENDROOT
BRANCH   1  11
ATOM     11  C   UNL     1     133.055 133.587 142.869  1.00  0.00     0.087 A 
ATOM     12  C   UNL     1     132.195 134.583 142.376  1.00  0.00     0.022 A 
ATOM     13  C   UNL     1     132.336 135.909 142.792  1.00  0.00     0.051 A 
ATOM     14  C   UNL     1     133.348 136.264 143.692  1.00  0.00     0.157 A 
ATOM     15  C   UNL     1     134.083 133.951 143.757  1.00  0.00     0.068 A 
ATOM     16  C   UNL     1     134.228 135.280 144.174  1.00  0.00     0.158 A 
BRANCH  14  17
ATOM     17  O   UNL     1     133.485 137.588 144.108  1.00  0.00    -0.504 OA
ATOM     18  H   UNL     1     132.835 138.306 143.812  1.00  0.00     0.293 HD
ENDBRANCH  14  17
BRANCH  16  19
ATOM     19  O   UNL     1     135.255 135.603 145.060  1.00  0.00    -0.504 OA
ATOM     20  H   UNL     1     135.271 136.479 145.568  1.00  0.00     0.293 HD
ENDBRANCH  16  19
ENDBRANCH   1  11
BRANCH  10  21
ATOM     21  O   UNL     1     134.312 132.569 140.447  1.00  0.00    -0.500 OA
ATOM     22  H   UNL     1     134.581 132.329 139.499  1.00  0.00     0.294 HD
ENDBRANCH  10  21
BRANCH   5  23
ATOM     23  O   UNL     1     130.179 127.161 144.177  1.00  0.00    -0.507 OA
ATOM     24  H   UNL     1     130.602 126.576 144.887  1.00  0.00     0.293 HD
ENDBRANCH   5  23
BRANCH   7  25
ATOM     25  O   UNL     1     132.758 127.582 140.130  1.00  0.00    -0.507 OA
ATOM     26  H   UNL     1     132.817 128.032 139.229  1.00  0.00     0.293 HD
ENDBRANCH   7  25
TORSDOF 6
ENDMDL
MODEL 6
REMARK VINA RESULT:    -6.033      1.808      7.100
REMARK INTER + INTRA:          -7.547
REMARK INTER:                  -7.298
REMARK INTRA:                  -0.248
REMARK UNBOUND:                -0.279
REMARK SMILES Oc1cc(O)c2cc(O)c(-c3ccc(O)c(O)c3)[o+]c2c1.[Cl-]
REMARK SMILES IDX 10 1 19 2 20 3 21 4 2 5 3 6 4 7 6 8 7 9 8 10 11 11 12 12
REMARK SMILES IDX 13 13 14 14 18 15 16 16 15 17 17 19 9 21 1 23 5 25
REMARK H PARENT 15 18 17 20 9 22 1 24 5 26
REMARK Flexibility Score: inf
ROOT
ATOM      1  C   UNL     1     133.184 130.711 142.713  1.00  0.00     0.402 A 
ATOM      2  O   UNL     1     133.545 131.614 143.621  1.00  0.00    -0.202 OA
ATOM      3  C   UNL     1     133.991 132.826 143.308  1.00  0.00     0.368 A 
ATOM      4  C   UNL     1     134.350 133.704 144.334  1.00  0.00     0.162 A 
ATOM      5  C   UNL     1     134.824 134.981 144.036  1.00  0.00     0.128 A 
ATOM      6  C   UNL     1     134.944 135.386 142.702  1.00  0.00     0.093 A 
ATOM      7  C   UNL     1     134.592 134.525 141.655  1.00  0.00     0.136 A 
ATOM      8  C   UNL     1     134.106 133.226 141.955  1.00  0.00     0.125 A 
ATOM      9  C   UNL     1     133.717 132.300 140.973  1.00  0.00     0.078 A 
ATOM     10  C   UNL     1     133.243 131.038 141.345  1.00  0.00     0.223 A 
ENDROOT
BRANCH   1  11
ATOM     11  C   UNL     1     132.713 129.390 143.186  1.00  0.00     0.087 A 
ATOM     12  C   UNL     1     131.347 129.072 143.097  1.00  0.00     0.022 A 
ATOM     13  C   UNL     1     130.876 127.840 143.556  1.00  0.00     0.051 A 
ATOM     14  C   UNL     1     131.759 126.913 144.126  1.00  0.00     0.157 A 
ATOM     15  C   UNL     1     133.592 128.465 143.777  1.00  0.00     0.068 A 
ATOM     16  C   UNL     1     133.123 127.230 144.240  1.00  0.00     0.158 A 
BRANCH  14  17
ATOM     17  O   UNL     1     131.286 125.683 144.581  1.00  0.00    -0.504 OA
ATOM     18  H   UNL     1     131.708 124.810 144.284  1.00  0.00     0.293 HD
ENDBRANCH  14  17
BRANCH  16  19
ATOM     19  O   UNL     1     134.025 126.336 144.816  1.00  0.00    -0.504 OA
ATOM     20  H   UNL     1     134.061 126.176 145.815  1.00  0.00     0.293 HD
ENDBRANCH  16  19
ENDBRANCH   1  11
BRANCH  10  21
ATOM     21  O   UNL     1     132.811 130.138 140.372  1.00  0.00    -0.500 OA
ATOM     22  H   UNL     1     132.071 130.373 139.721  1.00  0.00     0.294 HD
ENDBRANCH  10  21
BRANCH   5  23
ATOM     23  O   UNL     1     135.176 135.843 145.072  1.00  0.00    -0.507 OA
ATOM     24  H   UNL     1     136.054 135.746 145.568  1.00  0.00     0.293 HD
ENDBRANCH   5  23
BRANCH   7  25
ATOM     25  O   UNL     1     134.743 135.002 140.349  1.00  0.00    -0.507 OA
ATOM     26  H   UNL     1     134.272 135.814 139.981  1.00  0.00     0.293 HD
ENDBRANCH   7  25
TORSDOF 6
ENDMDL
MODEL 7
REMARK VINA RESULT:    -5.983      3.629      4.900
REMARK INTER + INTRA:          -7.486
REMARK INTER:                  -7.167
REMARK INTRA:                  -0.319
REMARK UNBOUND:                -0.279
REMARK SMILES Oc1cc(O)c2cc(O)c(-c3ccc(O)c(O)c3)[o+]c2c1.[Cl-]
REMARK SMILES IDX 10 1 19 2 20 3 21 4 2 5 3 6 4 7 6 8 7 9 8 10 11 11 12 12
REMARK SMILES IDX 13 13 14 14 18 15 16 16 15 17 17 19 9 21 1 23 5 25
REMARK H PARENT 15 18 17 20 9 22 1 24 5 26
REMARK Flexibility Score: inf
ROOT
ATOM      1  C   UNL     1     134.940 132.415 141.085  1.00  0.00     0.402 A 
ATOM      2  O   UNL     1     136.156 132.079 140.663  1.00  0.00    -0.202 OA
ATOM      3  C   UNL     1     136.373 131.216 139.676  1.00  0.00     0.368 A 
ATOM      4  C   UNL     1     137.689 130.924 139.306  1.00  0.00     0.162 A 
ATOM      5  C   UNL     1     137.948 130.020 138.277  1.00  0.00     0.128 A 
ATOM      6  C   UNL     1     136.885 129.399 137.611  1.00  0.00     0.093 A 
ATOM      7  C   UNL     1     135.558 129.674 137.962  1.00  0.00     0.136 A 
ATOM      8  C   UNL     1     135.290 130.596 139.007  1.00  0.00     0.125 A 
ATOM      9  C   UNL     1     133.993 130.943 139.420  1.00  0.00     0.078 A 
ATOM     10  C   UNL     1     133.808 131.863 140.455  1.00  0.00     0.223 A 
ENDROOT
BRANCH   1  11
ATOM     11  C   UNL     1     134.827 133.381 142.201  1.00  0.00     0.087 A 
ATOM     12  C   UNL     1     134.538 132.912 143.493  1.00  0.00     0.022 A 
ATOM     13  C   UNL     1     134.407 133.808 144.558  1.00  0.00     0.051 A 
ATOM     14  C   UNL     1     134.546 135.185 144.345  1.00  0.00     0.157 A 
ATOM     15  C   UNL     1     134.946 134.766 141.987  1.00  0.00     0.068 A 
ATOM     16  C   UNL     1     134.813 135.666 143.052  1.00  0.00     0.158 A 
BRANCH  14  17
ATOM     17  O   UNL     1     134.418 136.076 145.409  1.00  0.00    -0.504 OA
ATOM     18  H   UNL     1     134.217 137.057 145.258  1.00  0.00     0.293 HD
ENDBRANCH  14  17
BRANCH  16  19
ATOM     19  O   UNL     1     134.943 137.032 142.803  1.00  0.00    -0.504 OA
ATOM     20  H   UNL     1     135.750 137.561 143.113  1.00  0.00     0.293 HD
ENDBRANCH  16  19
ENDBRANCH   1  11
BRANCH  10  21
ATOM     21  O   UNL     1     132.521 132.245 140.831  1.00  0.00    -0.500 OA
ATOM     22  H   UNL     1     131.941 131.657 141.418  1.00  0.00     0.294 HD
ENDBRANCH  10  21
BRANCH   5  23
ATOM     23  O   UNL     1     139.266 129.742 137.921  1.00  0.00    -0.507 OA
ATOM     24  H   UNL     1     140.023 130.373 138.157  1.00  0.00     0.293 HD
ENDBRANCH   5  23
BRANCH   7  25
ATOM     25  O   UNL     1     134.552 129.012 137.252  1.00  0.00    -0.507 OA
ATOM     26  H   UNL     1     134.586 128.818 136.262  1.00  0.00     0.293 HD
ENDBRANCH   7  25
TORSDOF 6
ENDMDL
MODEL 8
REMARK VINA RESULT:    -5.963      4.700      6.317
REMARK INTER + INTRA:          -7.463
REMARK INTER:                  -7.116
REMARK INTRA:                  -0.346
REMARK UNBOUND:                -0.279
REMARK SMILES Oc1cc(O)c2cc(O)c(-c3ccc(O)c(O)c3)[o+]c2c1.[Cl-]
REMARK SMILES IDX 10 1 19 2 20 3 21 4 2 5 3 6 4 7 6 8 7 9 8 10 11 11 12 12
REMARK SMILES IDX 13 13 14 14 18 15 16 16 15 17 17 19 9 21 1 23 5 25
REMARK H PARENT 15 18 17 20 9 22 1 24 5 26
REMARK Flexibility Score: inf
ROOT
ATOM      1  C   UNL     1     135.014 132.114 140.505  1.00  0.00     0.402 A 
ATOM      2  O   UNL     1     136.079 131.316 140.475  1.00  0.00    -0.202 OA
ATOM      3  C   UNL     1     136.911 131.248 139.441  1.00  0.00     0.368 A 
ATOM      4  C   UNL     1     138.001 130.375 139.502  1.00  0.00     0.162 A 
ATOM      5  C   UNL     1     138.889 130.280 138.431  1.00  0.00     0.128 A 
ATOM      6  C   UNL     1     138.688 131.062 137.288  1.00  0.00     0.093 A 
ATOM      7  C   UNL     1     137.604 131.944 137.201  1.00  0.00     0.136 A 
ATOM      8  C   UNL     1     136.700 132.045 138.290  1.00  0.00     0.125 A 
ATOM      9  C   UNL     1     135.594 132.910 138.299  1.00  0.00     0.078 A 
ATOM     10  C   UNL     1     134.748 132.959 139.411  1.00  0.00     0.223 A 
ENDROOT
BRANCH   1  11
ATOM     11  C   UNL     1     134.156 132.093 141.710  1.00  0.00     0.087 A 
ATOM     12  C   UNL     1     133.013 131.276 141.729  1.00  0.00     0.022 A 
ATOM     13  C   UNL     1     132.177 131.255 142.849  1.00  0.00     0.051 A 
ATOM     14  C   UNL     1     132.461 132.061 143.958  1.00  0.00     0.157 A 
ATOM     15  C   UNL     1     134.426 132.916 142.818  1.00  0.00     0.068 A 
ATOM     16  C   UNL     1     133.589 132.899 143.940  1.00  0.00     0.158 A 
BRANCH  14  17
ATOM     17  O   UNL     1     131.627 132.037 145.075  1.00  0.00    -0.504 OA
ATOM     18  H   UNL     1     130.787 131.470 145.097  1.00  0.00     0.293 HD
ENDBRANCH  14  17
BRANCH  16  19
ATOM     19  O   UNL     1     133.891 133.724 145.023  1.00  0.00    -0.504 OA
ATOM     20  H   UNL     1     134.157 134.694 144.902  1.00  0.00     0.293 HD
ENDBRANCH  16  19
ENDBRANCH   1  11
BRANCH  10  21
ATOM     21  O   UNL     1     133.679 133.853 139.438  1.00  0.00    -0.500 OA
ATOM     22  H   UNL     1     133.824 134.856 139.440  1.00  0.00     0.294 HD
ENDBRANCH  10  21
BRANCH   5  23
ATOM     23  O   UNL     1     139.970 129.405 138.511  1.00  0.00    -0.507 OA
ATOM     24  H   UNL     1     140.902 129.686 138.230  1.00  0.00     0.293 HD
ENDBRANCH   5  23
BRANCH   7  25
ATOM     25  O   UNL     1     137.471 132.688 136.025  1.00  0.00    -0.507 OA
ATOM     26  H   UNL     1     136.596 133.051 135.677  1.00  0.00     0.293 HD
ENDBRANCH   7  25
TORSDOF 6
ENDMDL
MODEL 9
REMARK VINA RESULT:    -5.920      4.406      5.777
REMARK INTER + INTRA:          -7.410
REMARK INTER:                  -7.302
REMARK INTRA:                  -0.108
REMARK UNBOUND:                -0.279
REMARK SMILES Oc1cc(O)c2cc(O)c(-c3ccc(O)c(O)c3)[o+]c2c1.[Cl-]
REMARK SMILES IDX 10 1 19 2 20 3 21 4 2 5 3 6 4 7 6 8 7 9 8 10 11 11 12 12
REMARK SMILES IDX 13 13 14 14 18 15 16 16 15 17 17 19 9 21 1 23 5 25
REMARK H PARENT 15 18 17 20 9 22 1 24 5 26
REMARK Flexibility Score: inf
ROOT
ATOM      1  C   UNL     1     135.702 131.477 140.631  1.00  0.00     0.402 A 
ATOM      2  O   UNL     1     136.978 131.107 140.558  1.00  0.00    -0.202 OA
ATOM      3  C   UNL     1     137.459 130.331 139.592  1.00  0.00     0.368 A 
ATOM      4  C   UNL     1     138.816 129.994 139.604  1.00  0.00     0.162 A 
ATOM      5  C   UNL     1     139.348 129.179 138.605  1.00  0.00     0.128 A 
ATOM      6  C   UNL     1     138.520 128.695 137.586  1.00  0.00     0.093 A 
ATOM      7  C   UNL     1     137.158 129.018 137.551  1.00  0.00     0.136 A 
ATOM      8  C   UNL     1     136.613 129.849 138.564  1.00  0.00     0.125 A 
ATOM      9  C   UNL     1     135.264 130.236 138.604  1.00  0.00     0.078 A 
ATOM     10  C   UNL     1     134.800 131.061 139.633  1.00  0.00     0.223 A 
ENDROOT
BRANCH   1  11
ATOM     11  C   UNL     1     135.284 132.335 141.762  1.00  0.00     0.087 A 
ATOM     12  C   UNL     1     136.008 133.505 142.044  1.00  0.00     0.022 A 
ATOM     13  C   UNL     1     135.644 134.321 143.119  1.00  0.00     0.051 A 
ATOM     14  C   UNL     1     134.563 133.971 143.937  1.00  0.00     0.157 A 
ATOM     15  C   UNL     1     134.212 131.977 142.598  1.00  0.00     0.068 A 
ATOM     16  C   UNL     1     133.846 132.790 143.677  1.00  0.00     0.158 A 
BRANCH  14  17
ATOM     17  O   UNL     1     134.200 134.787 145.007  1.00  0.00    -0.504 OA
ATOM     18  H   UNL     1     133.829 135.719 144.861  1.00  0.00     0.293 HD
ENDBRANCH  14  17
BRANCH  16  19
ATOM     19  O   UNL     1     132.774 132.406 144.482  1.00  0.00    -0.504 OA
ATOM     20  H   UNL     1     131.949 131.959 144.100  1.00  0.00     0.293 HD
ENDBRANCH  16  19
ENDBRANCH   1  11
BRANCH  10  21
ATOM     21  O   UNL     1     133.472 131.485 139.645  1.00  0.00    -0.500 OA
ATOM     22  H   UNL     1     132.775 131.037 140.228  1.00  0.00     0.294 HD
ENDBRANCH  10  21
BRANCH   5  23
ATOM     23  O   UNL     1     140.703 128.855 138.632  1.00  0.00    -0.507 OA
ATOM     24  H   UNL     1     141.022 127.901 138.508  1.00  0.00     0.293 HD
ENDBRANCH   5  23
BRANCH   7  25
ATOM     25  O   UNL     1     136.397 128.493 136.503  1.00  0.00    -0.507 OA
ATOM     26  H   UNL     1     136.623 127.646 136.003  1.00  0.00     0.293 HD
ENDBRANCH   7  25
TORSDOF 6
ENDMDL
