MODEL 1
REMARK VINA RESULT:    -6.111      0.000      0.000
REMARK INTER + INTRA:         -10.864
REMARK INTER:                  -8.433
REMARK INTRA:                  -2.431
REMARK UNBOUND:                -2.431
REMARK SMILES CC[C@H](CC[C@@H](C)[C@H]1CC[C@H]2[C@H]3CC=C4C[C@H](O)CC[C@@]4(C)[C@@H]3CC[C@@]12C)C(C)C
REMARK SMILES IDX 5 1 4 2 3 3 2 4 1 5 28 6 29 7 30 8 6 9 7 10 8 11 9 12 26 13
REMARK SMILES IDX 10 14 11 15 25 16 27 17 12 18 24 19 23 20 13 21 21 22 14 23
REMARK SMILES IDX 15 24 20 25 22 26 16 27 19 28 17 29 18 30
REMARK H PARENT 18 31
REMARK Flexibility Score: inf
ROOT
ATOM      1  C   UNL     1     164.614 176.452 181.275  1.00  0.00     0.004 C 
ENDROOT
BRANCH   1   2
ATOM      2  C   UNL     1     163.914 175.108 181.594  1.00  0.00     0.004 C 
BRANCH   2   3
ATOM      3  C   UNL     1     163.021 174.495 180.474  1.00  0.00    -0.009 C 
BRANCH   3   4
ATOM      4  C   UNL     1     163.680 173.248 179.818  1.00  0.00     0.000 C 
ATOM      5  C   UNL     1     164.510 173.546 178.567  1.00  0.00     0.004 C 
ENDBRANCH   3   4
BRANCH   3   6
ATOM      6  C   UNL     1     161.567 174.211 180.994  1.00  0.00    -0.014 C 
ATOM      7  C   UNL     1     160.783 173.275 180.054  1.00  0.00     0.007 C 
ATOM      8  C   UNL     1     160.754 175.510 181.183  1.00  0.00     0.007 C 
ENDBRANCH   3   6
ENDBRANCH   2   3
ENDBRANCH   1   2
BRANCH   1   9
ATOM      9  C   UNL     1     163.703 177.578 180.690  1.00  0.00    -0.011 C 
ATOM     10  C   UNL     1     163.809 178.854 181.558  1.00  0.00     0.008 C 
BRANCH   9  11
ATOM     11  C   UNL     1     163.996 177.954 179.186  1.00  0.00    -0.002 C 
ATOM     12  C   UNL     1     164.968 177.056 178.435  1.00  0.00     0.005 C 
ATOM     13  C   UNL     1     162.814 178.235 178.199  1.00  0.00    -0.026 C 
ATOM     14  C   UNL     1     164.891 177.527 176.992  1.00  0.00     0.005 C 
ATOM     15  C   UNL     1     163.502 178.185 176.792  1.00  0.00    -0.001 C 
ATOM     16  C   UNL     1     161.620 177.229 178.283  1.00  0.00     0.007 C 
ATOM     17  C   UNL     1     162.245 179.653 178.463  1.00  0.00     0.012 C 
ATOM     18  C   UNL     1     162.616 177.504 175.710  1.00  0.00     0.000 C 
ATOM     19  C   UNL     1     161.857 175.885 177.571  1.00  0.00     0.005 C 
ATOM     20  C   UNL     1     162.286 176.034 176.076  1.00  0.00     0.003 C 
ATOM     21  C   UNL     1     163.239 177.603 174.306  1.00  0.00     0.031 C 
ATOM     22  C   UNL     1     161.305 175.381 175.033  1.00  0.00    -0.008 C 
ATOM     23  C   UNL     1     162.567 176.721 173.292  1.00  0.00    -0.027 C 
ATOM     24  C   UNL     1     161.813 175.644 173.605  1.00  0.00    -0.065 C 
ATOM     25  C   UNL     1     161.258 173.839 175.289  1.00  0.00     0.014 C 
ATOM     26  C   UNL     1     159.875 175.974 175.145  1.00  0.00     0.016 C 
ATOM     27  C   UNL     1     161.272 174.798 172.468  1.00  0.00     0.063 C 
ATOM     28  C   UNL     1     160.624 173.029 174.150  1.00  0.00     0.033 C 
ATOM     29  C   UNL     1     161.337 173.308 172.821  1.00  0.00     0.118 C 
BRANCH  29  30
ATOM     30  O   UNL     1     160.787 172.528 171.787  1.00  0.00    -0.393 OA
ATOM     31  H   UNL     1     160.717 173.104 170.982  1.00  0.00     0.210 HD
ENDBRANCH  29  30
ENDBRANCH   9  11
ENDBRANCH   1   9
TORSDOF 7
ENDMDL
MODEL 2
REMARK VINA RESULT:    -5.787      6.993      9.825
REMARK INTER + INTRA:         -10.417
REMARK INTER:                  -9.367
REMARK INTRA:                  -1.050
REMARK UNBOUND:                -2.431
REMARK SMILES CC[C@H](CC[C@@H](C)[C@H]1CC[C@H]2[C@H]3CC=C4C[C@H](O)CC[C@@]4(C)[C@@H]3CC[C@@]12C)C(C)C
REMARK SMILES IDX 5 1 4 2 3 3 2 4 1 5 28 6 29 7 30 8 6 9 7 10 8 11 9 12 26 13
REMARK SMILES IDX 10 14 11 15 25 16 27 17 12 18 24 19 23 20 13 21 21 22 14 23
REMARK SMILES IDX 15 24 20 25 22 26 16 27 19 28 17 29 18 30
REMARK H PARENT 18 31
REMARK Flexibility Score: inf
ROOT
ATOM      1  C   UNL     1     173.008 179.597 181.133  1.00  0.00     0.004 C 
ENDROOT
BRANCH   1   2
ATOM      2  C   UNL     1     174.503 179.338 180.818  1.00  0.00     0.004 C 
BRANCH   2   3
ATOM      3  C   UNL     1     175.172 178.122 181.525  1.00  0.00    -0.009 C 
BRANCH   3   4
ATOM      4  C   UNL     1     174.864 176.782 180.800  1.00  0.00     0.000 C 
ATOM      5  C   UNL     1     173.759 175.943 181.447  1.00  0.00     0.004 C 
ENDBRANCH   3   4
BRANCH   3   6
ATOM      6  C   UNL     1     176.710 178.360 181.735  1.00  0.00    -0.014 C 
ATOM      7  C   UNL     1     177.130 179.802 181.392  1.00  0.00     0.007 C 
ATOM      8  C   UNL     1     177.568 177.387 180.898  1.00  0.00     0.007 C 
ENDBRANCH   3   6
ENDBRANCH   2   3
ENDBRANCH   1   2
BRANCH   1   9
ATOM      9  C   UNL     1     171.991 179.162 180.032  1.00  0.00    -0.011 C 
ATOM     10  C   UNL     1     172.731 178.880 178.703  1.00  0.00     0.008 C 
BRANCH   9  11
ATOM     11  C   UNL     1     171.106 177.909 180.402  1.00  0.00    -0.002 C 
ATOM     12  C   UNL     1     170.505 177.889 181.800  1.00  0.00     0.005 C 
ATOM     13  C   UNL     1     169.973 177.430 179.436  1.00  0.00    -0.026 C 
ATOM     14  C   UNL     1     169.559 176.699 181.795  1.00  0.00     0.005 C 
ATOM     15  C   UNL     1     169.131 176.453 180.326  1.00  0.00    -0.001 C 
ATOM     16  C   UNL     1     169.079 178.567 178.839  1.00  0.00     0.007 C 
ATOM     17  C   UNL     1     170.599 176.660 178.244  1.00  0.00     0.012 C 
ATOM     18  C   UNL     1     167.601 176.571 180.072  1.00  0.00     0.000 C 
ATOM     19  C   UNL     1     167.998 179.106 179.792  1.00  0.00     0.005 C 
ATOM     20  C   UNL     1     167.072 177.994 180.384  1.00  0.00     0.003 C 
ATOM     21  C   UNL     1     166.803 175.500 180.837  1.00  0.00     0.031 C 
ATOM     22  C   UNL     1     165.546 178.140 180.027  1.00  0.00    -0.008 C 
ATOM     23  C   UNL     1     165.323 175.753 180.847  1.00  0.00    -0.027 C 
ATOM     24  C   UNL     1     164.758 176.960 180.622  1.00  0.00    -0.065 C 
ATOM     25  C   UNL     1     165.015 179.477 180.639  1.00  0.00     0.014 C 
ATOM     26  C   UNL     1     165.316 178.139 178.492  1.00  0.00     0.016 C 
ATOM     27  C   UNL     1     163.252 177.078 180.754  1.00  0.00     0.063 C 
ATOM     28  C   UNL     1     163.485 179.593 180.674  1.00  0.00     0.033 C 
ATOM     29  C   UNL     1     162.866 178.404 181.421  1.00  0.00     0.118 C 
BRANCH  29  30
ATOM     30  O   UNL     1     161.468 178.535 181.496  1.00  0.00    -0.393 OA
ATOM     31  H   UNL     1     161.158 178.006 182.276  1.00  0.00     0.210 HD
ENDBRANCH  29  30
ENDBRANCH   9  11
ENDBRANCH   1   9
TORSDOF 7
ENDMDL
MODEL 3
REMARK VINA RESULT:    -5.728      7.653     10.703
REMARK INTER + INTRA:         -10.336
REMARK INTER:                  -9.449
REMARK INTRA:                  -0.886
REMARK UNBOUND:                -2.431
REMARK SMILES CC[C@H](CC[C@@H](C)[C@H]1CC[C@H]2[C@H]3CC=C4C[C@H](O)CC[C@@]4(C)[C@@H]3CC[C@@]12C)C(C)C
REMARK SMILES IDX 5 1 4 2 3 3 2 4 1 5 28 6 29 7 30 8 6 9 7 10 8 11 9 12 26 13
REMARK SMILES IDX 10 14 11 15 25 16 27 17 12 18 24 19 23 20 13 21 21 22 14 23
REMARK SMILES IDX 15 24 20 25 22 26 16 27 19 28 17 29 18 30
REMARK H PARENT 18 31
REMARK Flexibility Score: inf
ROOT
ATOM      1  C   UNL     1     167.291 179.118 180.658  1.00  0.00     0.004 C 
ENDROOT
BRANCH   1   2
ATOM      2  C   UNL     1     165.814 179.511 180.403  1.00  0.00     0.004 C 
BRANCH   2   3
ATOM      3  C   UNL     1     164.730 178.455 180.772  1.00  0.00    -0.009 C 
BRANCH   3   4
ATOM      4  C   UNL     1     163.791 178.953 181.907  1.00  0.00     0.000 C 
ATOM      5  C   UNL     1     162.476 179.569 181.426  1.00  0.00     0.004 C 
ENDBRANCH   3   4
BRANCH   3   6
ATOM      6  C   UNL     1     163.945 177.973 179.500  1.00  0.00    -0.014 C 
ATOM      7  C   UNL     1     164.184 176.481 179.198  1.00  0.00     0.007 C 
ATOM      8  C   UNL     1     164.314 178.793 178.245  1.00  0.00     0.007 C 
ENDBRANCH   3   6
ENDBRANCH   2   3
ENDBRANCH   1   2
BRANCH   1   9
ATOM      9  C   UNL     1     167.699 177.672 180.233  1.00  0.00    -0.011 C 
ATOM     10  C   UNL     1     167.967 177.619 178.711  1.00  0.00     0.008 C 
BRANCH   9  11
ATOM     11  C   UNL     1     168.950 177.084 180.996  1.00  0.00    -0.002 C 
ATOM     12  C   UNL     1     169.550 175.804 180.433  1.00  0.00     0.005 C 
ATOM     13  C   UNL     1     170.160 178.009 181.356  1.00  0.00    -0.026 C 
ATOM     14  C   UNL     1     170.832 175.601 181.225  1.00  0.00     0.005 C 
ATOM     15  C   UNL     1     171.290 176.992 181.733  1.00  0.00    -0.001 C 
ATOM     16  C   UNL     1     170.624 178.977 180.217  1.00  0.00     0.007 C 
ATOM     17  C   UNL     1     169.797 178.882 182.585  1.00  0.00     0.012 C 
ATOM     18  C   UNL     1     172.693 177.432 181.227  1.00  0.00     0.000 C 
ATOM     19  C   UNL     1     171.487 178.321 179.125  1.00  0.00     0.005 C 
ATOM     20  C   UNL     1     172.735 177.563 179.683  1.00  0.00     0.003 C 
ATOM     21  C   UNL     1     173.810 176.505 181.739  1.00  0.00     0.031 C 
ATOM     22  C   UNL     1     174.124 178.110 179.183  1.00  0.00    -0.008 C 
ATOM     23  C   UNL     1     175.127 176.722 181.050  1.00  0.00    -0.027 C 
ATOM     24  C   UNL     1     175.264 177.316 179.844  1.00  0.00    -0.065 C 
ATOM     25  C   UNL     1     174.202 177.930 177.632  1.00  0.00     0.014 C 
ATOM     26  C   UNL     1     174.314 179.606 179.547  1.00  0.00     0.016 C 
ATOM     27  C   UNL     1     176.652 177.384 179.236  1.00  0.00     0.063 C 
ATOM     28  C   UNL     1     175.611 178.094 177.046  1.00  0.00     0.033 C 
ATOM     29  C   UNL     1     176.597 177.133 177.725  1.00  0.00     0.118 C 
BRANCH  29  30
ATOM     30  O   UNL     1     177.878 177.248 177.155  1.00  0.00    -0.393 OA
ATOM     31  H   UNL     1     177.764 177.296 176.170  1.00  0.00     0.210 HD
ENDBRANCH  29  30
ENDBRANCH   9  11
ENDBRANCH   1   9
TORSDOF 7
ENDMDL
MODEL 4
REMARK VINA RESULT:    -5.709      3.829      6.490
REMARK INTER + INTRA:         -10.309
REMARK INTER:                  -9.243
REMARK INTRA:                  -1.067
REMARK UNBOUND:                -2.431
REMARK SMILES CC[C@H](CC[C@@H](C)[C@H]1CC[C@H]2[C@H]3CC=C4C[C@H](O)CC[C@@]4(C)[C@@H]3CC[C@@]12C)C(C)C
REMARK SMILES IDX 5 1 4 2 3 3 2 4 1 5 28 6 29 7 30 8 6 9 7 10 8 11 9 12 26 13
REMARK SMILES IDX 10 14 11 15 25 16 27 17 12 18 24 19 23 20 13 21 21 22 14 23
REMARK SMILES IDX 15 24 20 25 22 26 16 27 19 28 17 29 18 30
REMARK H PARENT 18 31
REMARK Flexibility Score: inf
ROOT
ATOM      1  C   UNL     1     166.273 179.397 180.347  1.00  0.00     0.004 C 
ENDROOT
BRANCH   1   2
ATOM      2  C   UNL     1     167.739 178.982 180.064  1.00  0.00     0.004 C 
BRANCH   2   3
ATOM      3  C   UNL     1     168.343 177.866 180.968  1.00  0.00    -0.009 C 
BRANCH   3   4
ATOM      4  C   UNL     1     168.149 176.449 180.357  1.00  0.00     0.000 C 
ATOM      5  C   UNL     1     168.811 175.316 181.144  1.00  0.00     0.004 C 
ENDBRANCH   3   4
BRANCH   3   6
ATOM      6  C   UNL     1     169.840 178.173 181.330  1.00  0.00    -0.014 C 
ATOM      7  C   UNL     1     169.972 178.949 182.655  1.00  0.00     0.007 C 
ATOM      8  C   UNL     1     170.554 178.973 180.220  1.00  0.00     0.007 C 
ENDBRANCH   3   6
ENDBRANCH   2   3
ENDBRANCH   1   2
BRANCH   1   9
ATOM      9  C   UNL     1     165.278 179.255 179.152  1.00  0.00    -0.011 C 
ATOM     10  C   UNL     1     165.833 178.253 178.112  1.00  0.00     0.008 C 
BRANCH   9  11
ATOM     11  C   UNL     1     163.815 178.819 179.555  1.00  0.00    -0.002 C 
ATOM     12  C   UNL     1     162.985 178.141 178.475  1.00  0.00     0.005 C 
ATOM     13  C   UNL     1     163.569 178.003 180.867  1.00  0.00    -0.026 C 
ATOM     14  C   UNL     1     161.737 177.659 179.195  1.00  0.00     0.005 C 
ATOM     15  C   UNL     1     162.107 177.468 180.689  1.00  0.00    -0.001 C 
ATOM     16  C   UNL     1     164.574 176.832 181.125  1.00  0.00     0.007 C 
ATOM     17  C   UNL     1     163.643 178.953 182.090  1.00  0.00     0.012 C 
ATOM     18  C   UNL     1     161.926 176.016 181.217  1.00  0.00     0.000 C 
ATOM     19  C   UNL     1     164.298 175.554 180.313  1.00  0.00     0.005 C 
ATOM     20  C   UNL     1     162.841 175.012 180.472  1.00  0.00     0.003 C 
ATOM     21  C   UNL     1     160.454 175.566 181.177  1.00  0.00     0.031 C 
ATOM     22  C   UNL     1     162.732 173.564 181.079  1.00  0.00    -0.008 C 
ATOM     23  C   UNL     1     160.276 174.092 181.406  1.00  0.00    -0.027 C 
ATOM     24  C   UNL     1     161.252 173.174 181.231  1.00  0.00    -0.065 C 
ATOM     25  C   UNL     1     163.433 172.560 180.106  1.00  0.00     0.014 C 
ATOM     26  C   UNL     1     163.392 173.482 182.481  1.00  0.00     0.016 C 
ATOM     27  C   UNL     1     160.895 171.711 181.415  1.00  0.00     0.063 C 
ATOM     28  C   UNL     1     163.114 171.085 180.382  1.00  0.00     0.033 C 
ATOM     29  C   UNL     1     161.599 170.843 180.365  1.00  0.00     0.118 C 
BRANCH  29  30
ATOM     30  O   UNL     1     161.309 169.482 180.570  1.00  0.00    -0.393 OA
ATOM     31  H   UNL     1     162.128 169.052 180.927  1.00  0.00     0.210 HD
ENDBRANCH  29  30
ENDBRANCH   9  11
ENDBRANCH   1   9
TORSDOF 7
ENDMDL
MODEL 5
REMARK VINA RESULT:    -5.667     10.305     12.953
REMARK INTER + INTRA:         -10.252
REMARK INTER:                  -9.162
REMARK INTRA:                  -1.089
REMARK UNBOUND:                -2.431
REMARK SMILES CC[C@H](CC[C@@H](C)[C@H]1CC[C@H]2[C@H]3CC=C4C[C@H](O)CC[C@@]4(C)[C@@H]3CC[C@@]12C)C(C)C
REMARK SMILES IDX 5 1 4 2 3 3 2 4 1 5 28 6 29 7 30 8 6 9 7 10 8 11 9 12 26 13
REMARK SMILES IDX 10 14 11 15 25 16 27 17 12 18 24 19 23 20 13 21 21 22 14 23
REMARK SMILES IDX 15 24 20 25 22 26 16 27 19 28 17 29 18 30
REMARK H PARENT 18 31
REMARK Flexibility Score: inf
ROOT
ATOM      1  C   UNL     1     177.874 175.391 180.248  1.00  0.00     0.004 C 
ENDROOT
BRANCH   1   2
ATOM      2  C   UNL     1     177.859 173.856 180.037  1.00  0.00     0.004 C 
BRANCH   2   3
ATOM      3  C   UNL     1     177.005 173.016 181.032  1.00  0.00    -0.009 C 
BRANCH   3   4
ATOM      4  C   UNL     1     175.887 172.212 180.310  1.00  0.00     0.000 C 
ATOM      5  C   UNL     1     174.461 172.654 180.645  1.00  0.00     0.004 C 
ENDBRANCH   3   4
BRANCH   3   6
ATOM      6  C   UNL     1     177.912 172.114 181.942  1.00  0.00    -0.014 C 
ATOM      7  C   UNL     1     178.814 171.175 181.119  1.00  0.00     0.007 C 
ATOM      8  C   UNL     1     177.082 171.260 182.925  1.00  0.00     0.007 C 
ENDBRANCH   3   6
ENDBRANCH   2   3
ENDBRANCH   1   2
BRANCH   1   9
ATOM      9  C   UNL     1     177.364 176.253 179.050  1.00  0.00    -0.011 C 
ATOM     10  C   UNL     1     176.475 175.397 178.118  1.00  0.00     0.008 C 
BRANCH   9  11
ATOM     11  C   UNL     1     176.574 177.557 179.459  1.00  0.00    -0.002 C 
ATOM     12  C   UNL     1     175.689 178.180 178.390  1.00  0.00     0.005 C 
ATOM     13  C   UNL     1     175.743 177.591 180.785  1.00  0.00    -0.026 C 
ATOM     14  C   UNL     1     174.914 179.266 179.118  1.00  0.00     0.005 C 
ATOM     15  C   UNL     1     174.849 178.866 180.614  1.00  0.00    -0.001 C 
ATOM     16  C   UNL     1     174.874 176.321 181.062  1.00  0.00     0.007 C 
ATOM     17  C   UNL     1     176.700 177.770 181.992  1.00  0.00     0.012 C 
ATOM     18  C   UNL     1     173.407 178.672 181.167  1.00  0.00     0.000 C 
ATOM     19  C   UNL     1     173.556 176.256 180.272  1.00  0.00     0.005 C 
ATOM     20  C   UNL     1     172.660 177.526 180.439  1.00  0.00     0.003 C 
ATOM     21  C   UNL     1     172.594 179.978 181.134  1.00  0.00     0.031 C 
ATOM     22  C   UNL     1     171.242 177.262 181.071  1.00  0.00    -0.008 C 
ATOM     23  C   UNL     1     171.127 179.773 181.387  1.00  0.00    -0.027 C 
ATOM     24  C   UNL     1     170.488 178.593 181.228  1.00  0.00    -0.065 C 
ATOM     25  C   UNL     1     170.437 176.322 180.115  1.00  0.00     0.014 C 
ATOM     26  C   UNL     1     171.355 176.610 182.474  1.00  0.00     0.016 C 
ATOM     27  C   UNL     1     168.986 178.563 181.437  1.00  0.00     0.063 C 
ATOM     28  C   UNL     1     168.934 176.253 180.416  1.00  0.00     0.033 C 
ATOM     29  C   UNL     1     168.311 177.655 180.403  1.00  0.00     0.118 C 
BRANCH  29  30
ATOM     30  O   UNL     1     166.925 177.587 180.630  1.00  0.00    -0.393 OA
ATOM     31  H   UNL     1     166.788 177.267 181.559  1.00  0.00     0.210 HD
ENDBRANCH  29  30
ENDBRANCH   9  11
ENDBRANCH   1   9
TORSDOF 7
ENDMDL
MODEL 6
REMARK VINA RESULT:    -5.448      6.027      8.714
REMARK INTER + INTRA:          -9.949
REMARK INTER:                  -8.480
REMARK INTRA:                  -1.469
REMARK UNBOUND:                -2.431
REMARK SMILES CC[C@H](CC[C@@H](C)[C@H]1CC[C@H]2[C@H]3CC=C4C[C@H](O)CC[C@@]4(C)[C@@H]3CC[C@@]12C)C(C)C
REMARK SMILES IDX 5 1 4 2 3 3 2 4 1 5 28 6 29 7 30 8 6 9 7 10 8 11 9 12 26 13
REMARK SMILES IDX 10 14 11 15 25 16 27 17 12 18 24 19 23 20 13 21 21 22 14 23
REMARK SMILES IDX 15 24 20 25 22 26 16 27 19 28 17 29 18 30
REMARK H PARENT 18 31
REMARK Flexibility Score: inf
ROOT
ATOM      1  C   UNL     1     172.620 176.041 178.909  1.00  0.00     0.004 C 
ENDROOT
BRANCH   1   2
ATOM      2  C   UNL     1     174.032 176.412 179.428  1.00  0.00     0.004 C 
BRANCH   2   3
ATOM      3  C   UNL     1     174.402 177.925 179.443  1.00  0.00    -0.009 C 
BRANCH   3   4
ATOM      4  C   UNL     1     173.566 178.742 178.417  1.00  0.00     0.000 C 
ATOM      5  C   UNL     1     174.382 179.390 177.297  1.00  0.00     0.004 C 
ENDBRANCH   3   4
BRANCH   3   6
ATOM      6  C   UNL     1     174.330 178.517 180.895  1.00  0.00    -0.014 C 
ATOM      7  C   UNL     1     173.196 179.549 181.049  1.00  0.00     0.007 C 
ATOM      8  C   UNL     1     175.658 179.180 181.319  1.00  0.00     0.007 C 
ENDBRANCH   3   6
ENDBRANCH   2   3
ENDBRANCH   1   2
BRANCH   1   9
ATOM      9  C   UNL     1     171.493 175.962 179.986  1.00  0.00    -0.011 C 
ATOM     10  C   UNL     1     172.101 175.644 181.372  1.00  0.00     0.008 C 
BRANCH   9  11
ATOM     11  C   UNL     1     170.596 177.256 180.104  1.00  0.00    -0.002 C 
ATOM     12  C   UNL     1     170.088 177.854 178.801  1.00  0.00     0.005 C 
ATOM     13  C   UNL     1     169.387 177.289 181.097  1.00  0.00    -0.026 C 
ATOM     14  C   UNL     1     169.108 178.934 179.229  1.00  0.00     0.005 C 
ATOM     15  C   UNL     1     168.577 178.547 180.633  1.00  0.00    -0.001 C 
ATOM     16  C   UNL     1     168.492 176.007 181.103  1.00  0.00     0.007 C 
ATOM     17  C   UNL     1     169.910 177.496 182.543  1.00  0.00     0.012 C 
ATOM     18  C   UNL     1     167.037 178.334 180.703  1.00  0.00     0.000 C 
ATOM     19  C   UNL     1     167.493 175.912 179.936  1.00  0.00     0.005 C 
ATOM     20  C   UNL     1     166.574 177.168 179.792  1.00  0.00     0.003 C 
ATOM     21  C   UNL     1     166.259 179.625 180.395  1.00  0.00     0.031 C 
ATOM     22  C   UNL     1     165.033 176.887 179.945  1.00  0.00    -0.008 C 
ATOM     23  C   UNL     1     164.791 179.398 180.173  1.00  0.00    -0.027 C 
ATOM     24  C   UNL     1     164.250 178.206 179.836  1.00  0.00    -0.065 C 
ATOM     25  C   UNL     1     164.585 175.924 178.797  1.00  0.00     0.014 C 
ATOM     26  C   UNL     1     164.703 176.250 181.321  1.00  0.00     0.016 C 
ATOM     27  C   UNL     1     162.760 178.153 179.558  1.00  0.00     0.063 C 
ATOM     28  C   UNL     1     163.065 175.832 178.606  1.00  0.00     0.033 C 
ATOM     29  C   UNL     1     162.461 177.224 178.376  1.00  0.00     0.118 C 
BRANCH  29  30
ATOM     30  O   UNL     1     161.075 177.134 178.152  1.00  0.00    -0.393 OA
ATOM     31  H   UNL     1     160.645 176.915 179.019  1.00  0.00     0.210 HD
ENDBRANCH  29  30
ENDBRANCH   9  11
ENDBRANCH   1   9
TORSDOF 7
ENDMDL
MODEL 7
REMARK VINA RESULT:    -5.442      3.691      6.295
REMARK INTER + INTRA:          -9.941
REMARK INTER:                  -8.118
REMARK INTRA:                  -1.823
REMARK UNBOUND:                -2.431
REMARK SMILES CC[C@H](CC[C@@H](C)[C@H]1CC[C@H]2[C@H]3CC=C4C[C@H](O)CC[C@@]4(C)[C@@H]3CC[C@@]12C)C(C)C
REMARK SMILES IDX 5 1 4 2 3 3 2 4 1 5 28 6 29 7 30 8 6 9 7 10 8 11 9 12 26 13
REMARK SMILES IDX 10 14 11 15 25 16 27 17 12 18 24 19 23 20 13 21 21 22 14 23
REMARK SMILES IDX 15 24 20 25 22 26 16 27 19 28 17 29 18 30
REMARK H PARENT 18 31
REMARK Flexibility Score: inf
ROOT
ATOM      1  C   UNL     1     166.928 178.508 178.994  1.00  0.00     0.004 C 
ENDROOT
BRANCH   1   2
ATOM      2  C   UNL     1     168.238 177.765 179.360  1.00  0.00     0.004 C 
BRANCH   2   3
ATOM      3  C   UNL     1     168.322 177.148 180.787  1.00  0.00    -0.009 C 
BRANCH   3   4
ATOM      4  C   UNL     1     168.010 175.625 180.785  1.00  0.00     0.000 C 
ATOM      5  C   UNL     1     167.928 174.989 179.396  1.00  0.00     0.004 C 
ENDBRANCH   3   4
BRANCH   3   6
ATOM      6  C   UNL     1     169.691 177.488 181.476  1.00  0.00    -0.014 C 
ATOM      7  C   UNL     1     170.155 176.373 182.434  1.00  0.00     0.007 C 
ATOM      8  C   UNL     1     169.633 178.816 182.261  1.00  0.00     0.007 C 
ENDBRANCH   3   6
ENDBRANCH   2   3
ENDBRANCH   1   2
BRANCH   1   9
ATOM      9  C   UNL     1     165.876 178.647 180.139  1.00  0.00    -0.011 C 
ATOM     10  C   UNL     1     165.759 180.125 180.579  1.00  0.00     0.008 C 
BRANCH   9  11
ATOM     11  C   UNL     1     164.437 178.101 179.787  1.00  0.00    -0.002 C 
ATOM     12  C   UNL     1     164.321 177.244 178.535  1.00  0.00     0.005 C 
ATOM     13  C   UNL     1     163.575 177.388 180.882  1.00  0.00    -0.026 C 
ATOM     14  C   UNL     1     162.901 176.704 178.569  1.00  0.00     0.005 C 
ATOM     15  C   UNL     1     162.445 176.691 180.051  1.00  0.00    -0.001 C 
ATOM     16  C   UNL     1     164.344 176.356 181.771  1.00  0.00     0.007 C 
ATOM     17  C   UNL     1     162.961 178.450 181.830  1.00  0.00     0.012 C 
ATOM     18  C   UNL     1     162.072 175.283 180.598  1.00  0.00     0.000 C 
ATOM     19  C   UNL     1     164.585 174.988 181.110  1.00  0.00     0.005 C 
ATOM     20  C   UNL     1     163.282 174.315 180.569  1.00  0.00     0.003 C 
ATOM     21  C   UNL     1     160.858 174.681 179.869  1.00  0.00     0.031 C 
ATOM     22  C   UNL     1     162.930 172.925 181.220  1.00  0.00    -0.008 C 
ATOM     23  C   UNL     1     160.646 173.224 180.167  1.00  0.00    -0.027 C 
ATOM     24  C   UNL     1     161.606 172.399 180.641  1.00  0.00    -0.065 C 
ATOM     25  C   UNL     1     164.076 171.914 180.888  1.00  0.00     0.014 C 
ATOM     26  C   UNL     1     162.764 173.041 182.759  1.00  0.00     0.016 C 
ATOM     27  C   UNL     1     161.265 170.931 180.808  1.00  0.00     0.063 C 
ATOM     28  C   UNL     1     163.720 170.445 181.154  1.00  0.00     0.033 C 
ATOM     29  C   UNL     1     162.447 170.048 180.394  1.00  0.00     0.118 C 
BRANCH  29  30
ATOM     30  O   UNL     1     162.148 168.689 180.599  1.00  0.00    -0.393 OA
ATOM     31  H   UNL     1     162.032 168.551 181.575  1.00  0.00     0.210 HD
ENDBRANCH  29  30
ENDBRANCH   9  11
ENDBRANCH   1   9
TORSDOF 7
ENDMDL
MODEL 8
REMARK VINA RESULT:    -5.436      8.161     11.353
REMARK INTER + INTRA:          -9.933
REMARK INTER:                  -7.579
REMARK INTRA:                  -2.353
REMARK UNBOUND:                -2.431
REMARK SMILES CC[C@H](CC[C@@H](C)[C@H]1CC[C@H]2[C@H]3CC=C4C[C@H](O)CC[C@@]4(C)[C@@H]3CC[C@@]12C)C(C)C
REMARK SMILES IDX 5 1 4 2 3 3 2 4 1 5 28 6 29 7 30 8 6 9 7 10 8 11 9 12 26 13
REMARK SMILES IDX 10 14 11 15 25 16 27 17 12 18 24 19 23 20 13 21 21 22 14 23
REMARK SMILES IDX 15 24 20 25 22 26 16 27 19 28 17 29 18 30
REMARK H PARENT 18 31
REMARK Flexibility Score: inf
ROOT
ATOM      1  C   UNL     1     176.203 178.417 177.245  1.00  0.00     0.004 C 
ENDROOT
BRANCH   1   2
ATOM      2  C   UNL     1     175.464 178.243 175.893  1.00  0.00     0.004 C 
BRANCH   2   3
ATOM      3  C   UNL     1     173.909 178.173 175.944  1.00  0.00    -0.009 C 
BRANCH   3   4
ATOM      4  C   UNL     1     173.250 179.539 175.599  1.00  0.00     0.000 C 
ATOM      5  C   UNL     1     171.963 179.842 176.368  1.00  0.00     0.004 C 
ENDBRANCH   3   4
BRANCH   3   6
ATOM      6  C   UNL     1     173.362 176.994 175.064  1.00  0.00    -0.014 C 
ATOM      7  C   UNL     1     173.768 175.614 175.618  1.00  0.00     0.007 C 
ATOM      8  C   UNL     1     173.839 177.093 173.599  1.00  0.00     0.007 C 
ENDBRANCH   3   6
ENDBRANCH   2   3
ENDBRANCH   1   2
BRANCH   1   9
ATOM      9  C   UNL     1     175.849 177.379 178.357  1.00  0.00    -0.011 C 
ATOM     10  C   UNL     1     177.141 176.739 178.918  1.00  0.00     0.008 C 
BRANCH   9  11
ATOM     11  C   UNL     1     174.999 177.955 179.555  1.00  0.00    -0.002 C 
ATOM     12  C   UNL     1     174.354 179.316 179.340  1.00  0.00     0.005 C 
ATOM     13  C   UNL     1     173.915 177.066 180.251  1.00  0.00    -0.026 C 
ATOM     14  C   UNL     1     173.452 179.509 180.548  1.00  0.00     0.005 C 
ATOM     15  C   UNL     1     173.081 178.101 181.080  1.00  0.00    -0.001 C 
ATOM     16  C   UNL     1     173.001 176.246 179.282  1.00  0.00     0.007 C 
ATOM     17  C   UNL     1     174.607 176.056 181.202  1.00  0.00     0.012 C 
ATOM     18  C   UNL     1     171.556 177.792 181.074  1.00  0.00     0.000 C 
ATOM     19  C   UNL     1     171.872 177.055 178.621  1.00  0.00     0.005 C 
ATOM     20  C   UNL     1     170.967 177.819 179.641  1.00  0.00     0.003 C 
ATOM     21  C   UNL     1     170.773 178.723 182.017  1.00  0.00     0.031 C 
ATOM     22  C   UNL     1     169.449 177.403 179.627  1.00  0.00    -0.008 C 
ATOM     23  C   UNL     1     169.285 178.648 181.827  1.00  0.00    -0.027 C 
ATOM     24  C   UNL     1     168.685 178.188 180.707  1.00  0.00    -0.065 C 
ATOM     25  C   UNL     1     168.851 177.742 178.223  1.00  0.00     0.014 C 
ATOM     26  C   UNL     1     169.269 175.890 179.922  1.00  0.00     0.016 C 
ATOM     27  C   UNL     1     167.172 178.257 180.629  1.00  0.00     0.063 C 
ATOM     28  C   UNL     1     167.318 177.716 178.166  1.00  0.00     0.033 C 
ATOM     29  C   UNL     1     166.718 178.656 179.220  1.00  0.00     0.118 C 
BRANCH  29  30
ATOM     30  O   UNL     1     165.314 178.669 179.135  1.00  0.00    -0.393 OA
ATOM     31  H   UNL     1     164.958 178.395 180.020  1.00  0.00     0.210 HD
ENDBRANCH  29  30
ENDBRANCH   9  11
ENDBRANCH   1   9
TORSDOF 7
ENDMDL
MODEL 9
REMARK VINA RESULT:    -5.428      2.335      4.802
REMARK INTER + INTRA:          -9.922
REMARK INTER:                  -8.421
REMARK INTRA:                  -1.501
REMARK UNBOUND:                -2.431
REMARK SMILES CC[C@H](CC[C@@H](C)[C@H]1CC[C@H]2[C@H]3CC=C4C[C@H](O)CC[C@@]4(C)[C@@H]3CC[C@@]12C)C(C)C
REMARK SMILES IDX 5 1 4 2 3 3 2 4 1 5 28 6 29 7 30 8 6 9 7 10 8 11 9 12 26 13
REMARK SMILES IDX 10 14 11 15 25 16 27 17 12 18 24 19 23 20 13 21 21 22 14 23
REMARK SMILES IDX 15 24 20 25 22 26 16 27 19 28 17 29 18 30
REMARK H PARENT 18 31
REMARK Flexibility Score: inf
ROOT
ATOM      1  C   UNL     1     162.378 176.765 179.644  1.00  0.00     0.004 C 
ENDROOT
BRANCH   1   2
ATOM      2  C   UNL     1     163.328 177.684 180.454  1.00  0.00     0.004 C 
BRANCH   2   3
ATOM      3  C   UNL     1     163.702 179.052 179.811  1.00  0.00    -0.009 C 
BRANCH   3   4
ATOM      4  C   UNL     1     164.102 178.907 178.316  1.00  0.00     0.000 C 
ATOM      5  C   UNL     1     165.498 178.329 178.079  1.00  0.00     0.004 C 
ENDBRANCH   3   4
BRANCH   3   6
ATOM      6  C   UNL     1     162.570 180.117 180.038  1.00  0.00    -0.014 C 
ATOM      7  C   UNL     1     161.837 179.913 181.378  1.00  0.00     0.007 C 
ATOM      8  C   UNL     1     161.526 180.106 178.900  1.00  0.00     0.007 C 
ENDBRANCH   3   6
ENDBRANCH   2   3
ENDBRANCH   1   2
BRANCH   1   9
ATOM      9  C   UNL     1     163.066 175.685 178.751  1.00  0.00    -0.011 C 
ATOM     10  C   UNL     1     163.546 174.500 179.622  1.00  0.00     0.008 C 
BRANCH   9  11
ATOM     11  C   UNL     1     162.172 175.129 177.575  1.00  0.00    -0.002 C 
ATOM     12  C   UNL     1     160.842 175.830 177.341  1.00  0.00     0.005 C 
ATOM     13  C   UNL     1     162.792 174.889 176.159  1.00  0.00    -0.026 C 
ATOM     14  C   UNL     1     160.314 175.229 176.049  1.00  0.00     0.005 C 
ATOM     15  C   UNL     1     161.534 174.719 175.241  1.00  0.00    -0.001 C 
ATOM     16  C   UNL     1     163.726 176.031 175.636  1.00  0.00     0.007 C 
ATOM     17  C   UNL     1     163.624 173.581 176.172  1.00  0.00     0.012 C 
ATOM     18  C   UNL     1     161.709 175.387 173.847  1.00  0.00     0.000 C 
ATOM     19  C   UNL     1     162.990 177.260 175.075  1.00  0.00     0.005 C 
ATOM     20  C   UNL     1     161.947 176.914 173.964  1.00  0.00     0.003 C 
ATOM     21  C   UNL     1     160.531 175.077 172.905  1.00  0.00     0.031 C 
ATOM     22  C   UNL     1     162.227 177.569 172.560  1.00  0.00    -0.008 C 
ATOM     23  C   UNL     1     160.520 175.925 171.665  1.00  0.00    -0.027 C 
ATOM     24  C   UNL     1     161.163 177.108 171.550  1.00  0.00    -0.065 C 
ATOM     25  C   UNL     1     162.157 179.123 172.712  1.00  0.00     0.014 C 
ATOM     26  C   UNL     1     163.618 177.159 172.007  1.00  0.00     0.016 C 
ATOM     27  C   UNL     1     160.986 177.893 170.264  1.00  0.00     0.063 C 
ATOM     28  C   UNL     1     162.066 179.884 171.382  1.00  0.00     0.033 C 
ATOM     29  C   UNL     1     160.870 179.393 170.555  1.00  0.00     0.118 C 
BRANCH  29  30
ATOM     30  O   UNL     1     160.758 180.124 169.358  1.00  0.00    -0.393 OA
ATOM     31  H   UNL     1     161.669 180.217 168.977  1.00  0.00     0.210 HD
ENDBRANCH  29  30
ENDBRANCH   9  11
ENDBRANCH   1   9
TORSDOF 7
ENDMDL
