MODEL 1
REMARK VINA RESULT:    -4.275      0.000      0.000
REMARK INTER + INTRA:         -14.115
REMARK INTER:                  -9.773
REMARK INTRA:                  -4.342
REMARK UNBOUND:                -4.342
REMARK SMILES CCCCCCCCCCCCCCCCCCCCCCCC(=O)[O-]
REMARK SMILES IDX 13 1 14 2 15 3 16 4 17 5 18 6 19 7 20 8 21 9 22 10 23 11
REMARK SMILES IDX 24 12 25 13 26 14 12 15 11 16 10 17 9 18 8 19 7 20 6 21 5 22
REMARK SMILES IDX 4 23 3 24 2 25 1 26
REMARK H PARENT
REMARK Flexibility Score: inf
ROOT
ATOM      1  C   UNL     1     183.309 180.453 183.781  1.00  0.00     0.000 C 
ENDROOT
BRANCH   1   2
ATOM      2  C   UNL     1     184.563 180.311 182.904  1.00  0.00     0.000 C 
BRANCH   2   3
ATOM      3  C   UNL     1     184.277 180.585 181.417  1.00  0.00     0.000 C 
BRANCH   3   4
ATOM      4  C   UNL     1     185.387 181.405 180.736  1.00  0.00     0.000 C 
BRANCH   4   5
ATOM      5  C   UNL     1     186.303 182.193 181.693  1.00  0.00     0.000 C 
BRANCH   5   6
ATOM      6  C   UNL     1     186.059 183.713 181.730  1.00  0.00     0.000 C 
BRANCH   6   7
ATOM      7  C   UNL     1     184.611 184.080 182.085  1.00  0.00     0.000 C 
BRANCH   7   8
ATOM      8  C   UNL     1     183.899 184.734 180.893  1.00  0.00     0.000 C 
BRANCH   8   9
ATOM      9  C   UNL     1     182.411 184.951 181.192  1.00  0.00     0.000 C 
BRANCH   9  10
ATOM     10  C   UNL     1     181.531 184.216 180.175  1.00  0.00     0.006 C 
BRANCH  10  11
ATOM     11  C   UNL     1     181.814 182.711 180.189  1.00  0.00     0.053 C 
BRANCH  11  12
ATOM     12  C   UNL     1     182.098 182.217 178.807  1.00  0.00     0.041 C 
ATOM     13  O   UNL     1     183.152 182.567 178.214  1.00  0.00    -0.550 OA
ATOM     14  O   UNL     1     181.176 181.407 178.153  1.00  0.00    -0.550 OA
ENDBRANCH  11  12
ENDBRANCH  10  11
ENDBRANCH   9  10
ENDBRANCH   8   9
ENDBRANCH   7   8
ENDBRANCH   6   7
ENDBRANCH   5   6
ENDBRANCH   4   5
ENDBRANCH   3   4
ENDBRANCH   2   3
ENDBRANCH   1   2
BRANCH   1  15
ATOM     15  C   UNL     1     182.661 181.844 183.675  1.00  0.00     0.000 C 
BRANCH  15  16
ATOM     16  C   UNL     1     181.944 182.281 184.973  1.00  0.00     0.000 C 
BRANCH  16  17
ATOM     17  C   UNL     1     180.937 183.432 184.776  1.00  0.00     0.000 C 
BRANCH  17  18
ATOM     18  C   UNL     1     180.200 183.423 183.425  1.00  0.00    -0.000 C 
BRANCH  18  19
ATOM     19  C   UNL     1     178.743 183.931 183.514  1.00  0.00    -0.000 C 
BRANCH  19  20
ATOM     20  C   UNL     1     177.777 183.088 182.664  1.00  0.00    -0.000 C 
BRANCH  20  21
ATOM     21  C   UNL     1     178.199 183.012 181.188  1.00  0.00    -0.000 C 
BRANCH  21  22
ATOM     22  C   UNL     1     178.436 181.569 180.710  1.00  0.00    -0.000 C 
BRANCH  22  23
ATOM     23  C   UNL     1     178.610 180.586 181.886  1.00  0.00    -0.000 C 
BRANCH  23  24
ATOM     24  C   UNL     1     180.049 180.060 182.057  1.00  0.00    -0.000 C 
BRANCH  24  25
ATOM     25  C   UNL     1     180.523 179.137 180.914  1.00  0.00    -0.003 C 
ATOM     26  C   UNL     1     181.563 178.116 181.376  1.00  0.00     0.004 C 
ENDBRANCH  24  25
ENDBRANCH  23  24
ENDBRANCH  22  23
ENDBRANCH  21  22
ENDBRANCH  20  21
ENDBRANCH  19  20
ENDBRANCH  18  19
ENDBRANCH  17  18
ENDBRANCH  16  17
ENDBRANCH  15  16
ENDBRANCH   1  15
TORSDOF 22
ENDMDL
MODEL 2
REMARK VINA RESULT:    -4.260      1.805      3.376
REMARK INTER + INTRA:         -14.080
REMARK INTER:                 -10.181
REMARK INTRA:                  -3.899
REMARK UNBOUND:                -4.342
REMARK SMILES CCCCCCCCCCCCCCCCCCCCCCCC(=O)[O-]
REMARK SMILES IDX 13 1 14 2 15 3 16 4 17 5 18 6 19 7 20 8 21 9 22 10 23 11
REMARK SMILES IDX 24 12 25 13 26 14 12 15 11 16 10 17 9 18 8 19 7 20 6 21 5 22
REMARK SMILES IDX 4 23 3 24 2 25 1 26
REMARK H PARENT
REMARK Flexibility Score: inf
ROOT
ATOM      1  C   UNL     1     186.455 180.596 182.874  1.00  0.00     0.000 C 
ENDROOT
BRANCH   1   2
ATOM      2  C   UNL     1     186.026 181.458 181.676  1.00  0.00     0.000 C 
BRANCH   2   3
ATOM      3  C   UNL     1     186.736 182.822 181.646  1.00  0.00     0.000 C 
BRANCH   3   4
ATOM      4  C   UNL     1     185.799 183.992 181.998  1.00  0.00     0.000 C 
BRANCH   4   5
ATOM      5  C   UNL     1     184.294 183.699 181.839  1.00  0.00     0.000 C 
BRANCH   5   6
ATOM      6  C   UNL     1     183.533 184.658 180.906  1.00  0.00     0.000 C 
BRANCH   6   7
ATOM      7  C   UNL     1     182.598 183.930 179.929  1.00  0.00     0.000 C 
BRANCH   7   8
ATOM      8  C   UNL     1     182.838 182.415 179.962  1.00  0.00     0.000 C 
BRANCH   8   9
ATOM      9  C   UNL     1     181.830 181.680 179.070  1.00  0.00     0.000 C 
BRANCH   9  10
ATOM     10  C   UNL     1     181.112 180.571 179.848  1.00  0.00     0.006 C 
BRANCH  10  11
ATOM     11  C   UNL     1     182.098 179.491 180.302  1.00  0.00     0.053 C 
BRANCH  11  12
ATOM     12  C   UNL     1     181.402 178.459 181.131  1.00  0.00     0.041 C 
ATOM     13  O   UNL     1     182.072 177.620 181.789  1.00  0.00    -0.550 OA
ATOM     14  O   UNL     1     180.013 178.392 181.139  1.00  0.00    -0.550 OA
ENDBRANCH  11  12
ENDBRANCH  10  11
ENDBRANCH   9  10
ENDBRANCH   8   9
ENDBRANCH   7   8
ENDBRANCH   6   7
ENDBRANCH   5   6
ENDBRANCH   4   5
ENDBRANCH   3   4
ENDBRANCH   2   3
ENDBRANCH   1   2
BRANCH   1  15
ATOM     15  C   UNL     1     185.263 179.953 183.604  1.00  0.00     0.000 C 
BRANCH  15  16
ATOM     16  C   UNL     1     183.897 180.352 183.004  1.00  0.00     0.000 C 
BRANCH  16  17
ATOM     17  C   UNL     1     182.947 181.037 184.007  1.00  0.00     0.000 C 
BRANCH  17  18
ATOM     18  C   UNL     1     181.667 181.626 183.389  1.00  0.00    -0.000 C 
BRANCH  18  19
ATOM     19  C   UNL     1     181.273 182.999 183.980  1.00  0.00    -0.000 C 
BRANCH  19  20
ATOM     20  C   UNL     1     179.940 183.517 183.414  1.00  0.00    -0.000 C 
BRANCH  20  21
ATOM     21  C   UNL     1     180.012 183.816 181.907  1.00  0.00    -0.000 C 
BRANCH  21  22
ATOM     22  C   UNL     1     178.887 183.133 181.110  1.00  0.00    -0.000 C 
BRANCH  22  23
ATOM     23  C   UNL     1     177.942 182.319 182.018  1.00  0.00    -0.000 C 
BRANCH  23  24
ATOM     24  C   UNL     1     177.564 180.935 181.451  1.00  0.00    -0.000 C 
BRANCH  24  25
ATOM     25  C   UNL     1     177.067 179.933 182.514  1.00  0.00    -0.003 C 
ATOM     26  C   UNL     1     176.181 178.837 181.920  1.00  0.00     0.004 C 
ENDBRANCH  24  25
ENDBRANCH  23  24
ENDBRANCH  22  23
ENDBRANCH  21  22
ENDBRANCH  20  21
ENDBRANCH  19  20
ENDBRANCH  18  19
ENDBRANCH  17  18
ENDBRANCH  16  17
ENDBRANCH  15  16
ENDBRANCH   1  15
TORSDOF 22
ENDMDL
MODEL 3
REMARK VINA RESULT:    -4.260      3.568      6.605
REMARK INTER + INTRA:         -14.080
REMARK INTER:                 -10.801
REMARK INTRA:                  -3.279
REMARK UNBOUND:                -4.342
REMARK SMILES CCCCCCCCCCCCCCCCCCCCCCCC(=O)[O-]
REMARK SMILES IDX 13 1 14 2 15 3 16 4 17 5 18 6 19 7 20 8 21 9 22 10 23 11
REMARK SMILES IDX 24 12 25 13 26 14 12 15 11 16 10 17 9 18 8 19 7 20 6 21 5 22
REMARK SMILES IDX 4 23 3 24 2 25 1 26
REMARK H PARENT
REMARK Flexibility Score: inf
ROOT
ATOM      1  C   UNL     1     182.427 181.301 184.932  1.00  0.00     0.000 C 
ENDROOT
BRANCH   1   2
ATOM      2  C   UNL     1     181.752 182.679 184.843  1.00  0.00     0.000 C 
BRANCH   2   3
ATOM      3  C   UNL     1     181.252 183.001 183.425  1.00  0.00     0.000 C 
BRANCH   3   4
ATOM      4  C   UNL     1     179.847 183.630 183.415  1.00  0.00     0.000 C 
BRANCH   4   5
ATOM      5  C   UNL     1     179.010 183.347 182.151  1.00  0.00     0.000 C 
BRANCH   5   6
ATOM      6  C   UNL     1     177.687 182.598 182.394  1.00  0.00     0.000 C 
BRANCH   6   7
ATOM      7  C   UNL     1     177.585 181.288 181.598  1.00  0.00     0.000 C 
BRANCH   7   8
ATOM      8  C   UNL     1     177.134 180.129 182.497  1.00  0.00     0.000 C 
BRANCH   8   9
ATOM      9  C   UNL     1     176.569 178.973 181.663  1.00  0.00     0.000 C 
BRANCH   9  10
ATOM     10  C   UNL     1     175.485 178.214 182.436  1.00  0.00     0.006 C 
BRANCH  10  11
ATOM     11  C   UNL     1     175.677 176.700 182.308  1.00  0.00     0.053 C 
BRANCH  11  12
ATOM     12  C   UNL     1     174.800 175.975 183.278  1.00  0.00     0.041 C 
ATOM     13  O   UNL     1     175.027 176.051 184.515  1.00  0.00    -0.550 OA
ATOM     14  O   UNL     1     173.760 175.177 182.816  1.00  0.00    -0.550 OA
ENDBRANCH  11  12
ENDBRANCH  10  11
ENDBRANCH   9  10
ENDBRANCH   8   9
ENDBRANCH   7   8
ENDBRANCH   6   7
ENDBRANCH   5   6
ENDBRANCH   4   5
ENDBRANCH   3   4
ENDBRANCH   2   3
ENDBRANCH   1   2
BRANCH   1  15
ATOM     15  C   UNL     1     182.756 180.708 183.551  1.00  0.00     0.000 C 
BRANCH  15  16
ATOM     16  C   UNL     1     184.273 180.551 183.303  1.00  0.00     0.000 C 
BRANCH  16  17
ATOM     17  C   UNL     1     184.829 181.481 182.206  1.00  0.00     0.000 C 
BRANCH  17  18
ATOM     18  C   UNL     1     184.649 180.964 180.768  1.00  0.00    -0.000 C 
BRANCH  18  19
ATOM     19  C   UNL     1     184.222 182.063 179.767  1.00  0.00    -0.000 C 
BRANCH  19  20
ATOM     20  C   UNL     1     183.427 183.191 180.443  1.00  0.00    -0.000 C 
BRANCH  20  21
ATOM     21  C   UNL     1     181.938 183.179 180.061  1.00  0.00    -0.000 C 
BRANCH  21  22
ATOM     22  C   UNL     1     181.611 182.145 178.969  1.00  0.00    -0.000 C 
BRANCH  22  23
ATOM     23  C   UNL     1     180.559 181.118 179.435  1.00  0.00    -0.000 C 
BRANCH  23  24
ATOM     24  C   UNL     1     180.911 180.415 180.761  1.00  0.00    -0.000 C 
BRANCH  24  25
ATOM     25  C   UNL     1     180.722 178.884 180.734  1.00  0.00    -0.003 C 
ATOM     26  C   UNL     1     181.869 178.137 181.415  1.00  0.00     0.004 C 
ENDBRANCH  24  25
ENDBRANCH  23  24
ENDBRANCH  22  23
ENDBRANCH  21  22
ENDBRANCH  20  21
ENDBRANCH  19  20
ENDBRANCH  18  19
ENDBRANCH  17  18
ENDBRANCH  16  17
ENDBRANCH  15  16
ENDBRANCH   1  15
TORSDOF 22
ENDMDL
MODEL 4
REMARK VINA RESULT:    -4.250      2.348      4.533
REMARK INTER + INTRA:         -14.059
REMARK INTER:                 -10.408
REMARK INTRA:                  -3.650
REMARK UNBOUND:                -4.342
REMARK SMILES CCCCCCCCCCCCCCCCCCCCCCCC(=O)[O-]
REMARK SMILES IDX 13 1 14 2 15 3 16 4 17 5 18 6 19 7 20 8 21 9 22 10 23 11
REMARK SMILES IDX 24 12 25 13 26 14 12 15 11 16 10 17 9 18 8 19 7 20 6 21 5 22
REMARK SMILES IDX 4 23 3 24 2 25 1 26
REMARK H PARENT
REMARK Flexibility Score: inf
ROOT
ATOM      1  C   UNL     1     181.953 185.095 180.803  1.00  0.00     0.000 C 
ENDROOT
BRANCH   1   2
ATOM      2  C   UNL     1     183.480 185.102 180.984  1.00  0.00     0.000 C 
BRANCH   2   3
ATOM      3  C   UNL     1     184.019 183.756 181.497  1.00  0.00     0.000 C 
BRANCH   3   4
ATOM      4  C   UNL     1     185.424 183.871 182.115  1.00  0.00     0.000 C 
BRANCH   4   5
ATOM      5  C   UNL     1     186.494 182.953 181.492  1.00  0.00     0.000 C 
BRANCH   5   6
ATOM      6  C   UNL     1     186.108 181.466 181.398  1.00  0.00     0.000 C 
BRANCH   6   7
ATOM      7  C   UNL     1     186.729 180.612 182.515  1.00  0.00     0.000 C 
BRANCH   7   8
ATOM      8  C   UNL     1     185.663 180.162 183.522  1.00  0.00     0.000 C 
BRANCH   8   9
ATOM      9  C   UNL     1     184.252 180.356 182.954  1.00  0.00     0.000 C 
BRANCH   9  10
ATOM     10  C   UNL     1     183.225 180.534 184.078  1.00  0.00     0.006 C 
BRANCH  10  11
ATOM     11  C   UNL     1     182.291 181.712 183.789  1.00  0.00     0.053 C 
BRANCH  11  12
ATOM     12  C   UNL     1     181.784 182.306 185.064  1.00  0.00     0.041 C 
ATOM     13  O   UNL     1     182.014 181.736 186.163  1.00  0.00    -0.550 OA
ATOM     14  O   UNL     1     181.014 183.464 185.036  1.00  0.00    -0.550 OA
ENDBRANCH  11  12
ENDBRANCH  10  11
ENDBRANCH   9  10
ENDBRANCH   8   9
ENDBRANCH   7   8
ENDBRANCH   6   7
ENDBRANCH   5   6
ENDBRANCH   4   5
ENDBRANCH   3   4
ENDBRANCH   2   3
ENDBRANCH   1   2
BRANCH   1  15
ATOM     15  C   UNL     1     181.226 184.302 181.903  1.00  0.00     0.000 C 
BRANCH  15  16
ATOM     16  C   UNL     1     179.921 183.637 181.410  1.00  0.00     0.000 C 
BRANCH  16  17
ATOM     17  C   UNL     1     178.903 183.345 182.531  1.00  0.00     0.000 C 
BRANCH  17  18
ATOM     18  C   UNL     1     177.743 182.420 182.127  1.00  0.00    -0.000 C 
BRANCH  18  19
ATOM     19  C   UNL     1     178.185 181.218 181.261  1.00  0.00    -0.000 C 
BRANCH  19  20
ATOM     20  C   UNL     1     179.184 180.306 181.993  1.00  0.00    -0.000 C 
BRANCH  20  21
ATOM     21  C   UNL     1     179.900 179.330 181.046  1.00  0.00    -0.000 C 
BRANCH  21  22
ATOM     22  C   UNL     1     181.427 179.514 181.044  1.00  0.00    -0.000 C 
BRANCH  22  23
ATOM     23  C   UNL     1     181.855 180.815 180.334  1.00  0.00    -0.000 C 
BRANCH  23  24
ATOM     24  C   UNL     1     181.109 181.085 179.012  1.00  0.00    -0.000 C 
BRANCH  24  25
ATOM     25  C   UNL     1     181.758 182.174 178.132  1.00  0.00    -0.003 C 
ATOM     26  C   UNL     1     183.218 182.437 178.502  1.00  0.00     0.004 C 
ENDBRANCH  24  25
ENDBRANCH  23  24
ENDBRANCH  22  23
ENDBRANCH  21  22
ENDBRANCH  20  21
ENDBRANCH  19  20
ENDBRANCH  18  19
ENDBRANCH  17  18
ENDBRANCH  16  17
ENDBRANCH  15  16
ENDBRANCH   1  15
TORSDOF 22
ENDMDL
MODEL 5
REMARK VINA RESULT:    -4.221      1.651      5.502
REMARK INTER + INTRA:         -13.992
REMARK INTER:                 -10.323
REMARK INTRA:                  -3.670
REMARK UNBOUND:                -4.342
REMARK SMILES CCCCCCCCCCCCCCCCCCCCCCCC(=O)[O-]
REMARK SMILES IDX 13 1 14 2 15 3 16 4 17 5 18 6 19 7 20 8 21 9 22 10 23 11
REMARK SMILES IDX 24 12 25 13 26 14 12 15 11 16 10 17 9 18 8 19 7 20 6 21 5 22
REMARK SMILES IDX 4 23 3 24 2 25 1 26
REMARK H PARENT
REMARK Flexibility Score: inf
ROOT
ATOM      1  C   UNL     1     178.221 182.790 181.572  1.00  0.00     0.000 C 
ENDROOT
BRANCH   1   2
ATOM      2  C   UNL     1     177.494 181.454 181.347  1.00  0.00     0.000 C 
BRANCH   2   3
ATOM      3  C   UNL     1     178.138 180.294 182.127  1.00  0.00     0.000 C 
BRANCH   3   4
ATOM      4  C   UNL     1     179.676 180.332 182.092  1.00  0.00     0.000 C 
BRANCH   4   5
ATOM      5  C   UNL     1     180.340 179.266 181.198  1.00  0.00     0.000 C 
BRANCH   5   6
ATOM      6  C   UNL     1     181.345 179.808 180.166  1.00  0.00     0.000 C 
BRANCH   6   7
ATOM      7  C   UNL     1     180.921 181.157 179.565  1.00  0.00     0.000 C 
BRANCH   7   8
ATOM      8  C   UNL     1     181.888 181.597 178.458  1.00  0.00     0.000 C 
BRANCH   8   9
ATOM      9  C   UNL     1     182.598 182.902 178.836  1.00  0.00     0.000 C 
BRANCH   9  10
ATOM     10  C   UNL     1     181.977 183.524 180.092  1.00  0.00     0.006 C 
BRANCH  10  11
ATOM     11  C   UNL     1     183.047 184.186 180.964  1.00  0.00     0.053 C 
BRANCH  11  12
ATOM     12  C   UNL     1     182.870 185.671 180.977  1.00  0.00     0.041 C 
ATOM     13  O   UNL     1     181.794 186.175 181.394  1.00  0.00    -0.550 OA
ATOM     14  O   UNL     1     183.874 186.498 180.486  1.00  0.00    -0.550 OA
ENDBRANCH  11  12
ENDBRANCH  10  11
ENDBRANCH   9  10
ENDBRANCH   8   9
ENDBRANCH   7   8
ENDBRANCH   6   7
ENDBRANCH   5   6
ENDBRANCH   4   5
ENDBRANCH   3   4
ENDBRANCH   2   3
ENDBRANCH   1   2
BRANCH   1  15
ATOM     15  C   UNL     1     177.803 183.484 182.880  1.00  0.00     0.000 C 
BRANCH  15  16
ATOM     16  C   UNL     1     179.003 184.002 183.703  1.00  0.00     0.000 C 
BRANCH  16  17
ATOM     17  C   UNL     1     180.359 183.399 183.282  1.00  0.00     0.000 C 
BRANCH  17  18
ATOM     18  C   UNL     1     181.352 183.174 184.435  1.00  0.00    -0.000 C 
BRANCH  18  19
ATOM     19  C   UNL     1     182.044 181.792 184.391  1.00  0.00    -0.000 C 
BRANCH  19  20
ATOM     20  C   UNL     1     182.745 181.532 183.048  1.00  0.00    -0.000 C 
BRANCH  20  21
ATOM     21  C   UNL     1     183.964 180.604 183.184  1.00  0.00    -0.000 C 
BRANCH  21  22
ATOM     22  C   UNL     1     184.676 180.354 181.844  1.00  0.00    -0.000 C 
BRANCH  22  23
ATOM     23  C   UNL     1     185.117 181.667 181.166  1.00  0.00    -0.000 C 
BRANCH  23  24
ATOM     24  C   UNL     1     186.431 182.252 181.722  1.00  0.00    -0.000 C 
BRANCH  24  25
ATOM     25  C   UNL     1     186.296 183.680 182.290  1.00  0.00    -0.003 C 
ATOM     26  C   UNL     1     187.369 184.630 181.755  1.00  0.00     0.004 C 
ENDBRANCH  24  25
ENDBRANCH  23  24
ENDBRANCH  22  23
ENDBRANCH  21  22
ENDBRANCH  20  21
ENDBRANCH  19  20
ENDBRANCH  18  19
ENDBRANCH  17  18
ENDBRANCH  16  17
ENDBRANCH  15  16
ENDBRANCH   1  15
TORSDOF 22
ENDMDL
MODEL 6
REMARK VINA RESULT:    -4.192      0.833      2.975
REMARK INTER + INTRA:         -13.925
REMARK INTER:                 -10.194
REMARK INTRA:                  -3.730
REMARK UNBOUND:                -4.342
REMARK SMILES CCCCCCCCCCCCCCCCCCCCCCCC(=O)[O-]
REMARK SMILES IDX 13 1 14 2 15 3 16 4 17 5 18 6 19 7 20 8 21 9 22 10 23 11
REMARK SMILES IDX 24 12 25 13 26 14 12 15 11 16 10 17 9 18 8 19 7 20 6 21 5 22
REMARK SMILES IDX 4 23 3 24 2 25 1 26
REMARK H PARENT
REMARK Flexibility Score: inf
ROOT
ATOM      1  C   UNL     1     182.649 180.038 181.653  1.00  0.00     0.000 C 
ENDROOT
BRANCH   1   2
ATOM      2  C   UNL     1     183.392 180.110 182.996  1.00  0.00     0.000 C 
BRANCH   2   3
ATOM      3  C   UNL     1     184.877 180.476 182.830  1.00  0.00     0.000 C 
BRANCH   3   4
ATOM      4  C   UNL     1     185.149 181.312 181.566  1.00  0.00     0.000 C 
BRANCH   4   5
ATOM      5  C   UNL     1     186.160 182.463 181.745  1.00  0.00     0.000 C 
BRANCH   5   6
ATOM      6  C   UNL     1     185.545 183.873 181.806  1.00  0.00     0.000 C 
BRANCH   6   7
ATOM      7  C   UNL     1     184.011 183.857 181.878  1.00  0.00     0.000 C 
BRANCH   7   8
ATOM      8  C   UNL     1     183.408 185.013 181.070  1.00  0.00     0.000 C 
BRANCH   8   9
ATOM      9  C   UNL     1     181.997 184.665 180.580  1.00  0.00     0.000 C 
BRANCH   9  10
ATOM     10  C   UNL     1     181.753 183.153 180.634  1.00  0.00     0.006 C 
BRANCH  10  11
ATOM     11  C   UNL     1     181.120 182.651 179.333  1.00  0.00     0.053 C 
BRANCH  11  12
ATOM     12  C   UNL     1     182.173 182.151 178.395  1.00  0.00     0.041 C 
ATOM     13  O   UNL     1     181.854 181.427 177.415  1.00  0.00    -0.550 OA
ATOM     14  O   UNL     1     183.511 182.443 178.631  1.00  0.00    -0.550 OA
ENDBRANCH  11  12
ENDBRANCH  10  11
ENDBRANCH   9  10
ENDBRANCH   8   9
ENDBRANCH   7   8
ENDBRANCH   6   7
ENDBRANCH   5   6
ENDBRANCH   4   5
ENDBRANCH   3   4
ENDBRANCH   2   3
ENDBRANCH   1   2
BRANCH   1  15
ATOM     15  C   UNL     1     182.141 178.622 181.328  1.00  0.00     0.000 C 
BRANCH  15  16
ATOM     16  C   UNL     1     180.631 178.579 180.999  1.00  0.00     0.000 C 
BRANCH  16  17
ATOM     17  C   UNL     1     179.890 179.901 181.285  1.00  0.00     0.000 C 
BRANCH  17  18
ATOM     18  C   UNL     1     178.727 179.788 182.286  1.00  0.00    -0.000 C 
BRANCH  18  19
ATOM     19  C   UNL     1     177.541 180.725 181.962  1.00  0.00    -0.000 C 
BRANCH  19  20
ATOM     20  C   UNL     1     177.986 181.993 181.215  1.00  0.00    -0.000 C 
BRANCH  20  21
ATOM     21  C   UNL     1     177.467 183.282 181.872  1.00  0.00    -0.000 C 
BRANCH  21  22
ATOM     22  C   UNL     1     178.091 183.540 183.254  1.00  0.00    -0.000 C 
BRANCH  22  23
ATOM     23  C   UNL     1     179.593 183.882 183.159  1.00  0.00    -0.000 C 
BRANCH  23  24
ATOM     24  C   UNL     1     180.527 182.739 183.604  1.00  0.00    -0.000 C 
BRANCH  24  25
ATOM     25  C   UNL     1     181.506 183.126 184.732  1.00  0.00    -0.003 C 
ATOM     26  C   UNL     1     181.983 181.917 185.538  1.00  0.00     0.004 C 
ENDBRANCH  24  25
ENDBRANCH  23  24
ENDBRANCH  22  23
ENDBRANCH  21  22
ENDBRANCH  20  21
ENDBRANCH  19  20
ENDBRANCH  18  19
ENDBRANCH  17  18
ENDBRANCH  16  17
ENDBRANCH  15  16
ENDBRANCH   1  15
TORSDOF 22
ENDMDL
MODEL 7
REMARK VINA RESULT:    -4.182      0.718      5.900
REMARK INTER + INTRA:         -13.902
REMARK INTER:                  -9.959
REMARK INTRA:                  -3.943
REMARK UNBOUND:                -4.342
REMARK SMILES CCCCCCCCCCCCCCCCCCCCCCCC(=O)[O-]
REMARK SMILES IDX 13 1 14 2 15 3 16 4 17 5 18 6 19 7 20 8 21 9 22 10 23 11
REMARK SMILES IDX 24 12 25 13 26 14 12 15 11 16 10 17 9 18 8 19 7 20 6 21 5 22
REMARK SMILES IDX 4 23 3 24 2 25 1 26
REMARK H PARENT
REMARK Flexibility Score: inf
ROOT
ATOM      1  C   UNL     1     180.214 183.332 183.392  1.00  0.00     0.000 C 
ENDROOT
BRANCH   1   2
ATOM      2  C   UNL     1     178.877 184.073 183.549  1.00  0.00     0.000 C 
BRANCH   2   3
ATOM      3  C   UNL     1     177.695 183.292 182.950  1.00  0.00     0.000 C 
BRANCH   3   4
ATOM      4  C   UNL     1     178.013 182.694 181.568  1.00  0.00     0.000 C 
BRANCH   4   5
ATOM      5  C   UNL     1     177.457 181.277 181.321  1.00  0.00     0.000 C 
BRANCH   5   6
ATOM      6  C   UNL     1     178.087 180.166 182.180  1.00  0.00     0.000 C 
BRANCH   6   7
ATOM      7  C   UNL     1     179.621 180.240 182.226  1.00  0.00     0.000 C 
BRANCH   7   8
ATOM      8  C   UNL     1     180.251 179.237 181.251  1.00  0.00     0.000 C 
BRANCH   8   9
ATOM      9  C   UNL     1     181.161 179.949 180.242  1.00  0.00     0.000 C 
BRANCH   9  10
ATOM     10  C   UNL     1     181.349 181.424 180.615  1.00  0.00     0.006 C 
BRANCH  10  11
ATOM     11  C   UNL     1     181.016 182.337 179.432  1.00  0.00     0.053 C 
BRANCH  11  12
ATOM     12  C   UNL     1     181.992 182.132 178.318  1.00  0.00     0.041 C 
ATOM     13  O   UNL     1     181.658 181.476 177.297  1.00  0.00    -0.550 OA
ATOM     14  O   UNL     1     183.288 182.626 178.428  1.00  0.00    -0.550 OA
ENDBRANCH  11  12
ENDBRANCH  10  11
ENDBRANCH   9  10
ENDBRANCH   8   9
ENDBRANCH   7   8
ENDBRANCH   6   7
ENDBRANCH   5   6
ENDBRANCH   4   5
ENDBRANCH   3   4
ENDBRANCH   2   3
ENDBRANCH   1   2
BRANCH   1  15
ATOM     15  C   UNL     1     181.071 183.369 184.670  1.00  0.00     0.000 C 
BRANCH  15  16
ATOM     16  C   UNL     1     181.954 182.114 184.847  1.00  0.00     0.000 C 
BRANCH  16  17
ATOM     17  C   UNL     1     182.686 181.677 183.562  1.00  0.00     0.000 C 
BRANCH  17  18
ATOM     18  C   UNL     1     183.441 180.341 183.670  1.00  0.00    -0.000 C 
BRANCH  18  19
ATOM     19  C   UNL     1     184.780 180.325 182.897  1.00  0.00    -0.000 C 
BRANCH  19  20
ATOM     20  C   UNL     1     184.581 180.476 181.380  1.00  0.00    -0.000 C 
BRANCH  20  21
ATOM     21  C   UNL     1     185.450 181.590 180.776  1.00  0.00    -0.000 C 
BRANCH  21  22
ATOM     22  C   UNL     1     186.098 182.487 181.845  1.00  0.00    -0.000 C 
BRANCH  22  23
ATOM     23  C   UNL     1     185.504 183.911 181.848  1.00  0.00    -0.000 C 
BRANCH  23  24
ATOM     24  C   UNL     1     183.988 183.960 181.570  1.00  0.00    -0.000 C 
BRANCH  24  25
ATOM     25  C   UNL     1     183.489 185.320 181.038  1.00  0.00    -0.003 C 
ATOM     26  C   UNL     1     181.963 185.425 181.034  1.00  0.00     0.004 C 
ENDBRANCH  24  25
ENDBRANCH  23  24
ENDBRANCH  22  23
ENDBRANCH  21  22
ENDBRANCH  20  21
ENDBRANCH  19  20
ENDBRANCH  18  19
ENDBRANCH  17  18
ENDBRANCH  16  17
ENDBRANCH  15  16
ENDBRANCH   1  15
TORSDOF 22
ENDMDL
MODEL 8
REMARK VINA RESULT:    -4.154      1.856      5.711
REMARK INTER + INTRA:         -13.840
REMARK INTER:                 -10.060
REMARK INTRA:                  -3.780
REMARK UNBOUND:                -4.342
REMARK SMILES CCCCCCCCCCCCCCCCCCCCCCCC(=O)[O-]
REMARK SMILES IDX 13 1 14 2 15 3 16 4 17 5 18 6 19 7 20 8 21 9 22 10 23 11
REMARK SMILES IDX 24 12 25 13 26 14 12 15 11 16 10 17 9 18 8 19 7 20 6 21 5 22
REMARK SMILES IDX 4 23 3 24 2 25 1 26
REMARK H PARENT
REMARK Flexibility Score: inf
ROOT
ATOM      1  C   UNL     1     178.159 182.686 181.657  1.00  0.00     0.000 C 
ENDROOT
BRANCH   1   2
ATOM      2  C   UNL     1     177.703 183.469 182.899  1.00  0.00     0.000 C 
BRANCH   2   3
ATOM      3  C   UNL     1     178.884 183.945 183.762  1.00  0.00     0.000 C 
BRANCH   3   4
ATOM      4  C   UNL     1     180.249 183.698 183.096  1.00  0.00     0.000 C 
BRANCH   4   5
ATOM      5  C   UNL     1     181.303 183.016 183.991  1.00  0.00     0.000 C 
BRANCH   5   6
ATOM      6  C   UNL     1     182.328 182.141 183.248  1.00  0.00     0.000 C 
BRANCH   6   7
ATOM      7  C   UNL     1     182.790 180.927 184.070  1.00  0.00     0.000 C 
BRANCH   7   8
ATOM      8  C   UNL     1     183.855 180.122 183.315  1.00  0.00     0.000 C 
BRANCH   8   9
ATOM      9  C   UNL     1     184.331 180.875 182.066  1.00  0.00     0.000 C 
BRANCH   9  10
ATOM     10  C   UNL     1     185.821 181.222 182.166  1.00  0.00     0.006 C 
BRANCH  10  11
ATOM     11  C   UNL     1     186.208 182.283 181.133  1.00  0.00     0.053 C 
BRANCH  11  12
ATOM     12  C   UNL     1     186.397 183.613 181.790  1.00  0.00     0.041 C 
ATOM     13  O   UNL     1     185.432 184.171 182.375  1.00  0.00    -0.550 OA
ATOM     14  O   UNL     1     187.626 184.259 181.715  1.00  0.00    -0.550 OA
ENDBRANCH  11  12
ENDBRANCH  10  11
ENDBRANCH   9  10
ENDBRANCH   8   9
ENDBRANCH   7   8
ENDBRANCH   6   7
ENDBRANCH   5   6
ENDBRANCH   4   5
ENDBRANCH   3   4
ENDBRANCH   2   3
ENDBRANCH   1   2
BRANCH   1  15
ATOM     15  C   UNL     1     177.406 181.355 181.482  1.00  0.00     0.000 C 
BRANCH  15  16
ATOM     16  C   UNL     1     178.086 180.173 182.209  1.00  0.00     0.000 C 
BRANCH  16  17
ATOM     17  C   UNL     1     179.627 180.218 182.174  1.00  0.00     0.000 C 
BRANCH  17  18
ATOM     18  C   UNL     1     180.283 179.195 181.231  1.00  0.00    -0.000 C 
BRANCH  18  19
ATOM     19  C   UNL     1     181.423 179.791 180.373  1.00  0.00    -0.000 C 
BRANCH  19  20
ATOM     20  C   UNL     1     180.949 180.973 179.512  1.00  0.00    -0.000 C 
BRANCH  20  21
ATOM     21  C   UNL     1     182.025 181.458 178.527  1.00  0.00    -0.000 C 
BRANCH  21  22
ATOM     22  C   UNL     1     182.815 182.668 179.054  1.00  0.00    -0.000 C 
BRANCH  22  23
ATOM     23  C   UNL     1     182.007 183.488 180.081  1.00  0.00    -0.000 C 
BRANCH  23  24
ATOM     24  C   UNL     1     182.728 184.756 180.580  1.00  0.00    -0.000 C 
BRANCH  24  25
ATOM     25  C   UNL     1     181.790 185.812 181.202  1.00  0.00    -0.003 C 
ATOM     26  C   UNL     1     182.547 187.023 181.749  1.00  0.00     0.004 C 
ENDBRANCH  24  25
ENDBRANCH  23  24
ENDBRANCH  22  23
ENDBRANCH  21  22
ENDBRANCH  20  21
ENDBRANCH  19  20
ENDBRANCH  18  19
ENDBRANCH  17  18
ENDBRANCH  16  17
ENDBRANCH  15  16
ENDBRANCH   1  15
TORSDOF 22
ENDMDL
MODEL 9
REMARK VINA RESULT:    -4.046      2.433      6.121
REMARK INTER + INTRA:         -13.593
REMARK INTER:                  -9.785
REMARK INTRA:                  -3.808
REMARK UNBOUND:                -4.342
REMARK SMILES CCCCCCCCCCCCCCCCCCCCCCCC(=O)[O-]
REMARK SMILES IDX 13 1 14 2 15 3 16 4 17 5 18 6 19 7 20 8 21 9 22 10 23 11
REMARK SMILES IDX 24 12 25 13 26 14 12 15 11 16 10 17 9 18 8 19 7 20 6 21 5 22
REMARK SMILES IDX 4 23 3 24 2 25 1 26
REMARK H PARENT
REMARK Flexibility Score: inf
ROOT
ATOM      1  C   UNL     1     183.150 183.931 180.281  1.00  0.00     0.000 C 
ENDROOT
BRANCH   1   2
ATOM      2  C   UNL     1     183.261 182.738 179.317  1.00  0.00     0.000 C 
BRANCH   2   3
ATOM      3  C   UNL     1     181.959 182.486 178.538  1.00  0.00     0.000 C 
BRANCH   3   4
ATOM      4  C   UNL     1     181.373 181.085 178.789  1.00  0.00     0.000 C 
BRANCH   4   5
ATOM      5  C   UNL     1     182.036 180.291 179.932  1.00  0.00     0.000 C 
BRANCH   5   6
ATOM      6  C   UNL     1     181.107 179.927 181.104  1.00  0.00     0.000 C 
BRANCH   6   7
ATOM      7  C   UNL     1     179.682 180.473 180.932  1.00  0.00     0.000 C 
BRANCH   7   8
ATOM      8  C   UNL     1     178.763 179.983 182.058  1.00  0.00     0.000 C 
BRANCH   8   9
ATOM      9  C   UNL     1     177.749 181.064 182.451  1.00  0.00     0.000 C 
BRANCH   9  10
ATOM     10  C   UNL     1     178.098 182.409 181.804  1.00  0.00     0.006 C 
BRANCH  10  11
ATOM     11  C   UNL     1     177.115 183.499 182.237  1.00  0.00     0.053 C 
BRANCH  11  12
ATOM     12  C   UNL     1     177.410 183.949 183.632  1.00  0.00     0.041 C 
ATOM     13  O   UNL     1     178.598 184.168 183.988  1.00  0.00    -0.550 OA
ATOM     14  O   UNL     1     176.379 184.080 184.555  1.00  0.00    -0.550 OA
ENDBRANCH  11  12
ENDBRANCH  10  11
ENDBRANCH   9  10
ENDBRANCH   8   9
ENDBRANCH   7   8
ENDBRANCH   6   7
ENDBRANCH   5   6
ENDBRANCH   4   5
ENDBRANCH   3   4
ENDBRANCH   2   3
ENDBRANCH   1   2
BRANCH   1  15
ATOM     15  C   UNL     1     181.697 184.238 180.684  1.00  0.00     0.000 C 
BRANCH  15  16
ATOM     16  C   UNL     1     181.350 183.765 182.114  1.00  0.00     0.000 C 
BRANCH  16  17
ATOM     17  C   UNL     1     182.356 182.754 182.701  1.00  0.00     0.000 C 
BRANCH  17  18
ATOM     18  C   UNL     1     181.972 182.185 184.077  1.00  0.00    -0.000 C 
BRANCH  18  19
ATOM     19  C   UNL     1     182.763 180.913 184.461  1.00  0.00    -0.000 C 
BRANCH  19  20
ATOM     20  C   UNL     1     183.666 180.420 183.319  1.00  0.00    -0.000 C 
BRANCH  20  21
ATOM     21  C   UNL     1     185.105 180.139 183.779  1.00  0.00    -0.000 C 
BRANCH  21  22
ATOM     22  C   UNL     1     186.155 180.537 182.728  1.00  0.00    -0.000 C 
BRANCH  22  23
ATOM     23  C   UNL     1     185.622 181.599 181.745  1.00  0.00    -0.000 C 
BRANCH  23  24
ATOM     24  C   UNL     1     186.655 182.679 181.365  1.00  0.00    -0.000 C 
BRANCH  24  25
ATOM     25  C   UNL     1     186.472 184.018 182.109  1.00  0.00    -0.003 C 
ATOM     26  C   UNL     1     187.579 185.024 181.790  1.00  0.00     0.004 C 
ENDBRANCH  24  25
ENDBRANCH  23  24
ENDBRANCH  22  23
ENDBRANCH  21  22
ENDBRANCH  20  21
ENDBRANCH  19  20
ENDBRANCH  18  19
ENDBRANCH  17  18
ENDBRANCH  16  17
ENDBRANCH  15  16
ENDBRANCH   1  15
TORSDOF 22
ENDMDL
