MODEL 1
REMARK VINA RESULT:    -4.891      0.000      0.000
REMARK INTER + INTRA:         -14.403
REMARK INTER:                 -10.610
REMARK INTRA:                  -3.793
REMARK UNBOUND:                -3.793
REMARK SMILES CCCCCCCCCCCCCCCCCCCCCC(=O)[O-]
REMARK SMILES IDX 12 1 11 2 10 3 9 4 8 5 7 6 6 7 5 8 4 9 3 10 2 11 1 12 13 13
REMARK SMILES IDX 14 14 15 15 16 16 17 17 18 18 19 19 20 20 21 21 22 22 23 23
REMARK SMILES IDX 24 24
REMARK H PARENT
REMARK Flexibility Score: inf
ROOT
ATOM      1  C   UNL     1      10.019  17.562  31.036  1.00  0.00     0.000 C 
ENDROOT
BRANCH   1   2
ATOM      2  C   UNL     1       9.367  18.502  30.006  1.00  0.00     0.000 C 
BRANCH   2   3
ATOM      3  C   UNL     1       8.549  19.630  30.660  1.00  0.00     0.000 C 
BRANCH   3   4
ATOM      4  C   UNL     1       7.986  20.682  29.686  1.00  0.00    -0.000 C 
BRANCH   4   5
ATOM      5  C   UNL     1       8.143  22.120  30.207  1.00  0.00    -0.000 C 
BRANCH   5   6
ATOM      6  C   UNL     1       8.632  22.167  31.663  1.00  0.00    -0.000 C 
BRANCH   6   7
ATOM      7  C   UNL     1      10.055  22.734  31.791  1.00  0.00    -0.000 C 
BRANCH   7   8
ATOM      8  C   UNL     1      10.999  21.709  32.439  1.00  0.00    -0.000 C 
BRANCH   8   9
ATOM      9  C   UNL     1      12.209  22.369  33.119  1.00  0.00    -0.000 C 
BRANCH   9  10
ATOM     10  C   UNL     1      11.896  23.778  33.645  1.00  0.00    -0.000 C 
BRANCH  10  11
ATOM     11  C   UNL     1      11.443  23.727  35.110  1.00  0.00    -0.003 C 
ATOM     12  C   UNL     1      10.004  24.213  35.258  1.00  0.00     0.004 C 
ENDBRANCH  10  11
ENDBRANCH   9  10
ENDBRANCH   8   9
ENDBRANCH   7   8
ENDBRANCH   6   7
ENDBRANCH   5   6
ENDBRANCH   4   5
ENDBRANCH   3   4
ENDBRANCH   2   3
ENDBRANCH   1   2
BRANCH   1  13
ATOM     13  C   UNL     1      10.037  18.154  32.458  1.00  0.00     0.000 C 
BRANCH  13  14
ATOM     14  C   UNL     1       9.273  17.341  33.527  1.00  0.00     0.000 C 
BRANCH  14  15
ATOM     15  C   UNL     1       8.545  18.178  34.596  1.00  0.00     0.000 C 
BRANCH  15  16
ATOM     16  C   UNL     1       8.589  19.689  34.306  1.00  0.00     0.000 C 
BRANCH  16  17
ATOM     17  C   UNL     1       9.166  20.509  35.481  1.00  0.00     0.000 C 
BRANCH  17  18
ATOM     18  C   UNL     1      10.233  19.766  36.307  1.00  0.00     0.000 C 
BRANCH  18  19
ATOM     19  C   UNL     1      11.644  20.376  36.238  1.00  0.00     0.000 C 
BRANCH  19  20
ATOM     20  C   UNL     1      12.731  19.373  35.789  1.00  0.00     0.006 C 
BRANCH  20  21
ATOM     21  C   UNL     1      12.173  17.962  35.568  1.00  0.00     0.053 C 
BRANCH  21  22
ATOM     22  C   UNL     1      12.738  17.009  36.574  1.00  0.00     0.041 C 
ATOM     23  O   UNL     1      12.643  17.258  37.806  1.00  0.00    -0.550 OA
ATOM     24  O   UNL     1      13.321  15.819  36.154  1.00  0.00    -0.550 OA
ENDBRANCH  21  22
ENDBRANCH  20  21
ENDBRANCH  19  20
ENDBRANCH  18  19
ENDBRANCH  17  18
ENDBRANCH  16  17
ENDBRANCH  15  16
ENDBRANCH  14  15
ENDBRANCH  13  14
ENDBRANCH   1  13
TORSDOF 20
ENDMDL
MODEL 2
REMARK VINA RESULT:    -4.803      2.665      6.042
REMARK INTER + INTRA:         -14.212
REMARK INTER:                 -10.564
REMARK INTRA:                  -3.648
REMARK UNBOUND:                -3.793
REMARK SMILES CCCCCCCCCCCCCCCCCCCCCC(=O)[O-]
REMARK SMILES IDX 12 1 11 2 10 3 9 4 8 5 7 6 6 7 5 8 4 9 3 10 2 11 1 12 13 13
REMARK SMILES IDX 14 14 15 15 16 16 17 17 18 18 19 19 20 20 21 21 22 22 23 23
REMARK SMILES IDX 24 24
REMARK H PARENT
REMARK Flexibility Score: inf
ROOT
ATOM      1  C   UNL     1       7.960  17.704  35.202  1.00  0.00     0.000 C 
ENDROOT
BRANCH   1   2
ATOM      2  C   UNL     1       8.979  16.616  35.585  1.00  0.00     0.000 C 
BRANCH   2   3
ATOM      3  C   UNL     1       9.928  17.057  36.714  1.00  0.00     0.000 C 
BRANCH   3   4
ATOM      4  C   UNL     1      11.337  17.481  36.259  1.00  0.00    -0.000 C 
BRANCH   4   5
ATOM      5  C   UNL     1      12.082  18.309  37.319  1.00  0.00    -0.000 C 
BRANCH   5   6
ATOM      6  C   UNL     1      12.324  19.758  36.868  1.00  0.00    -0.000 C 
BRANCH   6   7
ATOM      7  C   UNL     1      11.476  20.146  35.646  1.00  0.00    -0.000 C 
BRANCH   7   8
ATOM      8  C   UNL     1      10.486  21.267  35.998  1.00  0.00    -0.000 C 
BRANCH   8   9
ATOM      9  C   UNL     1       9.152  20.728  36.538  1.00  0.00    -0.000 C 
BRANCH   9  10
ATOM     10  C   UNL     1       9.041  20.847  38.066  1.00  0.00    -0.000 C 
BRANCH  10  11
ATOM     11  C   UNL     1       8.410  19.586  38.669  1.00  0.00    -0.003 C 
ATOM     12  C   UNL     1       9.268  19.026  39.800  1.00  0.00     0.004 C 
ENDBRANCH  10  11
ENDBRANCH   9  10
ENDBRANCH   8   9
ENDBRANCH   7   8
ENDBRANCH   6   7
ENDBRANCH   5   6
ENDBRANCH   4   5
ENDBRANCH   3   4
ENDBRANCH   2   3
ENDBRANCH   1   2
BRANCH   1  13
ATOM     13  C   UNL     1       8.283  18.378  33.855  1.00  0.00     0.000 C 
BRANCH  13  14
ATOM     14  C   UNL     1       9.485  17.787  33.086  1.00  0.00     0.000 C 
BRANCH  14  15
ATOM     15  C   UNL     1      10.054  18.679  31.965  1.00  0.00     0.000 C 
BRANCH  15  16
ATOM     16  C   UNL     1       9.545  18.283  30.568  1.00  0.00     0.000 C 
BRANCH  16  17
ATOM     17  C   UNL     1       8.725  19.402  29.888  1.00  0.00     0.000 C 
BRANCH  17  18
ATOM     18  C   UNL     1       8.248  20.509  30.848  1.00  0.00     0.000 C 
BRANCH  18  19
ATOM     19  C   UNL     1       8.277  21.930  30.259  1.00  0.00     0.000 C 
BRANCH  19  20
ATOM     20  C   UNL     1       9.003  22.957  31.158  1.00  0.00     0.006 C 
BRANCH  20  21
ATOM     21  C   UNL     1       9.486  22.344  32.478  1.00  0.00     0.053 C 
BRANCH  21  22
ATOM     22  C   UNL     1      10.931  22.660  32.708  1.00  0.00     0.041 C 
ATOM     23  O   UNL     1      11.273  23.805  33.108  1.00  0.00    -0.550 OA
ATOM     24  O   UNL     1      11.895  21.675  32.531  1.00  0.00    -0.550 OA
ENDBRANCH  21  22
ENDBRANCH  20  21
ENDBRANCH  19  20
ENDBRANCH  18  19
ENDBRANCH  17  18
ENDBRANCH  16  17
ENDBRANCH  15  16
ENDBRANCH  14  15
ENDBRANCH  13  14
ENDBRANCH   1  13
TORSDOF 20
ENDMDL
MODEL 3
REMARK VINA RESULT:    -4.793      1.610      2.636
REMARK INTER + INTRA:         -14.191
REMARK INTER:                 -11.617
REMARK INTRA:                  -2.574
REMARK UNBOUND:                -3.793
REMARK SMILES CCCCCCCCCCCCCCCCCCCCCC(=O)[O-]
REMARK SMILES IDX 12 1 11 2 10 3 9 4 8 5 7 6 6 7 5 8 4 9 3 10 2 11 1 12 13 13
REMARK SMILES IDX 14 14 15 15 16 16 17 17 18 18 19 19 20 20 21 21 22 22 23 23
REMARK SMILES IDX 24 24
REMARK H PARENT
REMARK Flexibility Score: inf
ROOT
ATOM      1  C   UNL     1      10.230  17.174  33.615  1.00  0.00     0.000 C 
ENDROOT
BRANCH   1   2
ATOM      2  C   UNL     1      10.003  18.165  32.459  1.00  0.00     0.000 C 
BRANCH   2   3
ATOM      3  C   UNL     1       9.944  17.475  31.084  1.00  0.00     0.000 C 
BRANCH   3   4
ATOM      4  C   UNL     1       9.241  18.281  29.976  1.00  0.00    -0.000 C 
BRANCH   4   5
ATOM      5  C   UNL     1       8.595  19.575  30.498  1.00  0.00    -0.000 C 
BRANCH   5   6
ATOM      6  C   UNL     1       8.009  20.436  29.367  1.00  0.00    -0.000 C 
BRANCH   6   7
ATOM      7  C   UNL     1       7.959  21.929  29.727  1.00  0.00    -0.000 C 
BRANCH   7   8
ATOM      8  C   UNL     1       8.951  22.256  30.854  1.00  0.00    -0.000 C 
BRANCH   8   9
ATOM      9  C   UNL     1       8.256  22.797  32.114  1.00  0.00    -0.000 C 
BRANCH   9  10
ATOM     10  C   UNL     1       9.248  23.378  33.133  1.00  0.00    -0.000 C 
BRANCH  10  11
ATOM     11  C   UNL     1       9.547  22.365  34.246  1.00  0.00    -0.003 C 
ATOM     12  C   UNL     1       9.168  22.924  35.615  1.00  0.00     0.004 C 
ENDBRANCH  10  11
ENDBRANCH   9  10
ENDBRANCH   8   9
ENDBRANCH   7   8
ENDBRANCH   6   7
ENDBRANCH   5   6
ENDBRANCH   4   5
ENDBRANCH   3   4
ENDBRANCH   2   3
ENDBRANCH   1   2
BRANCH   1  13
ATOM     13  C   UNL     1       9.009  17.051  34.546  1.00  0.00     0.000 C 
BRANCH  13  14
ATOM     14  C   UNL     1       8.038  18.254  34.534  1.00  0.00     0.000 C 
BRANCH  14  15
ATOM     15  C   UNL     1       8.251  19.284  35.659  1.00  0.00     0.000 C 
BRANCH  15  16
ATOM     16  C   UNL     1       9.060  18.723  36.840  1.00  0.00     0.000 C 
BRANCH  16  17
ATOM     17  C   UNL     1      10.376  19.493  37.088  1.00  0.00     0.000 C 
BRANCH  17  18
ATOM     18  C   UNL     1      11.636  18.777  36.563  1.00  0.00     0.000 C 
BRANCH  18  19
ATOM     19  C   UNL     1      11.878  17.378  37.157  1.00  0.00     0.000 C 
BRANCH  19  20
ATOM     20  C   UNL     1      12.682  16.441  36.227  1.00  0.00     0.006 C 
BRANCH  20  21
ATOM     21  C   UNL     1      13.967  17.096  35.702  1.00  0.00     0.053 C 
BRANCH  21  22
ATOM     22  C   UNL     1      15.150  16.644  36.499  1.00  0.00     0.041 C 
ATOM     23  O   UNL     1      16.120  17.425  36.692  1.00  0.00    -0.550 OA
ATOM     24  O   UNL     1      15.159  15.379  37.074  1.00  0.00    -0.550 OA
ENDBRANCH  21  22
ENDBRANCH  20  21
ENDBRANCH  19  20
ENDBRANCH  18  19
ENDBRANCH  17  18
ENDBRANCH  16  17
ENDBRANCH  15  16
ENDBRANCH  14  15
ENDBRANCH  13  14
ENDBRANCH   1  13
TORSDOF 20
ENDMDL
MODEL 4
REMARK VINA RESULT:    -4.791      3.262      5.718
REMARK INTER + INTRA:         -14.186
REMARK INTER:                 -11.052
REMARK INTRA:                  -3.134
REMARK UNBOUND:                -3.793
REMARK SMILES CCCCCCCCCCCCCCCCCCCCCC(=O)[O-]
REMARK SMILES IDX 12 1 11 2 10 3 9 4 8 5 7 6 6 7 5 8 4 9 3 10 2 11 1 12 13 13
REMARK SMILES IDX 14 14 15 15 16 16 17 17 18 18 19 19 20 20 21 21 22 22 23 23
REMARK SMILES IDX 24 24
REMARK H PARENT
REMARK Flexibility Score: inf
ROOT
ATOM      1  C   UNL     1       9.204  17.157  34.491  1.00  0.00     0.000 C 
ENDROOT
BRANCH   1   2
ATOM      2  C   UNL     1       8.111  18.214  34.256  1.00  0.00     0.000 C 
BRANCH   2   3
ATOM      3  C   UNL     1       8.333  19.496  35.079  1.00  0.00     0.000 C 
BRANCH   3   4
ATOM      4  C   UNL     1       9.045  19.294  36.429  1.00  0.00    -0.000 C 
BRANCH   4   5
ATOM      5  C   UNL     1      10.529  19.695  36.387  1.00  0.00    -0.000 C 
BRANCH   5   6
ATOM      6  C   UNL     1      10.787  20.889  35.453  1.00  0.00    -0.000 C 
BRANCH   6   7
ATOM      7  C   UNL     1      10.854  22.226  36.210  1.00  0.00    -0.000 C 
BRANCH   7   8
ATOM      8  C   UNL     1       9.486  22.926  36.209  1.00  0.00    -0.000 C 
BRANCH   8   9
ATOM      9  C   UNL     1       8.790  22.860  37.578  1.00  0.00    -0.000 C 
BRANCH   9  10
ATOM     10  C   UNL     1       9.739  22.424  38.704  1.00  0.00    -0.000 C 
BRANCH  10  11
ATOM     11  C   UNL     1       9.908  23.543  39.741  1.00  0.00    -0.003 C 
ATOM     12  C   UNL     1       9.289  24.848  39.249  1.00  0.00     0.004 C 
ENDBRANCH  10  11
ENDBRANCH   9  10
ENDBRANCH   8   9
ENDBRANCH   7   8
ENDBRANCH   6   7
ENDBRANCH   5   6
ENDBRANCH   4   5
ENDBRANCH   3   4
ENDBRANCH   2   3
ENDBRANCH   1   2
BRANCH   1  13
ATOM     13  C   UNL     1      10.154  17.001  33.288  1.00  0.00     0.000 C 
BRANCH  13  14
ATOM     14  C   UNL     1      10.136  18.164  32.271  1.00  0.00     0.000 C 
BRANCH  14  15
ATOM     15  C   UNL     1       9.817  17.763  30.817  1.00  0.00     0.000 C 
BRANCH  15  16
ATOM     16  C   UNL     1       9.056  18.857  30.049  1.00  0.00     0.000 C 
BRANCH  16  17
ATOM     17  C   UNL     1       8.373  19.882  30.980  1.00  0.00     0.000 C 
BRANCH  17  18
ATOM     18  C   UNL     1       8.097  21.248  30.321  1.00  0.00     0.000 C 
BRANCH  18  19
ATOM     19  C   UNL     1       8.055  22.438  31.296  1.00  0.00     0.000 C 
BRANCH  19  20
ATOM     20  C   UNL     1       9.008  22.281  32.504  1.00  0.00     0.006 C 
BRANCH  20  21
ATOM     21  C   UNL     1      10.473  22.548  32.135  1.00  0.00     0.053 C 
BRANCH  21  22
ATOM     22  C   UNL     1      10.800  24.000  32.298  1.00  0.00     0.041 C 
ATOM     23  O   UNL     1      11.091  24.459  33.435  1.00  0.00    -0.550 OA
ATOM     24  O   UNL     1      10.835  24.834  31.188  1.00  0.00    -0.550 OA
ENDBRANCH  21  22
ENDBRANCH  20  21
ENDBRANCH  19  20
ENDBRANCH  18  19
ENDBRANCH  17  18
ENDBRANCH  16  17
ENDBRANCH  15  16
ENDBRANCH  14  15
ENDBRANCH  13  14
ENDBRANCH   1  13
TORSDOF 20
ENDMDL
MODEL 5
REMARK VINA RESULT:    -4.765      1.467      2.303
REMARK INTER + INTRA:         -14.128
REMARK INTER:                 -11.074
REMARK INTRA:                  -3.054
REMARK UNBOUND:                -3.793
REMARK SMILES CCCCCCCCCCCCCCCCCCCCCC(=O)[O-]
REMARK SMILES IDX 12 1 11 2 10 3 9 4 8 5 7 6 6 7 5 8 4 9 3 10 2 11 1 12 13 13
REMARK SMILES IDX 14 14 15 15 16 16 17 17 18 18 19 19 20 20 21 21 22 22 23 23
REMARK SMILES IDX 24 24
REMARK H PARENT
REMARK Flexibility Score: inf
ROOT
ATOM      1  C   UNL     1      10.114  18.584  31.942  1.00  0.00     0.000 C 
ENDROOT
BRANCH   1   2
ATOM      2  C   UNL     1       9.469  18.734  30.553  1.00  0.00     0.000 C 
BRANCH   2   3
ATOM      3  C   UNL     1       8.220  19.634  30.568  1.00  0.00     0.000 C 
BRANCH   3   4
ATOM      4  C   UNL     1       8.191  20.736  29.493  1.00  0.00    -0.000 C 
BRANCH   4   5
ATOM      5  C   UNL     1       7.929  22.133  30.078  1.00  0.00    -0.000 C 
BRANCH   5   6
ATOM      6  C   UNL     1       8.478  22.283  31.506  1.00  0.00    -0.000 C 
BRANCH   6   7
ATOM      7  C   UNL     1       9.809  23.050  31.550  1.00  0.00    -0.000 C 
BRANCH   7   8
ATOM      8  C   UNL     1      10.648  22.626  32.765  1.00  0.00    -0.000 C 
BRANCH   8   9
ATOM      9  C   UNL     1       9.859  21.744  33.747  1.00  0.00    -0.000 C 
BRANCH   9  10
ATOM     10  C   UNL     1      10.773  20.898  34.647  1.00  0.00    -0.000 C 
BRANCH  10  11
ATOM     11  C   UNL     1      10.391  21.062  36.124  1.00  0.00    -0.003 C 
ATOM     12  C   UNL     1       9.277  22.092  36.294  1.00  0.00     0.004 C 
ENDBRANCH  10  11
ENDBRANCH   9  10
ENDBRANCH   8   9
ENDBRANCH   7   8
ENDBRANCH   6   7
ENDBRANCH   5   6
ENDBRANCH   4   5
ENDBRANCH   3   4
ENDBRANCH   2   3
ENDBRANCH   1   2
BRANCH   1  13
ATOM     13  C   UNL     1       9.300  17.676  32.884  1.00  0.00     0.000 C 
BRANCH  13  14
ATOM     14  C   UNL     1       8.263  18.398  33.773  1.00  0.00     0.000 C 
BRANCH  14  15
ATOM     15  C   UNL     1       8.290  18.012  35.264  1.00  0.00     0.000 C 
BRANCH  15  16
ATOM     16  C   UNL     1       9.283  16.877  35.572  1.00  0.00     0.000 C 
BRANCH  16  17
ATOM     17  C   UNL     1      10.448  17.327  36.480  1.00  0.00     0.000 C 
BRANCH  17  18
ATOM     18  C   UNL     1      11.823  17.336  35.786  1.00  0.00     0.000 C 
BRANCH  18  19
ATOM     19  C   UNL     1      12.958  17.970  36.609  1.00  0.00     0.000 C 
BRANCH  19  20
ATOM     20  C   UNL     1      13.164  17.307  37.991  1.00  0.00     0.006 C 
BRANCH  20  21
ATOM     21  C   UNL     1      14.623  16.903  38.238  1.00  0.00     0.053 C 
BRANCH  21  22
ATOM     22  C   UNL     1      15.073  15.908  37.214  1.00  0.00     0.041 C 
ATOM     23  O   UNL     1      14.583  14.747  37.202  1.00  0.00    -0.550 OA
ATOM     24  O   UNL     1      15.992  16.279  36.241  1.00  0.00    -0.550 OA
ENDBRANCH  21  22
ENDBRANCH  20  21
ENDBRANCH  19  20
ENDBRANCH  18  19
ENDBRANCH  17  18
ENDBRANCH  16  17
ENDBRANCH  15  16
ENDBRANCH  14  15
ENDBRANCH  13  14
ENDBRANCH   1  13
TORSDOF 20
ENDMDL
MODEL 6
REMARK VINA RESULT:    -4.761      2.438      5.614
REMARK INTER + INTRA:         -14.121
REMARK INTER:                 -10.940
REMARK INTRA:                  -3.181
REMARK UNBOUND:                -3.793
REMARK SMILES CCCCCCCCCCCCCCCCCCCCCC(=O)[O-]
REMARK SMILES IDX 12 1 11 2 10 3 9 4 8 5 7 6 6 7 5 8 4 9 3 10 2 11 1 12 13 13
REMARK SMILES IDX 14 14 15 15 16 16 17 17 18 18 19 19 20 20 21 21 22 22 23 23
REMARK SMILES IDX 24 24
REMARK H PARENT
REMARK Flexibility Score: inf
ROOT
ATOM      1  C   UNL     1      10.093  17.396  31.048  1.00  0.00     0.000 C 
ENDROOT
BRANCH   1   2
ATOM      2  C   UNL     1      10.151  18.130  32.400  1.00  0.00     0.000 C 
BRANCH   2   3
ATOM      3  C   UNL     1       9.374  17.400  33.510  1.00  0.00     0.000 C 
BRANCH   3   4
ATOM      4  C   UNL     1       8.157  18.162  34.068  1.00  0.00    -0.000 C 
BRANCH   4   5
ATOM      5  C   UNL     1       8.417  19.669  34.222  1.00  0.00    -0.000 C 
BRANCH   5   6
ATOM      6  C   UNL     1       9.170  20.006  35.519  1.00  0.00    -0.000 C 
BRANCH   6   7
ATOM      7  C   UNL     1      10.653  20.328  35.274  1.00  0.00    -0.000 C 
BRANCH   7   8
ATOM      8  C   UNL     1      11.553  19.540  36.238  1.00  0.00    -0.000 C 
BRANCH   8   9
ATOM      9  C   UNL     1      10.772  18.503  37.059  1.00  0.00    -0.000 C 
BRANCH   9  10
ATOM     10  C   UNL     1      11.161  17.058  36.711  1.00  0.00    -0.000 C 
BRANCH  10  11
ATOM     11  C   UNL     1      12.351  17.030  35.743  1.00  0.00    -0.003 C 
ATOM     12  C   UNL     1      13.418  16.044  36.210  1.00  0.00     0.004 C 
ENDBRANCH  10  11
ENDBRANCH   9  10
ENDBRANCH   8   9
ENDBRANCH   7   8
ENDBRANCH   6   7
ENDBRANCH   5   6
ENDBRANCH   4   5
ENDBRANCH   3   4
ENDBRANCH   2   3
ENDBRANCH   1   2
BRANCH   1  13
ATOM     13  C   UNL     1       9.358  18.202  29.961  1.00  0.00     0.000 C 
BRANCH  13  14
ATOM     14  C   UNL     1       8.543  19.414  30.466  1.00  0.00     0.000 C 
BRANCH  14  15
ATOM     15  C   UNL     1       8.098  20.409  29.378  1.00  0.00     0.000 C 
BRANCH  15  16
ATOM     16  C   UNL     1       8.111  21.870  29.860  1.00  0.00     0.000 C 
BRANCH  16  17
ATOM     17  C   UNL     1       8.018  21.997  31.396  1.00  0.00     0.000 C 
BRANCH  17  18
ATOM     18  C   UNL     1       9.325  22.453  32.073  1.00  0.00     0.000 C 
BRANCH  18  19
ATOM     19  C   UNL     1       9.220  23.775  32.854  1.00  0.00     0.000 C 
BRANCH  19  20
ATOM     20  C   UNL     1       8.992  23.581  34.371  1.00  0.00     0.006 C 
BRANCH  20  21
ATOM     21  C   UNL     1      10.245  23.897  35.198  1.00  0.00     0.053 C 
BRANCH  21  22
ATOM     22  C   UNL     1       9.925  23.890  36.661  1.00  0.00     0.041 C 
ATOM     23  O   UNL     1       9.186  22.991  37.143  1.00  0.00    -0.550 OA
ATOM     24  O   UNL     1      10.486  24.846  37.499  1.00  0.00    -0.550 OA
ENDBRANCH  21  22
ENDBRANCH  20  21
ENDBRANCH  19  20
ENDBRANCH  18  19
ENDBRANCH  17  18
ENDBRANCH  16  17
ENDBRANCH  15  16
ENDBRANCH  14  15
ENDBRANCH  13  14
ENDBRANCH   1  13
TORSDOF 20
ENDMDL
MODEL 7
REMARK VINA RESULT:    -4.687      2.982      5.171
REMARK INTER + INTRA:         -13.960
REMARK INTER:                 -11.038
REMARK INTRA:                  -2.922
REMARK UNBOUND:                -3.793
REMARK SMILES CCCCCCCCCCCCCCCCCCCCCC(=O)[O-]
REMARK SMILES IDX 12 1 11 2 10 3 9 4 8 5 7 6 6 7 5 8 4 9 3 10 2 11 1 12 13 13
REMARK SMILES IDX 14 14 15 15 16 16 17 17 18 18 19 19 20 20 21 21 22 22 23 23
REMARK SMILES IDX 24 24
REMARK H PARENT
REMARK Flexibility Score: inf
ROOT
ATOM      1  C   UNL     1      10.145  18.218  32.258  1.00  0.00     0.000 C 
ENDROOT
BRANCH   1   2
ATOM      2  C   UNL     1      10.132  16.997  33.195  1.00  0.00     0.000 C 
BRANCH   2   3
ATOM      3  C   UNL     1       9.174  17.170  34.388  1.00  0.00     0.000 C 
BRANCH   3   4
ATOM      4  C   UNL     1       8.145  18.307  34.244  1.00  0.00    -0.000 C 
BRANCH   4   5
ATOM      5  C   UNL     1       8.304  19.394  35.319  1.00  0.00    -0.000 C 
BRANCH   5   6
ATOM      6  C   UNL     1       9.708  20.022  35.316  1.00  0.00    -0.000 C 
BRANCH   6   7
ATOM      7  C   UNL     1      10.111  20.572  36.693  1.00  0.00    -0.000 C 
BRANCH   7   8
ATOM      8  C   UNL     1       8.917  21.243  37.388  1.00  0.00    -0.000 C 
BRANCH   8   9
ATOM      9  C   UNL     1       8.853  22.756  37.122  1.00  0.00    -0.000 C 
BRANCH   9  10
ATOM     10  C   UNL     1      10.134  23.486  37.553  1.00  0.00    -0.000 C 
BRANCH  10  11
ATOM     11  C   UNL     1      10.142  23.730  39.068  1.00  0.00    -0.003 C 
ATOM     12  C   UNL     1       9.234  24.899  39.442  1.00  0.00     0.004 C 
ENDBRANCH  10  11
ENDBRANCH   9  10
ENDBRANCH   8   9
ENDBRANCH   7   8
ENDBRANCH   6   7
ENDBRANCH   5   6
ENDBRANCH   4   5
ENDBRANCH   3   4
ENDBRANCH   2   3
ENDBRANCH   1   2
BRANCH   1  13
ATOM     13  C   UNL     1       9.749  17.867  30.812  1.00  0.00     0.000 C 
BRANCH  13  14
ATOM     14  C   UNL     1       8.982  18.968  30.045  1.00  0.00     0.000 C 
BRANCH  14  15
ATOM     15  C   UNL     1       8.283  20.021  30.927  1.00  0.00     0.000 C 
BRANCH  15  16
ATOM     16  C   UNL     1       8.128  21.381  30.226  1.00  0.00     0.000 C 
BRANCH  16  17
ATOM     17  C   UNL     1       8.097  22.567  31.216  1.00  0.00     0.000 C 
BRANCH  17  18
ATOM     18  C   UNL     1       8.608  22.225  32.628  1.00  0.00     0.000 C 
BRANCH  18  19
ATOM     19  C   UNL     1       9.157  23.422  33.424  1.00  0.00     0.000 C 
BRANCH  19  20
ATOM     20  C   UNL     1      10.626  23.247  33.872  1.00  0.00     0.006 C 
BRANCH  20  21
ATOM     21  C   UNL     1      11.521  22.703  32.751  1.00  0.00     0.053 C 
BRANCH  21  22
ATOM     22  C   UNL     1      12.775  23.513  32.640  1.00  0.00     0.041 C 
ATOM     23  O   UNL     1      13.746  23.285  33.410  1.00  0.00    -0.550 OA
ATOM     24  O   UNL     1      12.891  24.482  31.651  1.00  0.00    -0.550 OA
ENDBRANCH  21  22
ENDBRANCH  20  21
ENDBRANCH  19  20
ENDBRANCH  18  19
ENDBRANCH  17  18
ENDBRANCH  16  17
ENDBRANCH  15  16
ENDBRANCH  14  15
ENDBRANCH  13  14
ENDBRANCH   1  13
TORSDOF 20
ENDMDL
MODEL 8
REMARK VINA RESULT:    -4.686      3.335      5.974
REMARK INTER + INTRA:         -13.957
REMARK INTER:                 -10.459
REMARK INTRA:                  -3.498
REMARK UNBOUND:                -3.793
REMARK SMILES CCCCCCCCCCCCCCCCCCCCCC(=O)[O-]
REMARK SMILES IDX 12 1 11 2 10 3 9 4 8 5 7 6 6 7 5 8 4 9 3 10 2 11 1 12 13 13
REMARK SMILES IDX 14 14 15 15 16 16 17 17 18 18 19 19 20 20 21 21 22 22 23 23
REMARK SMILES IDX 24 24
REMARK H PARENT
REMARK Flexibility Score: inf
ROOT
ATOM      1  C   UNL     1       8.248  18.124  33.363  1.00  0.00     0.000 C 
ENDROOT
BRANCH   1   2
ATOM      2  C   UNL     1       8.017  18.988  34.616  1.00  0.00     0.000 C 
BRANCH   2   3
ATOM      3  C   UNL     1       8.180  18.197  35.926  1.00  0.00     0.000 C 
BRANCH   3   4
ATOM      4  C   UNL     1       8.986  18.911  37.027  1.00  0.00    -0.000 C 
BRANCH   4   5
ATOM      5  C   UNL     1       8.269  20.153  37.580  1.00  0.00    -0.000 C 
BRANCH   5   6
ATOM      6  C   UNL     1       9.253  21.235  38.055  1.00  0.00    -0.000 C 
BRANCH   6   7
ATOM      7  C   UNL     1       9.104  22.551  37.275  1.00  0.00    -0.000 C 
BRANCH   7   8
ATOM      8  C   UNL     1       9.215  22.308  35.761  1.00  0.00    -0.000 C 
BRANCH   8   9
ATOM      9  C   UNL     1      10.665  22.381  35.257  1.00  0.00    -0.000 C 
BRANCH   9  10
ATOM     10  C   UNL     1      11.144  21.058  34.641  1.00  0.00    -0.000 C 
BRANCH  10  11
ATOM     11  C   UNL     1      12.247  20.423  35.498  1.00  0.00    -0.003 C 
ATOM     12  C   UNL     1      12.256  18.904  35.347  1.00  0.00     0.004 C 
ENDBRANCH  10  11
ENDBRANCH   9  10
ENDBRANCH   8   9
ENDBRANCH   7   8
ENDBRANCH   6   7
ENDBRANCH   5   6
ENDBRANCH   4   5
ENDBRANCH   3   4
ENDBRANCH   2   3
ENDBRANCH   1   2
BRANCH   1  13
ATOM     13  C   UNL     1       9.713  18.138  32.888  1.00  0.00     0.000 C 
BRANCH  13  14
ATOM     14  C   UNL     1      10.006  19.028  31.659  1.00  0.00     0.000 C 
BRANCH  14  15
ATOM     15  C   UNL     1       8.990  18.915  30.506  1.00  0.00     0.000 C 
BRANCH  15  16
ATOM     16  C   UNL     1       8.227  20.226  30.250  1.00  0.00     0.000 C 
BRANCH  16  17
ATOM     17  C   UNL     1       8.354  21.233  31.414  1.00  0.00     0.000 C 
BRANCH  17  18
ATOM     18  C   UNL     1       8.905  22.611  30.999  1.00  0.00     0.000 C 
BRANCH  18  19
ATOM     19  C   UNL     1       9.270  23.540  32.171  1.00  0.00     0.000 C 
BRANCH  19  20
ATOM     20  C   UNL     1      10.386  24.555  31.831  1.00  0.00     0.006 C 
BRANCH  20  21
ATOM     21  C   UNL     1      11.788  24.004  32.119  1.00  0.00     0.053 C 
BRANCH  21  22
ATOM     22  C   UNL     1      12.831  25.030  31.805  1.00  0.00     0.041 C 
ATOM     23  O   UNL     1      12.537  26.255  31.815  1.00  0.00    -0.550 OA
ATOM     24  O   UNL     1      14.140  24.637  31.554  1.00  0.00    -0.550 OA
ENDBRANCH  21  22
ENDBRANCH  20  21
ENDBRANCH  19  20
ENDBRANCH  18  19
ENDBRANCH  17  18
ENDBRANCH  16  17
ENDBRANCH  15  16
ENDBRANCH  14  15
ENDBRANCH  13  14
ENDBRANCH   1  13
TORSDOF 20
ENDMDL
MODEL 9
REMARK VINA RESULT:    -4.682      2.718      5.583
REMARK INTER + INTRA:         -13.948
REMARK INTER:                 -10.279
REMARK INTRA:                  -3.669
REMARK UNBOUND:                -3.793
REMARK SMILES CCCCCCCCCCCCCCCCCCCCCC(=O)[O-]
REMARK SMILES IDX 12 1 11 2 10 3 9 4 8 5 7 6 6 7 5 8 4 9 3 10 2 11 1 12 13 13
REMARK SMILES IDX 14 14 15 15 16 16 17 17 18 18 19 19 20 20 21 21 22 22 23 23
REMARK SMILES IDX 24 24
REMARK H PARENT
REMARK Flexibility Score: inf
ROOT
ATOM      1  C   UNL     1      10.103  18.702  31.706  1.00  0.00     0.000 C 
ENDROOT
BRANCH   1   2
ATOM      2  C   UNL     1       9.616  17.799  32.853  1.00  0.00     0.000 C 
BRANCH   2   3
ATOM      3  C   UNL     1       8.329  18.320  33.518  1.00  0.00     0.000 C 
BRANCH   3   4
ATOM      4  C   UNL     1       8.123  17.883  34.980  1.00  0.00    -0.000 C 
BRANCH   4   5
ATOM      5  C   UNL     1       8.509  18.977  35.989  1.00  0.00    -0.000 C 
BRANCH   5   6
ATOM      6  C   UNL     1       9.792  18.634  36.764  1.00  0.00    -0.000 C 
BRANCH   6   7
ATOM      7  C   UNL     1      10.271  17.197  36.506  1.00  0.00    -0.000 C 
BRANCH   7   8
ATOM      8  C   UNL     1      11.715  17.185  35.980  1.00  0.00    -0.000 C 
BRANCH   8   9
ATOM      9  C   UNL     1      12.164  18.559  35.459  1.00  0.00    -0.000 C 
BRANCH   9  10
ATOM     10  C   UNL     1      13.442  19.063  36.146  1.00  0.00    -0.000 C 
BRANCH  10  11
ATOM     11  C   UNL     1      14.309  17.889  36.618  1.00  0.00    -0.003 C 
ATOM     12  C   UNL     1      15.610  17.811  35.823  1.00  0.00     0.004 C 
ENDBRANCH  10  11
ENDBRANCH   9  10
ENDBRANCH   8   9
ENDBRANCH   7   8
ENDBRANCH   6   7
ENDBRANCH   5   6
ENDBRANCH   4   5
ENDBRANCH   3   4
ENDBRANCH   2   3
ENDBRANCH   1   2
BRANCH   1  13
ATOM     13  C   UNL     1       9.370  18.430  30.378  1.00  0.00     0.000 C 
BRANCH  13  14
ATOM     14  C   UNL     1       8.633  19.642  29.764  1.00  0.00     0.000 C 
BRANCH  14  15
ATOM     15  C   UNL     1       8.027  20.629  30.780  1.00  0.00     0.000 C 
BRANCH  15  16
ATOM     16  C   UNL     1       8.502  22.076  30.565  1.00  0.00     0.000 C 
BRANCH  16  17
ATOM     17  C   UNL     1       9.412  22.586  31.703  1.00  0.00     0.000 C 
BRANCH  17  18
ATOM     18  C   UNL     1       9.069  22.013  33.092  1.00  0.00     0.000 C 
BRANCH  18  19
ATOM     19  C   UNL     1      10.283  21.545  33.914  1.00  0.00     0.000 C 
BRANCH  19  20
ATOM     20  C   UNL     1      11.633  21.731  33.185  1.00  0.00     0.006 C 
BRANCH  20  21
ATOM     21  C   UNL     1      12.629  22.567  33.999  1.00  0.00     0.053 C 
BRANCH  21  22
ATOM     22  C   UNL     1      12.177  23.992  34.079  1.00  0.00     0.041 C 
ATOM     23  O   UNL     1      12.043  24.551  35.200  1.00  0.00    -0.550 OA
ATOM     24  O   UNL     1      11.955  24.718  32.916  1.00  0.00    -0.550 OA
ENDBRANCH  21  22
ENDBRANCH  20  21
ENDBRANCH  19  20
ENDBRANCH  18  19
ENDBRANCH  17  18
ENDBRANCH  16  17
ENDBRANCH  15  16
ENDBRANCH  14  15
ENDBRANCH  13  14
ENDBRANCH   1  13
TORSDOF 20
ENDMDL
