MODEL 1
REMARK VINA RESULT:     5.679      0.000      0.000
REMARK INTER + INTRA:          10.242
REMARK INTER:                   8.334
REMARK INTRA:                   1.908
REMARK UNBOUND:                 1.908
REMARK SMILES O=c1c(O[C@H]2O[C@@H](CO)[C@@H](O)[C@@H](O)[C@@H]2O)c(-c2ccc(O)c(O)c2)oc2cc(O)cc(O)c12
REMARK SMILES IDX 4 1 3 2 16 3 25 4 2 5 26 6 1 7 33 8 27 9 31 10 28 11 30 12
REMARK SMILES IDX 17 13 18 14 19 15 20 16 24 17 22 18 21 19 23 21 32 23 29 25
REMARK SMILES IDX 5 27 14 28 6 29 12 30 7 31 10 32 15 33 13 35 8 37 9 38 11 40
REMARK H PARENT 21 20 23 22 32 24 29 26 15 34 13 36 9 39 11 41
REMARK Flexibility Score: inf
ROOT
ATOM      1  O   UNL     1      12.373 -10.886  27.377  1.00  0.00    -0.454 OA
ENDROOT
BRANCH   1   2
ATOM      2  C   UNL     1      13.563 -10.165  27.167  1.00  0.00     0.214 A 
ATOM      3  C   UNL     1      14.847 -10.734  27.339  1.00  0.00     0.180 A 
ATOM      4  O   UNL     1      15.933 -10.005  27.091  1.00  0.00    -0.452 OA
ATOM      5  C   UNL     1      13.472  -8.814  26.807  1.00  0.00     0.239 A 
ATOM      6  C   UNL     1      15.886  -8.727  26.727  1.00  0.00     0.146 A 
ATOM      7  O   UNL     1      12.334  -8.290  26.679  1.00  0.00    -0.285 OA
ATOM      8  C   UNL     1      14.647  -8.065  26.582  1.00  0.00     0.111 A 
ATOM      9  C   UNL     1      17.084  -8.037  26.513  1.00  0.00     0.094 A 
ATOM     10  C   UNL     1      14.636  -6.693  26.226  1.00  0.00     0.134 A 
ATOM     11  C   UNL     1      17.069  -6.686  26.159  1.00  0.00     0.123 A 
ATOM     12  C   UNL     1      15.848  -6.018  26.019  1.00  0.00     0.093 A 
BRANCH   3  13
ATOM     13  C   UNL     1      15.045 -12.110  27.835  1.00  0.00     0.025 A 
ATOM     14  C   UNL     1      15.256 -13.155  26.922  1.00  0.00     0.016 A 
ATOM     15  C   UNL     1      15.428 -14.464  27.379  1.00  0.00     0.051 A 
ATOM     16  C   UNL     1      15.412 -14.742  28.755  1.00  0.00     0.157 A 
ATOM     17  C   UNL     1      15.050 -12.385  29.212  1.00  0.00     0.062 A 
ATOM     18  C   UNL     1      15.231 -13.694  29.674  1.00  0.00     0.158 A 
BRANCH  16  19
ATOM     19  O   UNL     1      15.590 -16.046  29.208  1.00  0.00    -0.504 OA
ATOM     20  H   UNL     1      15.576 -16.836  28.576  1.00  0.00     0.293 HD
ENDBRANCH  16  19
BRANCH  18  21
ATOM     21  O   UNL     1      15.231 -13.932  31.048  1.00  0.00    -0.504 OA
ATOM     22  H   UNL     1      14.399 -14.215  31.549  1.00  0.00     0.293 HD
ENDBRANCH  18  21
ENDBRANCH   3  13
BRANCH  10  23
ATOM     23  O   UNL     1      13.433  -6.000  26.083  1.00  0.00    -0.507 OA
ATOM     24  H   UNL     1      12.570  -6.326  26.498  1.00  0.00     0.293 HD
ENDBRANCH  10  23
BRANCH  11  25
ATOM     25  O   UNL     1      18.274  -6.013  25.957  1.00  0.00    -0.508 OA
ATOM     26  H   UNL     1      19.075  -6.480  25.552  1.00  0.00     0.293 HD
ENDBRANCH  11  25
ENDBRANCH   1   2
BRANCH   1  27
ATOM     27  C   UNL     1      12.264 -12.098  28.130  1.00  0.00     0.339 C 
ATOM     28  C   UNL     1      10.859 -12.716  27.985  1.00  0.00     0.214 C 
ATOM     29  O   UNL     1      12.630 -11.881  29.489  1.00  0.00    -0.332 OA
ATOM     30  C   UNL     1       9.799 -11.876  28.736  1.00  0.00     0.180 C 
ATOM     31  C   UNL     1      11.718 -11.062  30.218  1.00  0.00     0.179 C 
ATOM     32  C   UNL     1      10.267 -11.613  30.176  1.00  0.00     0.177 C 
BRANCH  28  33
ATOM     33  O   UNL     1      10.886 -14.022  28.504  1.00  0.00    -0.384 OA
ATOM     34  H   UNL     1      11.016 -13.943  29.484  1.00  0.00     0.211 HD
ENDBRANCH  28  33
BRANCH  30  35
ATOM     35  O   UNL     1       9.540 -10.656  28.087  1.00  0.00    -0.387 OA
ATOM     36  H   UNL     1      10.336 -10.428  27.533  1.00  0.00     0.211 HD
ENDBRANCH  30  35
BRANCH  31  37
ATOM     37  C   UNL     1      11.876  -9.559  29.880  1.00  0.00     0.191 C 
BRANCH  37  38
ATOM     38  O   UNL     1      12.342  -8.851  31.001  1.00  0.00    -0.394 OA
ATOM     39  H   UNL     1      11.835  -8.001  31.024  1.00  0.00     0.210 HD
ENDBRANCH  37  38
ENDBRANCH  31  37
BRANCH  32  40
ATOM     40  O   UNL     1       9.364 -10.746  30.815  1.00  0.00    -0.387 OA
ATOM     41  H   UNL     1       9.422  -9.877  30.325  1.00  0.00     0.211 HD
ENDBRANCH  32  40
ENDBRANCH   1  27
TORSDOF 12
ENDMDL
MODEL 2
REMARK VINA RESULT:     5.922      0.840      2.141
REMARK INTER + INTRA:          10.600
REMARK INTER:                   9.963
REMARK INTRA:                   0.638
REMARK UNBOUND:                 1.908
REMARK SMILES O=c1c(O[C@H]2O[C@@H](CO)[C@@H](O)[C@@H](O)[C@@H]2O)c(-c2ccc(O)c(O)c2)oc2cc(O)cc(O)c12
REMARK SMILES IDX 4 1 3 2 16 3 25 4 2 5 26 6 1 7 33 8 27 9 31 10 28 11 30 12
REMARK SMILES IDX 17 13 18 14 19 15 20 16 24 17 22 18 21 19 23 21 32 23 29 25
REMARK SMILES IDX 5 27 14 28 6 29 12 30 7 31 10 32 15 33 13 35 8 37 9 38 11 40
REMARK H PARENT 21 20 23 22 32 24 29 26 15 34 13 36 9 39 11 41
REMARK Flexibility Score: inf
ROOT
ATOM      1  O   UNL     1      12.235 -10.910  27.693  1.00  0.00    -0.454 OA
ENDROOT
BRANCH   1   2
ATOM      2  C   UNL     1      13.420 -10.216  27.385  1.00  0.00     0.214 A 
ATOM      3  C   UNL     1      14.704 -10.801  27.497  1.00  0.00     0.180 A 
ATOM      4  O   UNL     1      15.782 -10.098  27.157  1.00  0.00    -0.452 OA
ATOM      5  C   UNL     1      13.327  -8.876  26.986  1.00  0.00     0.239 A 
ATOM      6  C   UNL     1      15.732  -8.833  26.753  1.00  0.00     0.146 A 
ATOM      7  O   UNL     1      12.190  -8.338  26.911  1.00  0.00    -0.285 OA
ATOM      8  C   UNL     1      14.496  -8.155  26.663  1.00  0.00     0.111 A 
ATOM      9  C   UNL     1      16.924  -8.171  26.442  1.00  0.00     0.094 A 
ATOM     10  C   UNL     1      14.482  -6.796  26.261  1.00  0.00     0.134 A 
ATOM     11  C   UNL     1      16.906  -6.832  26.044  1.00  0.00     0.123 A 
ATOM     12  C   UNL     1      15.689  -6.148  25.957  1.00  0.00     0.093 A 
BRANCH   3  13
ATOM     13  C   UNL     1      14.912 -12.163  28.026  1.00  0.00     0.025 A 
ATOM     14  C   UNL     1      15.191 -13.218  27.142  1.00  0.00     0.016 A 
ATOM     15  C   UNL     1      15.373 -14.514  27.630  1.00  0.00     0.051 A 
ATOM     16  C   UNL     1      15.300 -14.768  29.009  1.00  0.00     0.157 A 
ATOM     17  C   UNL     1      14.859 -12.415  29.406  1.00  0.00     0.062 A 
ATOM     18  C   UNL     1      15.051 -13.711  29.900  1.00  0.00     0.158 A 
BRANCH  16  19
ATOM     19  O   UNL     1      15.489 -16.060  29.493  1.00  0.00    -0.504 OA
ATOM     20  H   UNL     1      15.355 -16.288  30.470  1.00  0.00     0.293 HD
ENDBRANCH  16  19
BRANCH  18  21
ATOM     21  O   UNL     1      14.993 -13.925  31.276  1.00  0.00    -0.504 OA
ATOM     22  H   UNL     1      15.563 -14.621  31.741  1.00  0.00     0.293 HD
ENDBRANCH  18  21
ENDBRANCH   3  13
BRANCH  10  23
ATOM     23  O   UNL     1      13.284  -6.088  26.170  1.00  0.00    -0.507 OA
ATOM     24  H   UNL     1      12.519  -6.395  25.583  1.00  0.00     0.293 HD
ENDBRANCH  10  23
BRANCH  11  25
ATOM     25  O   UNL     1      18.107  -6.186  25.745  1.00  0.00    -0.508 OA
ATOM     26  H   UNL     1      18.821  -6.052  26.449  1.00  0.00     0.293 HD
ENDBRANCH  11  25
ENDBRANCH   1   2
BRANCH   1  27
ATOM     27  C   UNL     1      11.078 -10.335  28.309  1.00  0.00     0.339 C 
ATOM     28  C   UNL     1      11.406  -9.810  29.721  1.00  0.00     0.214 C 
ATOM     29  O   UNL     1       9.994 -11.258  28.306  1.00  0.00    -0.332 OA
ATOM     30  C   UNL     1      11.645 -10.975  30.710  1.00  0.00     0.180 C 
ATOM     31  C   UNL     1      10.184 -12.388  29.156  1.00  0.00     0.179 C 
ATOM     32  C   UNL     1      10.482 -11.978  30.623  1.00  0.00     0.177 C 
BRANCH  28  33
ATOM     33  O   UNL     1      10.334  -9.020  30.168  1.00  0.00    -0.384 OA
ATOM     34  H   UNL     1       9.531  -9.602  30.189  1.00  0.00     0.211 HD
ENDBRANCH  28  33
BRANCH  30  35
ATOM     35  O   UNL     1      12.863 -11.633  30.461  1.00  0.00    -0.387 OA
ATOM     36  H   UNL     1      13.211 -11.312  29.585  1.00  0.00     0.211 HD
ENDBRANCH  30  35
BRANCH  31  37
ATOM     37  C   UNL     1      11.147 -13.434  28.540  1.00  0.00     0.191 C 
BRANCH  37  38
ATOM     38  O   UNL     1      10.806 -13.685  27.201  1.00  0.00    -0.394 OA
ATOM     39  H   UNL     1       9.857 -13.967  27.202  1.00  0.00     0.210 HD
ENDBRANCH  37  38
ENDBRANCH  31  37
BRANCH  32  40
ATOM     40  O   UNL     1      10.763 -13.096  31.427  1.00  0.00    -0.387 OA
ATOM     41  H   UNL     1      11.489 -13.598  30.959  1.00  0.00     0.211 HD
ENDBRANCH  32  40
ENDBRANCH   1  27
TORSDOF 12
ENDMDL
MODEL 3
REMARK VINA RESULT:     6.512      1.505      1.602
REMARK INTER + INTRA:          11.465
REMARK INTER:                   9.573
REMARK INTRA:                   1.892
REMARK UNBOUND:                 1.908
REMARK SMILES O=c1c(O[C@H]2O[C@@H](CO)[C@@H](O)[C@@H](O)[C@@H]2O)c(-c2ccc(O)c(O)c2)oc2cc(O)cc(O)c12
REMARK SMILES IDX 4 1 3 2 16 3 25 4 2 5 26 6 1 7 33 8 27 9 31 10 28 11 30 12
REMARK SMILES IDX 17 13 18 14 19 15 20 16 24 17 22 18 21 19 23 21 32 23 29 25
REMARK SMILES IDX 5 27 14 28 6 29 12 30 7 31 10 32 15 33 13 35 8 37 9 38 11 40
REMARK H PARENT 21 20 23 22 32 24 29 26 15 34 13 36 9 39 11 41
REMARK Flexibility Score: inf
ROOT
ATOM      1  O   UNL     1      13.407 -11.037  29.194  1.00  0.00    -0.454 OA
ENDROOT
BRANCH   1   2
ATOM      2  C   UNL     1      13.930 -10.581  27.969  1.00  0.00     0.214 A 
ATOM      3  C   UNL     1      14.662 -11.413  27.089  1.00  0.00     0.180 A 
ATOM      4  O   UNL     1      15.101 -10.926  25.930  1.00  0.00    -0.452 OA
ATOM      5  C   UNL     1      13.750  -9.235  27.624  1.00  0.00     0.239 A 
ATOM      6  C   UNL     1      14.930  -9.661  25.558  1.00  0.00     0.146 A 
ATOM      7  O   UNL     1      13.125  -8.480  28.414  1.00  0.00    -0.285 OA
ATOM      8  C   UNL     1      14.257  -8.748  26.400  1.00  0.00     0.111 A 
ATOM      9  C   UNL     1      15.450  -9.237  24.332  1.00  0.00     0.094 A 
ATOM     10  C   UNL     1      14.122  -7.399  25.987  1.00  0.00     0.134 A 
ATOM     11  C   UNL     1      15.314  -7.908  23.927  1.00  0.00     0.123 A 
ATOM     12  C   UNL     1      14.654  -6.993  24.754  1.00  0.00     0.093 A 
BRANCH   3  13
ATOM     13  C   UNL     1      15.010 -12.808  27.421  1.00  0.00     0.025 A 
ATOM     14  C   UNL     1      15.478 -13.668  26.414  1.00  0.00     0.016 A 
ATOM     15  C   UNL     1      15.794 -14.995  26.713  1.00  0.00     0.051 A 
ATOM     16  C   UNL     1      15.666 -15.475  28.026  1.00  0.00     0.157 A 
ATOM     17  C   UNL     1      14.901 -13.284  28.737  1.00  0.00     0.062 A 
ATOM     18  C   UNL     1      15.226 -14.611  29.043  1.00  0.00     0.158 A 
BRANCH  16  19
ATOM     19  O   UNL     1      15.988 -16.796  28.323  1.00  0.00    -0.504 OA
ATOM     20  H   UNL     1      16.634 -17.328  27.753  1.00  0.00     0.293 HD
ENDBRANCH  16  19
BRANCH  18  21
ATOM     21  O   UNL     1      15.108 -15.049  30.362  1.00  0.00    -0.504 OA
ATOM     22  H   UNL     1      15.627 -14.626  31.121  1.00  0.00     0.293 HD
ENDBRANCH  18  21
ENDBRANCH   3  13
BRANCH  10  23
ATOM     23  O   UNL     1      13.473  -6.465  26.794  1.00  0.00    -0.507 OA
ATOM     24  H   UNL     1      12.634  -5.985  26.497  1.00  0.00     0.293 HD
ENDBRANCH  10  23
BRANCH  11  25
ATOM     25  O   UNL     1      15.846  -7.502  22.702  1.00  0.00    -0.508 OA
ATOM     26  H   UNL     1      15.454  -6.721  22.191  1.00  0.00     0.293 HD
ENDBRANCH  11  25
ENDBRANCH   1   2
BRANCH   1  27
ATOM     27  C   UNL     1      12.563 -12.181  29.356  1.00  0.00     0.339 C 
ATOM     28  C   UNL     1      11.688 -12.405  28.107  1.00  0.00     0.214 C 
ATOM     29  O   UNL     1      11.797 -12.076  30.551  1.00  0.00    -0.332 OA
ATOM     30  C   UNL     1      10.592 -11.320  27.990  1.00  0.00     0.180 C 
ATOM     31  C   UNL     1      10.807 -11.048  30.524  1.00  0.00     0.179 C 
ATOM     32  C   UNL     1       9.836 -11.197  29.322  1.00  0.00     0.177 C 
BRANCH  28  33
ATOM     33  O   UNL     1      11.091 -13.675  28.198  1.00  0.00    -0.384 OA
ATOM     34  H   UNL     1      10.803 -13.795  29.139  1.00  0.00     0.211 HD
ENDBRANCH  28  33
BRANCH  30  35
ATOM     35  O   UNL     1      11.128 -10.071  27.627  1.00  0.00    -0.387 OA
ATOM     36  H   UNL     1      10.445  -9.590  27.085  1.00  0.00     0.211 HD
ENDBRANCH  30  35
BRANCH  31  37
ATOM     37  C   UNL     1      11.416  -9.639  30.727  1.00  0.00     0.191 C 
BRANCH  37  38
ATOM     38  O   UNL     1      12.628  -9.724  31.431  1.00  0.00    -0.394 OA
ATOM     39  H   UNL     1      12.822  -8.813  31.765  1.00  0.00     0.210 HD
ENDBRANCH  37  38
ENDBRANCH  31  37
BRANCH  32  40
ATOM     40  O   UNL     1       8.929 -10.125  29.253  1.00  0.00    -0.387 OA
ATOM     41  H   UNL     1       8.919  -9.713  30.163  1.00  0.00     0.211 HD
ENDBRANCH  32  40
ENDBRANCH   1  27
TORSDOF 12
ENDMDL
MODEL 4
REMARK VINA RESULT:     6.558      1.482      5.953
REMARK INTER + INTRA:          11.534
REMARK INTER:                   8.131
REMARK INTRA:                   3.402
REMARK UNBOUND:                 1.908
REMARK SMILES O=c1c(O[C@H]2O[C@@H](CO)[C@@H](O)[C@@H](O)[C@@H]2O)c(-c2ccc(O)c(O)c2)oc2cc(O)cc(O)c12
REMARK SMILES IDX 4 1 3 2 16 3 25 4 2 5 26 6 1 7 33 8 27 9 31 10 28 11 30 12
REMARK SMILES IDX 17 13 18 14 19 15 20 16 24 17 22 18 21 19 23 21 32 23 29 25
REMARK SMILES IDX 5 27 14 28 6 29 12 30 7 31 10 32 15 33 13 35 8 37 9 38 11 40
REMARK H PARENT 21 20 23 22 32 24 29 26 15 34 13 36 9 39 11 41
REMARK Flexibility Score: inf
ROOT
ATOM      1  O   UNL     1      13.806 -11.219  30.055  1.00  0.00    -0.454 OA
ENDROOT
BRANCH   1   2
ATOM      2  C   UNL     1      14.346 -12.147  29.144  1.00  0.00     0.214 A 
ATOM      3  C   UNL     1      14.757 -11.791  27.838  1.00  0.00     0.180 A 
ATOM      4  O   UNL     1      15.290 -12.713  27.038  1.00  0.00    -0.452 OA
ATOM      5  C   UNL     1      14.445 -13.488  29.536  1.00  0.00     0.239 A 
ATOM      6  C   UNL     1      15.421 -13.990  27.382  1.00  0.00     0.146 A 
ATOM      7  O   UNL     1      14.055 -13.820  30.686  1.00  0.00    -0.285 OA
ATOM      8  C   UNL     1      14.988 -14.442  28.648  1.00  0.00     0.111 A 
ATOM      9  C   UNL     1      15.970 -14.889  26.463  1.00  0.00     0.094 A 
ATOM     10  C   UNL     1      15.112 -15.817  28.969  1.00  0.00     0.134 A 
ATOM     11  C   UNL     1      16.093 -16.242  26.783  1.00  0.00     0.123 A 
ATOM     12  C   UNL     1      15.662 -16.703  28.032  1.00  0.00     0.093 A 
BRANCH   3  13
ATOM     13  C   UNL     1      14.577 -10.432  27.291  1.00  0.00     0.025 A 
ATOM     14  C   UNL     1      13.285  -9.892  27.179  1.00  0.00     0.016 A 
ATOM     15  C   UNL     1      13.102  -8.613  26.647  1.00  0.00     0.051 A 
ATOM     16  C   UNL     1      14.207  -7.850  26.242  1.00  0.00     0.157 A 
ATOM     17  C   UNL     1      15.683  -9.660  26.904  1.00  0.00     0.062 A 
ATOM     18  C   UNL     1      15.504  -8.373  26.381  1.00  0.00     0.158 A 
BRANCH  16  19
ATOM     19  O   UNL     1      14.022  -6.573  25.720  1.00  0.00    -0.504 OA
ATOM     20  H   UNL     1      14.578  -6.226  24.949  1.00  0.00     0.293 HD
ENDBRANCH  16  19
BRANCH  18  21
ATOM     21  O   UNL     1      16.625  -7.634  26.008  1.00  0.00    -0.504 OA
ATOM     22  H   UNL     1      17.556  -8.031  25.995  1.00  0.00     0.293 HD
ENDBRANCH  18  21
ENDBRANCH   3  13
BRANCH  10  23
ATOM     23  O   UNL     1      14.686 -16.305  30.205  1.00  0.00    -0.507 OA
ATOM     24  H   UNL     1      14.344 -15.697  30.937  1.00  0.00     0.293 HD
ENDBRANCH  10  23
BRANCH  11  25
ATOM     25  O   UNL     1      16.638 -17.125  25.849  1.00  0.00    -0.508 OA
ATOM     26  H   UNL     1      16.645 -16.907  24.861  1.00  0.00     0.293 HD
ENDBRANCH  11  25
ENDBRANCH   1   2
BRANCH   1  27
ATOM     27  C   UNL     1      12.804 -11.510  31.034  1.00  0.00     0.339 C 
ATOM     28  C   UNL     1      11.790 -12.541  30.499  1.00  0.00     0.214 C 
ATOM     29  O   UNL     1      12.181 -10.314  31.488  1.00  0.00    -0.332 OA
ATOM     30  C   UNL     1      10.882 -11.921  29.411  1.00  0.00     0.180 C 
ATOM     31  C   UNL     1      11.377  -9.663  30.506  1.00  0.00     0.179 C 
ATOM     32  C   UNL     1      10.285 -10.600  29.923  1.00  0.00     0.177 C 
BRANCH  28  33
ATOM     33  O   UNL     1      11.003 -12.997  31.570  1.00  0.00    -0.384 OA
ATOM     34  H   UNL     1      10.790 -13.949  31.391  1.00  0.00     0.211 HD
ENDBRANCH  28  33
BRANCH  30  35
ATOM     35  O   UNL     1      11.581 -11.696  28.211  1.00  0.00    -0.387 OA
ATOM     36  H   UNL     1      11.473 -10.736  27.968  1.00  0.00     0.211 HD
ENDBRANCH  30  35
BRANCH  31  37
ATOM     37  C   UNL     1      12.226  -8.889  29.468  1.00  0.00     0.191 C 
BRANCH  37  38
ATOM     38  O   UNL     1      13.457  -8.507  30.027  1.00  0.00    -0.394 OA
ATOM     39  H   UNL     1      13.636  -7.589  29.706  1.00  0.00     0.210 HD
ENDBRANCH  37  38
ENDBRANCH  31  37
BRANCH  32  40
ATOM     40  O   UNL     1       9.565  -9.976  28.889  1.00  0.00    -0.387 OA
ATOM     41  H   UNL     1      10.239  -9.727  28.194  1.00  0.00     0.211 HD
ENDBRANCH  32  40
ENDBRANCH   1  27
TORSDOF 12
ENDMDL
MODEL 5
REMARK VINA RESULT:     6.755      4.422     10.675
REMARK INTER + INTRA:          11.822
REMARK INTER:                  10.152
REMARK INTRA:                   1.671
REMARK UNBOUND:                 1.908
REMARK SMILES O=c1c(O[C@H]2O[C@@H](CO)[C@@H](O)[C@@H](O)[C@@H]2O)c(-c2ccc(O)c(O)c2)oc2cc(O)cc(O)c12
REMARK SMILES IDX 4 1 3 2 16 3 25 4 2 5 26 6 1 7 33 8 27 9 31 10 28 11 30 12
REMARK SMILES IDX 17 13 18 14 19 15 20 16 24 17 22 18 21 19 23 21 32 23 29 25
REMARK SMILES IDX 5 27 14 28 6 29 12 30 7 31 10 32 15 33 13 35 8 37 9 38 11 40
REMARK H PARENT 21 20 23 22 32 24 29 26 15 34 13 36 9 39 11 41
REMARK Flexibility Score: inf
ROOT
ATOM      1  O   UNL     1      17.978  -3.431  26.254  1.00  0.00    -0.454 OA
ENDROOT
BRANCH   1   2
ATOM      2  C   UNL     1      16.778  -4.165  26.287  1.00  0.00     0.214 A 
ATOM      3  C   UNL     1      15.505  -3.553  26.374  1.00  0.00     0.180 A 
ATOM      4  O   UNL     1      14.407  -4.307  26.368  1.00  0.00    -0.452 OA
ATOM      5  C   UNL     1      16.849  -5.564  26.272  1.00  0.00     0.239 A 
ATOM      6  C   UNL     1      14.433  -5.635  26.332  1.00  0.00     0.146 A 
ATOM      7  O   UNL     1      17.979  -6.119  26.225  1.00  0.00    -0.285 OA
ATOM      8  C   UNL     1      15.663  -6.330  26.298  1.00  0.00     0.111 A 
ATOM      9  C   UNL     1      13.226  -6.340  26.354  1.00  0.00     0.094 A 
ATOM     10  C   UNL     1      15.655  -7.747  26.294  1.00  0.00     0.134 A 
ATOM     11  C   UNL     1      13.222  -7.736  26.348  1.00  0.00     0.123 A 
ATOM     12  C   UNL     1      14.433  -8.436  26.321  1.00  0.00     0.093 A 
BRANCH   3  13
ATOM     13  C   UNL     1      15.334  -2.095  26.520  1.00  0.00     0.025 A 
ATOM     14  C   UNL     1      15.220  -1.289  25.376  1.00  0.00     0.016 A 
ATOM     15  C   UNL     1      15.075   0.095  25.501  1.00  0.00     0.051 A 
ATOM     16  C   UNL     1      15.020   0.688  26.772  1.00  0.00     0.157 A 
ATOM     17  C   UNL     1      15.259  -1.502  27.790  1.00  0.00     0.062 A 
ATOM     18  C   UNL     1      15.103  -0.117  27.921  1.00  0.00     0.158 A 
BRANCH  16  19
ATOM     19  O   UNL     1      14.868   2.067  26.895  1.00  0.00    -0.504 OA
ATOM     20  H   UNL     1      14.604   2.646  26.108  1.00  0.00     0.293 HD
ENDBRANCH  16  19
BRANCH  18  21
ATOM     21  O   UNL     1      15.031   0.438  29.198  1.00  0.00    -0.504 OA
ATOM     22  H   UNL     1      14.454   0.041  29.929  1.00  0.00     0.293 HD
ENDBRANCH  18  21
ENDBRANCH   3  13
BRANCH  10  23
ATOM     23  O   UNL     1      16.848  -8.470  26.272  1.00  0.00    -0.507 OA
ATOM     24  H   UNL     1      17.649  -8.173  25.731  1.00  0.00     0.293 HD
ENDBRANCH  10  23
BRANCH  11  25
ATOM     25  O   UNL     1      12.007  -8.422  26.378  1.00  0.00    -0.508 OA
ATOM     26  H   UNL     1      11.709  -8.998  25.601  1.00  0.00     0.293 HD
ENDBRANCH  11  25
ENDBRANCH   1   2
BRANCH   1  27
ATOM     27  C   UNL     1      18.108  -2.046  26.592  1.00  0.00     0.339 C 
ATOM     28  C   UNL     1      19.499  -1.509  26.199  1.00  0.00     0.214 C 
ATOM     29  O   UNL     1      17.806  -1.832  27.966  1.00  0.00    -0.332 OA
ATOM     30  C   UNL     1      20.601  -2.081  27.122  1.00  0.00     0.180 C 
ATOM     31  C   UNL     1      18.758  -2.391  28.869  1.00  0.00     0.179 C 
ATOM     32  C   UNL     1      20.200  -1.886  28.594  1.00  0.00     0.177 C 
BRANCH  28  33
ATOM     33  O   UNL     1      19.483  -0.107  26.291  1.00  0.00    -0.384 OA
ATOM     34  H   UNL     1      19.710   0.247  25.392  1.00  0.00     0.211 HD
ENDBRANCH  28  33
BRANCH  30  35
ATOM     35  O   UNL     1      20.842  -3.443  26.870  1.00  0.00    -0.387 OA
ATOM     36  H   UNL     1      21.826  -3.592  26.906  1.00  0.00     0.211 HD
ENDBRANCH  30  35
BRANCH  31  37
ATOM     37  C   UNL     1      18.600  -3.925  29.019  1.00  0.00     0.191 C 
BRANCH  37  38
ATOM     38  O   UNL     1      17.769  -4.228  30.110  1.00  0.00    -0.394 OA
ATOM     39  H   UNL     1      17.486  -5.169  29.992  1.00  0.00     0.210 HD
ENDBRANCH  37  38
ENDBRANCH  31  37
BRANCH  32  40
ATOM     40  O   UNL     1      21.139  -2.518  29.426  1.00  0.00    -0.387 OA
ATOM     41  H   UNL     1      21.704  -3.084  28.827  1.00  0.00     0.211 HD
ENDBRANCH  32  40
ENDBRANCH   1  27
TORSDOF 12
ENDMDL
MODEL 6
REMARK VINA RESULT:     6.895      1.483      6.219
REMARK INTER + INTRA:          12.028
REMARK INTER:                   6.764
REMARK INTRA:                   5.264
REMARK UNBOUND:                 1.908
REMARK SMILES O=c1c(O[C@H]2O[C@@H](CO)[C@@H](O)[C@@H](O)[C@@H]2O)c(-c2ccc(O)c(O)c2)oc2cc(O)cc(O)c12
REMARK SMILES IDX 4 1 3 2 16 3 25 4 2 5 26 6 1 7 33 8 27 9 31 10 28 11 30 12
REMARK SMILES IDX 17 13 18 14 19 15 20 16 24 17 22 18 21 19 23 21 32 23 29 25
REMARK SMILES IDX 5 27 14 28 6 29 12 30 7 31 10 32 15 33 13 35 8 37 9 38 11 40
REMARK H PARENT 21 20 23 22 32 24 29 26 15 34 13 36 9 39 11 41
REMARK Flexibility Score: inf
ROOT
ATOM      1  O   UNL     1      14.420 -11.038  29.959  1.00  0.00    -0.454 OA
ENDROOT
BRANCH   1   2
ATOM      2  C   UNL     1      14.809 -12.000  29.008  1.00  0.00     0.214 A 
ATOM      3  C   UNL     1      15.125 -11.674  27.668  1.00  0.00     0.180 A 
ATOM      4  O   UNL     1      15.518 -12.629  26.829  1.00  0.00    -0.452 OA
ATOM      5  C   UNL     1      14.848 -13.346  29.396  1.00  0.00     0.239 A 
ATOM      6  C   UNL     1      15.589 -13.913  27.166  1.00  0.00     0.146 A 
ATOM      7  O   UNL     1      14.541 -13.651  30.579  1.00  0.00    -0.285 OA
ATOM      8  C   UNL     1      15.240 -14.335  28.469  1.00  0.00     0.111 A 
ATOM      9  C   UNL     1      15.989 -14.847  26.206  1.00  0.00     0.094 A 
ATOM     10  C   UNL     1      15.296 -15.716  28.785  1.00  0.00     0.134 A 
ATOM     11  C   UNL     1      16.044 -16.207  26.521  1.00  0.00     0.123 A 
ATOM     12  C   UNL     1      15.696 -16.638  27.806  1.00  0.00     0.093 A 
BRANCH   3  13
ATOM     13  C   UNL     1      14.993 -10.304  27.133  1.00  0.00     0.025 A 
ATOM     14  C   UNL     1      13.717  -9.768  26.901  1.00  0.00     0.016 A 
ATOM     15  C   UNL     1      13.580  -8.479  26.379  1.00  0.00     0.051 A 
ATOM     16  C   UNL     1      14.716  -7.703  26.102  1.00  0.00     0.157 A 
ATOM     17  C   UNL     1      16.128  -9.520  26.875  1.00  0.00     0.062 A 
ATOM     18  C   UNL     1      15.995  -8.224  26.361  1.00  0.00     0.158 A 
BRANCH  16  19
ATOM     19  O   UNL     1      14.577  -6.417  25.589  1.00  0.00    -0.504 OA
ATOM     20  H   UNL     1      13.754  -5.856  25.771  1.00  0.00     0.293 HD
ENDBRANCH  16  19
BRANCH  18  21
ATOM     21  O   UNL     1      17.144  -7.473  26.118  1.00  0.00    -0.504 OA
ATOM     22  H   UNL     1      18.073  -7.828  26.303  1.00  0.00     0.293 HD
ENDBRANCH  18  21
ENDBRANCH   3  13
BRANCH  10  23
ATOM     23  O   UNL     1      14.949 -16.174  30.056  1.00  0.00    -0.507 OA
ATOM     24  H   UNL     1      15.472 -16.899  30.529  1.00  0.00     0.293 HD
ENDBRANCH  10  23
BRANCH  11  25
ATOM     25  O   UNL     1      16.439 -17.125  25.547  1.00  0.00    -0.508 OA
ATOM     26  H   UNL     1      16.905 -17.988  25.796  1.00  0.00     0.293 HD
ENDBRANCH  11  25
ENDBRANCH   1   2
BRANCH   1  27
ATOM     27  C   UNL     1      13.445 -10.013  29.744  1.00  0.00     0.339 C 
ATOM     28  C   UNL     1      12.768  -9.607  31.069  1.00  0.00     0.214 C 
ATOM     29  O   UNL     1      12.507 -10.411  28.750  1.00  0.00    -0.332 OA
ATOM     30  C   UNL     1      11.829 -10.723  31.583  1.00  0.00     0.180 C 
ATOM     31  C   UNL     1      11.651 -11.481  29.146  1.00  0.00     0.179 C 
ATOM     32  C   UNL     1      10.880 -11.164  30.457  1.00  0.00     0.177 C 
BRANCH  28  33
ATOM     33  O   UNL     1      12.034  -8.428  30.856  1.00  0.00    -0.384 OA
ATOM     34  H   UNL     1      11.123  -8.583  31.217  1.00  0.00     0.211 HD
ENDBRANCH  28  33
BRANCH  30  35
ATOM     35  O   UNL     1      12.547 -11.832  32.066  1.00  0.00    -0.387 OA
ATOM     36  H   UNL     1      13.428 -11.506  32.396  1.00  0.00     0.211 HD
ENDBRANCH  30  35
BRANCH  31  37
ATOM     37  C   UNL     1      12.363 -12.855  29.100  1.00  0.00     0.191 C 
BRANCH  37  38
ATOM     38  O   UNL     1      11.875 -13.625  28.031  1.00  0.00    -0.394 OA
ATOM     39  H   UNL     1      11.562 -12.984  27.345  1.00  0.00     0.210 HD
ENDBRANCH  37  38
ENDBRANCH  31  37
BRANCH  32  40
ATOM     40  O   UNL     1      10.116 -12.263  30.887  1.00  0.00    -0.387 OA
ATOM     41  H   UNL     1       9.254 -12.213  30.385  1.00  0.00     0.211 HD
ENDBRANCH  32  40
ENDBRANCH   1  27
TORSDOF 12
ENDMDL
MODEL 7
REMARK VINA RESULT:     8.142      4.816     10.257
REMARK INTER + INTRA:          13.857
REMARK INTER:                  14.199
REMARK INTRA:                  -0.342
REMARK UNBOUND:                 1.908
REMARK SMILES O=c1c(O[C@H]2O[C@@H](CO)[C@@H](O)[C@@H](O)[C@@H]2O)c(-c2ccc(O)c(O)c2)oc2cc(O)cc(O)c12
REMARK SMILES IDX 4 1 3 2 16 3 25 4 2 5 26 6 1 7 33 8 27 9 31 10 28 11 30 12
REMARK SMILES IDX 17 13 18 14 19 15 20 16 24 17 22 18 21 19 23 21 32 23 29 25
REMARK SMILES IDX 5 27 14 28 6 29 12 30 7 31 10 32 15 33 13 35 8 37 9 38 11 40
REMARK H PARENT 21 20 23 22 32 24 29 26 15 34 13 36 9 39 11 41
REMARK Flexibility Score: inf
ROOT
ATOM      1  O   UNL     1      15.554  -2.094  26.776  1.00  0.00    -0.454 OA
ENDROOT
BRANCH   1   2
ATOM      2  C   UNL     1      15.723  -3.485  26.650  1.00  0.00     0.214 A 
ATOM      3  C   UNL     1      16.995  -4.104  26.599  1.00  0.00     0.180 A 
ATOM      4  O   UNL     1      17.082  -5.430  26.512  1.00  0.00    -0.452 OA
ATOM      5  C   UNL     1      14.582  -4.290  26.531  1.00  0.00     0.239 A 
ATOM      6  C   UNL     1      16.023  -6.227  26.420  1.00  0.00     0.146 A 
ATOM      7  O   UNL     1      13.446  -3.745  26.546  1.00  0.00    -0.285 OA
ATOM      8  C   UNL     1      14.716  -5.689  26.410  1.00  0.00     0.111 A 
ATOM      9  C   UNL     1      16.218  -7.607  26.307  1.00  0.00     0.094 A 
ATOM     10  C   UNL     1      13.611  -6.566  26.276  1.00  0.00     0.134 A 
ATOM     11  C   UNL     1      15.126  -8.468  26.178  1.00  0.00     0.123 A 
ATOM     12  C   UNL     1      13.828  -7.947  26.161  1.00  0.00     0.093 A 
BRANCH   3  13
ATOM     13  C   UNL     1      18.253  -3.333  26.592  1.00  0.00     0.025 A 
ATOM     14  C   UNL     1      18.516  -2.441  25.540  1.00  0.00     0.016 A 
ATOM     15  C   UNL     1      19.712  -1.718  25.513  1.00  0.00     0.051 A 
ATOM     16  C   UNL     1      20.648  -1.861  26.548  1.00  0.00     0.157 A 
ATOM     17  C   UNL     1      19.181  -3.460  27.637  1.00  0.00     0.062 A 
ATOM     18  C   UNL     1      20.376  -2.730  27.619  1.00  0.00     0.158 A 
BRANCH  16  19
ATOM     19  O   UNL     1      21.835  -1.134  26.523  1.00  0.00    -0.504 OA
ATOM     20  H   UNL     1      22.188  -0.719  25.670  1.00  0.00     0.293 HD
ENDBRANCH  16  19
BRANCH  18  21
ATOM     21  O   UNL     1      21.275  -2.879  28.674  1.00  0.00    -0.504 OA
ATOM     22  H   UNL     1      21.234  -2.304  29.506  1.00  0.00     0.293 HD
ENDBRANCH  18  21
ENDBRANCH   3  13
BRANCH  10  23
ATOM     23  O   UNL     1      12.306  -6.074  26.250  1.00  0.00    -0.507 OA
ATOM     24  H   UNL     1      11.510  -6.664  26.046  1.00  0.00     0.293 HD
ENDBRANCH  10  23
BRANCH  11  25
ATOM     25  O   UNL     1      15.341  -9.842  26.060  1.00  0.00    -0.508 OA
ATOM     26  H   UNL     1      15.809 -10.365  26.789  1.00  0.00     0.293 HD
ENDBRANCH  11  25
ENDBRANCH   1   2
BRANCH   1  27
ATOM     27  C   UNL     1      14.726  -1.283  25.937  1.00  0.00     0.339 C 
ATOM     28  C   UNL     1      15.572  -0.502  24.911  1.00  0.00     0.214 C 
ATOM     29  O   UNL     1      13.893  -0.435  26.719  1.00  0.00    -0.332 OA
ATOM     30  C   UNL     1      16.385   0.622  25.596  1.00  0.00     0.180 C 
ATOM     31  C   UNL     1      14.596   0.587  27.424  1.00  0.00     0.179 C 
ATOM     32  C   UNL     1      15.456   1.470  26.481  1.00  0.00     0.177 C 
BRANCH  28  33
ATOM     33  O   UNL     1      14.713   0.052  23.947  1.00  0.00    -0.384 OA
ATOM     34  H   UNL     1      13.811   0.105  24.356  1.00  0.00     0.211 HD
ENDBRANCH  28  33
BRANCH  30  35
ATOM     35  O   UNL     1      17.443   0.108  26.368  1.00  0.00    -0.387 OA
ATOM     36  H   UNL     1      17.826  -0.672  25.883  1.00  0.00     0.211 HD
ENDBRANCH  30  35
BRANCH  31  37
ATOM     37  C   UNL     1      15.318   0.046  28.683  1.00  0.00     0.191 C 
BRANCH  37  38
ATOM     38  O   UNL     1      15.364   1.030  29.684  1.00  0.00    -0.394 OA
ATOM     39  H   UNL     1      15.987   1.728  29.361  1.00  0.00     0.210 HD
ENDBRANCH  37  38
ENDBRANCH  31  37
BRANCH  32  40
ATOM     40  O   UNL     1      16.217   2.409  27.199  1.00  0.00    -0.387 OA
ATOM     41  H   UNL     1      16.260   2.069  28.138  1.00  0.00     0.211 HD
ENDBRANCH  32  40
ENDBRANCH   1  27
TORSDOF 12
ENDMDL
MODEL 8
REMARK VINA RESULT:     8.215      4.743     10.207
REMARK INTER + INTRA:          13.966
REMARK INTER:                  13.484
REMARK INTRA:                   0.482
REMARK UNBOUND:                 1.908
REMARK SMILES O=c1c(O[C@H]2O[C@@H](CO)[C@@H](O)[C@@H](O)[C@@H]2O)c(-c2ccc(O)c(O)c2)oc2cc(O)cc(O)c12
REMARK SMILES IDX 4 1 3 2 16 3 25 4 2 5 26 6 1 7 33 8 27 9 31 10 28 11 30 12
REMARK SMILES IDX 17 13 18 14 19 15 20 16 24 17 22 18 21 19 23 21 32 23 29 25
REMARK SMILES IDX 5 27 14 28 6 29 12 30 7 31 10 32 15 33 13 35 8 37 9 38 11 40
REMARK H PARENT 21 20 23 22 32 24 29 26 15 34 13 36 9 39 11 41
REMARK Flexibility Score: inf
ROOT
ATOM      1  O   UNL     1      15.563  -2.156  26.787  1.00  0.00    -0.454 OA
ENDROOT
BRANCH   1   2
ATOM      2  C   UNL     1      15.720  -3.551  26.680  1.00  0.00     0.214 A 
ATOM      3  C   UNL     1      16.985  -4.184  26.680  1.00  0.00     0.180 A 
ATOM      4  O   UNL     1      17.061  -5.511  26.610  1.00  0.00    -0.452 OA
ATOM      5  C   UNL     1      14.574  -4.344  26.530  1.00  0.00     0.239 A 
ATOM      6  C   UNL     1      15.997  -6.298  26.488  1.00  0.00     0.146 A 
ATOM      7  O   UNL     1      13.445  -3.787  26.500  1.00  0.00    -0.285 OA
ATOM      8  C   UNL     1      14.697  -5.746  26.427  1.00  0.00     0.111 A 
ATOM      9  C   UNL     1      16.180  -7.681  26.396  1.00  0.00     0.094 A 
ATOM     10  C   UNL     1      13.587  -6.612  26.264  1.00  0.00     0.134 A 
ATOM     11  C   UNL     1      15.084  -8.531  26.238  1.00  0.00     0.123 A 
ATOM     12  C   UNL     1      13.793  -7.996  26.170  1.00  0.00     0.093 A 
BRANCH   3  13
ATOM     13  C   UNL     1      18.252  -3.426  26.709  1.00  0.00     0.025 A 
ATOM     14  C   UNL     1      18.638  -2.674  25.588  1.00  0.00     0.016 A 
ATOM     15  C   UNL     1      19.843  -1.967  25.597  1.00  0.00     0.051 A 
ATOM     16  C   UNL     1      20.665  -1.985  26.734  1.00  0.00     0.157 A 
ATOM     17  C   UNL     1      19.065  -3.427  27.852  1.00  0.00     0.062 A 
ATOM     18  C   UNL     1      20.268  -2.711  27.869  1.00  0.00     0.158 A 
BRANCH  16  19
ATOM     19  O   UNL     1      21.862  -1.273  26.743  1.00  0.00    -0.504 OA
ATOM     20  H   UNL     1      21.943  -0.372  27.198  1.00  0.00     0.293 HD
ENDBRANCH  16  19
BRANCH  18  21
ATOM     21  O   UNL     1      21.051  -2.733  29.023  1.00  0.00    -0.504 OA
ATOM     22  H   UNL     1      21.981  -3.133  29.039  1.00  0.00     0.293 HD
ENDBRANCH  18  21
ENDBRANCH   3  13
BRANCH  10  23
ATOM     23  O   UNL     1      12.290  -6.106  26.188  1.00  0.00    -0.507 OA
ATOM     24  H   UNL     1      12.053  -5.177  26.511  1.00  0.00     0.293 HD
ENDBRANCH  10  23
BRANCH  11  25
ATOM     25  O   UNL     1      15.288  -9.908  26.140  1.00  0.00    -0.508 OA
ATOM     26  H   UNL     1      16.213 -10.310  26.224  1.00  0.00     0.293 HD
ENDBRANCH  11  25
ENDBRANCH   1   2
BRANCH   1  27
ATOM     27  C   UNL     1      16.043  -1.352  27.868  1.00  0.00     0.339 C 
ATOM     28  C   UNL     1      14.948  -0.390  28.371  1.00  0.00     0.214 C 
ATOM     29  O   UNL     1      17.240  -0.674  27.498  1.00  0.00    -0.332 OA
ATOM     30  C   UNL     1      14.675   0.734  27.345  1.00  0.00     0.180 C 
ATOM     31  C   UNL     1      17.059   0.336  26.507  1.00  0.00     0.179 C 
ATOM     32  C   UNL     1      16.000   1.391  26.927  1.00  0.00     0.177 C 
BRANCH  28  33
ATOM     33  O   UNL     1      15.367   0.171  29.590  1.00  0.00    -0.384 OA
ATOM     34  H   UNL     1      15.184   1.145  29.541  1.00  0.00     0.211 HD
ENDBRANCH  28  33
BRANCH  30  35
ATOM     35  O   UNL     1      14.001   0.253  26.208  1.00  0.00    -0.387 OA
ATOM     36  H   UNL     1      13.710   1.039  25.668  1.00  0.00     0.211 HD
ENDBRANCH  30  35
BRANCH  31  37
ATOM     37  C   UNL     1      16.892  -0.256  25.086  1.00  0.00     0.191 C 
BRANCH  37  38
ATOM     38  O   UNL     1      15.538  -0.255  24.710  1.00  0.00    -0.394 OA
ATOM     39  H   UNL     1      15.090  -0.931  25.276  1.00  0.00     0.210 HD
ENDBRANCH  37  38
ENDBRANCH  31  37
BRANCH  32  40
ATOM     40  O   UNL     1      15.762   2.323  25.903  1.00  0.00    -0.387 OA
ATOM     41  H   UNL     1      16.209   1.957  25.087  1.00  0.00     0.211 HD
ENDBRANCH  32  40
ENDBRANCH   1  27
TORSDOF 12
ENDMDL
