MODEL 1
REMARK VINA RESULT:    -3.376      0.000      0.000
REMARK INTER + INTRA:         -13.306
REMARK INTER:                  -8.508
REMARK INTRA:                  -4.798
REMARK UNBOUND:                -4.798
REMARK SMILES CCCCCCCCCCCCCCCCCCCCCCCCCCCC(=O)[O-]
REMARK SMILES IDX 15 1 16 2 17 3 18 4 19 5 20 6 21 7 22 8 23 9 24 10 25 11
REMARK SMILES IDX 26 12 27 13 28 14 29 15 30 16 14 17 13 18 12 19 11 20 10 21
REMARK SMILES IDX 9 22 8 23 7 24 6 25 5 26 4 27 3 28 2 29 1 30
REMARK H PARENT
REMARK Flexibility Score: inf
ROOT
ATOM      1  C   UNL     1      -6.636   4.957  -8.800  1.00  0.00     0.000 C 
ENDROOT
BRANCH   1   2
ATOM      2  C   UNL     1      -6.167   6.161  -9.640  1.00  0.00     0.000 C 
BRANCH   2   3
ATOM      3  C   UNL     1      -5.110   7.057  -8.968  1.00  0.00     0.000 C 
BRANCH   3   4
ATOM      4  C   UNL     1      -5.628   8.471  -8.667  1.00  0.00     0.000 C 
BRANCH   4   5
ATOM      5  C   UNL     1      -5.750   8.696  -7.153  1.00  0.00     0.000 C 
BRANCH   5   6
ATOM      6  C   UNL     1      -7.211   8.766  -6.678  1.00  0.00     0.000 C 
BRANCH   6   7
ATOM      7  C   UNL     1      -7.440   9.598  -5.400  1.00  0.00     0.000 C 
BRANCH   7   8
ATOM      8  C   UNL     1      -8.208   8.875  -4.279  1.00  0.00     0.000 C 
BRANCH   8   9
ATOM      9  C   UNL     1      -7.430   7.684  -3.696  1.00  0.00     0.000 C 
BRANCH   9  10
ATOM     10  C   UNL     1      -8.375   6.681  -3.016  1.00  0.00     0.000 C 
BRANCH  10  11
ATOM     11  C   UNL     1      -7.760   6.072  -1.737  1.00  0.00     0.000 C 
BRANCH  11  12
ATOM     12  C   UNL     1      -7.862   6.986  -0.503  1.00  0.00     0.006 C 
BRANCH  12  13
ATOM     13  C   UNL     1      -6.498   7.308   0.118  1.00  0.00     0.053 C 
BRANCH  13  14
ATOM     14  C   UNL     1      -6.261   8.786   0.152  1.00  0.00     0.041 C 
ATOM     15  O   UNL     1      -5.538   9.290   1.051  1.00  0.00    -0.550 OA
ATOM     16  O   UNL     1      -6.829   9.603  -0.820  1.00  0.00    -0.550 OA
ENDBRANCH  13  14
ENDBRANCH  12  13
ENDBRANCH  11  12
ENDBRANCH  10  11
ENDBRANCH   9  10
ENDBRANCH   8   9
ENDBRANCH   7   8
ENDBRANCH   6   7
ENDBRANCH   5   6
ENDBRANCH   4   5
ENDBRANCH   3   4
ENDBRANCH   2   3
ENDBRANCH   1   2
BRANCH   1  17
ATOM     17  C   UNL     1      -7.872   5.219  -7.917  1.00  0.00     0.000 C 
BRANCH  17  18
ATOM     18  C   UNL     1      -7.604   5.176  -6.399  1.00  0.00     0.000 C 
BRANCH  18  19
ATOM     19  C   UNL     1      -6.114   5.140  -6.003  1.00  0.00     0.000 C 
BRANCH  19  20
ATOM     20  C   UNL     1      -5.831   4.545  -4.612  1.00  0.00     0.000 C 
BRANCH  20  21
ATOM     21  C   UNL     1      -6.186   3.049  -4.524  1.00  0.00     0.000 C 
BRANCH  21  22
ATOM     22  C   UNL     1      -7.394   2.772  -3.616  1.00  0.00    -0.000 C 
BRANCH  22  23
ATOM     23  C   UNL     1      -8.601   2.217  -4.386  1.00  0.00    -0.000 C 
BRANCH  23  24
ATOM     24  C   UNL     1      -8.196   1.471  -5.669  1.00  0.00    -0.000 C 
BRANCH  24  25
ATOM     25  C   UNL     1      -9.122   1.752  -6.872  1.00  0.00    -0.000 C 
BRANCH  25  26
ATOM     26  C   UNL     1      -8.416   1.519  -8.220  1.00  0.00    -0.000 C 
BRANCH  26  27
ATOM     27  C   UNL     1      -6.880   1.594  -8.103  1.00  0.00    -0.000 C 
BRANCH  27  28
ATOM     28  C   UNL     1      -6.136   1.251  -9.408  1.00  0.00    -0.000 C 
BRANCH  28  29
ATOM     29  C   UNL     1      -5.248  -0.002  -9.339  1.00  0.00    -0.003 C 
ATOM     30  C   UNL     1      -5.525  -0.862  -8.105  1.00  0.00     0.004 C 
ENDBRANCH  28  29
ENDBRANCH  27  28
ENDBRANCH  26  27
ENDBRANCH  25  26
ENDBRANCH  24  25
ENDBRANCH  23  24
ENDBRANCH  22  23
ENDBRANCH  21  22
ENDBRANCH  20  21
ENDBRANCH  19  20
ENDBRANCH  18  19
ENDBRANCH  17  18
ENDBRANCH   1  17
TORSDOF 26
ENDMDL
MODEL 2
REMARK VINA RESULT:    -3.262      3.278      7.762
REMARK INTER + INTRA:         -13.019
REMARK INTER:                  -8.340
REMARK INTRA:                  -4.679
REMARK UNBOUND:                -4.798
REMARK SMILES CCCCCCCCCCCCCCCCCCCCCCCCCCCC(=O)[O-]
REMARK SMILES IDX 15 1 16 2 17 3 18 4 19 5 20 6 21 7 22 8 23 9 24 10 25 11
REMARK SMILES IDX 26 12 27 13 28 14 29 15 30 16 14 17 13 18 12 19 11 20 10 21
REMARK SMILES IDX 9 22 8 23 7 24 6 25 5 26 4 27 3 28 2 29 1 30
REMARK H PARENT
REMARK Flexibility Score: inf
ROOT
ATOM      1  C   UNL     1      -6.100   5.220  -4.350  1.00  0.00     0.000 C 
ENDROOT
BRANCH   1   2
ATOM      2  C   UNL     1      -6.020   6.341  -5.405  1.00  0.00     0.000 C 
BRANCH   2   3
ATOM      3  C   UNL     1      -7.176   7.357  -5.367  1.00  0.00     0.000 C 
BRANCH   3   4
ATOM      4  C   UNL     1      -6.952   8.554  -6.304  1.00  0.00     0.000 C 
BRANCH   4   5
ATOM      5  C   UNL     1      -5.558   8.490  -6.945  1.00  0.00     0.000 C 
BRANCH   5   6
ATOM      6  C   UNL     1      -5.613   8.366  -8.477  1.00  0.00     0.000 C 
BRANCH   6   7
ATOM      7  C   UNL     1      -5.087   7.029  -9.039  1.00  0.00     0.000 C 
BRANCH   7   8
ATOM      8  C   UNL     1      -6.117   5.885  -9.072  1.00  0.00     0.000 C 
BRANCH   8   9
ATOM      9  C   UNL     1      -7.565   6.390  -9.170  1.00  0.00     0.000 C 
BRANCH   9  10
ATOM     10  C   UNL     1      -8.551   5.370  -8.579  1.00  0.00     0.000 C 
BRANCH  10  11
ATOM     11  C   UNL     1      -7.831   4.161  -7.942  1.00  0.00     0.000 C 
BRANCH  11  12
ATOM     12  C   UNL     1      -8.692   2.887  -7.884  1.00  0.00     0.006 C 
BRANCH  12  13
ATOM     13  C   UNL     1      -8.162   1.765  -8.784  1.00  0.00     0.053 C 
BRANCH  13  14
ATOM     14  C   UNL     1      -7.207   0.887  -8.036  1.00  0.00     0.041 C 
ATOM     15  O   UNL     1      -5.988   1.196  -7.965  1.00  0.00    -0.550 OA
ATOM     16  O   UNL     1      -7.668  -0.264  -7.405  1.00  0.00    -0.550 OA
ENDBRANCH  13  14
ENDBRANCH  12  13
ENDBRANCH  11  12
ENDBRANCH  10  11
ENDBRANCH   9  10
ENDBRANCH   8   9
ENDBRANCH   7   8
ENDBRANCH   6   7
ENDBRANCH   5   6
ENDBRANCH   4   5
ENDBRANCH   3   4
ENDBRANCH   2   3
ENDBRANCH   1   2
BRANCH   1  17
ATOM     17  C   UNL     1      -5.956   3.789  -4.906  1.00  0.00     0.000 C 
BRANCH  17  18
ATOM     18  C   UNL     1      -7.036   2.798  -4.428  1.00  0.00     0.000 C 
BRANCH  18  19
ATOM     19  C   UNL     1      -7.717   3.171  -3.095  1.00  0.00     0.000 C 
BRANCH  19  20
ATOM     20  C   UNL     1      -9.235   2.924  -3.055  1.00  0.00     0.000 C 
BRANCH  20  21
ATOM     21  C   UNL     1     -10.020   4.138  -2.523  1.00  0.00     0.000 C 
BRANCH  21  22
ATOM     22  C   UNL     1      -9.852   5.391  -3.398  1.00  0.00    -0.000 C 
BRANCH  22  23
ATOM     23  C   UNL     1      -9.440   6.629  -2.590  1.00  0.00    -0.000 C 
BRANCH  23  24
ATOM     24  C   UNL     1      -8.439   6.302  -1.469  1.00  0.00    -0.000 C 
BRANCH  24  25
ATOM     25  C   UNL     1      -7.152   7.153  -1.515  1.00  0.00    -0.000 C 
BRANCH  25  26
ATOM     26  C   UNL     1      -7.431   8.613  -1.913  1.00  0.00    -0.000 C 
BRANCH  26  27
ATOM     27  C   UNL     1      -7.143   9.604  -0.765  1.00  0.00    -0.000 C 
BRANCH  27  28
ATOM     28  C   UNL     1      -5.879   9.266   0.049  1.00  0.00    -0.000 C 
BRANCH  28  29
ATOM     29  C   UNL     1      -6.075   9.248   1.573  1.00  0.00    -0.003 C 
ATOM     30  C   UNL     1      -6.780   7.985   2.069  1.00  0.00     0.004 C 
ENDBRANCH  28  29
ENDBRANCH  27  28
ENDBRANCH  26  27
ENDBRANCH  25  26
ENDBRANCH  24  25
ENDBRANCH  23  24
ENDBRANCH  22  23
ENDBRANCH  21  22
ENDBRANCH  20  21
ENDBRANCH  19  20
ENDBRANCH  18  19
ENDBRANCH  17  18
ENDBRANCH   1  17
TORSDOF 26
ENDMDL
MODEL 3
REMARK VINA RESULT:    -2.919      1.844      4.819
REMARK INTER + INTRA:         -12.153
REMARK INTER:                  -8.141
REMARK INTRA:                  -4.012
REMARK UNBOUND:                -4.798
REMARK SMILES CCCCCCCCCCCCCCCCCCCCCCCCCCCC(=O)[O-]
REMARK SMILES IDX 15 1 16 2 17 3 18 4 19 5 20 6 21 7 22 8 23 9 24 10 25 11
REMARK SMILES IDX 26 12 27 13 28 14 29 15 30 16 14 17 13 18 12 19 11 20 10 21
REMARK SMILES IDX 9 22 8 23 7 24 6 25 5 26 4 27 3 28 2 29 1 30
REMARK H PARENT
REMARK Flexibility Score: inf
ROOT
ATOM      1  C   UNL     1      -6.742   0.655  -8.134  1.00  0.00     0.000 C 
ENDROOT
BRANCH   1   2
ATOM      2  C   UNL     1      -6.371   1.865  -9.014  1.00  0.00     0.000 C 
BRANCH   2   3
ATOM      3  C   UNL     1      -7.084   3.181  -8.652  1.00  0.00     0.000 C 
BRANCH   3   4
ATOM      4  C   UNL     1      -8.389   2.961  -7.873  1.00  0.00     0.000 C 
BRANCH   4   5
ATOM      5  C   UNL     1      -9.073   4.301  -7.565  1.00  0.00     0.000 C 
BRANCH   5   6
ATOM      6  C   UNL     1      -8.069   5.415  -7.221  1.00  0.00     0.000 C 
BRANCH   6   7
ATOM      7  C   UNL     1      -8.552   6.416  -6.152  1.00  0.00     0.000 C 
BRANCH   7   8
ATOM      8  C   UNL     1      -7.460   7.340  -5.583  1.00  0.00     0.000 C 
BRANCH   8   9
ATOM      9  C   UNL     1      -8.020   8.405  -4.627  1.00  0.00     0.000 C 
BRANCH   9  10
ATOM     10  C   UNL     1      -8.383   7.795  -3.264  1.00  0.00     0.000 C 
BRANCH  10  11
ATOM     11  C   UNL     1      -7.469   8.308  -2.131  1.00  0.00     0.000 C 
BRANCH  11  12
ATOM     12  C   UNL     1      -6.799   7.186  -1.318  1.00  0.00     0.006 C 
BRANCH  12  13
ATOM     13  C   UNL     1      -6.154   7.689  -0.021  1.00  0.00     0.053 C 
BRANCH  13  14
ATOM     14  C   UNL     1      -7.086   7.521   1.139  1.00  0.00     0.041 C 
ATOM     15  O   UNL     1      -6.726   7.869   2.294  1.00  0.00    -0.550 OA
ATOM     16  O   UNL     1      -8.357   6.993   0.939  1.00  0.00    -0.550 OA
ENDBRANCH  13  14
ENDBRANCH  12  13
ENDBRANCH  11  12
ENDBRANCH  10  11
ENDBRANCH   9  10
ENDBRANCH   8   9
ENDBRANCH   7   8
ENDBRANCH   6   7
ENDBRANCH   5   6
ENDBRANCH   4   5
ENDBRANCH   3   4
ENDBRANCH   2   3
ENDBRANCH   1   2
BRANCH   1  17
ATOM     17  C   UNL     1      -5.602  -0.354  -7.898  1.00  0.00     0.000 C 
BRANCH  17  18
ATOM     18  C   UNL     1      -5.775  -1.706  -8.618  1.00  0.00     0.000 C 
BRANCH  18  19
ATOM     19  C   UNL     1      -7.033  -1.814  -9.503  1.00  0.00     0.000 C 
BRANCH  19  20
ATOM     20  C   UNL     1      -8.153  -2.700  -8.928  1.00  0.00     0.000 C 
BRANCH  20  21
ATOM     21  C   UNL     1      -9.443  -1.911  -8.636  1.00  0.00     0.000 C 
BRANCH  21  22
ATOM     22  C   UNL     1      -9.703  -1.721  -7.133  1.00  0.00    -0.000 C 
BRANCH  22  23
ATOM     23  C   UNL     1      -9.822  -0.244  -6.732  1.00  0.00    -0.000 C 
BRANCH  23  24
ATOM     24  C   UNL     1      -9.787  -0.036  -5.208  1.00  0.00    -0.000 C 
BRANCH  24  25
ATOM     25  C   UNL     1      -9.026   1.233  -4.769  1.00  0.00    -0.000 C 
BRANCH  25  26
ATOM     26  C   UNL     1      -9.944   2.255  -4.075  1.00  0.00    -0.000 C 
BRANCH  26  27
ATOM     27  C   UNL     1      -9.253   3.616  -3.855  1.00  0.00    -0.000 C 
BRANCH  27  28
ATOM     28  C   UNL     1      -7.858   3.511  -3.207  1.00  0.00    -0.000 C 
BRANCH  28  29
ATOM     29  C   UNL     1      -6.714   4.130  -4.026  1.00  0.00    -0.003 C 
ATOM     30  C   UNL     1      -5.931   3.096  -4.836  1.00  0.00     0.004 C 
ENDBRANCH  28  29
ENDBRANCH  27  28
ENDBRANCH  26  27
ENDBRANCH  25  26
ENDBRANCH  24  25
ENDBRANCH  23  24
ENDBRANCH  22  23
ENDBRANCH  21  22
ENDBRANCH  20  21
ENDBRANCH  19  20
ENDBRANCH  18  19
ENDBRANCH  17  18
ENDBRANCH   1  17
TORSDOF 26
ENDMDL
MODEL 4
REMARK VINA RESULT:    -2.780      3.575      7.814
REMARK INTER + INTRA:         -11.802
REMARK INTER:                  -7.220
REMARK INTRA:                  -4.582
REMARK UNBOUND:                -4.798
REMARK SMILES CCCCCCCCCCCCCCCCCCCCCCCCCCCC(=O)[O-]
REMARK SMILES IDX 15 1 16 2 17 3 18 4 19 5 20 6 21 7 22 8 23 9 24 10 25 11
REMARK SMILES IDX 26 12 27 13 28 14 29 15 30 16 14 17 13 18 12 19 11 20 10 21
REMARK SMILES IDX 9 22 8 23 7 24 6 25 5 26 4 27 3 28 2 29 1 30
REMARK H PARENT
REMARK Flexibility Score: inf
ROOT
ATOM      1  C   UNL     1      -8.417   8.308   1.581  1.00  0.00     0.000 C 
ENDROOT
BRANCH   1   2
ATOM      2  C   UNL     1      -6.889   8.121   1.486  1.00  0.00     0.000 C 
BRANCH   2   3
ATOM      3  C   UNL     1      -6.430   6.865   0.723  1.00  0.00     0.000 C 
BRANCH   3   4
ATOM      4  C   UNL     1      -5.749   7.192  -0.614  1.00  0.00     0.000 C 
BRANCH   4   5
ATOM      5  C   UNL     1      -6.606   6.712  -1.795  1.00  0.00     0.000 C 
BRANCH   5   6
ATOM      6  C   UNL     1      -7.877   5.972  -1.344  1.00  0.00     0.000 C 
BRANCH   6   7
ATOM      7  C   UNL     1      -8.497   5.041  -2.406  1.00  0.00     0.000 C 
BRANCH   7   8
ATOM      8  C   UNL     1      -8.672   3.576  -1.968  1.00  0.00     0.000 C 
BRANCH   8   9
ATOM      9  C   UNL     1      -9.308   2.700  -3.058  1.00  0.00     0.000 C 
BRANCH   9  10
ATOM     10  C   UNL     1      -8.291   2.353  -4.157  1.00  0.00     0.000 C 
BRANCH  10  11
ATOM     11  C   UNL     1      -8.948   2.248  -5.551  1.00  0.00     0.000 C 
BRANCH  11  12
ATOM     12  C   UNL     1      -8.423   1.074  -6.397  1.00  0.00     0.006 C 
BRANCH  12  13
ATOM     13  C   UNL     1      -6.932   1.197  -6.731  1.00  0.00     0.053 C 
BRANCH  13  14
ATOM     14  C   UNL     1      -6.491   0.080  -7.625  1.00  0.00     0.041 C 
ATOM     15  O   UNL     1      -5.281  -0.025  -7.956  1.00  0.00    -0.550 OA
ATOM     16  O   UNL     1      -7.417  -0.855  -8.078  1.00  0.00    -0.550 OA
ENDBRANCH  13  14
ENDBRANCH  12  13
ENDBRANCH  11  12
ENDBRANCH  10  11
ENDBRANCH   9  10
ENDBRANCH   8   9
ENDBRANCH   7   8
ENDBRANCH   6   7
ENDBRANCH   5   6
ENDBRANCH   4   5
ENDBRANCH   3   4
ENDBRANCH   2   3
ENDBRANCH   1   2
BRANCH   1  17
ATOM     17  C   UNL     1      -9.023   9.267   0.538  1.00  0.00     0.000 C 
BRANCH  17  18
ATOM     18  C   UNL     1      -7.992  10.054  -0.295  1.00  0.00     0.000 C 
BRANCH  18  19
ATOM     19  C   UNL     1      -8.129   9.890  -1.822  1.00  0.00     0.000 C 
BRANCH  19  20
ATOM     20  C   UNL     1      -9.422   9.193  -2.283  1.00  0.00     0.000 C 
BRANCH  20  21
ATOM     21  C   UNL     1      -9.301   8.593  -3.696  1.00  0.00     0.000 C 
BRANCH  21  22
ATOM     22  C   UNL     1      -7.910   8.796  -4.317  1.00  0.00    -0.000 C 
BRANCH  22  23
ATOM     23  C   UNL     1      -7.813   8.250  -5.750  1.00  0.00    -0.000 C 
BRANCH  23  24
ATOM     24  C   UNL     1      -6.459   7.581  -6.041  1.00  0.00    -0.000 C 
BRANCH  24  25
ATOM     25  C   UNL     1      -6.183   6.332  -5.178  1.00  0.00    -0.000 C 
BRANCH  25  26
ATOM     26  C   UNL     1      -6.479   5.023  -5.932  1.00  0.00    -0.000 C 
BRANCH  26  27
ATOM     27  C   UNL     1      -6.433   5.202  -7.464  1.00  0.00    -0.000 C 
BRANCH  27  28
ATOM     28  C   UNL     1      -7.595   4.514  -8.209  1.00  0.00    -0.000 C 
BRANCH  28  29
ATOM     29  C   UNL     1      -8.875   5.357  -8.332  1.00  0.00    -0.003 C 
ATOM     30  C   UNL     1      -8.640   6.702  -9.021  1.00  0.00     0.004 C 
ENDBRANCH  28  29
ENDBRANCH  27  28
ENDBRANCH  26  27
ENDBRANCH  25  26
ENDBRANCH  24  25
ENDBRANCH  23  24
ENDBRANCH  22  23
ENDBRANCH  21  22
ENDBRANCH  20  21
ENDBRANCH  19  20
ENDBRANCH  18  19
ENDBRANCH  17  18
ENDBRANCH   1  17
TORSDOF 26
ENDMDL
MODEL 5
REMARK VINA RESULT:    -2.745      3.310      7.473
REMARK INTER + INTRA:         -11.716
REMARK INTER:                  -7.521
REMARK INTRA:                  -4.194
REMARK UNBOUND:                -4.798
REMARK SMILES CCCCCCCCCCCCCCCCCCCCCCCCCCCC(=O)[O-]
REMARK SMILES IDX 15 1 16 2 17 3 18 4 19 5 20 6 21 7 22 8 23 9 24 10 25 11
REMARK SMILES IDX 26 12 27 13 28 14 29 15 30 16 14 17 13 18 12 19 11 20 10 21
REMARK SMILES IDX 9 22 8 23 7 24 6 25 5 26 4 27 3 28 2 29 1 30
REMARK H PARENT
REMARK Flexibility Score: inf
ROOT
ATOM      1  C   UNL     1      -9.669   8.480   0.052  1.00  0.00     0.000 C 
ENDROOT
BRANCH   1   2
ATOM      2  C   UNL     1      -8.771   9.443   0.856  1.00  0.00     0.000 C 
BRANCH   2   3
ATOM      3  C   UNL     1      -7.416   8.861   1.294  1.00  0.00     0.000 C 
BRANCH   3   4
ATOM      4  C   UNL     1      -6.329   8.994   0.217  1.00  0.00     0.000 C 
BRANCH   4   5
ATOM      5  C   UNL     1      -5.874   7.612  -0.272  1.00  0.00     0.000 C 
BRANCH   5   6
ATOM      6  C   UNL     1      -6.926   6.915  -1.151  1.00  0.00     0.000 C 
BRANCH   6   7
ATOM      7  C   UNL     1      -6.435   6.513  -2.557  1.00  0.00     0.000 C 
BRANCH   7   8
ATOM      8  C   UNL     1      -7.377   5.575  -3.334  1.00  0.00     0.000 C 
BRANCH   8   9
ATOM      9  C   UNL     1      -8.321   4.784  -2.415  1.00  0.00     0.000 C 
BRANCH   9  10
ATOM     10  C   UNL     1      -8.355   3.297  -2.801  1.00  0.00     0.000 C 
BRANCH  10  11
ATOM     11  C   UNL     1      -7.199   2.911  -3.749  1.00  0.00     0.000 C 
BRANCH  11  12
ATOM     12  C   UNL     1      -7.595   1.882  -4.823  1.00  0.00     0.006 C 
BRANCH  12  13
ATOM     13  C   UNL     1      -6.433   1.507  -5.751  1.00  0.00     0.053 C 
BRANCH  13  14
ATOM     14  C   UNL     1      -6.940   1.043  -7.081  1.00  0.00     0.041 C 
ATOM     15  O   UNL     1      -6.377   1.424  -8.140  1.00  0.00    -0.550 OA
ATOM     16  O   UNL     1      -8.027   0.177  -7.148  1.00  0.00    -0.550 OA
ENDBRANCH  13  14
ENDBRANCH  12  13
ENDBRANCH  11  12
ENDBRANCH  10  11
ENDBRANCH   9  10
ENDBRANCH   8   9
ENDBRANCH   7   8
ENDBRANCH   6   7
ENDBRANCH   5   6
ENDBRANCH   4   5
ENDBRANCH   3   4
ENDBRANCH   2   3
ENDBRANCH   1   2
BRANCH   1  17
ATOM     17  C   UNL     1      -9.982   8.929  -1.389  1.00  0.00     0.000 C 
BRANCH  17  18
ATOM     18  C   UNL     1      -9.122  10.101  -1.903  1.00  0.00     0.000 C 
BRANCH  18  19
ATOM     19  C   UNL     1      -8.173   9.749  -3.067  1.00  0.00     0.000 C 
BRANCH  19  20
ATOM     20  C   UNL     1      -8.821   9.791  -4.462  1.00  0.00     0.000 C 
BRANCH  20  21
ATOM     21  C   UNL     1      -8.426   8.586  -5.336  1.00  0.00     0.000 C 
BRANCH  21  22
ATOM     22  C   UNL     1      -6.915   8.509  -5.606  1.00  0.00    -0.000 C 
BRANCH  22  23
ATOM     23  C   UNL     1      -6.373   9.762  -6.310  1.00  0.00    -0.000 C 
BRANCH  23  24
ATOM     24  C   UNL     1      -5.401   9.427  -7.454  1.00  0.00    -0.000 C 
BRANCH  24  25
ATOM     25  C   UNL     1      -5.944   8.373  -8.443  1.00  0.00    -0.000 C 
BRANCH  25  26
ATOM     26  C   UNL     1      -5.168   7.045  -8.366  1.00  0.00    -0.000 C 
BRANCH  26  27
ATOM     27  C   UNL     1      -5.716   5.983  -9.341  1.00  0.00    -0.000 C 
BRANCH  27  28
ATOM     28  C   UNL     1      -6.555   4.883  -8.661  1.00  0.00    -0.000 C 
BRANCH  28  29
ATOM     29  C   UNL     1      -6.808   5.096  -7.160  1.00  0.00    -0.003 C 
ATOM     30  C   UNL     1      -8.273   4.903  -6.767  1.00  0.00     0.004 C 
ENDBRANCH  28  29
ENDBRANCH  27  28
ENDBRANCH  26  27
ENDBRANCH  25  26
ENDBRANCH  24  25
ENDBRANCH  23  24
ENDBRANCH  22  23
ENDBRANCH  21  22
ENDBRANCH  20  21
ENDBRANCH  19  20
ENDBRANCH  18  19
ENDBRANCH  17  18
ENDBRANCH   1  17
TORSDOF 26
ENDMDL
MODEL 6
REMARK VINA RESULT:    -2.675      1.742      5.595
REMARK INTER + INTRA:         -11.540
REMARK INTER:                  -7.675
REMARK INTRA:                  -3.865
REMARK UNBOUND:                -4.798
REMARK SMILES CCCCCCCCCCCCCCCCCCCCCCCCCCCC(=O)[O-]
REMARK SMILES IDX 15 1 16 2 17 3 18 4 19 5 20 6 21 7 22 8 23 9 24 10 25 11
REMARK SMILES IDX 26 12 27 13 28 14 29 15 30 16 14 17 13 18 12 19 11 20 10 21
REMARK SMILES IDX 9 22 8 23 7 24 6 25 5 26 4 27 3 28 2 29 1 30
REMARK H PARENT
REMARK Flexibility Score: inf
ROOT
ATOM      1  C   UNL     1      -5.280  -0.641  -8.483  1.00  0.00     0.000 C 
ENDROOT
BRANCH   1   2
ATOM      2  C   UNL     1      -6.121   0.633  -8.270  1.00  0.00     0.000 C 
BRANCH   2   3
ATOM      3  C   UNL     1      -6.934   0.669  -6.963  1.00  0.00     0.000 C 
BRANCH   3   4
ATOM      4  C   UNL     1      -7.135   2.093  -6.422  1.00  0.00     0.000 C 
BRANCH   4   5
ATOM      5  C   UNL     1      -7.535   2.061  -4.940  1.00  0.00     0.000 C 
BRANCH   5   6
ATOM      6  C   UNL     1      -6.687   3.009  -4.074  1.00  0.00     0.000 C 
BRANCH   6   7
ATOM      7  C   UNL     1      -5.917   4.090  -4.859  1.00  0.00     0.000 C 
BRANCH   7   8
ATOM      8  C   UNL     1      -5.983   5.505  -4.257  1.00  0.00     0.000 C 
BRANCH   8   9
ATOM      9  C   UNL     1      -7.251   5.738  -3.420  1.00  0.00     0.000 C 
BRANCH   9  10
ATOM     10  C   UNL     1      -7.691   7.210  -3.474  1.00  0.00     0.000 C 
BRANCH  10  11
ATOM     11  C   UNL     1      -8.157   7.732  -2.098  1.00  0.00     0.000 C 
BRANCH  11  12
ATOM     12  C   UNL     1      -7.042   8.411  -1.282  1.00  0.00     0.006 C 
BRANCH  12  13
ATOM     13  C   UNL     1      -6.418   7.482  -0.233  1.00  0.00     0.053 C 
BRANCH  13  14
ATOM     14  C   UNL     1      -7.219   7.492   1.032  1.00  0.00     0.041 C 
ATOM     15  O   UNL     1      -6.718   7.948   2.093  1.00  0.00    -0.550 OA
ATOM     16  O   UNL     1      -8.524   7.009   1.033  1.00  0.00    -0.550 OA
ENDBRANCH  13  14
ENDBRANCH  12  13
ENDBRANCH  11  12
ENDBRANCH  10  11
ENDBRANCH   9  10
ENDBRANCH   8   9
ENDBRANCH   7   8
ENDBRANCH   6   7
ENDBRANCH   5   6
ENDBRANCH   4   5
ENDBRANCH   3   4
ENDBRANCH   2   3
ENDBRANCH   1   2
BRANCH   1  17
ATOM     17  C   UNL     1      -6.052  -1.845  -9.056  1.00  0.00     0.000 C 
BRANCH  17  18
ATOM     18  C   UNL     1      -7.336  -1.482  -9.828  1.00  0.00     0.000 C 
BRANCH  18  19
ATOM     19  C   UNL     1      -8.642  -2.017  -9.206  1.00  0.00     0.000 C 
BRANCH  19  20
ATOM     20  C   UNL     1      -9.770  -0.978  -9.082  1.00  0.00     0.000 C 
BRANCH  20  21
ATOM     21  C   UNL     1      -9.456   0.331  -9.830  1.00  0.00     0.000 C 
BRANCH  21  22
ATOM     22  C   UNL     1      -9.842   1.586  -9.031  1.00  0.00    -0.000 C 
BRANCH  22  23
ATOM     23  C   UNL     1      -8.927   2.783  -9.326  1.00  0.00    -0.000 C 
BRANCH  23  24
ATOM     24  C   UNL     1      -9.585   4.132  -8.990  1.00  0.00    -0.000 C 
BRANCH  24  25
ATOM     25  C   UNL     1      -9.562   4.478  -7.485  1.00  0.00    -0.000 C 
BRANCH  25  26
ATOM     26  C   UNL     1      -8.466   5.501  -7.137  1.00  0.00    -0.000 C 
BRANCH  26  27
ATOM     27  C   UNL     1      -7.227   5.371  -8.048  1.00  0.00    -0.000 C 
BRANCH  27  28
ATOM     28  C   UNL     1      -6.389   6.661  -8.150  1.00  0.00    -0.000 C 
BRANCH  28  29
ATOM     29  C   UNL     1      -7.020   7.898  -7.489  1.00  0.00    -0.003 C 
ATOM     30  C   UNL     1      -6.093   8.571  -6.476  1.00  0.00     0.004 C 
ENDBRANCH  28  29
ENDBRANCH  27  28
ENDBRANCH  26  27
ENDBRANCH  25  26
ENDBRANCH  24  25
ENDBRANCH  23  24
ENDBRANCH  22  23
ENDBRANCH  21  22
ENDBRANCH  20  21
ENDBRANCH  19  20
ENDBRANCH  18  19
ENDBRANCH  17  18
ENDBRANCH   1  17
TORSDOF 26
ENDMDL
MODEL 7
REMARK VINA RESULT:    -2.674      3.826      8.133
REMARK INTER + INTRA:         -11.536
REMARK INTER:                  -7.546
REMARK INTRA:                  -3.990
REMARK UNBOUND:                -4.798
REMARK SMILES CCCCCCCCCCCCCCCCCCCCCCCCCCCC(=O)[O-]
REMARK SMILES IDX 15 1 16 2 17 3 18 4 19 5 20 6 21 7 22 8 23 9 24 10 25 11
REMARK SMILES IDX 26 12 27 13 28 14 29 15 30 16 14 17 13 18 12 19 11 20 10 21
REMARK SMILES IDX 9 22 8 23 7 24 6 25 5 26 4 27 3 28 2 29 1 30
REMARK H PARENT
REMARK Flexibility Score: inf
ROOT
ATOM      1  C   UNL     1      -5.769   5.626  -4.663  1.00  0.00     0.000 C 
ENDROOT
BRANCH   1   2
ATOM      2  C   UNL     1      -5.840   6.744  -5.723  1.00  0.00     0.000 C 
BRANCH   2   3
ATOM      3  C   UNL     1      -5.693   6.273  -7.181  1.00  0.00     0.000 C 
BRANCH   3   4
ATOM      4  C   UNL     1      -6.933   6.574  -8.036  1.00  0.00     0.000 C 
BRANCH   4   5
ATOM      5  C   UNL     1      -8.012   7.279  -7.201  1.00  0.00     0.000 C 
BRANCH   5   6
ATOM      6  C   UNL     1      -9.330   6.489  -7.144  1.00  0.00     0.000 C 
BRANCH   6   7
ATOM      7  C   UNL     1     -10.124   6.453  -8.465  1.00  0.00     0.000 C 
BRANCH   7   8
ATOM      8  C   UNL     1     -10.037   5.127  -9.243  1.00  0.00     0.000 C 
BRANCH   8   9
ATOM      9  C   UNL     1      -9.787   3.916  -8.329  1.00  0.00     0.000 C 
BRANCH   9  10
ATOM     10  C   UNL     1      -8.412   3.286  -8.604  1.00  0.00     0.000 C 
BRANCH  10  11
ATOM     11  C   UNL     1      -8.277   1.880  -7.981  1.00  0.00     0.000 C 
BRANCH  11  12
ATOM     12  C   UNL     1      -6.833   1.505  -7.603  1.00  0.00     0.006 C 
BRANCH  12  13
ATOM     13  C   UNL     1      -6.125   0.683  -8.687  1.00  0.00     0.053 C 
BRANCH  13  14
ATOM     14  C   UNL     1      -6.213  -0.781  -8.388  1.00  0.00     0.041 C 
ATOM     15  O   UNL     1      -5.218  -1.391  -7.917  1.00  0.00    -0.550 OA
ATOM     16  O   UNL     1      -7.401  -1.468  -8.617  1.00  0.00    -0.550 OA
ENDBRANCH  13  14
ENDBRANCH  12  13
ENDBRANCH  11  12
ENDBRANCH  10  11
ENDBRANCH   9  10
ENDBRANCH   8   9
ENDBRANCH   7   8
ENDBRANCH   6   7
ENDBRANCH   5   6
ENDBRANCH   4   5
ENDBRANCH   3   4
ENDBRANCH   2   3
ENDBRANCH   1   2
BRANCH   1  17
ATOM     17  C   UNL     1      -6.102   4.213  -5.181  1.00  0.00     0.000 C 
BRANCH  17  18
ATOM     18  C   UNL     1      -7.479   3.673  -4.748  1.00  0.00     0.000 C 
BRANCH  18  19
ATOM     19  C   UNL     1      -7.517   3.043  -3.341  1.00  0.00     0.000 C 
BRANCH  19  20
ATOM     20  C   UNL     1      -8.634   3.577  -2.425  1.00  0.00     0.000 C 
BRANCH  20  21
ATOM     21  C   UNL     1      -8.552   5.100  -2.216  1.00  0.00     0.000 C 
BRANCH  21  22
ATOM     22  C   UNL     1      -9.836   5.833  -2.635  1.00  0.00    -0.000 C 
BRANCH  22  23
ATOM     23  C   UNL     1      -9.561   7.046  -3.537  1.00  0.00    -0.000 C 
BRANCH  23  24
ATOM     24  C   UNL     1      -8.257   7.776  -3.170  1.00  0.00    -0.000 C 
BRANCH  24  25
ATOM     25  C   UNL     1      -8.477   9.081  -2.374  1.00  0.00    -0.000 C 
BRANCH  25  26
ATOM     26  C   UNL     1      -7.315   9.379  -1.409  1.00  0.00    -0.000 C 
BRANCH  26  27
ATOM     27  C   UNL     1      -6.718   8.098  -0.790  1.00  0.00    -0.000 C 
BRANCH  27  28
ATOM     28  C   UNL     1      -5.996   8.331   0.552  1.00  0.00    -0.000 C 
BRANCH  28  29
ATOM     29  C   UNL     1      -5.593   9.788   0.827  1.00  0.00    -0.003 C 
ATOM     30  C   UNL     1      -4.169  10.111   0.374  1.00  0.00     0.004 C 
ENDBRANCH  28  29
ENDBRANCH  27  28
ENDBRANCH  26  27
ENDBRANCH  25  26
ENDBRANCH  24  25
ENDBRANCH  23  24
ENDBRANCH  22  23
ENDBRANCH  21  22
ENDBRANCH  20  21
ENDBRANCH  19  20
ENDBRANCH  18  19
ENDBRANCH  17  18
ENDBRANCH   1  17
TORSDOF 26
ENDMDL
MODEL 8
REMARK VINA RESULT:    -2.081     12.144     14.190
REMARK INTER + INTRA:         -10.041
REMARK INTER:                  -5.268
REMARK INTRA:                  -4.773
REMARK UNBOUND:                -4.798
REMARK SMILES CCCCCCCCCCCCCCCCCCCCCCCCCCCC(=O)[O-]
REMARK SMILES IDX 15 1 16 2 17 3 18 4 19 5 20 6 21 7 22 8 23 9 24 10 25 11
REMARK SMILES IDX 26 12 27 13 28 14 29 15 30 16 14 17 13 18 12 19 11 20 10 21
REMARK SMILES IDX 9 22 8 23 7 24 6 25 5 26 4 27 3 28 2 29 1 30
REMARK H PARENT
REMARK Flexibility Score: inf
ROOT
ATOM      1  C   UNL     1       3.325   5.347  -8.245  1.00  0.00     0.000 C 
ENDROOT
BRANCH   1   2
ATOM      2  C   UNL     1       3.638   6.710  -7.596  1.00  0.00     0.000 C 
BRANCH   2   3
ATOM      3  C   UNL     1       2.960   7.922  -8.260  1.00  0.00     0.000 C 
BRANCH   3   4
ATOM      4  C   UNL     1       3.824   8.566  -9.354  1.00  0.00     0.000 C 
BRANCH   4   5
ATOM      5  C   UNL     1       4.444   9.880  -8.856  1.00  0.00     0.000 C 
BRANCH   5   6
ATOM      6  C   UNL     1       5.875  10.097  -9.376  1.00  0.00     0.000 C 
BRANCH   6   7
ATOM      7  C   UNL     1       6.701   8.808  -9.561  1.00  0.00     0.000 C 
BRANCH   7   8
ATOM      8  C   UNL     1       8.227   9.007  -9.581  1.00  0.00     0.000 C 
BRANCH   8   9
ATOM      9  C   UNL     1       8.757   9.672  -8.301  1.00  0.00     0.000 C 
BRANCH   9  10
ATOM     10  C   UNL     1       8.757   8.688  -7.121  1.00  0.00     0.000 C 
BRANCH  10  11
ATOM     11  C   UNL     1       7.471   8.792  -6.271  1.00  0.00     0.000 C 
BRANCH  11  12
ATOM     12  C   UNL     1       6.789   7.438  -6.010  1.00  0.00     0.006 C 
BRANCH  12  13
ATOM     13  C   UNL     1       7.640   6.495  -5.151  1.00  0.00     0.053 C 
BRANCH  13  14
ATOM     14  C   UNL     1       7.063   6.358  -3.776  1.00  0.00     0.041 C 
ATOM     15  O   UNL     1       6.885   5.216  -3.276  1.00  0.00    -0.550 OA
ATOM     16  O   UNL     1       6.736   7.494  -3.043  1.00  0.00    -0.550 OA
ENDBRANCH  13  14
ENDBRANCH  12  13
ENDBRANCH  11  12
ENDBRANCH  10  11
ENDBRANCH   9  10
ENDBRANCH   8   9
ENDBRANCH   7   8
ENDBRANCH   6   7
ENDBRANCH   5   6
ENDBRANCH   4   5
ENDBRANCH   3   4
ENDBRANCH   2   3
ENDBRANCH   1   2
BRANCH   1  17
ATOM     17  C   UNL     1       4.550   4.588  -8.791  1.00  0.00     0.000 C 
BRANCH  17  18
ATOM     18  C   UNL     1       5.842   5.424  -8.882  1.00  0.00     0.000 C 
BRANCH  18  19
ATOM     19  C   UNL     1       6.711   5.144 -10.125  1.00  0.00     0.000 C 
BRANCH  19  20
ATOM     20  C   UNL     1       8.224   5.321  -9.907  1.00  0.00     0.000 C 
BRANCH  20  21
ATOM     21  C   UNL     1       8.620   5.269  -8.420  1.00  0.00     0.000 C 
BRANCH  21  22
ATOM     22  C   UNL     1       8.816   3.836  -7.901  1.00  0.00    -0.000 C 
BRANCH  22  23
ATOM     23  C   UNL     1       9.161   2.841  -9.019  1.00  0.00    -0.000 C 
BRANCH  23  24
ATOM     24  C   UNL     1       8.157   1.679  -9.112  1.00  0.00    -0.000 C 
BRANCH  24  25
ATOM     25  C   UNL     1       6.979   1.793  -8.120  1.00  0.00    -0.000 C 
BRANCH  25  26
ATOM     26  C   UNL     1       7.216   0.980  -6.835  1.00  0.00    -0.000 C 
BRANCH  26  27
ATOM     27  C   UNL     1       5.900   0.490  -6.195  1.00  0.00    -0.000 C 
BRANCH  27  28
ATOM     28  C   UNL     1       4.827   1.588  -6.056  1.00  0.00    -0.000 C 
BRANCH  28  29
ATOM     29  C   UNL     1       5.061   2.581  -4.906  1.00  0.00    -0.003 C 
ATOM     30  C   UNL     1       4.616   4.004  -5.246  1.00  0.00     0.004 C 
ENDBRANCH  28  29
ENDBRANCH  27  28
ENDBRANCH  26  27
ENDBRANCH  25  26
ENDBRANCH  24  25
ENDBRANCH  23  24
ENDBRANCH  22  23
ENDBRANCH  21  22
ENDBRANCH  20  21
ENDBRANCH  19  20
ENDBRANCH  18  19
ENDBRANCH  17  18
ENDBRANCH   1  17
TORSDOF 26
ENDMDL
