MODEL 1
REMARK VINA RESULT:    -7.240      0.000      0.000
REMARK INTER + INTRA:         -11.011
REMARK INTER:                 -10.414
REMARK INTRA:                  -0.598
REMARK UNBOUND:                -0.598
REMARK SMILES O=c1cc(-c2ccc(O)c(O)c2)oc2cc(O[C@@H]3O[C@H](CO)[C@@H](O)[C@@H](O)[C@H]3O)cc(O)c12
REMARK SMILES IDX 17 1 16 2 4 3 3 4 13 5 2 6 14 7 1 8 32 9 15 10 30 11 29 12
REMARK SMILES IDX 5 13 6 14 7 15 8 16 12 17 10 18 9 19 11 21 31 23 18 25 27 26
REMARK SMILES IDX 19 27 25 28 20 29 23 30 28 31 26 33 21 35 22 36 24 38
REMARK H PARENT 9 20 11 22 31 24 28 32 26 34 22 37 24 39
REMARK Flexibility Score: inf
ROOT
ATOM      1  O   UNL     1      -4.863   6.132  13.605  1.00  0.00    -0.462 OA
ENDROOT
BRANCH   1   2
ATOM      2  C   UNL     1      -3.967   5.467  14.457  1.00  0.00     0.130 A 
ATOM      3  C   UNL     1      -0.546   5.948  17.747  1.00  0.00     0.138 A 
ATOM      4  C   UNL     1      -0.416   4.558  17.905  1.00  0.00     0.100 A 
ATOM      5  O   UNL     1      -1.437   6.425  16.881  1.00  0.00    -0.456 OA
ATOM      6  C   UNL     1      -1.211   3.702  17.142  1.00  0.00     0.197 A 
ATOM      7  C   UNL     1      -2.217   5.652  16.134  1.00  0.00     0.146 A 
ATOM      8  O   UNL     1      -1.088   2.456  17.293  1.00  0.00    -0.289 OA
ATOM      9  C   UNL     1      -2.135   4.243  16.227  1.00  0.00     0.107 A 
ATOM     10  C   UNL     1      -3.125   6.246  15.254  1.00  0.00     0.094 A 
ATOM     11  C   UNL     1      -2.976   3.449  15.414  1.00  0.00     0.134 A 
ATOM     12  C   UNL     1      -3.881   4.065  14.536  1.00  0.00     0.093 A 
BRANCH   3  13
ATOM     13  C   UNL     1       0.272   6.908  18.531  1.00  0.00     0.021 A 
ATOM     14  C   UNL     1       0.914   8.006  17.925  1.00  0.00     0.016 A 
ATOM     15  C   UNL     1       1.671   8.896  18.692  1.00  0.00     0.051 A 
ATOM     16  C   UNL     1       1.792   8.713  20.073  1.00  0.00     0.157 A 
ATOM     17  C   UNL     1       0.389   6.741  19.924  1.00  0.00     0.062 A 
ATOM     18  C   UNL     1       1.148   7.635  20.692  1.00  0.00     0.158 A 
BRANCH  16  19
ATOM     19  O   UNL     1       2.547   9.600  20.841  1.00  0.00    -0.504 OA
ATOM     20  H   UNL     1       3.318  10.122  20.440  1.00  0.00     0.293 HD
ENDBRANCH  16  19
BRANCH  18  21
ATOM     21  O   UNL     1       1.265   7.458  22.069  1.00  0.00    -0.504 OA
ATOM     22  H   UNL     1       1.975   7.941  22.608  1.00  0.00     0.293 HD
ENDBRANCH  18  21
ENDBRANCH   3  13
BRANCH  11  23
ATOM     23  O   UNL     1      -2.921   2.056  15.472  1.00  0.00    -0.507 OA
ATOM     24  H   UNL     1      -3.730   1.481  15.270  1.00  0.00     0.293 HD
ENDBRANCH  11  23
ENDBRANCH   1   2
BRANCH   1  25
ATOM     25  C   UNL     1      -5.385   5.635  12.369  1.00  0.00     0.339 C 
ATOM     26  C   UNL     1      -6.256   4.368  12.583  1.00  0.00     0.214 C 
ATOM     27  O   UNL     1      -6.087   6.660  11.678  1.00  0.00    -0.332 OA
ATOM     28  C   UNL     1      -7.573   4.728  13.287  1.00  0.00     0.180 C 
ATOM     29  C   UNL     1      -7.294   7.078  12.312  1.00  0.00     0.179 C 
ATOM     30  C   UNL     1      -8.275   5.909  12.599  1.00  0.00     0.177 C 
BRANCH  26  31
ATOM     31  O   UNL     1      -6.502   3.661  11.387  1.00  0.00    -0.384 OA
ATOM     32  H   UNL     1      -7.346   3.147  11.470  1.00  0.00     0.211 HD
ENDBRANCH  26  31
BRANCH  28  33
ATOM     33  O   UNL     1      -8.435   3.618  13.327  1.00  0.00    -0.387 OA
ATOM     34  H   UNL     1      -8.337   3.147  12.457  1.00  0.00     0.211 HD
ENDBRANCH  28  33
BRANCH  29  35
ATOM     35  C   UNL     1      -7.037   7.972  13.544  1.00  0.00     0.191 C 
BRANCH  35  36
ATOM     36  O   UNL     1      -6.011   8.885  13.264  1.00  0.00    -0.394 OA
ATOM     37  H   UNL     1      -6.167   9.202  12.337  1.00  0.00     0.210 HD
ENDBRANCH  35  36
ENDBRANCH  29  35
BRANCH  30  38
ATOM     38  O   UNL     1      -8.942   5.491  11.430  1.00  0.00    -0.387 OA
ATOM     39  H   UNL     1      -9.635   6.160  11.204  1.00  0.00     0.211 HD
ENDBRANCH  30  38
ENDBRANCH   1  25
TORSDOF 11
ENDMDL
MODEL 2
REMARK VINA RESULT:    -6.862      0.996      2.357
REMARK INTER + INTRA:         -10.468
REMARK INTER:                  -9.672
REMARK INTRA:                  -0.796
REMARK UNBOUND:                -0.598
REMARK SMILES O=c1cc(-c2ccc(O)c(O)c2)oc2cc(O[C@@H]3O[C@H](CO)[C@@H](O)[C@@H](O)[C@H]3O)cc(O)c12
REMARK SMILES IDX 17 1 16 2 4 3 3 4 13 5 2 6 14 7 1 8 32 9 15 10 30 11 29 12
REMARK SMILES IDX 5 13 6 14 7 15 8 16 12 17 10 18 9 19 11 21 31 23 18 25 27 26
REMARK SMILES IDX 19 27 25 28 20 29 23 30 28 31 26 33 21 35 22 36 24 38
REMARK H PARENT 9 20 11 22 31 24 28 32 26 34 22 37 24 39
REMARK Flexibility Score: inf
ROOT
ATOM      1  O   UNL     1      -5.228   6.016  13.876  1.00  0.00    -0.462 OA
ENDROOT
BRANCH   1   2
ATOM      2  C   UNL     1      -4.261   5.356  14.652  1.00  0.00     0.130 A 
ATOM      3  C   UNL     1      -0.652   5.853  17.732  1.00  0.00     0.138 A 
ATOM      4  C   UNL     1      -0.476   4.464  17.845  1.00  0.00     0.100 A 
ATOM      5  O   UNL     1      -1.609   6.326  16.936  1.00  0.00    -0.456 OA
ATOM      6  C   UNL     1      -1.294   3.605  17.111  1.00  0.00     0.197 A 
ATOM      7  C   UNL     1      -2.414   5.549  16.220  1.00  0.00     0.146 A 
ATOM      8  O   UNL     1      -1.129   2.359  17.221  1.00  0.00    -0.289 OA
ATOM      9  C   UNL     1      -2.289   4.142  16.271  1.00  0.00     0.107 A 
ATOM     10  C   UNL     1      -3.392   6.139  15.415  1.00  0.00     0.094 A 
ATOM     11  C   UNL     1      -3.159   3.344  15.491  1.00  0.00     0.134 A 
ATOM     12  C   UNL     1      -4.134   3.956  14.688  1.00  0.00     0.093 A 
BRANCH   3  13
ATOM     13  C   UNL     1       0.188   6.817  18.488  1.00  0.00     0.021 A 
ATOM     14  C   UNL     1       0.852   7.883  17.850  1.00  0.00     0.016 A 
ATOM     15  C   UNL     1       1.630   8.778  18.591  1.00  0.00     0.051 A 
ATOM     16  C   UNL     1       1.750   8.630  19.977  1.00  0.00     0.157 A 
ATOM     17  C   UNL     1       0.304   6.686  19.885  1.00  0.00     0.062 A 
ATOM     18  C   UNL     1       1.085   7.584  20.626  1.00  0.00     0.158 A 
BRANCH  16  19
ATOM     19  O   UNL     1       2.527   9.521  20.718  1.00  0.00    -0.504 OA
ATOM     20  H   UNL     1       3.177  10.155  20.270  1.00  0.00     0.293 HD
ENDBRANCH  16  19
BRANCH  18  21
ATOM     21  O   UNL     1       1.200   7.443  22.008  1.00  0.00    -0.504 OA
ATOM     22  H   UNL     1       1.901   7.950  22.536  1.00  0.00     0.293 HD
ENDBRANCH  18  21
ENDBRANCH   3  13
BRANCH  11  23
ATOM     23  O   UNL     1      -3.062   1.953  15.509  1.00  0.00    -0.507 OA
ATOM     24  H   UNL     1      -3.144   1.401  14.664  1.00  0.00     0.293 HD
ENDBRANCH  11  23
ENDBRANCH   1   2
BRANCH   1  25
ATOM     25  C   UNL     1      -6.112   7.049  14.321  1.00  0.00     0.339 C 
ATOM     26  C   UNL     1      -6.089   8.273  13.366  1.00  0.00     0.214 C 
ATOM     27  O   UNL     1      -7.425   6.535  14.503  1.00  0.00    -0.332 OA
ATOM     28  C   UNL     1      -6.756   7.929  12.026  1.00  0.00     0.180 C 
ATOM     29  C   UNL     1      -8.078   6.143  13.297  1.00  0.00     0.179 C 
ATOM     30  C   UNL     1      -8.129   7.273  12.232  1.00  0.00     0.177 C 
BRANCH  26  31
ATOM     31  O   UNL     1      -6.670   9.426  13.935  1.00  0.00    -0.384 OA
ATOM     32  H   UNL     1      -6.635  10.173  13.285  1.00  0.00     0.211 HD
ENDBRANCH  26  31
BRANCH  28  33
ATOM     33  O   UNL     1      -6.890   9.077  11.228  1.00  0.00    -0.387 OA
ATOM     34  H   UNL     1      -6.036   9.580  11.302  1.00  0.00     0.211 HD
ENDBRANCH  28  33
BRANCH  29  35
ATOM     35  C   UNL     1      -7.545   4.807  12.741  1.00  0.00     0.191 C 
BRANCH  35  36
ATOM     36  O   UNL     1      -8.298   3.742  13.255  1.00  0.00    -0.394 OA
ATOM     37  H   UNL     1      -8.327   3.874  14.239  1.00  0.00     0.210 HD
ENDBRANCH  35  36
ENDBRANCH  29  35
BRANCH  30  38
ATOM     38  O   UNL     1      -9.110   8.236  12.542  1.00  0.00    -0.387 OA
ATOM     39  H   UNL     1      -8.722   9.137  12.410  1.00  0.00     0.211 HD
ENDBRANCH  30  38
ENDBRANCH   1  25
TORSDOF 11
ENDMDL
MODEL 3
REMARK VINA RESULT:    -6.655     13.837     16.031
REMARK INTER + INTRA:         -10.171
REMARK INTER:                  -9.140
REMARK INTRA:                  -1.030
REMARK UNBOUND:                -0.598
REMARK SMILES O=c1cc(-c2ccc(O)c(O)c2)oc2cc(O[C@@H]3O[C@H](CO)[C@@H](O)[C@@H](O)[C@H]3O)cc(O)c12
REMARK SMILES IDX 17 1 16 2 4 3 3 4 13 5 2 6 14 7 1 8 32 9 15 10 30 11 29 12
REMARK SMILES IDX 5 13 6 14 7 15 8 16 12 17 10 18 9 19 11 21 31 23 18 25 27 26
REMARK SMILES IDX 19 27 25 28 20 29 23 30 28 31 26 33 21 35 22 36 24 38
REMARK H PARENT 9 20 11 22 31 24 28 32 26 34 22 37 24 39
REMARK Flexibility Score: inf
ROOT
ATOM      1  O   UNL     1      -5.745  -7.093  22.983  1.00  0.00    -0.462 OA
ENDROOT
BRANCH   1   2
ATOM      2  C   UNL     1      -5.242  -7.446  24.246  1.00  0.00     0.130 A 
ATOM      3  C   UNL     1      -1.363  -7.777  27.004  1.00  0.00     0.138 A 
ATOM      4  C   UNL     1      -2.109  -8.231  28.105  1.00  0.00     0.100 A 
ATOM      5  O   UNL     1      -1.990  -7.498  25.862  1.00  0.00    -0.456 OA
ATOM      6  C   UNL     1      -3.488  -8.397  27.979  1.00  0.00     0.197 A 
ATOM      7  C   UNL     1      -3.300  -7.639  25.695  1.00  0.00     0.146 A 
ATOM      8  O   UNL     1      -4.149  -8.803  28.974  1.00  0.00    -0.289 OA
ATOM      9  C   UNL     1      -4.115  -8.103  26.752  1.00  0.00     0.107 A 
ATOM     10  C   UNL     1      -3.868  -7.318  24.459  1.00  0.00     0.094 A 
ATOM     11  C   UNL     1      -5.506  -8.246  26.539  1.00  0.00     0.134 A 
ATOM     12  C   UNL     1      -6.056  -7.920  25.290  1.00  0.00     0.093 A 
BRANCH   3  13
ATOM     13  C   UNL     1       0.107  -7.580  27.077  1.00  0.00     0.021 A 
ATOM     14  C   UNL     1       0.986  -8.199  26.166  1.00  0.00     0.016 A 
ATOM     15  C   UNL     1       2.365  -7.989  26.257  1.00  0.00     0.051 A 
ATOM     16  C   UNL     1       2.888  -7.152  27.248  1.00  0.00     0.157 A 
ATOM     17  C   UNL     1       0.643  -6.729  28.062  1.00  0.00     0.062 A 
ATOM     18  C   UNL     1       2.027  -6.518  28.151  1.00  0.00     0.158 A 
BRANCH  16  19
ATOM     19  O   UNL     1       4.264  -6.940  27.341  1.00  0.00    -0.504 OA
ATOM     20  H   UNL     1       4.754  -7.026  28.224  1.00  0.00     0.293 HD
ENDBRANCH  16  19
BRANCH  18  21
ATOM     21  O   UNL     1       2.549  -5.680  29.134  1.00  0.00    -0.504 OA
ATOM     22  H   UNL     1       3.531  -5.426  29.147  1.00  0.00     0.293 HD
ENDBRANCH  18  21
ENDBRANCH   3  13
BRANCH  11  23
ATOM     23  O   UNL     1      -6.342  -8.708  27.555  1.00  0.00    -0.507 OA
ATOM     24  H   UNL     1      -6.810  -8.073  28.191  1.00  0.00     0.293 HD
ENDBRANCH  11  23
ENDBRANCH   1   2
BRANCH   1  25
ATOM     25  C   UNL     1      -5.093  -7.290  21.725  1.00  0.00     0.339 C 
ATOM     26  C   UNL     1      -5.967  -8.126  20.752  1.00  0.00     0.214 C 
ATOM     27  O   UNL     1      -4.707  -6.042  21.165  1.00  0.00    -0.332 OA
ATOM     28  C   UNL     1      -7.183  -7.314  20.282  1.00  0.00     0.180 C 
ATOM     29  C   UNL     1      -5.797  -5.216  20.759  1.00  0.00     0.179 C 
ATOM     30  C   UNL     1      -6.772  -5.922  19.778  1.00  0.00     0.177 C 
BRANCH  26  31
ATOM     31  O   UNL     1      -5.240  -8.625  19.650  1.00  0.00    -0.384 OA
ATOM     32  H   UNL     1      -5.561  -9.535  19.422  1.00  0.00     0.211 HD
ENDBRANCH  26  31
BRANCH  28  33
ATOM     33  O   UNL     1      -7.879  -8.000  19.272  1.00  0.00    -0.387 OA
ATOM     34  H   UNL     1      -8.784  -8.198  19.631  1.00  0.00     0.211 HD
ENDBRANCH  28  33
BRANCH  29  35
ATOM     35  C   UNL     1      -6.513  -4.550  21.953  1.00  0.00     0.191 C 
BRANCH  35  36
ATOM     36  O   UNL     1      -5.577  -4.203  22.937  1.00  0.00    -0.394 OA
ATOM     37  H   UNL     1      -6.096  -3.810  23.686  1.00  0.00     0.210 HD
ENDBRANCH  35  36
ENDBRANCH  29  35
BRANCH  30  38
ATOM     38  O   UNL     1      -6.238  -5.992  18.475  1.00  0.00    -0.387 OA
ATOM     39  H   UNL     1      -5.746  -6.846  18.380  1.00  0.00     0.211 HD
ENDBRANCH  30  38
ENDBRANCH   1  25
TORSDOF 11
ENDMDL
MODEL 4
REMARK VINA RESULT:    -6.575     12.573     16.716
REMARK INTER + INTRA:         -10.056
REMARK INTER:                  -9.379
REMARK INTRA:                  -0.676
REMARK UNBOUND:                -0.598
REMARK SMILES O=c1cc(-c2ccc(O)c(O)c2)oc2cc(O[C@@H]3O[C@H](CO)[C@@H](O)[C@@H](O)[C@H]3O)cc(O)c12
REMARK SMILES IDX 17 1 16 2 4 3 3 4 13 5 2 6 14 7 1 8 32 9 15 10 30 11 29 12
REMARK SMILES IDX 5 13 6 14 7 15 8 16 12 17 10 18 9 19 11 21 31 23 18 25 27 26
REMARK SMILES IDX 19 27 25 28 20 29 23 30 28 31 26 33 21 35 22 36 24 38
REMARK H PARENT 9 20 11 22 31 24 28 32 26 34 22 37 24 39
REMARK Flexibility Score: inf
ROOT
ATOM      1  O   UNL     1      -4.079  -7.136  25.601  1.00  0.00    -0.462 OA
ENDROOT
BRANCH   1   2
ATOM      2  C   UNL     1      -4.730  -7.367  24.378  1.00  0.00     0.130 A 
ATOM      3  C   UNL     1      -6.663  -5.385  20.493  1.00  0.00     0.138 A 
ATOM      4  C   UNL     1      -6.976  -6.635  19.935  1.00  0.00     0.100 A 
ATOM      5  O   UNL     1      -6.055  -5.333  21.676  1.00  0.00    -0.456 OA
ATOM      6  C   UNL     1      -6.660  -7.799  20.636  1.00  0.00     0.197 A 
ATOM      7  C   UNL     1      -5.732  -6.412  22.381  1.00  0.00     0.146 A 
ATOM      8  O   UNL     1      -6.943  -8.918  20.125  1.00  0.00    -0.289 OA
ATOM      9  C   UNL     1      -6.026  -7.705  21.891  1.00  0.00     0.107 A 
ATOM     10  C   UNL     1      -5.092  -6.256  23.613  1.00  0.00     0.094 A 
ATOM     11  C   UNL     1      -5.674  -8.833  22.667  1.00  0.00     0.134 A 
ATOM     12  C   UNL     1      -5.032  -8.655  23.903  1.00  0.00     0.093 A 
BRANCH   3  13
ATOM     13  C   UNL     1      -6.974  -4.112  19.795  1.00  0.00     0.021 A 
ATOM     14  C   UNL     1      -7.601  -3.037  20.455  1.00  0.00     0.016 A 
ATOM     15  C   UNL     1      -7.875  -1.848  19.772  1.00  0.00     0.051 A 
ATOM     16  C   UNL     1      -7.521  -1.709  18.425  1.00  0.00     0.157 A 
ATOM     17  C   UNL     1      -6.610  -3.956  18.444  1.00  0.00     0.062 A 
ATOM     18  C   UNL     1      -6.885  -2.763  17.760  1.00  0.00     0.158 A 
BRANCH  16  19
ATOM     19  O   UNL     1      -7.794  -0.525  17.741  1.00  0.00    -0.504 OA
ATOM     20  H   UNL     1      -7.673  -0.454  16.738  1.00  0.00     0.293 HD
ENDBRANCH  16  19
BRANCH  18  21
ATOM     21  O   UNL     1      -6.526  -2.620  16.421  1.00  0.00    -0.504 OA
ATOM     22  H   UNL     1      -7.098  -3.000  15.675  1.00  0.00     0.293 HD
ENDBRANCH  18  21
ENDBRANCH   3  13
BRANCH  11  23
ATOM     23  O   UNL     1      -5.953 -10.125  22.222  1.00  0.00    -0.507 OA
ATOM     24  H   UNL     1      -6.642 -10.710  22.680  1.00  0.00     0.293 HD
ENDBRANCH  11  23
ENDBRANCH   1   2
BRANCH   1  25
ATOM     25  C   UNL     1      -3.651  -8.132  26.535  1.00  0.00     0.339 C 
ATOM     26  C   UNL     1      -2.364  -8.854  26.052  1.00  0.00     0.214 C 
ATOM     27  O   UNL     1      -3.495  -7.565  27.829  1.00  0.00    -0.332 OA
ATOM     28  C   UNL     1      -1.155  -7.910  26.117  1.00  0.00     0.180 C 
ATOM     29  C   UNL     1      -2.420  -6.634  27.940  1.00  0.00     0.179 C 
ATOM     30  C   UNL     1      -1.054  -7.217  27.484  1.00  0.00     0.177 C 
BRANCH  26  31
ATOM     31  O   UNL     1      -2.108 -10.050  26.757  1.00  0.00    -0.384 OA
ATOM     32  H   UNL     1      -2.965 -10.487  26.996  1.00  0.00     0.211 HD
ENDBRANCH  26  31
BRANCH  28  33
ATOM     33  O   UNL     1       0.035  -8.607  25.846  1.00  0.00    -0.387 OA
ATOM     34  H   UNL     1       0.520  -8.089  25.152  1.00  0.00     0.211 HD
ENDBRANCH  28  33
BRANCH  29  35
ATOM     35  C   UNL     1      -2.746  -5.272  27.294  1.00  0.00     0.191 C 
BRANCH  35  36
ATOM     36  O   UNL     1      -3.480  -4.483  28.190  1.00  0.00    -0.394 OA
ATOM     37  H   UNL     1      -3.082  -4.639  29.086  1.00  0.00     0.210 HD
ENDBRANCH  35  36
ENDBRANCH  29  35
BRANCH  30  38
ATOM     38  O   UNL     1      -0.508  -8.082  28.452  1.00  0.00    -0.387 OA
ATOM     39  H   UNL     1      -0.871  -8.992  28.305  1.00  0.00     0.211 HD
ENDBRANCH  30  38
ENDBRANCH   1  25
TORSDOF 11
ENDMDL
MODEL 5
REMARK VINA RESULT:    -6.506     13.291     15.577
REMARK INTER + INTRA:          -9.957
REMARK INTER:                  -9.197
REMARK INTRA:                  -0.760
REMARK UNBOUND:                -0.598
REMARK SMILES O=c1cc(-c2ccc(O)c(O)c2)oc2cc(O[C@@H]3O[C@H](CO)[C@@H](O)[C@@H](O)[C@H]3O)cc(O)c12
REMARK SMILES IDX 17 1 16 2 4 3 3 4 13 5 2 6 14 7 1 8 32 9 15 10 30 11 29 12
REMARK SMILES IDX 5 13 6 14 7 15 8 16 12 17 10 18 9 19 11 21 31 23 18 25 27 26
REMARK SMILES IDX 19 27 25 28 20 29 23 30 28 31 26 33 21 35 22 36 24 38
REMARK H PARENT 9 20 11 22 31 24 28 32 26 34 22 37 24 39
REMARK Flexibility Score: inf
ROOT
ATOM      1  O   UNL     1      -5.626  -5.177  23.129  1.00  0.00    -0.462 OA
ENDROOT
BRANCH   1   2
ATOM      2  C   UNL     1      -5.282  -5.982  24.227  1.00  0.00     0.130 A 
ATOM      3  C   UNL     1      -1.772  -7.464  27.097  1.00  0.00     0.138 A 
ATOM      4  C   UNL     1      -2.648  -8.246  27.868  1.00  0.00     0.100 A 
ATOM      5  O   UNL     1      -2.253  -6.766  26.071  1.00  0.00    -0.456 OA
ATOM      6  C   UNL     1      -4.002  -8.290  27.536  1.00  0.00     0.197 A 
ATOM      7  C   UNL     1      -3.533  -6.774  25.717  1.00  0.00     0.146 A 
ATOM      8  O   UNL     1      -4.781  -8.993  28.236  1.00  0.00    -0.289 OA
ATOM      9  C   UNL     1      -4.473  -7.546  26.436  1.00  0.00     0.107 A 
ATOM     10  C   UNL     1      -3.944  -6.005  24.625  1.00  0.00     0.094 A 
ATOM     11  C   UNL     1      -5.828  -7.537  26.031  1.00  0.00     0.134 A 
ATOM     12  C   UNL     1      -6.220  -6.758  24.931  1.00  0.00     0.093 A 
BRANCH   3  13
ATOM     13  C   UNL     1      -0.321  -7.377  27.401  1.00  0.00     0.021 A 
ATOM     14  C   UNL     1       0.163  -6.668  28.518  1.00  0.00     0.016 A 
ATOM     15  C   UNL     1       1.535  -6.611  28.782  1.00  0.00     0.051 A 
ATOM     16  C   UNL     1       2.444  -7.266  27.943  1.00  0.00     0.157 A 
ATOM     17  C   UNL     1       0.601  -8.043  26.572  1.00  0.00     0.062 A 
ATOM     18  C   UNL     1       1.977  -7.985  26.838  1.00  0.00     0.158 A 
BRANCH  16  19
ATOM     19  O   UNL     1       3.813  -7.209  28.204  1.00  0.00    -0.504 OA
ATOM     20  H   UNL     1       4.242  -6.382  28.601  1.00  0.00     0.293 HD
ENDBRANCH  16  19
BRANCH  18  21
ATOM     21  O   UNL     1       2.883  -8.642  26.008  1.00  0.00    -0.504 OA
ATOM     22  H   UNL     1       3.168  -9.599  26.184  1.00  0.00     0.293 HD
ENDBRANCH  18  21
ENDBRANCH   3  13
BRANCH  11  23
ATOM     23  O   UNL     1      -6.784  -8.291  26.711  1.00  0.00    -0.507 OA
ATOM     24  H   UNL     1      -7.698  -8.476  26.315  1.00  0.00     0.293 HD
ENDBRANCH  11  23
ENDBRANCH   1   2
BRANCH   1  25
ATOM     25  C   UNL     1      -6.749  -5.360  22.262  1.00  0.00     0.339 C 
ATOM     26  C   UNL     1      -7.141  -4.039  21.547  1.00  0.00     0.214 C 
ATOM     27  O   UNL     1      -6.501  -6.416  21.343  1.00  0.00    -0.332 OA
ATOM     28  C   UNL     1      -6.080  -3.649  20.507  1.00  0.00     0.180 C 
ATOM     29  C   UNL     1      -5.484  -6.136  20.384  1.00  0.00     0.179 C 
ATOM     30  C   UNL     1      -5.736  -4.828  19.584  1.00  0.00     0.177 C 
BRANCH  26  31
ATOM     31  O   UNL     1      -8.424  -4.091  20.961  1.00  0.00    -0.384 OA
ATOM     32  H   UNL     1      -8.709  -3.178  20.699  1.00  0.00     0.211 HD
ENDBRANCH  26  31
BRANCH  28  33
ATOM     33  O   UNL     1      -6.514  -2.554  19.741  1.00  0.00    -0.387 OA
ATOM     34  H   UNL     1      -7.389  -2.270  20.114  1.00  0.00     0.211 HD
ENDBRANCH  28  33
BRANCH  29  35
ATOM     35  C   UNL     1      -4.064  -6.216  20.984  1.00  0.00     0.191 C 
BRANCH  35  36
ATOM     36  O   UNL     1      -3.160  -5.532  20.161  1.00  0.00    -0.394 OA
ATOM     37  H   UNL     1      -2.841  -4.752  20.688  1.00  0.00     0.210 HD
ENDBRANCH  35  36
ENDBRANCH  29  35
BRANCH  30  38
ATOM     38  O   UNL     1      -6.727  -5.006  18.598  1.00  0.00    -0.387 OA
ATOM     39  H   UNL     1      -6.575  -5.874  18.148  1.00  0.00     0.211 HD
ENDBRANCH  30  38
ENDBRANCH   1  25
TORSDOF 11
ENDMDL
MODEL 6
REMARK VINA RESULT:    -6.428      5.606      9.135
REMARK INTER + INTRA:          -9.844
REMARK INTER:                  -8.815
REMARK INTRA:                  -1.030
REMARK UNBOUND:                -0.598
REMARK SMILES O=c1cc(-c2ccc(O)c(O)c2)oc2cc(O[C@@H]3O[C@H](CO)[C@@H](O)[C@@H](O)[C@H]3O)cc(O)c12
REMARK SMILES IDX 17 1 16 2 4 3 3 4 13 5 2 6 14 7 1 8 32 9 15 10 30 11 29 12
REMARK SMILES IDX 5 13 6 14 7 15 8 16 12 17 10 18 9 19 11 21 31 23 18 25 27 26
REMARK SMILES IDX 19 27 25 28 20 29 23 30 28 31 26 33 21 35 22 36 24 38
REMARK H PARENT 9 20 11 22 31 24 28 32 26 34 22 37 24 39
REMARK Flexibility Score: inf
ROOT
ATOM      1  O   UNL     1      -6.518  -0.627  19.234  1.00  0.00    -0.462 OA
ENDROOT
BRANCH   1   2
ATOM      2  C   UNL     1      -5.516   0.213  18.724  1.00  0.00     0.130 A 
ATOM      3  C   UNL     1      -4.412   3.534  15.482  1.00  0.00     0.138 A 
ATOM      4  C   UNL     1      -3.098   3.658  15.965  1.00  0.00     0.100 A 
ATOM      5  O   UNL     1      -5.243   2.675  16.067  1.00  0.00    -0.456 OA
ATOM      6  C   UNL     1      -2.683   2.869  17.038  1.00  0.00     0.197 A 
ATOM      7  C   UNL     1      -4.896   1.904  17.092  1.00  0.00     0.146 A 
ATOM      8  O   UNL     1      -1.503   2.989  17.465  1.00  0.00    -0.289 OA
ATOM      9  C   UNL     1      -3.588   1.962  17.625  1.00  0.00     0.107 A 
ATOM     10  C   UNL     1      -5.841   1.034  17.642  1.00  0.00     0.094 A 
ATOM     11  C   UNL     1      -3.249   1.125  18.713  1.00  0.00     0.134 A 
ATOM     12  C   UNL     1      -4.212   0.257  19.250  1.00  0.00     0.093 A 
BRANCH   3  13
ATOM     13  C   UNL     1      -4.911   4.347  14.344  1.00  0.00     0.021 A 
ATOM     14  C   UNL     1      -4.549   5.699  14.181  1.00  0.00     0.016 A 
ATOM     15  C   UNL     1      -5.030   6.436  13.095  1.00  0.00     0.051 A 
ATOM     16  C   UNL     1      -5.871   5.836  12.150  1.00  0.00     0.157 A 
ATOM     17  C   UNL     1      -5.746   3.750  13.381  1.00  0.00     0.062 A 
ATOM     18  C   UNL     1      -6.228   4.490  12.292  1.00  0.00     0.158 A 
BRANCH  16  19
ATOM     19  O   UNL     1      -6.353   6.569  11.066  1.00  0.00    -0.504 OA
ATOM     20  H   UNL     1      -7.338   6.783  10.968  1.00  0.00     0.293 HD
ENDBRANCH  16  19
BRANCH  18  21
ATOM     21  O   UNL     1      -7.060   3.893  11.347  1.00  0.00    -0.504 OA
ATOM     22  H   UNL     1      -7.921   4.334  11.044  1.00  0.00     0.293 HD
ENDBRANCH  18  21
ENDBRANCH   3  13
BRANCH  11  23
ATOM     23  O   UNL     1      -1.967   1.148  19.262  1.00  0.00    -0.507 OA
ATOM     24  H   UNL     1      -1.766   1.635  20.127  1.00  0.00     0.293 HD
ENDBRANCH  11  23
ENDBRANCH   1   2
BRANCH   1  25
ATOM     25  C   UNL     1      -7.111  -1.744  18.564  1.00  0.00     0.339 C 
ATOM     26  C   UNL     1      -6.455  -3.083  18.994  1.00  0.00     0.214 C 
ATOM     27  O   UNL     1      -8.519  -1.749  18.756  1.00  0.00    -0.332 OA
ATOM     28  C   UNL     1      -6.829  -3.430  20.442  1.00  0.00     0.180 C 
ATOM     29  C   UNL     1      -8.930  -2.010  20.097  1.00  0.00     0.179 C 
ATOM     30  C   UNL     1      -8.344  -3.328  20.673  1.00  0.00     0.177 C 
BRANCH  26  31
ATOM     31  O   UNL     1      -6.765  -4.152  18.125  1.00  0.00    -0.384 OA
ATOM     32  H   UNL     1      -7.549  -3.911  17.568  1.00  0.00     0.211 HD
ENDBRANCH  26  31
BRANCH  28  33
ATOM     33  O   UNL     1      -6.381  -4.720  20.776  1.00  0.00    -0.387 OA
ATOM     34  H   UNL     1      -5.852  -4.633  21.613  1.00  0.00     0.211 HD
ENDBRANCH  28  33
BRANCH  29  35
ATOM     35  C   UNL     1      -8.726  -0.796  21.027  1.00  0.00     0.191 C 
BRANCH  35  36
ATOM     36  O   UNL     1      -9.125   0.378  20.373  1.00  0.00    -0.394 OA
ATOM     37  H   UNL     1      -8.327   0.706  19.883  1.00  0.00     0.210 HD
ENDBRANCH  35  36
ENDBRANCH  29  35
BRANCH  30  38
ATOM     38  O   UNL     1      -9.012  -4.460  20.165  1.00  0.00    -0.387 OA
ATOM     39  H   UNL     1      -9.863  -4.574  20.657  1.00  0.00     0.211 HD
ENDBRANCH  30  38
ENDBRANCH   1  25
TORSDOF 11
ENDMDL
MODEL 7
REMARK VINA RESULT:    -6.154     13.217     17.514
REMARK INTER + INTRA:          -9.450
REMARK INTER:                  -8.419
REMARK INTRA:                  -1.031
REMARK UNBOUND:                -0.598
REMARK SMILES O=c1cc(-c2ccc(O)c(O)c2)oc2cc(O[C@@H]3O[C@H](CO)[C@@H](O)[C@@H](O)[C@H]3O)cc(O)c12
REMARK SMILES IDX 17 1 16 2 4 3 3 4 13 5 2 6 14 7 1 8 32 9 15 10 30 11 29 12
REMARK SMILES IDX 5 13 6 14 7 15 8 16 12 17 10 18 9 19 11 21 31 23 18 25 27 26
REMARK SMILES IDX 19 27 25 28 20 29 23 30 28 31 26 33 21 35 22 36 24 38
REMARK H PARENT 9 20 11 22 31 24 28 32 26 34 22 37 24 39
REMARK Flexibility Score: inf
ROOT
ATOM      1  O   UNL     1      -2.211  -7.374  25.972  1.00  0.00    -0.462 OA
ENDROOT
BRANCH   1   2
ATOM      2  C   UNL     1      -3.555  -7.211  25.598  1.00  0.00     0.130 A 
ATOM      3  C   UNL     1      -6.566  -5.513  22.311  1.00  0.00     0.138 A 
ATOM      4  C   UNL     1      -7.692  -5.972  23.015  1.00  0.00     0.100 A 
ATOM      5  O   UNL     1      -5.351  -5.733  22.809  1.00  0.00    -0.456 OA
ATOM      6  C   UNL     1      -7.519  -6.636  24.230  1.00  0.00     0.197 A 
ATOM      7  C   UNL     1      -5.135  -6.362  23.959  1.00  0.00     0.146 A 
ATOM      8  O   UNL     1      -8.536  -7.047  24.853  1.00  0.00    -0.289 OA
ATOM      9  C   UNL     1      -6.218  -6.842  24.731  1.00  0.00     0.107 A 
ATOM     10  C   UNL     1      -3.822  -6.549  24.398  1.00  0.00     0.094 A 
ATOM     11  C   UNL     1      -5.954  -7.502  25.953  1.00  0.00     0.134 A 
ATOM     12  C   UNL     1      -4.628  -7.679  26.377  1.00  0.00     0.093 A 
BRANCH   3  13
ATOM     13  C   UNL     1      -6.687  -4.799  21.014  1.00  0.00     0.021 A 
ATOM     14  C   UNL     1      -6.431  -5.442  19.787  1.00  0.00     0.016 A 
ATOM     15  C   UNL     1      -6.560  -4.745  18.582  1.00  0.00     0.051 A 
ATOM     16  C   UNL     1      -6.955  -3.402  18.580  1.00  0.00     0.157 A 
ATOM     17  C   UNL     1      -7.097  -3.453  21.000  1.00  0.00     0.062 A 
ATOM     18  C   UNL     1      -7.226  -2.755  19.791  1.00  0.00     0.158 A 
BRANCH  16  19
ATOM     19  O   UNL     1      -7.084  -2.705  17.379  1.00  0.00    -0.504 OA
ATOM     20  H   UNL     1      -6.613  -3.012  16.536  1.00  0.00     0.293 HD
ENDBRANCH  16  19
BRANCH  18  21
ATOM     21  O   UNL     1      -7.626  -1.420  19.787  1.00  0.00    -0.504 OA
ATOM     22  H   UNL     1      -7.223  -0.744  20.426  1.00  0.00     0.293 HD
ENDBRANCH  18  21
ENDBRANCH   3  13
BRANCH  11  23
ATOM     23  O   UNL     1      -6.996  -7.984  26.746  1.00  0.00    -0.507 OA
ATOM     24  H   UNL     1      -7.551  -7.370  27.329  1.00  0.00     0.293 HD
ENDBRANCH  11  23
ENDBRANCH   1   2
BRANCH   1  25
ATOM     25  C   UNL     1      -1.580  -8.599  26.356  1.00  0.00     0.339 C 
ATOM     26  C   UNL     1      -0.225  -8.800  25.625  1.00  0.00     0.214 C 
ATOM     27  O   UNL     1      -1.443  -8.665  27.770  1.00  0.00    -0.332 OA
ATOM     28  C   UNL     1       0.823  -7.803  26.141  1.00  0.00     0.180 C 
ATOM     29  C   UNL     1      -0.523  -7.723  28.317  1.00  0.00     0.179 C 
ATOM     30  C   UNL     1       0.890  -7.800  27.676  1.00  0.00     0.177 C 
BRANCH  26  31
ATOM     31  O   UNL     1       0.255 -10.124  25.711  1.00  0.00    -0.384 OA
ATOM     32  H   UNL     1       0.442 -10.351  26.658  1.00  0.00     0.211 HD
ENDBRANCH  26  31
BRANCH  28  33
ATOM     33  O   UNL     1       2.090  -8.094  25.608  1.00  0.00    -0.387 OA
ATOM     34  H   UNL     1       2.285  -9.042  25.832  1.00  0.00     0.211 HD
ENDBRANCH  28  33
BRANCH  29  35
ATOM     35  C   UNL     1      -1.094  -6.291  28.359  1.00  0.00     0.191 C 
BRANCH  35  36
ATOM     36  O   UNL     1      -2.386  -6.308  28.904  1.00  0.00    -0.394 OA
ATOM     37  H   UNL     1      -2.963  -6.760  28.235  1.00  0.00     0.210 HD
ENDBRANCH  35  36
ENDBRANCH  29  35
BRANCH  30  38
ATOM     38  O   UNL     1       1.618  -8.908  28.153  1.00  0.00    -0.387 OA
ATOM     39  H   UNL     1       1.251  -9.173  29.033  1.00  0.00     0.211 HD
ENDBRANCH  30  38
ENDBRANCH   1  25
TORSDOF 11
ENDMDL
MODEL 8
REMARK VINA RESULT:    -5.988     14.191     16.501
REMARK INTER + INTRA:          -9.211
REMARK INTER:                  -8.211
REMARK INTRA:                  -0.999
REMARK UNBOUND:                -0.598
REMARK SMILES O=c1cc(-c2ccc(O)c(O)c2)oc2cc(O[C@@H]3O[C@H](CO)[C@@H](O)[C@@H](O)[C@H]3O)cc(O)c12
REMARK SMILES IDX 17 1 16 2 4 3 3 4 13 5 2 6 14 7 1 8 32 9 15 10 30 11 29 12
REMARK SMILES IDX 5 13 6 14 7 15 8 16 12 17 10 18 9 19 11 21 31 23 18 25 27 26
REMARK SMILES IDX 19 27 25 28 20 29 23 30 28 31 26 33 21 35 22 36 24 38
REMARK H PARENT 9 20 11 22 31 24 28 32 26 34 22 37 24 39
REMARK Flexibility Score: inf
ROOT
ATOM      1  O   UNL     1      -4.494  -7.747  23.507  1.00  0.00    -0.462 OA
ENDROOT
BRANCH   1   2
ATOM      2  C   UNL     1      -4.169  -7.867  24.868  1.00  0.00     0.130 A 
ATOM      3  C   UNL     1      -0.869  -7.109  28.228  1.00  0.00     0.138 A 
ATOM      4  C   UNL     1      -1.699  -7.611  29.244  1.00  0.00     0.100 A 
ATOM      5  O   UNL     1      -1.319  -7.076  26.976  1.00  0.00    -0.456 OA
ATOM      6  C   UNL     1      -2.973  -8.080  28.922  1.00  0.00     0.197 A 
ATOM      7  C   UNL     1      -2.524  -7.508  26.620  1.00  0.00     0.146 A 
ATOM      8  O   UNL     1      -3.711  -8.527  29.843  1.00  0.00    -0.289 OA
ATOM      9  C   UNL     1      -3.411  -8.039  27.584  1.00  0.00     0.107 A 
ATOM     10  C   UNL     1      -2.909  -7.429  25.279  1.00  0.00     0.094 A 
ATOM     11  C   UNL     1      -4.685  -8.496  27.172  1.00  0.00     0.134 A 
ATOM     12  C   UNL     1      -5.052  -8.409  25.820  1.00  0.00     0.093 A 
BRANCH   3  13
ATOM     13  C   UNL     1       0.496  -6.596  28.509  1.00  0.00     0.021 A 
ATOM     14  C   UNL     1       0.747  -5.690  29.558  1.00  0.00     0.016 A 
ATOM     15  C   UNL     1       2.045  -5.231  29.802  1.00  0.00     0.051 A 
ATOM     16  C   UNL     1       3.112  -5.672  29.012  1.00  0.00     0.157 A 
ATOM     17  C   UNL     1       1.578  -7.044  27.729  1.00  0.00     0.062 A 
ATOM     18  C   UNL     1       2.879  -6.583  27.974  1.00  0.00     0.158 A 
BRANCH  16  19
ATOM     19  O   UNL     1       4.407  -5.215  29.252  1.00  0.00    -0.504 OA
ATOM     20  H   UNL     1       4.578  -4.317  29.688  1.00  0.00     0.293 HD
ENDBRANCH  16  19
BRANCH  18  21
ATOM     21  O   UNL     1       3.944  -7.027  27.193  1.00  0.00    -0.504 OA
ATOM     22  H   UNL     1       4.398  -7.916  27.370  1.00  0.00     0.293 HD
ENDBRANCH  18  21
ENDBRANCH   3  13
BRANCH  11  23
ATOM     23  O   UNL     1      -5.585  -9.032  28.091  1.00  0.00    -0.507 OA
ATOM     24  H   UNL     1      -5.759 -10.028  28.150  1.00  0.00     0.293 HD
ENDBRANCH  11  23
ENDBRANCH   1   2
BRANCH   1  25
ATOM     25  C   UNL     1      -5.808  -7.764  22.943  1.00  0.00     0.339 C 
ATOM     26  C   UNL     1      -6.565  -6.436  23.215  1.00  0.00     0.214 C 
ATOM     27  O   UNL     1      -5.752  -8.076  21.557  1.00  0.00    -0.332 OA
ATOM     28  C   UNL     1      -5.955  -5.287  22.398  1.00  0.00     0.180 C 
ATOM     29  C   UNL     1      -5.143  -7.070  20.751  1.00  0.00     0.179 C 
ATOM     30  C   UNL     1      -5.795  -5.670  20.919  1.00  0.00     0.177 C 
BRANCH  26  31
ATOM     31  O   UNL     1      -7.954  -6.536  22.982  1.00  0.00    -0.384 OA
ATOM     32  H   UNL     1      -8.215  -5.920  22.251  1.00  0.00     0.211 HD
ENDBRANCH  26  31
BRANCH  28  33
ATOM     33  O   UNL     1      -6.741  -4.127  22.508  1.00  0.00    -0.387 OA
ATOM     34  H   UNL     1      -6.470  -3.676  23.351  1.00  0.00     0.211 HD
ENDBRANCH  28  33
BRANCH  29  35
ATOM     35  C   UNL     1      -3.606  -7.045  20.891  1.00  0.00     0.191 C 
BRANCH  35  36
ATOM     36  O   UNL     1      -3.103  -8.353  20.845  1.00  0.00    -0.394 OA
ATOM     37  H   UNL     1      -3.508  -8.777  20.044  1.00  0.00     0.210 HD
ENDBRANCH  35  36
ENDBRANCH  29  35
BRANCH  30  38
ATOM     38  O   UNL     1      -7.025  -5.584  20.237  1.00  0.00    -0.387 OA
ATOM     39  H   UNL     1      -6.928  -4.944  19.488  1.00  0.00     0.211 HD
ENDBRANCH  30  38
ENDBRANCH   1  25
TORSDOF 11
ENDMDL
MODEL 9
REMARK VINA RESULT:    -5.986     12.873     16.987
REMARK INTER + INTRA:          -9.209
REMARK INTER:                  -8.553
REMARK INTRA:                  -0.656
REMARK UNBOUND:                -0.598
REMARK SMILES O=c1cc(-c2ccc(O)c(O)c2)oc2cc(O[C@@H]3O[C@H](CO)[C@@H](O)[C@@H](O)[C@H]3O)cc(O)c12
REMARK SMILES IDX 17 1 16 2 4 3 3 4 13 5 2 6 14 7 1 8 32 9 15 10 30 11 29 12
REMARK SMILES IDX 5 13 6 14 7 15 8 16 12 17 10 18 9 19 11 21 31 23 18 25 27 26
REMARK SMILES IDX 19 27 25 28 20 29 23 30 28 31 26 33 21 35 22 36 24 38
REMARK H PARENT 9 20 11 22 31 24 28 32 26 34 22 37 24 39
REMARK Flexibility Score: inf
ROOT
ATOM      1  O   UNL     1      -3.978  -7.080  25.589  1.00  0.00    -0.462 OA
ENDROOT
BRANCH   1   2
ATOM      2  C   UNL     1      -4.607  -7.330  24.359  1.00  0.00     0.130 A 
ATOM      3  C   UNL     1      -6.543  -5.408  20.446  1.00  0.00     0.138 A 
ATOM      4  C   UNL     1      -6.816  -6.667  19.887  1.00  0.00     0.100 A 
ATOM      5  O   UNL     1      -5.952  -5.337  21.636  1.00  0.00    -0.456 OA
ATOM      6  C   UNL     1      -6.478  -7.821  20.594  1.00  0.00     0.197 A 
ATOM      7  C   UNL     1      -5.609  -6.406  22.347  1.00  0.00     0.146 A 
ATOM      8  O   UNL     1      -6.725  -8.948  20.082  1.00  0.00    -0.289 OA
ATOM      9  C   UNL     1      -5.863  -7.708  21.856  1.00  0.00     0.107 A 
ATOM     10  C   UNL     1      -4.989  -6.231  23.587  1.00  0.00     0.094 A 
ATOM     11  C   UNL     1      -5.490  -8.824  22.640  1.00  0.00     0.134 A 
ATOM     12  C   UNL     1      -4.869  -8.627  23.883  1.00  0.00     0.093 A 
BRANCH   3  13
ATOM     13  C   UNL     1      -6.880  -4.145  19.741  1.00  0.00     0.021 A 
ATOM     14  C   UNL     1      -7.515  -3.073  20.399  1.00  0.00     0.016 A 
ATOM     15  C   UNL     1      -7.812  -1.894  19.709  1.00  0.00     0.051 A 
ATOM     16  C   UNL     1      -7.474  -1.761  18.358  1.00  0.00     0.157 A 
ATOM     17  C   UNL     1      -6.532  -3.995  18.385  1.00  0.00     0.062 A 
ATOM     18  C   UNL     1      -6.831  -2.812  17.695  1.00  0.00     0.158 A 
BRANCH  16  19
ATOM     19  O   UNL     1      -7.771  -0.586  17.668  1.00  0.00    -0.504 OA
ATOM     20  H   UNL     1      -7.157  -0.227  16.946  1.00  0.00     0.293 HD
ENDBRANCH  16  19
BRANCH  18  21
ATOM     21  O   UNL     1      -6.489  -2.675  16.351  1.00  0.00    -0.504 OA
ATOM     22  H   UNL     1      -6.619  -1.799  15.857  1.00  0.00     0.293 HD
ENDBRANCH  18  21
ENDBRANCH   3  13
BRANCH  11  23
ATOM     23  O   UNL     1      -5.729 -10.124  22.193  1.00  0.00    -0.507 OA
ATOM     24  H   UNL     1      -6.097 -10.312  21.268  1.00  0.00     0.293 HD
ENDBRANCH  11  23
ENDBRANCH   1   2
BRANCH   1  25
ATOM     25  C   UNL     1      -2.685  -7.542  25.989  1.00  0.00     0.339 C 
ATOM     26  C   UNL     1      -2.050  -6.612  27.058  1.00  0.00     0.214 C 
ATOM     27  O   UNL     1      -2.753  -8.893  26.426  1.00  0.00    -0.332 OA
ATOM     28  C   UNL     1      -2.790  -6.740  28.398  1.00  0.00     0.180 C 
ATOM     29  C   UNL     1      -3.478  -9.086  27.639  1.00  0.00     0.179 C 
ATOM     30  C   UNL     1      -2.957  -8.210  28.811  1.00  0.00     0.177 C 
BRANCH  26  31
ATOM     31  O   UNL     1      -0.665  -6.831  27.225  1.00  0.00    -0.384 OA
ATOM     32  H   UNL     1      -0.462  -6.961  28.187  1.00  0.00     0.211 HD
ENDBRANCH  26  31
BRANCH  28  33
ATOM     33  O   UNL     1      -2.115  -6.033  29.408  1.00  0.00    -0.387 OA
ATOM     34  H   UNL     1      -2.368  -6.455  30.271  1.00  0.00     0.211 HD
ENDBRANCH  28  33
BRANCH  29  35
ATOM     35  C   UNL     1      -5.005  -8.988  27.439  1.00  0.00     0.191 C 
BRANCH  35  36
ATOM     36  O   UNL     1      -5.645  -8.931  28.685  1.00  0.00    -0.394 OA
ATOM     37  H   UNL     1      -4.925  -8.840  29.362  1.00  0.00     0.210 HD
ENDBRANCH  35  36
ENDBRANCH  29  35
BRANCH  30  38
ATOM     38  O   UNL     1      -1.761  -8.723  29.352  1.00  0.00    -0.387 OA
ATOM     39  H   UNL     1      -1.700  -8.450  30.302  1.00  0.00     0.211 HD
ENDBRANCH  30  38
ENDBRANCH   1  25
TORSDOF 11
ENDMDL
