MODEL 1
REMARK VINA RESULT:    -4.191      0.000      0.000
REMARK INTER + INTRA:         -16.170
REMARK INTER:                 -11.052
REMARK INTRA:                  -5.118
REMARK UNBOUND:                -5.118
REMARK SMILES CCCCCCCCCCCCCCCCCCCCCCCCCCCCCC(=O)[O-]
REMARK SMILES IDX 16 1 17 2 18 3 19 4 20 5 21 6 22 7 23 8 24 9 25 10 26 11
REMARK SMILES IDX 27 12 28 13 29 14 30 15 31 16 32 17 15 18 14 19 13 20 12 21
REMARK SMILES IDX 11 22 10 23 9 24 8 25 7 26 6 27 5 28 4 29 3 30 2 31 1 32
REMARK H PARENT
REMARK Flexibility Score: inf
ROOT
ATOM      1  C   UNL     1      58.007  33.660  79.934  1.00  0.00     0.000 C 
ENDROOT
BRANCH   1   2
ATOM      2  C   UNL     1      58.715  34.593  80.939  1.00  0.00     0.000 C 
BRANCH   2   3
ATOM      3  C   UNL     1      58.991  36.011  80.394  1.00  0.00     0.000 C 
BRANCH   3   4
ATOM      4  C   UNL     1      57.999  37.096  80.848  1.00  0.00     0.000 C 
BRANCH   4   5
ATOM      5  C   UNL     1      56.779  37.217  79.918  1.00  0.00     0.000 C 
BRANCH   5   6
ATOM      6  C   UNL     1      57.168  37.407  78.444  1.00  0.00     0.000 C 
BRANCH   6   7
ATOM      7  C   UNL     1      57.778  38.785  78.153  1.00  0.00     0.000 C 
BRANCH   7   8
ATOM      8  C   UNL     1      59.291  38.706  77.874  1.00  0.00     0.000 C 
BRANCH   8   9
ATOM      9  C   UNL     1      59.730  37.358  77.259  1.00  0.00     0.000 C 
BRANCH   9  10
ATOM     10  C   UNL     1      60.306  37.522  75.841  1.00  0.00     0.000 C 
BRANCH  10  11
ATOM     11  C   UNL     1      59.813  36.439  74.860  1.00  0.00     0.000 C 
BRANCH  11  12
ATOM     12  C   UNL     1      58.718  36.895  73.875  1.00  0.00     0.000 C 
BRANCH  12  13
ATOM     13  C   UNL     1      57.518  37.557  74.570  1.00  0.00     0.006 C 
BRANCH  13  14
ATOM     14  C   UNL     1      56.405  36.539  74.830  1.00  0.00     0.053 C 
BRANCH  14  15
ATOM     15  C   UNL     1      55.354  36.624  73.770  1.00  0.00     0.041 C 
ATOM     16  O   UNL     1      54.641  37.656  73.664  1.00  0.00    -0.550 OA
ATOM     17  O   UNL     1      55.165  35.565  72.891  1.00  0.00    -0.550 OA
ENDBRANCH  14  15
ENDBRANCH  13  14
ENDBRANCH  12  13
ENDBRANCH  11  12
ENDBRANCH  10  11
ENDBRANCH   9  10
ENDBRANCH   8   9
ENDBRANCH   7   8
ENDBRANCH   6   7
ENDBRANCH   5   6
ENDBRANCH   4   5
ENDBRANCH   3   4
ENDBRANCH   2   3
ENDBRANCH   1   2
BRANCH   1  18
ATOM     18  C   UNL     1      58.649  33.702  78.532  1.00  0.00     0.000 C 
BRANCH  18  19
ATOM     19  C   UNL     1      57.670  34.132  77.421  1.00  0.00     0.000 C 
BRANCH  19  20
ATOM     20  C   UNL     1      57.658  33.239  76.165  1.00  0.00     0.000 C 
BRANCH  20  21
ATOM     21  C   UNL     1      59.063  32.887  75.646  1.00  0.00     0.000 C 
BRANCH  21  22
ATOM     22  C   UNL     1      59.074  32.536  74.147  1.00  0.00     0.000 C 
BRANCH  22  23
ATOM     23  C   UNL     1      58.175  33.442  73.274  1.00  0.00     0.000 C 
BRANCH  23  24
ATOM     24  C   UNL     1      57.150  32.667  72.431  1.00  0.00    -0.000 C 
BRANCH  24  25
ATOM     25  C   UNL     1      56.010  32.056  73.275  1.00  0.00    -0.000 C 
BRANCH  25  26
ATOM     26  C   UNL     1      56.003  30.524  73.166  1.00  0.00    -0.000 C 
BRANCH  26  27
ATOM     27  C   UNL     1      55.719  29.865  74.524  1.00  0.00    -0.000 C 
BRANCH  27  28
ATOM     28  C   UNL     1      56.804  28.841  74.912  1.00  0.00    -0.000 C 
BRANCH  28  29
ATOM     29  C   UNL     1      57.931  29.422  75.785  1.00  0.00    -0.000 C 
BRANCH  29  30
ATOM     30  C   UNL     1      59.354  29.066  75.310  1.00  0.00    -0.000 C 
BRANCH  30  31
ATOM     31  C   UNL     1      60.283  28.674  76.469  1.00  0.00    -0.003 C 
ATOM     32  C   UNL     1      61.631  28.179  75.946  1.00  0.00     0.004 C 
ENDBRANCH  30  31
ENDBRANCH  29  30
ENDBRANCH  28  29
ENDBRANCH  27  28
ENDBRANCH  26  27
ENDBRANCH  25  26
ENDBRANCH  24  25
ENDBRANCH  23  24
ENDBRANCH  22  23
ENDBRANCH  21  22
ENDBRANCH  20  21
ENDBRANCH  19  20
ENDBRANCH  18  19
ENDBRANCH   1  18
TORSDOF 28
ENDMDL
MODEL 2
REMARK VINA RESULT:    -4.172      2.914      7.816
REMARK INTER + INTRA:         -16.118
REMARK INTER:                 -11.525
REMARK INTRA:                  -4.593
REMARK UNBOUND:                -5.118
REMARK SMILES CCCCCCCCCCCCCCCCCCCCCCCCCCCCCC(=O)[O-]
REMARK SMILES IDX 16 1 17 2 18 3 19 4 20 5 21 6 22 7 23 8 24 9 25 10 26 11
REMARK SMILES IDX 27 12 28 13 29 14 30 15 31 16 32 17 15 18 14 19 13 20 12 21
REMARK SMILES IDX 11 22 10 23 9 24 8 25 7 26 6 27 5 28 4 29 3 30 2 31 1 32
REMARK H PARENT
REMARK Flexibility Score: inf
ROOT
ATOM      1  C   UNL     1      58.542  34.308  80.754  1.00  0.00     0.000 C 
ENDROOT
BRANCH   1   2
ATOM      2  C   UNL     1      59.081  33.653  79.466  1.00  0.00     0.000 C 
BRANCH   2   3
ATOM      3  C   UNL     1      57.980  33.138  78.514  1.00  0.00     0.000 C 
BRANCH   3   4
ATOM      4  C   UNL     1      57.787  33.955  77.225  1.00  0.00     0.000 C 
BRANCH   4   5
ATOM      5  C   UNL     1      57.562  33.072  75.985  1.00  0.00     0.000 C 
BRANCH   5   6
ATOM      6  C   UNL     1      58.495  33.432  74.819  1.00  0.00     0.000 C 
BRANCH   6   7
ATOM      7  C   UNL     1      58.151  32.692  73.519  1.00  0.00     0.000 C 
BRANCH   7   8
ATOM      8  C   UNL     1      56.630  32.581  73.297  1.00  0.00     0.000 C 
BRANCH   8   9
ATOM      9  C   UNL     1      56.172  31.159  72.903  1.00  0.00     0.000 C 
BRANCH   9  10
ATOM     10  C   UNL     1      55.629  30.365  74.104  1.00  0.00     0.000 C 
BRANCH  10  11
ATOM     11  C   UNL     1      56.577  29.238  74.563  1.00  0.00     0.000 C 
BRANCH  11  12
ATOM     12  C   UNL     1      57.295  29.489  75.903  1.00  0.00     0.000 C 
BRANCH  12  13
ATOM     13  C   UNL     1      58.819  29.617  75.758  1.00  0.00     0.006 C 
BRANCH  13  14
ATOM     14  C   UNL     1      59.512  28.285  76.059  1.00  0.00     0.053 C 
BRANCH  14  15
ATOM     15  C   UNL     1      60.906  28.514  76.548  1.00  0.00     0.041 C 
ATOM     16  O   UNL     1      61.582  29.481  76.108  1.00  0.00    -0.550 OA
ATOM     17  O   UNL     1      61.459  27.662  77.496  1.00  0.00    -0.550 OA
ENDBRANCH  14  15
ENDBRANCH  13  14
ENDBRANCH  12  13
ENDBRANCH  11  12
ENDBRANCH  10  11
ENDBRANCH   9  10
ENDBRANCH   8   9
ENDBRANCH   7   8
ENDBRANCH   6   7
ENDBRANCH   5   6
ENDBRANCH   4   5
ENDBRANCH   3   4
ENDBRANCH   2   3
ENDBRANCH   1   2
BRANCH   1  18
ATOM     18  C   UNL     1      58.758  35.835  80.777  1.00  0.00     0.000 C 
BRANCH  18  19
ATOM     19  C   UNL     1      57.753  36.611  79.901  1.00  0.00     0.000 C 
BRANCH  19  20
ATOM     20  C   UNL     1      58.371  37.650  78.944  1.00  0.00     0.000 C 
BRANCH  20  21
ATOM     21  C   UNL     1      59.796  37.294  78.486  1.00  0.00     0.000 C 
BRANCH  21  22
ATOM     22  C   UNL     1      60.074  37.706  77.029  1.00  0.00     0.000 C 
BRANCH  22  23
ATOM     23  C   UNL     1      59.286  36.893  75.975  1.00  0.00     0.000 C 
BRANCH  23  24
ATOM     24  C   UNL     1      58.418  37.761  75.048  1.00  0.00    -0.000 C 
BRANCH  24  25
ATOM     25  C   UNL     1      57.021  38.064  75.633  1.00  0.00    -0.000 C 
BRANCH  25  26
ATOM     26  C   UNL     1      56.101  36.839  75.526  1.00  0.00    -0.000 C 
BRANCH  26  27
ATOM     27  C   UNL     1      56.191  36.187  74.138  1.00  0.00    -0.000 C 
BRANCH  27  28
ATOM     28  C   UNL     1      54.958  36.500  73.267  1.00  0.00    -0.000 C 
BRANCH  28  29
ATOM     29  C   UNL     1      55.019  37.867  72.563  1.00  0.00    -0.000 C 
BRANCH  29  30
ATOM     30  C   UNL     1      53.927  38.862  73.007  1.00  0.00    -0.000 C 
BRANCH  30  31
ATOM     31  C   UNL     1      54.332  40.326  72.774  1.00  0.00    -0.003 C 
ATOM     32  C   UNL     1      55.778  40.568  73.204  1.00  0.00     0.004 C 
ENDBRANCH  30  31
ENDBRANCH  29  30
ENDBRANCH  28  29
ENDBRANCH  27  28
ENDBRANCH  26  27
ENDBRANCH  25  26
ENDBRANCH  24  25
ENDBRANCH  23  24
ENDBRANCH  22  23
ENDBRANCH  21  22
ENDBRANCH  20  21
ENDBRANCH  19  20
ENDBRANCH  18  19
ENDBRANCH   1  18
TORSDOF 28
ENDMDL
MODEL 3
REMARK VINA RESULT:    -4.145      3.332      8.251
REMARK INTER + INTRA:         -16.048
REMARK INTER:                 -11.330
REMARK INTRA:                  -4.718
REMARK UNBOUND:                -5.118
REMARK SMILES CCCCCCCCCCCCCCCCCCCCCCCCCCCCCC(=O)[O-]
REMARK SMILES IDX 16 1 17 2 18 3 19 4 20 5 21 6 22 7 23 8 24 9 25 10 26 11
REMARK SMILES IDX 27 12 28 13 29 14 30 15 31 16 32 17 15 18 14 19 13 20 12 21
REMARK SMILES IDX 11 22 10 23 9 24 8 25 7 26 6 27 5 28 4 29 3 30 2 31 1 32
REMARK H PARENT
REMARK Flexibility Score: inf
ROOT
ATOM      1  C   UNL     1      57.629  33.356  76.899  1.00  0.00     0.000 C 
ENDROOT
BRANCH   1   2
ATOM      2  C   UNL     1      58.822  33.524  75.935  1.00  0.00     0.000 C 
BRANCH   2   3
ATOM      3  C   UNL     1      58.464  34.228  74.608  1.00  0.00     0.000 C 
BRANCH   3   4
ATOM      4  C   UNL     1      56.966  34.505  74.391  1.00  0.00     0.000 C 
BRANCH   4   5
ATOM      5  C   UNL     1      56.368  33.688  73.233  1.00  0.00     0.000 C 
BRANCH   5   6
ATOM      6  C   UNL     1      56.984  32.285  73.111  1.00  0.00     0.000 C 
BRANCH   6   7
ATOM      7  C   UNL     1      55.945  31.191  72.833  1.00  0.00     0.000 C 
BRANCH   7   8
ATOM      8  C   UNL     1      55.791  30.219  74.019  1.00  0.00     0.000 C 
BRANCH   8   9
ATOM      9  C   UNL     1      56.949  30.309  75.038  1.00  0.00     0.000 C 
BRANCH   9  10
ATOM     10  C   UNL     1      57.463  28.923  75.463  1.00  0.00     0.000 C 
BRANCH  10  11
ATOM     11  C   UNL     1      59.002  28.832  75.497  1.00  0.00     0.000 C 
BRANCH  11  12
ATOM     12  C   UNL     1      59.710  29.967  76.264  1.00  0.00     0.000 C 
BRANCH  12  13
ATOM     13  C   UNL     1      61.242  29.882  76.192  1.00  0.00     0.006 C 
BRANCH  13  14
ATOM     14  C   UNL     1      61.704  28.431  76.034  1.00  0.00     0.053 C 
BRANCH  14  15
ATOM     15  C   UNL     1      62.108  27.860  77.356  1.00  0.00     0.041 C 
ATOM     16  O   UNL     1      61.319  27.113  77.993  1.00  0.00    -0.550 OA
ATOM     17  O   UNL     1      63.361  28.146  77.884  1.00  0.00    -0.550 OA
ENDBRANCH  14  15
ENDBRANCH  13  14
ENDBRANCH  12  13
ENDBRANCH  11  12
ENDBRANCH  10  11
ENDBRANCH   9  10
ENDBRANCH   8   9
ENDBRANCH   7   8
ENDBRANCH   6   7
ENDBRANCH   5   6
ENDBRANCH   4   5
ENDBRANCH   3   4
ENDBRANCH   2   3
ENDBRANCH   1   2
BRANCH   1  18
ATOM     18  C   UNL     1      58.055  32.818  78.280  1.00  0.00     0.000 C 
BRANCH  18  19
ATOM     19  C   UNL     1      58.848  33.839  79.120  1.00  0.00     0.000 C 
BRANCH  19  20
ATOM     20  C   UNL     1      58.149  34.331  80.402  1.00  0.00     0.000 C 
BRANCH  20  21
ATOM     21  C   UNL     1      58.886  35.487  81.101  1.00  0.00     0.000 C 
BRANCH  21  22
ATOM     22  C   UNL     1      58.444  36.870  80.590  1.00  0.00     0.000 C 
BRANCH  22  23
ATOM     23  C   UNL     1      56.917  37.019  80.395  1.00  0.00     0.000 C 
BRANCH  23  24
ATOM     24  C   UNL     1      56.524  37.630  79.039  1.00  0.00    -0.000 C 
BRANCH  24  25
ATOM     25  C   UNL     1      56.478  36.592  77.897  1.00  0.00    -0.000 C 
BRANCH  25  26
ATOM     26  C   UNL     1      56.668  37.266  76.531  1.00  0.00    -0.000 C 
BRANCH  26  27
ATOM     27  C   UNL     1      58.005  38.018  76.456  1.00  0.00    -0.000 C 
BRANCH  27  28
ATOM     28  C   UNL     1      59.203  37.113  76.806  1.00  0.00    -0.000 C 
BRANCH  28  29
ATOM     29  C   UNL     1      60.510  37.496  76.088  1.00  0.00    -0.000 C 
BRANCH  29  30
ATOM     30  C   UNL     1      60.363  38.641  75.065  1.00  0.00    -0.000 C 
BRANCH  30  31
ATOM     31  C   UNL     1      60.628  38.182  73.623  1.00  0.00    -0.003 C 
ATOM     32  C   UNL     1      59.426  37.422  73.061  1.00  0.00     0.004 C 
ENDBRANCH  30  31
ENDBRANCH  29  30
ENDBRANCH  28  29
ENDBRANCH  27  28
ENDBRANCH  26  27
ENDBRANCH  25  26
ENDBRANCH  24  25
ENDBRANCH  23  24
ENDBRANCH  22  23
ENDBRANCH  21  22
ENDBRANCH  20  21
ENDBRANCH  19  20
ENDBRANCH  18  19
ENDBRANCH   1  18
TORSDOF 28
ENDMDL
MODEL 4
REMARK VINA RESULT:    -4.121      2.287      7.319
REMARK INTER + INTRA:         -15.984
REMARK INTER:                 -10.775
REMARK INTRA:                  -5.209
REMARK UNBOUND:                -5.118
REMARK SMILES CCCCCCCCCCCCCCCCCCCCCCCCCCCCCC(=O)[O-]
REMARK SMILES IDX 16 1 17 2 18 3 19 4 20 5 21 6 22 7 23 8 24 9 25 10 26 11
REMARK SMILES IDX 27 12 28 13 29 14 30 15 31 16 32 17 15 18 14 19 13 20 12 21
REMARK SMILES IDX 11 22 10 23 9 24 8 25 7 26 6 27 5 28 4 29 3 30 2 31 1 32
REMARK H PARENT
REMARK Flexibility Score: inf
ROOT
ATOM      1  C   UNL     1      61.081  37.403  74.684  1.00  0.00     0.000 C 
ENDROOT
BRANCH   1   2
ATOM      2  C   UNL     1      60.113  36.237  74.975  1.00  0.00     0.000 C 
BRANCH   2   3
ATOM      3  C   UNL     1      59.714  35.423  73.725  1.00  0.00     0.000 C 
BRANCH   3   4
ATOM      4  C   UNL     1      58.676  36.092  72.807  1.00  0.00     0.000 C 
BRANCH   4   5
ATOM      5  C   UNL     1      57.716  35.081  72.155  1.00  0.00     0.000 C 
BRANCH   5   6
ATOM      6  C   UNL     1      58.318  33.672  72.043  1.00  0.00     0.000 C 
BRANCH   6   7
ATOM      7  C   UNL     1      57.257  32.565  71.981  1.00  0.00     0.000 C 
BRANCH   7   8
ATOM      8  C   UNL     1      56.884  32.035  73.379  1.00  0.00     0.000 C 
BRANCH   8   9
ATOM      9  C   UNL     1      55.905  30.840  73.339  1.00  0.00     0.000 C 
BRANCH   9  10
ATOM     10  C   UNL     1      56.040  29.932  74.573  1.00  0.00     0.000 C 
BRANCH  10  11
ATOM     11  C   UNL     1      57.437  29.996  75.223  1.00  0.00     0.000 C 
BRANCH  11  12
ATOM     12  C   UNL     1      58.087  28.630  75.519  1.00  0.00     0.000 C 
BRANCH  12  13
ATOM     13  C   UNL     1      59.583  28.732  75.853  1.00  0.00     0.006 C 
BRANCH  13  14
ATOM     14  C   UNL     1      59.988  30.184  76.119  1.00  0.00     0.053 C 
BRANCH  14  15
ATOM     15  C   UNL     1      60.748  30.741  74.958  1.00  0.00     0.041 C 
ATOM     16  O   UNL     1      61.466  29.988  74.250  1.00  0.00    -0.550 OA
ATOM     17  O   UNL     1      60.659  32.094  74.653  1.00  0.00    -0.550 OA
ENDBRANCH  14  15
ENDBRANCH  13  14
ENDBRANCH  12  13
ENDBRANCH  11  12
ENDBRANCH  10  11
ENDBRANCH   9  10
ENDBRANCH   8   9
ENDBRANCH   7   8
ENDBRANCH   6   7
ENDBRANCH   5   6
ENDBRANCH   4   5
ENDBRANCH   3   4
ENDBRANCH   2   3
ENDBRANCH   1   2
BRANCH   1  18
ATOM     18  C   UNL     1      61.031  38.499  75.767  1.00  0.00     0.000 C 
BRANCH  18  19
ATOM     19  C   UNL     1      59.892  39.518  75.558  1.00  0.00     0.000 C 
BRANCH  19  20
ATOM     20  C   UNL     1      58.702  39.392  76.530  1.00  0.00     0.000 C 
BRANCH  20  21
ATOM     21  C   UNL     1      57.430  38.828  75.873  1.00  0.00     0.000 C 
BRANCH  21  22
ATOM     22  C   UNL     1      57.003  37.475  76.469  1.00  0.00     0.000 C 
BRANCH  22  23
ATOM     23  C   UNL     1      56.157  36.598  75.517  1.00  0.00     0.000 C 
BRANCH  23  24
ATOM     24  C   UNL     1      56.481  35.097  75.608  1.00  0.00    -0.000 C 
BRANCH  24  25
ATOM     25  C   UNL     1      57.230  34.716  76.903  1.00  0.00    -0.000 C 
BRANCH  25  26
ATOM     26  C   UNL     1      58.009  33.406  76.724  1.00  0.00    -0.000 C 
BRANCH  26  27
ATOM     27  C   UNL     1      58.332  32.753  78.078  1.00  0.00    -0.000 C 
BRANCH  27  28
ATOM     28  C   UNL     1      57.882  33.626  79.266  1.00  0.00    -0.000 C 
BRANCH  28  29
ATOM     29  C   UNL     1      59.041  34.288  80.032  1.00  0.00    -0.000 C 
BRANCH  29  30
ATOM     30  C   UNL     1      58.660  35.591  80.765  1.00  0.00    -0.000 C 
BRANCH  30  31
ATOM     31  C   UNL     1      58.611  36.805  79.826  1.00  0.00    -0.003 C 
ATOM     32  C   UNL     1      59.710  36.721  78.766  1.00  0.00     0.004 C 
ENDBRANCH  30  31
ENDBRANCH  29  30
ENDBRANCH  28  29
ENDBRANCH  27  28
ENDBRANCH  26  27
ENDBRANCH  25  26
ENDBRANCH  24  25
ENDBRANCH  23  24
ENDBRANCH  22  23
ENDBRANCH  21  22
ENDBRANCH  20  21
ENDBRANCH  19  20
ENDBRANCH  18  19
ENDBRANCH   1  18
TORSDOF 28
ENDMDL
MODEL 5
REMARK VINA RESULT:    -4.101      1.884      4.104
REMARK INTER + INTRA:         -15.932
REMARK INTER:                 -11.655
REMARK INTRA:                  -4.276
REMARK UNBOUND:                -5.118
REMARK SMILES CCCCCCCCCCCCCCCCCCCCCCCCCCCCCC(=O)[O-]
REMARK SMILES IDX 16 1 17 2 18 3 19 4 20 5 21 6 22 7 23 8 24 9 25 10 26 11
REMARK SMILES IDX 27 12 28 13 29 14 30 15 31 16 32 17 15 18 14 19 13 20 12 21
REMARK SMILES IDX 11 22 10 23 9 24 8 25 7 26 6 27 5 28 4 29 3 30 2 31 1 32
REMARK H PARENT
REMARK Flexibility Score: inf
ROOT
ATOM      1  C   UNL     1      57.916  32.980  78.541  1.00  0.00     0.000 C 
ENDROOT
BRANCH   1   2
ATOM      2  C   UNL     1      58.986  33.865  79.214  1.00  0.00     0.000 C 
BRANCH   2   3
ATOM      3  C   UNL     1      58.620  34.318  80.644  1.00  0.00     0.000 C 
BRANCH   3   4
ATOM      4  C   UNL     1      58.811  35.817  80.930  1.00  0.00     0.000 C 
BRANCH   4   5
ATOM      5  C   UNL     1      57.716  36.691  80.293  1.00  0.00     0.000 C 
BRANCH   5   6
ATOM      6  C   UNL     1      58.253  37.603  79.179  1.00  0.00     0.000 C 
BRANCH   6   7
ATOM      7  C   UNL     1      57.963  37.070  77.770  1.00  0.00     0.000 C 
BRANCH   7   8
ATOM      8  C   UNL     1      56.565  36.430  77.665  1.00  0.00     0.000 C 
BRANCH   8   9
ATOM      9  C   UNL     1      55.960  36.511  76.246  1.00  0.00     0.000 C 
BRANCH   9  10
ATOM     10  C   UNL     1      56.456  37.742  75.467  1.00  0.00     0.000 C 
BRANCH  10  11
ATOM     11  C   UNL     1      56.324  37.586  73.939  1.00  0.00     0.000 C 
BRANCH  11  12
ATOM     12  C   UNL     1      54.915  37.213  73.437  1.00  0.00     0.000 C 
BRANCH  12  13
ATOM     13  C   UNL     1      54.324  38.250  72.468  1.00  0.00     0.006 C 
BRANCH  13  14
ATOM     14  C   UNL     1      53.629  39.380  73.232  1.00  0.00     0.053 C 
BRANCH  14  15
ATOM     15  C   UNL     1      52.494  39.936  72.434  1.00  0.00     0.041 C 
ATOM     16  O   UNL     1      51.316  39.544  72.647  1.00  0.00    -0.550 OA
ATOM     17  O   UNL     1      52.734  40.894  71.457  1.00  0.00    -0.550 OA
ENDBRANCH  14  15
ENDBRANCH  13  14
ENDBRANCH  12  13
ENDBRANCH  11  12
ENDBRANCH  10  11
ENDBRANCH   9  10
ENDBRANCH   8   9
ENDBRANCH   7   8
ENDBRANCH   6   7
ENDBRANCH   5   6
ENDBRANCH   4   5
ENDBRANCH   3   4
ENDBRANCH   2   3
ENDBRANCH   1   2
BRANCH   1  18
ATOM     18  C   UNL     1      57.857  33.182  77.013  1.00  0.00     0.000 C 
BRANCH  18  19
ATOM     19  C   UNL     1      58.884  32.329  76.240  1.00  0.00     0.000 C 
BRANCH  19  20
ATOM     20  C   UNL     1      58.953  30.843  76.645  1.00  0.00     0.000 C 
BRANCH  20  21
ATOM     21  C   UNL     1      58.617  29.877  75.496  1.00  0.00     0.000 C 
BRANCH  21  22
ATOM     22  C   UNL     1      57.277  29.148  75.704  1.00  0.00     0.000 C 
BRANCH  22  23
ATOM     23  C   UNL     1      56.367  29.119  74.454  1.00  0.00     0.000 C 
BRANCH  23  24
ATOM     24  C   UNL     1      55.615  30.437  74.207  1.00  0.00    -0.000 C 
BRANCH  24  25
ATOM     25  C   UNL     1      56.067  31.162  72.920  1.00  0.00    -0.000 C 
BRANCH  25  26
ATOM     26  C   UNL     1      56.553  32.585  73.230  1.00  0.00    -0.000 C 
BRANCH  26  27
ATOM     27  C   UNL     1      57.575  33.069  72.190  1.00  0.00    -0.000 C 
BRANCH  27  28
ATOM     28  C   UNL     1      57.356  34.544  71.802  1.00  0.00    -0.000 C 
BRANCH  28  29
ATOM     29  C   UNL     1      58.508  35.479  72.213  1.00  0.00    -0.000 C 
BRANCH  29  30
ATOM     30  C   UNL     1      59.863  34.770  72.416  1.00  0.00    -0.000 C 
BRANCH  30  31
ATOM     31  C   UNL     1      60.282  34.710  73.893  1.00  0.00    -0.003 C 
ATOM     32  C   UNL     1      59.601  35.816  74.700  1.00  0.00     0.004 C 
ENDBRANCH  30  31
ENDBRANCH  29  30
ENDBRANCH  28  29
ENDBRANCH  27  28
ENDBRANCH  26  27
ENDBRANCH  25  26
ENDBRANCH  24  25
ENDBRANCH  23  24
ENDBRANCH  22  23
ENDBRANCH  21  22
ENDBRANCH  20  21
ENDBRANCH  19  20
ENDBRANCH  18  19
ENDBRANCH   1  18
TORSDOF 28
ENDMDL
MODEL 6
REMARK VINA RESULT:    -4.090      1.228      2.845
REMARK INTER + INTRA:         -15.902
REMARK INTER:                 -10.797
REMARK INTRA:                  -5.104
REMARK UNBOUND:                -5.118
REMARK SMILES CCCCCCCCCCCCCCCCCCCCCCCCCCCCCC(=O)[O-]
REMARK SMILES IDX 16 1 17 2 18 3 19 4 20 5 21 6 22 7 23 8 24 9 25 10 26 11
REMARK SMILES IDX 27 12 28 13 29 14 30 15 31 16 32 17 15 18 14 19 13 20 12 21
REMARK SMILES IDX 11 22 10 23 9 24 8 25 7 26 6 27 5 28 4 29 3 30 2 31 1 32
REMARK H PARENT
REMARK Flexibility Score: inf
ROOT
ATOM      1  C   UNL     1      59.125  34.697  79.930  1.00  0.00     0.000 C 
ENDROOT
BRANCH   1   2
ATOM      2  C   UNL     1      58.721  35.478  81.198  1.00  0.00     0.000 C 
BRANCH   2   3
ATOM      3  C   UNL     1      58.094  36.859  80.913  1.00  0.00     0.000 C 
BRANCH   3   4
ATOM      4  C   UNL     1      57.174  36.925  79.682  1.00  0.00     0.000 C 
BRANCH   4   5
ATOM      5  C   UNL     1      57.701  37.873  78.591  1.00  0.00     0.000 C 
BRANCH   5   6
ATOM      6  C   UNL     1      59.128  38.369  78.869  1.00  0.00     0.000 C 
BRANCH   6   7
ATOM      7  C   UNL     1      60.195  37.630  78.050  1.00  0.00     0.000 C 
BRANCH   7   8
ATOM      8  C   UNL     1      59.674  37.204  76.664  1.00  0.00     0.000 C 
BRANCH   8   9
ATOM      9  C   UNL     1      60.647  37.548  75.514  1.00  0.00     0.000 C 
BRANCH   9  10
ATOM     10  C   UNL     1      60.591  39.036  75.125  1.00  0.00     0.000 C 
BRANCH  10  11
ATOM     11  C   UNL     1      59.491  39.350  74.090  1.00  0.00     0.000 C 
BRANCH  11  12
ATOM     12  C   UNL     1      58.237  40.046  74.656  1.00  0.00     0.000 C 
BRANCH  12  13
ATOM     13  C   UNL     1      57.136  39.060  75.075  1.00  0.00     0.006 C 
BRANCH  13  14
ATOM     14  C   UNL     1      57.008  37.918  74.063  1.00  0.00     0.053 C 
BRANCH  14  15
ATOM     15  C   UNL     1      56.037  36.890  74.548  1.00  0.00     0.041 C 
ATOM     16  O   UNL     1      55.560  36.040  73.750  1.00  0.00    -0.550 OA
ATOM     17  O   UNL     1      55.661  36.864  75.885  1.00  0.00    -0.550 OA
ENDBRANCH  14  15
ENDBRANCH  13  14
ENDBRANCH  12  13
ENDBRANCH  11  12
ENDBRANCH  10  11
ENDBRANCH   9  10
ENDBRANCH   8   9
ENDBRANCH   7   8
ENDBRANCH   6   7
ENDBRANCH   5   6
ENDBRANCH   4   5
ENDBRANCH   3   4
ENDBRANCH   2   3
ENDBRANCH   1   2
BRANCH   1  18
ATOM     18  C   UNL     1      58.175  33.519  79.632  1.00  0.00     0.000 C 
BRANCH  18  19
ATOM     19  C   UNL     1      58.124  33.132  78.140  1.00  0.00     0.000 C 
BRANCH  19  20
ATOM     20  C   UNL     1      57.531  34.199  77.198  1.00  0.00     0.000 C 
BRANCH  20  21
ATOM     21  C   UNL     1      57.603  33.814  75.710  1.00  0.00     0.000 C 
BRANCH  21  22
ATOM     22  C   UNL     1      59.001  34.035  75.104  1.00  0.00     0.000 C 
BRANCH  22  23
ATOM     23  C   UNL     1      59.275  33.221  73.819  1.00  0.00     0.000 C 
BRANCH  23  24
ATOM     24  C   UNL     1      60.386  32.171  73.978  1.00  0.00    -0.000 C 
BRANCH  24  25
ATOM     25  C   UNL     1      60.336  31.436  75.336  1.00  0.00    -0.000 C 
BRANCH  25  26
ATOM     26  C   UNL     1      60.477  29.919  75.148  1.00  0.00    -0.000 C 
BRANCH  26  27
ATOM     27  C   UNL     1      59.351  29.157  75.861  1.00  0.00    -0.000 C 
BRANCH  27  28
ATOM     28  C   UNL     1      58.113  30.043  76.108  1.00  0.00    -0.000 C 
BRANCH  28  29
ATOM     29  C   UNL     1      56.772  29.334  75.846  1.00  0.00    -0.000 C 
BRANCH  29  30
ATOM     30  C   UNL     1      56.086  29.735  74.525  1.00  0.00    -0.000 C 
BRANCH  30  31
ATOM     31  C   UNL     1      56.837  30.851  73.784  1.00  0.00    -0.003 C 
ATOM     32  C   UNL     1      55.877  31.690  72.940  1.00  0.00     0.004 C 
ENDBRANCH  30  31
ENDBRANCH  29  30
ENDBRANCH  28  29
ENDBRANCH  27  28
ENDBRANCH  26  27
ENDBRANCH  25  26
ENDBRANCH  24  25
ENDBRANCH  23  24
ENDBRANCH  22  23
ENDBRANCH  21  22
ENDBRANCH  20  21
ENDBRANCH  19  20
ENDBRANCH  18  19
ENDBRANCH   1  18
TORSDOF 28
ENDMDL
MODEL 7
REMARK VINA RESULT:    -4.090      3.234      8.306
REMARK INTER + INTRA:         -15.901
REMARK INTER:                 -11.329
REMARK INTRA:                  -4.572
REMARK UNBOUND:                -5.118
REMARK SMILES CCCCCCCCCCCCCCCCCCCCCCCCCCCCCC(=O)[O-]
REMARK SMILES IDX 16 1 17 2 18 3 19 4 20 5 21 6 22 7 23 8 24 9 25 10 26 11
REMARK SMILES IDX 27 12 28 13 29 14 30 15 31 16 32 17 15 18 14 19 13 20 12 21
REMARK SMILES IDX 11 22 10 23 9 24 8 25 7 26 6 27 5 28 4 29 3 30 2 31 1 32
REMARK H PARENT
REMARK Flexibility Score: inf
ROOT
ATOM      1  C   UNL     1      57.829  33.091  78.623  1.00  0.00     0.000 C 
ENDROOT
BRANCH   1   2
ATOM      2  C   UNL     1      58.323  32.233  77.440  1.00  0.00     0.000 C 
BRANCH   2   3
ATOM      3  C   UNL     1      57.894  32.765  76.055  1.00  0.00     0.000 C 
BRANCH   3   4
ATOM      4  C   UNL     1      58.900  32.524  74.916  1.00  0.00     0.000 C 
BRANCH   4   5
ATOM      5  C   UNL     1      58.282  32.718  73.521  1.00  0.00     0.000 C 
BRANCH   5   6
ATOM      6  C   UNL     1      56.747  32.642  73.532  1.00  0.00     0.000 C 
BRANCH   6   7
ATOM      7  C   UNL     1      56.206  31.296  73.031  1.00  0.00     0.000 C 
BRANCH   7   8
ATOM      8  C   UNL     1      55.553  30.474  74.159  1.00  0.00     0.000 C 
BRANCH   8   9
ATOM      9  C   UNL     1      56.243  29.113  74.401  1.00  0.00     0.000 C 
BRANCH   9  10
ATOM     10  C   UNL     1      57.245  29.165  75.568  1.00  0.00     0.000 C 
BRANCH  10  11
ATOM     11  C   UNL     1      58.702  28.919  75.127  1.00  0.00     0.000 C 
BRANCH  11  12
ATOM     12  C   UNL     1      59.730  28.838  76.273  1.00  0.00     0.000 C 
BRANCH  12  13
ATOM     13  C   UNL     1      60.439  27.477  76.354  1.00  0.00     0.006 C 
BRANCH  13  14
ATOM     14  C   UNL     1      61.290  27.377  77.623  1.00  0.00     0.053 C 
BRANCH  14  15
ATOM     15  C   UNL     1      62.710  27.745  77.336  1.00  0.00     0.041 C 
ATOM     16  O   UNL     1      63.576  26.847  77.163  1.00  0.00    -0.550 OA
ATOM     17  O   UNL     1      63.080  29.081  77.252  1.00  0.00    -0.550 OA
ENDBRANCH  14  15
ENDBRANCH  13  14
ENDBRANCH  12  13
ENDBRANCH  11  12
ENDBRANCH  10  11
ENDBRANCH   9  10
ENDBRANCH   8   9
ENDBRANCH   7   8
ENDBRANCH   6   7
ENDBRANCH   5   6
ENDBRANCH   4   5
ENDBRANCH   3   4
ENDBRANCH   2   3
ENDBRANCH   1   2
BRANCH   1  18
ATOM     18  C   UNL     1      58.983  33.786  79.373  1.00  0.00     0.000 C 
BRANCH  18  19
ATOM     19  C   UNL     1      58.591  34.284  80.779  1.00  0.00     0.000 C 
BRANCH  19  20
ATOM     20  C   UNL     1      59.114  35.684  81.158  1.00  0.00     0.000 C 
BRANCH  20  21
ATOM     21  C   UNL     1      58.044  36.786  81.069  1.00  0.00     0.000 C 
BRANCH  21  22
ATOM     22  C   UNL     1      57.855  37.316  79.636  1.00  0.00     0.000 C 
BRANCH  22  23
ATOM     23  C   UNL     1      56.579  36.802  78.929  1.00  0.00     0.000 C 
BRANCH  23  24
ATOM     24  C   UNL     1      56.710  36.724  77.399  1.00  0.00    -0.000 C 
BRANCH  24  25
ATOM     25  C   UNL     1      57.997  37.388  76.866  1.00  0.00    -0.000 C 
BRANCH  25  26
ATOM     26  C   UNL     1      58.954  36.342  76.276  1.00  0.00    -0.000 C 
BRANCH  26  27
ATOM     27  C   UNL     1      58.757  36.189  74.760  1.00  0.00    -0.000 C 
BRANCH  27  28
ATOM     28  C   UNL     1      58.704  37.552  74.041  1.00  0.00    -0.000 C 
BRANCH  28  29
ATOM     29  C   UNL     1      57.623  37.642  72.949  1.00  0.00    -0.000 C 
BRANCH  29  30
ATOM     30  C   UNL     1      57.676  36.510  71.903  1.00  0.00    -0.000 C 
BRANCH  30  31
ATOM     31  C   UNL     1      56.323  35.804  71.728  1.00  0.00    -0.003 C 
ATOM     32  C   UNL     1      55.404  36.079  72.918  1.00  0.00     0.004 C 
ENDBRANCH  30  31
ENDBRANCH  29  30
ENDBRANCH  28  29
ENDBRANCH  27  28
ENDBRANCH  26  27
ENDBRANCH  25  26
ENDBRANCH  24  25
ENDBRANCH  23  24
ENDBRANCH  22  23
ENDBRANCH  21  22
ENDBRANCH  20  21
ENDBRANCH  19  20
ENDBRANCH  18  19
ENDBRANCH   1  18
TORSDOF 28
ENDMDL
MODEL 8
REMARK VINA RESULT:    -4.044      2.188      6.807
REMARK INTER + INTRA:         -15.782
REMARK INTER:                 -10.444
REMARK INTRA:                  -5.338
REMARK UNBOUND:                -5.118
REMARK SMILES CCCCCCCCCCCCCCCCCCCCCCCCCCCCCC(=O)[O-]
REMARK SMILES IDX 16 1 17 2 18 3 19 4 20 5 21 6 22 7 23 8 24 9 25 10 26 11
REMARK SMILES IDX 27 12 28 13 29 14 30 15 31 16 32 17 15 18 14 19 13 20 12 21
REMARK SMILES IDX 11 22 10 23 9 24 8 25 7 26 6 27 5 28 4 29 3 30 2 31 1 32
REMARK H PARENT
REMARK Flexibility Score: inf
ROOT
ATOM      1  C   UNL     1      58.659  31.546  77.035  1.00  0.00     0.000 C 
ENDROOT
BRANCH   1   2
ATOM      2  C   UNL     1      57.863  30.476  76.260  1.00  0.00     0.000 C 
BRANCH   2   3
ATOM      3  C   UNL     1      57.828  30.701  74.733  1.00  0.00     0.000 C 
BRANCH   3   4
ATOM      4  C   UNL     1      56.431  30.659  74.091  1.00  0.00     0.000 C 
BRANCH   4   5
ATOM      5  C   UNL     1      56.286  31.631  72.907  1.00  0.00     0.000 C 
BRANCH   5   6
ATOM      6  C   UNL     1      56.426  33.104  73.323  1.00  0.00     0.000 C 
BRANCH   6   7
ATOM      7  C   UNL     1      57.613  33.810  72.653  1.00  0.00     0.000 C 
BRANCH   7   8
ATOM      8  C   UNL     1      58.509  34.538  73.672  1.00  0.00     0.000 C 
BRANCH   8   9
ATOM      9  C   UNL     1      59.795  35.126  73.047  1.00  0.00     0.000 C 
BRANCH   9  10
ATOM     10  C   UNL     1      60.634  35.914  74.067  1.00  0.00     0.000 C 
BRANCH  10  11
ATOM     11  C   UNL     1      59.828  37.004  74.802  1.00  0.00     0.000 C 
BRANCH  11  12
ATOM     12  C   UNL     1      60.239  37.249  76.266  1.00  0.00     0.000 C 
BRANCH  12  13
ATOM     13  C   UNL     1      59.850  38.645  76.779  1.00  0.00     0.006 C 
BRANCH  13  14
ATOM     14  C   UNL     1      59.767  39.649  75.626  1.00  0.00     0.053 C 
BRANCH  14  15
ATOM     15  C   UNL     1      59.057  40.891  76.058  1.00  0.00     0.041 C 
ATOM     16  O   UNL     1      59.355  42.003  75.548  1.00  0.00    -0.550 OA
ATOM     17  O   UNL     1      58.057  40.822  77.020  1.00  0.00    -0.550 OA
ENDBRANCH  14  15
ENDBRANCH  13  14
ENDBRANCH  12  13
ENDBRANCH  11  12
ENDBRANCH  10  11
ENDBRANCH   9  10
ENDBRANCH   8   9
ENDBRANCH   7   8
ENDBRANCH   6   7
ENDBRANCH   5   6
ENDBRANCH   4   5
ENDBRANCH   3   4
ENDBRANCH   2   3
ENDBRANCH   1   2
BRANCH   1  18
ATOM     18  C   UNL     1      58.071  32.961  76.866  1.00  0.00     0.000 C 
BRANCH  18  19
ATOM     19  C   UNL     1      57.792  33.675  78.205  1.00  0.00     0.000 C 
BRANCH  19  20
ATOM     20  C   UNL     1      58.920  33.587  79.252  1.00  0.00     0.000 C 
BRANCH  20  21
ATOM     21  C   UNL     1      58.794  34.625  80.381  1.00  0.00     0.000 C 
BRANCH  21  22
ATOM     22  C   UNL     1      58.887  36.074  79.870  1.00  0.00     0.000 C 
BRANCH  22  23
ATOM     23  C   UNL     1      57.893  37.051  80.539  1.00  0.00     0.000 C 
BRANCH  23  24
ATOM     24  C   UNL     1      56.683  37.401  79.658  1.00  0.00    -0.000 C 
BRANCH  24  25
ATOM     25  C   UNL     1      57.002  37.367  78.148  1.00  0.00    -0.000 C 
BRANCH  25  26
ATOM     26  C   UNL     1      55.982  36.508  77.387  1.00  0.00    -0.000 C 
BRANCH  26  27
ATOM     27  C   UNL     1      56.277  36.487  75.880  1.00  0.00    -0.000 C 
BRANCH  27  28
ATOM     28  C   UNL     1      56.476  37.904  75.306  1.00  0.00    -0.000 C 
BRANCH  28  29
ATOM     29  C   UNL     1      56.237  38.005  73.788  1.00  0.00    -0.000 C 
BRANCH  29  30
ATOM     30  C   UNL     1      55.348  36.886  73.207  1.00  0.00    -0.000 C 
BRANCH  30  31
ATOM     31  C   UNL     1      55.614  36.637  71.715  1.00  0.00    -0.003 C 
ATOM     32  C   UNL     1      56.967  37.211  71.296  1.00  0.00     0.004 C 
ENDBRANCH  30  31
ENDBRANCH  29  30
ENDBRANCH  28  29
ENDBRANCH  27  28
ENDBRANCH  26  27
ENDBRANCH  25  26
ENDBRANCH  24  25
ENDBRANCH  23  24
ENDBRANCH  22  23
ENDBRANCH  21  22
ENDBRANCH  20  21
ENDBRANCH  19  20
ENDBRANCH  18  19
ENDBRANCH   1  18
TORSDOF 28
ENDMDL
MODEL 9
REMARK VINA RESULT:    -3.992      1.650      3.360
REMARK INTER + INTRA:         -15.643
REMARK INTER:                 -11.453
REMARK INTRA:                  -4.190
REMARK UNBOUND:                -5.118
REMARK SMILES CCCCCCCCCCCCCCCCCCCCCCCCCCCCCC(=O)[O-]
REMARK SMILES IDX 16 1 17 2 18 3 19 4 20 5 21 6 22 7 23 8 24 9 25 10 26 11
REMARK SMILES IDX 27 12 28 13 29 14 30 15 31 16 32 17 15 18 14 19 13 20 12 21
REMARK SMILES IDX 11 22 10 23 9 24 8 25 7 26 6 27 5 28 4 29 3 30 2 31 1 32
REMARK H PARENT
REMARK Flexibility Score: inf
ROOT
ATOM      1  C   UNL     1      57.238  34.279  76.406  1.00  0.00     0.000 C 
ENDROOT
BRANCH   1   2
ATOM      2  C   UNL     1      58.411  33.658  77.194  1.00  0.00     0.000 C 
BRANCH   2   3
ATOM      3  C   UNL     1      57.972  32.752  78.365  1.00  0.00     0.000 C 
BRANCH   3   4
ATOM      4  C   UNL     1      57.789  33.464  79.716  1.00  0.00     0.000 C 
BRANCH   4   5
ATOM      5  C   UNL     1      59.064  34.183  80.190  1.00  0.00     0.000 C 
BRANCH   5   6
ATOM      6  C   UNL     1      58.845  35.682  80.444  1.00  0.00     0.000 C 
BRANCH   6   7
ATOM      7  C   UNL     1      57.461  36.174  80.000  1.00  0.00     0.000 C 
BRANCH   7   8
ATOM      8  C   UNL     1      57.534  37.073  78.751  1.00  0.00     0.000 C 
BRANCH   8   9
ATOM      9  C   UNL     1      58.974  37.273  78.225  1.00  0.00     0.000 C 
BRANCH   9  10
ATOM     10  C   UNL     1      59.218  38.706  77.721  1.00  0.00     0.000 C 
BRANCH  10  11
ATOM     11  C   UNL     1      57.922  39.432  77.309  1.00  0.00     0.000 C 
BRANCH  11  12
ATOM     12  C   UNL     1      57.939  40.056  75.899  1.00  0.00     0.000 C 
BRANCH  12  13
ATOM     13  C   UNL     1      57.790  39.018  74.776  1.00  0.00     0.006 C 
BRANCH  13  14
ATOM     14  C   UNL     1      56.577  39.332  73.897  1.00  0.00     0.053 C 
BRANCH  14  15
ATOM     15  C   UNL     1      55.819  38.083  73.579  1.00  0.00     0.041 C 
ATOM     16  O   UNL     1      56.312  37.221  72.805  1.00  0.00    -0.550 OA
ATOM     17  O   UNL     1      54.568  37.866  74.143  1.00  0.00    -0.550 OA
ENDBRANCH  14  15
ENDBRANCH  13  14
ENDBRANCH  12  13
ENDBRANCH  11  12
ENDBRANCH  10  11
ENDBRANCH   9  10
ENDBRANCH   8   9
ENDBRANCH   7   8
ENDBRANCH   6   7
ENDBRANCH   5   6
ENDBRANCH   4   5
ENDBRANCH   3   4
ENDBRANCH   2   3
ENDBRANCH   1   2
BRANCH   1  18
ATOM     18  C   UNL     1      57.710  35.291  75.342  1.00  0.00     0.000 C 
BRANCH  18  19
ATOM     19  C   UNL     1      59.077  34.938  74.721  1.00  0.00     0.000 C 
BRANCH  19  20
ATOM     20  C   UNL     1      59.021  34.175  73.382  1.00  0.00     0.000 C 
BRANCH  20  21
ATOM     21  C   UNL     1      58.672  32.684  73.538  1.00  0.00     0.000 C 
BRANCH  21  22
ATOM     22  C   UNL     1      57.261  32.347  73.022  1.00  0.00     0.000 C 
BRANCH  22  23
ATOM     23  C   UNL     1      56.563  31.196  73.783  1.00  0.00     0.000 C 
BRANCH  23  24
ATOM     24  C   UNL     1      57.259  30.813  75.099  1.00  0.00    -0.000 C 
BRANCH  24  25
ATOM     25  C   UNL     1      57.240  29.294  75.377  1.00  0.00    -0.000 C 
BRANCH  25  26
ATOM     26  C   UNL     1      58.666  28.739  75.505  1.00  0.00    -0.000 C 
BRANCH  26  27
ATOM     27  C   UNL     1      59.617  29.769  76.133  1.00  0.00    -0.000 C 
BRANCH  27  28
ATOM     28  C   UNL     1      61.012  29.177  76.413  1.00  0.00    -0.000 C 
BRANCH  28  29
ATOM     29  C   UNL     1      60.983  27.767  77.030  1.00  0.00    -0.000 C 
BRANCH  29  30
ATOM     30  C   UNL     1      62.149  27.470  77.996  1.00  0.00    -0.000 C 
BRANCH  30  31
ATOM     31  C   UNL     1      61.691  26.734  79.264  1.00  0.00    -0.003 C 
ATOM     32  C   UNL     1      62.740  26.847  80.370  1.00  0.00     0.004 C 
ENDBRANCH  30  31
ENDBRANCH  29  30
ENDBRANCH  28  29
ENDBRANCH  27  28
ENDBRANCH  26  27
ENDBRANCH  25  26
ENDBRANCH  24  25
ENDBRANCH  23  24
ENDBRANCH  22  23
ENDBRANCH  21  22
ENDBRANCH  20  21
ENDBRANCH  19  20
ENDBRANCH  18  19
ENDBRANCH   1  18
TORSDOF 28
ENDMDL
