MODEL 1
REMARK VINA RESULT:     0.000      0.000      0.000
REMARK INTER + INTRA:          -3.695
REMARK INTER:                   0.000
REMARK INTRA:                  -3.695
REMARK UNBOUND:                -3.695
REMARK SMILES CCCCCCCCCCCCCCCCCC(=O)[O-]
REMARK SMILES IDX 10 1 11 2 12 3 13 4 14 5 15 6 16 7 17 8 18 9 19 10 20 11
REMARK SMILES IDX 9 12 8 13 7 14 6 15 5 16 4 17 3 18 2 19 1 20
REMARK H PARENT
REMARK Flexibility Score: inf
ROOT
ATOM      1  C   UNL     1     176.817 191.142 195.796  1.00  0.00     0.000 C 
ENDROOT
BRANCH   1   2
ATOM      2  C   UNL     1     176.931 189.658 196.177  1.00  0.00     0.000 C 
BRANCH   2   3
ATOM      3  C   UNL     1     178.307 189.060 195.837  1.00  0.00     0.000 C 
BRANCH   3   4
ATOM      4  C   UNL     1     178.851 188.157 196.959  1.00  0.00     0.000 C 
BRANCH   4   5
ATOM      5  C   UNL     1     180.344 188.397 197.251  1.00  0.00     0.000 C 
BRANCH   5   6
ATOM      6  C   UNL     1     181.035 189.416 196.325  1.00  0.00     0.000 C 
BRANCH   6   7
ATOM      7  C   UNL     1     182.232 190.117 196.992  1.00  0.00     0.006 C 
BRANCH   7   8
ATOM      8  C   UNL     1     182.388 189.719 198.466  1.00  0.00     0.053 C 
BRANCH   8   9
ATOM      9  C   UNL     1     182.595 190.915 199.345  1.00  0.00     0.041 C 
ATOM     10  O   UNL     1     183.053 191.984 198.862  1.00  0.00    -0.550 OA
ATOM     11  O   UNL     1     182.316 190.835 200.704  1.00  0.00    -0.550 OA
ENDBRANCH   8   9
ENDBRANCH   7   8
ENDBRANCH   6   7
ENDBRANCH   5   6
ENDBRANCH   4   5
ENDBRANCH   3   4
ENDBRANCH   2   3
ENDBRANCH   1   2
BRANCH   1  12
ATOM     12  C   UNL     1     178.205 191.795 195.723  1.00  0.00     0.000 C 
BRANCH  12  13
ATOM     13  C   UNL     1     178.429 192.849 196.822  1.00  0.00    -0.000 C 
BRANCH  13  14
ATOM     14  C   UNL     1     179.553 192.520 197.827  1.00  0.00    -0.000 C 
BRANCH  14  15
ATOM     15  C   UNL     1     179.087 192.253 199.269  1.00  0.00    -0.000 C 
BRANCH  15  16
ATOM     16  C   UNL     1     178.872 190.758 199.560  1.00  0.00    -0.000 C 
BRANCH  16  17
ATOM     17  C   UNL     1     177.386 190.397 199.725  1.00  0.00    -0.000 C 
BRANCH  17  18
ATOM     18  C   UNL     1     176.509 191.617 200.046  1.00  0.00    -0.000 C 
BRANCH  18  19
ATOM     19  C   UNL     1     175.318 191.701 199.085  1.00  0.00    -0.003 C 
ATOM     20  C   UNL     1     175.152 193.115 198.535  1.00  0.00     0.004 C 
ENDBRANCH  18  19
ENDBRANCH  17  18
ENDBRANCH  16  17
ENDBRANCH  15  16
ENDBRANCH  14  15
ENDBRANCH  13  14
ENDBRANCH  12  13
ENDBRANCH   1  12
TORSDOF 16
ENDMDL
MODEL 2
REMARK VINA RESULT:     0.007      7.121      9.885
REMARK INTER + INTRA:          -3.682
REMARK INTER:                   0.000
REMARK INTRA:                  -3.682
REMARK UNBOUND:                -3.695
REMARK SMILES CCCCCCCCCCCCCCCCCC(=O)[O-]
REMARK SMILES IDX 10 1 11 2 12 3 13 4 14 5 15 6 16 7 17 8 18 9 19 10 20 11
REMARK SMILES IDX 9 12 8 13 7 14 6 15 5 16 4 17 3 18 2 19 1 20
REMARK H PARENT
REMARK Flexibility Score: inf
ROOT
ATOM      1  C   UNL     1     181.882 187.491 190.207  1.00  0.00     0.000 C 
ENDROOT
BRANCH   1   2
ATOM      2  C   UNL     1     182.733 188.760 190.045  1.00  0.00     0.000 C 
BRANCH   2   3
ATOM      3  C   UNL     1     182.285 189.901 190.974  1.00  0.00     0.000 C 
BRANCH   3   4
ATOM      4  C   UNL     1     181.915 191.179 190.202  1.00  0.00     0.000 C 
BRANCH   4   5
ATOM      5  C   UNL     1     180.721 191.929 190.821  1.00  0.00     0.000 C 
BRANCH   5   6
ATOM      6  C   UNL     1     180.301 191.447 192.222  1.00  0.00     0.000 C 
BRANCH   6   7
ATOM      7  C   UNL     1     178.870 190.881 192.259  1.00  0.00     0.006 C 
BRANCH   7   8
ATOM      8  C   UNL     1     178.698 189.812 193.345  1.00  0.00     0.053 C 
BRANCH   8   9
ATOM      9  C   UNL     1     177.534 188.913 193.059  1.00  0.00     0.041 C 
ATOM     10  O   UNL     1     177.663 187.663 193.143  1.00  0.00    -0.550 OA
ATOM     11  O   UNL     1     176.317 189.455 192.665  1.00  0.00    -0.550 OA
ENDBRANCH   8   9
ENDBRANCH   7   8
ENDBRANCH   6   7
ENDBRANCH   5   6
ENDBRANCH   4   5
ENDBRANCH   3   4
ENDBRANCH   2   3
ENDBRANCH   1   2
BRANCH   1  12
ATOM     12  C   UNL     1     180.500 187.831 190.784  1.00  0.00     0.000 C 
BRANCH  12  13
ATOM     13  C   UNL     1     179.343 187.297 189.920  1.00  0.00    -0.000 C 
BRANCH  13  14
ATOM     14  C   UNL     1     178.290 188.349 189.512  1.00  0.00    -0.000 C 
BRANCH  14  15
ATOM     15  C   UNL     1     178.843 189.576 188.766  1.00  0.00    -0.000 C 
BRANCH  15  16
ATOM     16  C   UNL     1     179.240 189.264 187.313  1.00  0.00    -0.000 C 
BRANCH  16  17
ATOM     17  C   UNL     1     180.722 189.558 187.030  1.00  0.00    -0.000 C 
BRANCH  17  18
ATOM     18  C   UNL     1     181.497 188.314 186.567  1.00  0.00    -0.000 C 
BRANCH  18  19
ATOM     19  C   UNL     1     180.554 187.120 186.379  1.00  0.00    -0.003 C 
ATOM     20  C   UNL     1     181.156 185.844 186.960  1.00  0.00     0.004 C 
ENDBRANCH  18  19
ENDBRANCH  17  18
ENDBRANCH  16  17
ENDBRANCH  15  16
ENDBRANCH  14  15
ENDBRANCH  13  14
ENDBRANCH  12  13
ENDBRANCH   1  12
TORSDOF 16
ENDMDL
MODEL 3
REMARK VINA RESULT:     0.022      6.701      9.433
REMARK INTER + INTRA:          -3.652
REMARK INTER:                   0.000
REMARK INTRA:                  -3.652
REMARK UNBOUND:                -3.695
REMARK SMILES CCCCCCCCCCCCCCCCCC(=O)[O-]
REMARK SMILES IDX 10 1 11 2 12 3 13 4 14 5 15 6 16 7 17 8 18 9 19 10 20 11
REMARK SMILES IDX 9 12 8 13 7 14 6 15 5 16 4 17 3 18 2 19 1 20
REMARK H PARENT
REMARK Flexibility Score: inf
ROOT
ATOM      1  C   UNL     1     180.060 188.160 190.488  1.00  0.00     0.000 C 
ENDROOT
BRANCH   1   2
ATOM      2  C   UNL     1     180.911 189.429 190.326  1.00  0.00     0.000 C 
BRANCH   2   3
ATOM      3  C   UNL     1     180.575 190.509 191.367  1.00  0.00     0.000 C 
BRANCH   3   4
ATOM      4  C   UNL     1     180.188 191.851 190.721  1.00  0.00     0.000 C 
BRANCH   4   5
ATOM      5  C   UNL     1     179.032 192.558 191.452  1.00  0.00     0.000 C 
BRANCH   5   6
ATOM      6  C   UNL     1     178.661 191.958 192.821  1.00  0.00     0.000 C 
BRANCH   6   7
ATOM      7  C   UNL     1     177.214 191.437 192.875  1.00  0.00     0.006 C 
BRANCH   7   8
ATOM      8  C   UNL     1     177.050 190.288 193.879  1.00  0.00     0.053 C 
BRANCH   8   9
ATOM      9  C   UNL     1     175.900 189.397 193.519  1.00  0.00     0.041 C 
ATOM     10  O   UNL     1     176.048 188.146 193.504  1.00  0.00    -0.550 OA
ATOM     11  O   UNL     1     174.675 189.951 193.166  1.00  0.00    -0.550 OA
ENDBRANCH   8   9
ENDBRANCH   7   8
ENDBRANCH   6   7
ENDBRANCH   5   6
ENDBRANCH   4   5
ENDBRANCH   3   4
ENDBRANCH   2   3
ENDBRANCH   1   2
BRANCH   1  12
ATOM     12  C   UNL     1     178.678 188.500 191.065  1.00  0.00     0.000 C 
BRANCH  12  13
ATOM     13  C   UNL     1     177.525 188.129 190.114  1.00  0.00    -0.000 C 
BRANCH  13  14
ATOM     14  C   UNL     1     176.467 189.232 189.906  1.00  0.00    -0.000 C 
BRANCH  14  15
ATOM     15  C   UNL     1     176.980 190.516 189.232  1.00  0.00    -0.000 C 
BRANCH  15  16
ATOM     16  C   UNL     1     177.381 190.301 187.763  1.00  0.00    -0.000 C 
BRANCH  16  17
ATOM     17  C   UNL     1     178.853 190.653 187.495  1.00  0.00    -0.000 C 
BRANCH  17  18
ATOM     18  C   UNL     1     179.634 189.495 186.854  1.00  0.00    -0.000 C 
BRANCH  18  19
ATOM     19  C   UNL     1     178.717 188.294 186.594  1.00  0.00    -0.003 C 
ATOM     20  C   UNL     1     179.366 186.993 187.057  1.00  0.00     0.004 C 
ENDBRANCH  18  19
ENDBRANCH  17  18
ENDBRANCH  16  17
ENDBRANCH  15  16
ENDBRANCH  14  15
ENDBRANCH  13  14
ENDBRANCH  12  13
ENDBRANCH   1  12
TORSDOF 16
ENDMDL
MODEL 4
REMARK VINA RESULT:     0.023      9.094     11.242
REMARK INTER + INTRA:          -3.649
REMARK INTER:                   0.000
REMARK INTRA:                  -3.649
REMARK UNBOUND:                -3.695
REMARK SMILES CCCCCCCCCCCCCCCCCC(=O)[O-]
REMARK SMILES IDX 10 1 11 2 12 3 13 4 14 5 15 6 16 7 17 8 18 9 19 10 20 11
REMARK SMILES IDX 9 12 8 13 7 14 6 15 5 16 4 17 3 18 2 19 1 20
REMARK H PARENT
REMARK Flexibility Score: inf
ROOT
ATOM      1  C   UNL     1     182.354 187.188 190.091  1.00  0.00     0.000 C 
ENDROOT
BRANCH   1   2
ATOM      2  C   UNL     1     181.233 186.184 190.399  1.00  0.00     0.000 C 
BRANCH   2   3
ATOM      3  C   UNL     1     181.290 185.651 191.841  1.00  0.00     0.000 C 
BRANCH   3   4
ATOM      4  C   UNL     1     182.581 186.062 192.571  1.00  0.00     0.000 C 
BRANCH   4   5
ATOM      5  C   UNL     1     183.612 184.922 192.655  1.00  0.00     0.000 C 
BRANCH   5   6
ATOM      6  C   UNL     1     184.990 185.241 192.046  1.00  0.00     0.000 C 
BRANCH   6   7
ATOM      7  C   UNL     1     185.879 183.995 191.887  1.00  0.00     0.006 C 
BRANCH   7   8
ATOM      8  C   UNL     1     185.368 182.809 192.715  1.00  0.00     0.053 C 
BRANCH   8   9
ATOM      9  C   UNL     1     185.556 181.508 191.997  1.00  0.00     0.041 C 
ATOM     10  O   UNL     1     185.091 180.443 192.482  1.00  0.00    -0.550 OA
ATOM     11  O   UNL     1     186.275 181.468 190.808  1.00  0.00    -0.550 OA
ENDBRANCH   8   9
ENDBRANCH   7   8
ENDBRANCH   6   7
ENDBRANCH   5   6
ENDBRANCH   4   5
ENDBRANCH   3   4
ENDBRANCH   2   3
ENDBRANCH   1   2
BRANCH   1  12
ATOM     12  C   UNL     1     183.271 186.657 188.978  1.00  0.00     0.000 C 
BRANCH  12  13
ATOM     13  C   UNL     1     182.833 185.280 188.448  1.00  0.00    -0.000 C 
BRANCH  13  14
ATOM     14  C   UNL     1     183.821 184.127 188.724  1.00  0.00    -0.000 C 
BRANCH  14  15
ATOM     15  C   UNL     1     183.226 182.917 189.466  1.00  0.00    -0.000 C 
BRANCH  15  16
ATOM     16  C   UNL     1     181.731 182.710 189.170  1.00  0.00    -0.000 C 
BRANCH  16  17
ATOM     17  C   UNL     1     180.940 182.263 190.410  1.00  0.00    -0.000 C 
BRANCH  17  18
ATOM     18  C   UNL     1     181.849 181.856 191.580  1.00  0.00    -0.000 C 
BRANCH  18  19
ATOM     19  C   UNL     1     181.145 182.082 192.923  1.00  0.00    -0.003 C 
ATOM     20  C   UNL     1     182.085 181.803 194.093  1.00  0.00     0.004 C 
ENDBRANCH  18  19
ENDBRANCH  17  18
ENDBRANCH  16  17
ENDBRANCH  15  16
ENDBRANCH  14  15
ENDBRANCH  13  14
ENDBRANCH  12  13
ENDBRANCH   1  12
TORSDOF 16
ENDMDL
MODEL 5
REMARK VINA RESULT:     0.034      7.938     10.269
REMARK INTER + INTRA:          -3.629
REMARK INTER:                   0.000
REMARK INTRA:                  -3.629
REMARK UNBOUND:                -3.695
REMARK SMILES CCCCCCCCCCCCCCCCCC(=O)[O-]
REMARK SMILES IDX 10 1 11 2 12 3 13 4 14 5 15 6 16 7 17 8 18 9 19 10 20 11
REMARK SMILES IDX 9 12 8 13 7 14 6 15 5 16 4 17 3 18 2 19 1 20
REMARK H PARENT
REMARK Flexibility Score: inf
ROOT
ATOM      1  C   UNL     1     182.745 184.463 191.726  1.00  0.00     0.000 C 
ENDROOT
BRANCH   1   2
ATOM      2  C   UNL     1     181.432 185.130 192.165  1.00  0.00     0.000 C 
BRANCH   2   3
ATOM      3  C   UNL     1     180.841 186.050 191.084  1.00  0.00     0.000 C 
BRANCH   3   4
ATOM      4  C   UNL     1     181.544 185.892 189.725  1.00  0.00     0.000 C 
BRANCH   4   5
ATOM      5  C   UNL     1     181.532 187.185 188.889  1.00  0.00     0.000 C 
BRANCH   5   6
ATOM      6  C   UNL     1     180.866 188.396 189.568  1.00  0.00     0.000 C 
BRANCH   6   7
ATOM      7  C   UNL     1     181.598 189.720 189.287  1.00  0.00     0.006 C 
BRANCH   7   8
ATOM      8  C   UNL     1     182.846 189.518 188.417  1.00  0.00     0.053 C 
BRANCH   8   9
ATOM      9  C   UNL     1     183.996 190.353 188.893  1.00  0.00     0.041 C 
ATOM     10  O   UNL     1     183.822 191.213 189.796  1.00  0.00    -0.550 OA
ATOM     11  O   UNL     1     185.249 190.205 188.312  1.00  0.00    -0.550 OA
ENDBRANCH   8   9
ENDBRANCH   7   8
ENDBRANCH   6   7
ENDBRANCH   5   6
ENDBRANCH   4   5
ENDBRANCH   3   4
ENDBRANCH   2   3
ENDBRANCH   1   2
BRANCH   1  12
ATOM     12  C   UNL     1     183.736 184.387 192.897  1.00  0.00     0.000 C 
BRANCH  12  13
ATOM     13  C   UNL     1     183.445 185.423 193.997  1.00  0.00    -0.000 C 
BRANCH  13  14
ATOM     14  C   UNL     1     184.308 186.701 193.939  1.00  0.00    -0.000 C 
BRANCH  14  15
ATOM     15  C   UNL     1     183.580 187.963 193.443  1.00  0.00    -0.000 C 
BRANCH  15  16
ATOM     16  C   UNL     1     183.742 188.190 191.930  1.00  0.00    -0.000 C 
BRANCH  16  17
ATOM     17  C   UNL     1     185.124 187.756 191.413  1.00  0.00    -0.000 C 
BRANCH  17  18
ATOM     18  C   UNL     1     185.046 186.972 190.093  1.00  0.00    -0.000 C 
BRANCH  18  19
ATOM     19  C   UNL     1     185.904 185.704 190.159  1.00  0.00    -0.003 C 
ATOM     20  C   UNL     1     186.865 185.750 191.343  1.00  0.00     0.004 C 
ENDBRANCH  18  19
ENDBRANCH  17  18
ENDBRANCH  16  17
ENDBRANCH  15  16
ENDBRANCH  14  15
ENDBRANCH  13  14
ENDBRANCH  12  13
ENDBRANCH   1  12
TORSDOF 16
ENDMDL
MODEL 6
REMARK VINA RESULT:     0.034      6.046      8.537
REMARK INTER + INTRA:          -3.628
REMARK INTER:                   0.000
REMARK INTRA:                  -3.628
REMARK UNBOUND:                -3.695
REMARK SMILES CCCCCCCCCCCCCCCCCC(=O)[O-]
REMARK SMILES IDX 10 1 11 2 12 3 13 4 14 5 15 6 16 7 17 8 18 9 19 10 20 11
REMARK SMILES IDX 9 12 8 13 7 14 6 15 5 16 4 17 3 18 2 19 1 20
REMARK H PARENT
REMARK Flexibility Score: inf
ROOT
ATOM      1  C   UNL     1     182.000 186.369 193.586  1.00  0.00     0.000 C 
ENDROOT
BRANCH   1   2
ATOM      2  C   UNL     1     182.966 185.986 194.717  1.00  0.00     0.000 C 
BRANCH   2   3
ATOM      3  C   UNL     1     184.047 184.990 194.267  1.00  0.00     0.000 C 
BRANCH   3   4
ATOM      4  C   UNL     1     184.490 184.047 195.399  1.00  0.00     0.000 C 
BRANCH   4   5
ATOM      5  C   UNL     1     184.064 184.543 196.793  1.00  0.00     0.000 C 
BRANCH   5   6
ATOM      6  C   UNL     1     183.626 183.439 197.774  1.00  0.00     0.000 C 
BRANCH   6   7
ATOM      7  C   UNL     1     182.352 183.802 198.556  1.00  0.00     0.006 C 
BRANCH   7   8
ATOM      8  C   UNL     1     182.083 185.312 198.558  1.00  0.00     0.053 C 
BRANCH   8   9
ATOM      9  C   UNL     1     180.709 185.631 199.063  1.00  0.00     0.041 C 
ATOM     10  O   UNL     1     180.486 186.726 199.645  1.00  0.00    -0.550 OA
ATOM     11  O   UNL     1     179.684 184.704 198.922  1.00  0.00    -0.550 OA
ENDBRANCH   8   9
ENDBRANCH   7   8
ENDBRANCH   6   7
ENDBRANCH   5   6
ENDBRANCH   4   5
ENDBRANCH   3   4
ENDBRANCH   2   3
ENDBRANCH   1   2
BRANCH   1  12
ATOM     12  C   UNL     1     180.548 186.060 193.979  1.00  0.00     0.000 C 
BRANCH  12  13
ATOM     13  C   UNL     1     180.436 185.333 195.332  1.00  0.00    -0.000 C 
BRANCH  13  14
ATOM     14  C   UNL     1     179.380 184.210 195.387  1.00  0.00    -0.000 C 
BRANCH  14  15
ATOM     15  C   UNL     1     179.899 182.843 195.868  1.00  0.00    -0.000 C 
BRANCH  15  16
ATOM     16  C   UNL     1     181.222 182.436 195.195  1.00  0.00    -0.000 C 
BRANCH  16  17
ATOM     17  C   UNL     1     181.012 181.839 193.794  1.00  0.00    -0.000 C 
BRANCH  17  18
ATOM     18  C   UNL     1     182.078 182.297 192.786  1.00  0.00    -0.000 C 
BRANCH  18  19
ATOM     19  C   UNL     1     181.463 183.202 191.713  1.00  0.00    -0.003 C 
ATOM     20  C   UNL     1     179.939 183.145 191.751  1.00  0.00     0.004 C 
ENDBRANCH  18  19
ENDBRANCH  17  18
ENDBRANCH  16  17
ENDBRANCH  15  16
ENDBRANCH  14  15
ENDBRANCH  13  14
ENDBRANCH  12  13
ENDBRANCH   1  12
TORSDOF 16
ENDMDL
MODEL 7
REMARK VINA RESULT:     0.039     12.029     14.518
REMARK INTER + INTRA:          -3.619
REMARK INTER:                   0.000
REMARK INTRA:                  -3.619
REMARK UNBOUND:                -3.695
REMARK SMILES CCCCCCCCCCCCCCCCCC(=O)[O-]
REMARK SMILES IDX 10 1 11 2 12 3 13 4 14 5 15 6 16 7 17 8 18 9 19 10 20 11
REMARK SMILES IDX 9 12 8 13 7 14 6 15 5 16 4 17 3 18 2 19 1 20
REMARK H PARENT
REMARK Flexibility Score: inf
ROOT
ATOM      1  C   UNL     1     186.750 187.266 183.038  1.00  0.00     0.000 C 
ENDROOT
BRANCH   1   2
ATOM      2  C   UNL     1     186.207 188.478 183.810  1.00  0.00     0.000 C 
BRANCH   2   3
ATOM      3  C   UNL     1     184.871 188.187 184.514  1.00  0.00     0.000 C 
BRANCH   3   4
ATOM      4  C   UNL     1     184.383 186.747 184.279  1.00  0.00     0.000 C 
BRANCH   4   5
ATOM      5  C   UNL     1     184.318 185.917 185.575  1.00  0.00     0.000 C 
BRANCH   5   6
ATOM      6  C   UNL     1     184.481 184.397 185.386  1.00  0.00     0.000 C 
BRANCH   6   7
ATOM      7  C   UNL     1     184.839 183.665 186.692  1.00  0.00     0.006 C 
BRANCH   7   8
ATOM      8  C   UNL     1     184.923 184.623 187.888  1.00  0.00     0.053 C 
BRANCH   8   9
ATOM      9  C   UNL     1     183.817 184.383 188.870  1.00  0.00     0.041 C 
ATOM     10  O   UNL     1     182.776 185.090 188.837  1.00  0.00    -0.550 OA
ATOM     11  O   UNL     1     183.955 183.402 189.845  1.00  0.00    -0.550 OA
ENDBRANCH   8   9
ENDBRANCH   7   8
ENDBRANCH   6   7
ENDBRANCH   5   6
ENDBRANCH   4   5
ENDBRANCH   3   4
ENDBRANCH   2   3
ENDBRANCH   1   2
BRANCH   1  12
ATOM     12  C   UNL     1     188.075 186.781 183.645  1.00  0.00     0.000 C 
BRANCH  12  13
ATOM     13  C   UNL     1     187.940 185.434 184.378  1.00  0.00    -0.000 C 
BRANCH  13  14
ATOM     14  C   UNL     1     188.044 185.511 185.916  1.00  0.00    -0.000 C 
BRANCH  14  15
ATOM     15  C   UNL     1     188.341 186.910 186.485  1.00  0.00    -0.000 C 
BRANCH  15  16
ATOM     16  C   UNL     1     187.225 187.429 187.407  1.00  0.00    -0.000 C 
BRANCH  16  17
ATOM     17  C   UNL     1     187.126 188.963 187.408  1.00  0.00    -0.000 C 
BRANCH  17  18
ATOM     18  C   UNL     1     185.762 189.471 187.901  1.00  0.00    -0.000 C 
BRANCH  18  19
ATOM     19  C   UNL     1     184.891 188.309 188.394  1.00  0.00    -0.003 C 
ATOM     20  C   UNL     1     183.425 188.526 188.032  1.00  0.00     0.004 C 
ENDBRANCH  18  19
ENDBRANCH  17  18
ENDBRANCH  16  17
ENDBRANCH  15  16
ENDBRANCH  14  15
ENDBRANCH  13  14
ENDBRANCH  12  13
ENDBRANCH   1  12
TORSDOF 16
ENDMDL
MODEL 8
REMARK VINA RESULT:     0.040      8.987     11.907
REMARK INTER + INTRA:          -3.617
REMARK INTER:                   0.000
REMARK INTRA:                  -3.617
REMARK UNBOUND:                -3.695
REMARK SMILES CCCCCCCCCCCCCCCCCC(=O)[O-]
REMARK SMILES IDX 10 1 11 2 12 3 13 4 14 5 15 6 16 7 17 8 18 9 19 10 20 11
REMARK SMILES IDX 9 12 8 13 7 14 6 15 5 16 4 17 3 18 2 19 1 20
REMARK H PARENT
REMARK Flexibility Score: inf
ROOT
ATOM      1  C   UNL     1     181.509 180.446 192.397  1.00  0.00     0.000 C 
ENDROOT
BRANCH   1   2
ATOM      2  C   UNL     1     182.557 179.329 192.515  1.00  0.00     0.000 C 
BRANCH   2   3
ATOM      3  C   UNL     1     183.255 179.310 193.885  1.00  0.00     0.000 C 
BRANCH   3   4
ATOM      4  C   UNL     1     182.344 179.811 195.019  1.00  0.00     0.000 C 
BRANCH   4   5
ATOM      5  C   UNL     1     182.933 181.016 195.774  1.00  0.00     0.000 C 
BRANCH   5   6
ATOM      6  C   UNL     1     182.050 182.278 195.782  1.00  0.00     0.000 C 
BRANCH   6   7
ATOM      7  C   UNL     1     182.855 183.573 195.992  1.00  0.00     0.006 C 
BRANCH   7   8
ATOM      8  C   UNL     1     182.207 184.777 195.296  1.00  0.00     0.053 C 
BRANCH   8   9
ATOM      9  C   UNL     1     183.221 185.615 194.579  1.00  0.00     0.041 C 
ATOM     10  O   UNL     1     182.894 186.262 193.549  1.00  0.00    -0.550 OA
ATOM     11  O   UNL     1     184.535 185.652 195.029  1.00  0.00    -0.550 OA
ENDBRANCH   8   9
ENDBRANCH   7   8
ENDBRANCH   6   7
ENDBRANCH   5   6
ENDBRANCH   4   5
ENDBRANCH   3   4
ENDBRANCH   2   3
ENDBRANCH   1   2
BRANCH   1  12
ATOM     12  C   UNL     1     181.984 181.540 191.429  1.00  0.00     0.000 C 
BRANCH  12  13
ATOM     13  C   UNL     1     182.503 182.795 192.152  1.00  0.00    -0.000 C 
BRANCH  13  14
ATOM     14  C   UNL     1     184.005 183.090 191.957  1.00  0.00    -0.000 C 
BRANCH  14  15
ATOM     15  C   UNL     1     184.924 182.592 193.086  1.00  0.00    -0.000 C 
BRANCH  15  16
ATOM     16  C   UNL     1     185.898 181.495 192.624  1.00  0.00    -0.000 C 
BRANCH  16  17
ATOM     17  C   UNL     1     185.940 181.349 191.094  1.00  0.00    -0.000 C 
BRANCH  17  18
ATOM     18  C   UNL     1     185.702 179.904 190.627  1.00  0.00    -0.000 C 
BRANCH  18  19
ATOM     19  C   UNL     1     184.672 179.858 189.493  1.00  0.00    -0.003 C 
ATOM     20  C   UNL     1     184.598 181.195 188.761  1.00  0.00     0.004 C 
ENDBRANCH  18  19
ENDBRANCH  17  18
ENDBRANCH  16  17
ENDBRANCH  15  16
ENDBRANCH  14  15
ENDBRANCH  13  14
ENDBRANCH  12  13
ENDBRANCH   1  12
TORSDOF 16
ENDMDL
MODEL 9
REMARK VINA RESULT:     0.040      3.859      6.464
REMARK INTER + INTRA:          -3.617
REMARK INTER:                   0.000
REMARK INTRA:                  -3.617
REMARK UNBOUND:                -3.695
REMARK SMILES CCCCCCCCCCCCCCCCCC(=O)[O-]
REMARK SMILES IDX 10 1 11 2 12 3 13 4 14 5 15 6 16 7 17 8 18 9 19 10 20 11
REMARK SMILES IDX 9 12 8 13 7 14 6 15 5 16 4 17 3 18 2 19 1 20
REMARK H PARENT
REMARK Flexibility Score: inf
ROOT
ATOM      1  C   UNL     1     180.573 187.778 193.094  1.00  0.00     0.000 C 
ENDROOT
BRANCH   1   2
ATOM      2  C   UNL     1     180.118 188.429 194.409  1.00  0.00     0.000 C 
BRANCH   2   3
ATOM      3  C   UNL     1     178.716 189.053 194.311  1.00  0.00     0.000 C 
BRANCH   3   4
ATOM      4  C   UNL     1     177.776 188.571 195.430  1.00  0.00     0.000 C 
BRANCH   4   5
ATOM      5  C   UNL     1     178.505 188.332 196.765  1.00  0.00     0.000 C 
BRANCH   5   6
ATOM      6  C   UNL     1     178.057 187.078 197.539  1.00  0.00     0.000 C 
BRANCH   6   7
ATOM      7  C   UNL     1     179.184 186.458 198.382  1.00  0.00     0.006 C 
BRANCH   7   8
ATOM      8  C   UNL     1     180.516 187.198 198.203  1.00  0.00     0.053 C 
BRANCH   8   9
ATOM      9  C   UNL     1     181.689 186.286 198.399  1.00  0.00     0.041 C 
ATOM     10  O   UNL     1     181.569 185.049 198.200  1.00  0.00    -0.550 OA
ATOM     11  O   UNL     1     182.904 186.801 198.836  1.00  0.00    -0.550 OA
ENDBRANCH   8   9
ENDBRANCH   7   8
ENDBRANCH   6   7
ENDBRANCH   5   6
ENDBRANCH   4   5
ENDBRANCH   3   4
ENDBRANCH   2   3
ENDBRANCH   1   2
BRANCH   1  12
ATOM     12  C   UNL     1     180.809 186.272 193.284  1.00  0.00     0.000 C 
BRANCH  12  13
ATOM     13  C   UNL     1     180.785 185.844 194.762  1.00  0.00    -0.000 C 
BRANCH  13  14
ATOM     14  C   UNL     1     179.736 184.769 195.116  1.00  0.00    -0.000 C 
BRANCH  14  15
ATOM     15  C   UNL     1     178.618 184.576 194.077  1.00  0.00    -0.000 C 
BRANCH  15  16
ATOM     16  C   UNL     1     177.234 184.995 194.602  1.00  0.00    -0.000 C 
BRANCH  16  17
ATOM     17  C   UNL     1     176.399 185.732 193.543  1.00  0.00    -0.000 C 
BRANCH  17  18
ATOM     18  C   UNL     1     177.225 186.141 192.313  1.00  0.00    -0.000 C 
BRANCH  18  19
ATOM     19  C   UNL     1     176.675 187.428 191.689  1.00  0.00    -0.003 C 
ATOM     20  C   UNL     1     177.713 188.093 190.789  1.00  0.00     0.004 C 
ENDBRANCH  18  19
ENDBRANCH  17  18
ENDBRANCH  16  17
ENDBRANCH  15  16
ENDBRANCH  14  15
ENDBRANCH  13  14
ENDBRANCH  12  13
ENDBRANCH   1  12
TORSDOF 16
ENDMDL
