MODEL 1
REMARK VINA RESULT:    -3.969      0.000      0.000
REMARK INTER + INTRA:          -8.442
REMARK INTER:                  -6.754
REMARK INTRA:                  -1.689
REMARK UNBOUND:                -1.689
REMARK SMILES CCCCCCCCCCCCCC(=O)[O-]
REMARK SMILES IDX 8 1 9 2 10 3 11 4 12 5 13 6 14 7 15 8 16 9 7 10 6 11 5 12
REMARK SMILES IDX 4 13 3 14 2 15 1 16
REMARK H PARENT
REMARK Flexibility Score: inf
ROOT
ATOM      1  C   UNL     1       4.786  35.580  -1.962  1.00  0.00     0.000 C 
ENDROOT
BRANCH   1   2
ATOM      2  C   UNL     1       5.496  34.215  -2.102  1.00  0.00     0.000 C 
BRANCH   2   3
ATOM      3  C   UNL     1       6.857  34.331  -2.808  1.00  0.00     0.000 C 
BRANCH   3   4
ATOM      4  C   UNL     1       7.837  33.222  -2.391  1.00  0.00     0.000 C 
BRANCH   4   5
ATOM      5  C   UNL     1       8.383  33.422  -0.967  1.00  0.00     0.006 C 
BRANCH   5   6
ATOM      6  C   UNL     1       9.887  33.128  -0.877  1.00  0.00     0.053 C 
BRANCH   6   7
ATOM      7  C   UNL     1      10.166  31.657  -0.847  1.00  0.00     0.041 C 
ATOM      8  O   UNL     1      10.723  31.097  -1.829  1.00  0.00    -0.550 OA
ATOM      9  O   UNL     1       9.840  30.909   0.277  1.00  0.00    -0.550 OA
ENDBRANCH   6   7
ENDBRANCH   5   6
ENDBRANCH   4   5
ENDBRANCH   3   4
ENDBRANCH   2   3
ENDBRANCH   1   2
BRANCH   1  10
ATOM     10  C   UNL     1       5.549  36.746  -2.618  1.00  0.00     0.000 C 
BRANCH  10  11
ATOM     11  C   UNL     1       6.187  37.740  -1.630  1.00  0.00    -0.000 C 
BRANCH  11  12
ATOM     12  C   UNL     1       6.451  37.180  -0.217  1.00  0.00    -0.000 C 
BRANCH  12  13
ATOM     13  C   UNL     1       7.932  36.928   0.120  1.00  0.00    -0.000 C 
BRANCH  13  14
ATOM     14  C   UNL     1       8.852  37.038  -1.105  1.00  0.00    -0.000 C 
BRANCH  14  15
ATOM     15  C   UNL     1      10.290  37.361  -0.684  1.00  0.00    -0.003 C 
ATOM     16  C   UNL     1      10.718  36.512   0.510  1.00  0.00     0.004 C 
ENDBRANCH  14  15
ENDBRANCH  13  14
ENDBRANCH  12  13
ENDBRANCH  11  12
ENDBRANCH  10  11
ENDBRANCH   1  10
TORSDOF 12
ENDMDL
MODEL 2
REMARK VINA RESULT:    -3.955      1.177      1.851
REMARK INTER + INTRA:          -8.419
REMARK INTER:                  -6.828
REMARK INTRA:                  -1.590
REMARK UNBOUND:                -1.689
REMARK SMILES CCCCCCCCCCCCCC(=O)[O-]
REMARK SMILES IDX 8 1 9 2 10 3 11 4 12 5 13 6 14 7 15 8 16 9 7 10 6 11 5 12
REMARK SMILES IDX 4 13 3 14 2 15 1 16
REMARK H PARENT
REMARK Flexibility Score: inf
ROOT
ATOM      1  C   UNL     1       5.026  36.937  -2.845  1.00  0.00     0.000 C 
ENDROOT
BRANCH   1   2
ATOM      2  C   UNL     1       3.877  36.021  -2.373  1.00  0.00     0.000 C 
BRANCH   2   3
ATOM      3  C   UNL     1       4.388  34.737  -1.696  1.00  0.00     0.000 C 
BRANCH   3   4
ATOM      4  C   UNL     1       5.679  34.203  -2.340  1.00  0.00     0.000 C 
BRANCH   4   5
ATOM      5  C   UNL     1       6.835  34.085  -1.332  1.00  0.00     0.006 C 
BRANCH   5   6
ATOM      6  C   UNL     1       8.105  33.507  -1.974  1.00  0.00     0.053 C 
BRANCH   6   7
ATOM      7  C   UNL     1       9.072  33.009  -0.944  1.00  0.00     0.041 C 
ATOM      8  O   UNL     1       9.606  31.875  -1.071  1.00  0.00    -0.550 OA
ATOM      9  O   UNL     1       9.407  33.810   0.141  1.00  0.00    -0.550 OA
ENDBRANCH   6   7
ENDBRANCH   5   6
ENDBRANCH   4   5
ENDBRANCH   3   4
ENDBRANCH   2   3
ENDBRANCH   1   2
BRANCH   1  10
ATOM     10  C   UNL     1       5.123  38.263  -2.066  1.00  0.00     0.000 C 
BRANCH  10  11
ATOM     11  C   UNL     1       6.462  38.493  -1.342  1.00  0.00    -0.000 C 
BRANCH  11  12
ATOM     12  C   UNL     1       6.662  37.665  -0.057  1.00  0.00    -0.000 C 
BRANCH  12  13
ATOM     13  C   UNL     1       8.102  37.176   0.189  1.00  0.00    -0.000 C 
BRANCH  13  14
ATOM     14  C   UNL     1       8.935  37.098  -1.098  1.00  0.00    -0.000 C 
BRANCH  14  15
ATOM     15  C   UNL     1      10.410  37.405  -0.816  1.00  0.00    -0.003 C 
ATOM     16  C   UNL     1      10.671  38.908  -0.823  1.00  0.00     0.004 C 
ENDBRANCH  14  15
ENDBRANCH  13  14
ENDBRANCH  12  13
ENDBRANCH  11  12
ENDBRANCH  10  11
ENDBRANCH   1  10
TORSDOF 12
ENDMDL
MODEL 3
REMARK VINA RESULT:    -3.919      2.921      4.680
REMARK INTER + INTRA:          -8.357
REMARK INTER:                  -6.457
REMARK INTRA:                  -1.900
REMARK UNBOUND:                -1.689
REMARK SMILES CCCCCCCCCCCCCC(=O)[O-]
REMARK SMILES IDX 8 1 9 2 10 3 11 4 12 5 13 6 14 7 15 8 16 9 7 10 6 11 5 12
REMARK SMILES IDX 4 13 3 14 2 15 1 16
REMARK H PARENT
REMARK Flexibility Score: inf
ROOT
ATOM      1  C   UNL     1       5.659  35.931   0.007  1.00  0.00     0.000 C 
ENDROOT
BRANCH   1   2
ATOM      2  C   UNL     1       6.709  35.292   0.942  1.00  0.00     0.000 C 
BRANCH   2   3
ATOM      3  C   UNL     1       8.090  35.959   0.818  1.00  0.00     0.000 C 
BRANCH   3   4
ATOM      4  C   UNL     1       8.184  36.904  -0.391  1.00  0.00     0.000 C 
BRANCH   4   5
ATOM      5  C   UNL     1       9.355  36.553  -1.324  1.00  0.00     0.006 C 
BRANCH   5   6
ATOM      6  C   UNL     1      10.712  36.649  -0.611  1.00  0.00     0.053 C 
BRANCH   6   7
ATOM      7  C   UNL     1      10.986  38.037  -0.120  1.00  0.00     0.041 C 
ATOM      8  O   UNL     1      11.222  38.965  -0.938  1.00  0.00    -0.550 OA
ATOM      9  O   UNL     1      10.953  38.313   1.242  1.00  0.00    -0.550 OA
ENDBRANCH   6   7
ENDBRANCH   5   6
ENDBRANCH   4   5
ENDBRANCH   3   4
ENDBRANCH   2   3
ENDBRANCH   1   2
BRANCH   1  10
ATOM     10  C   UNL     1       5.039  34.940  -0.997  1.00  0.00     0.000 C 
BRANCH  10  11
ATOM     11  C   UNL     1       5.433  35.176  -2.467  1.00  0.00    -0.000 C 
BRANCH  11  12
ATOM     12  C   UNL     1       6.820  34.634  -2.867  1.00  0.00    -0.000 C 
BRANCH  12  13
ATOM     13  C   UNL     1       7.213  33.296  -2.215  1.00  0.00    -0.000 C 
BRANCH  13  14
ATOM     14  C   UNL     1       8.731  33.058  -2.205  1.00  0.00    -0.000 C 
BRANCH  14  15
ATOM     15  C   UNL     1       9.237  32.805  -0.781  1.00  0.00    -0.003 C 
ATOM     16  C   UNL     1      10.006  31.490  -0.695  1.00  0.00     0.004 C 
ENDBRANCH  14  15
ENDBRANCH  13  14
ENDBRANCH  12  13
ENDBRANCH  11  12
ENDBRANCH  10  11
ENDBRANCH   1  10
TORSDOF 12
ENDMDL
MODEL 4
REMARK VINA RESULT:    -3.898      2.906      4.773
REMARK INTER + INTRA:          -8.321
REMARK INTER:                  -6.547
REMARK INTRA:                  -1.773
REMARK UNBOUND:                -1.689
REMARK SMILES CCCCCCCCCCCCCC(=O)[O-]
REMARK SMILES IDX 8 1 9 2 10 3 11 4 12 5 13 6 14 7 15 8 16 9 7 10 6 11 5 12
REMARK SMILES IDX 4 13 3 14 2 15 1 16
REMARK H PARENT
REMARK Flexibility Score: inf
ROOT
ATOM      1  C   UNL     1      10.240  35.282  -1.024  1.00  0.00     0.000 C 
ENDROOT
BRANCH   1   2
ATOM      2  C   UNL     1       9.629  34.096  -0.246  1.00  0.00     0.000 C 
BRANCH   2   3
ATOM      3  C   UNL     1       8.162  33.836  -0.628  1.00  0.00     0.000 C 
BRANCH   3   4
ATOM      4  C   UNL     1       8.000  33.396  -2.092  1.00  0.00     0.000 C 
BRANCH   4   5
ATOM      5  C   UNL     1       6.747  33.995  -2.753  1.00  0.00     0.006 C 
BRANCH   5   6
ATOM      6  C   UNL     1       5.717  34.468  -1.718  1.00  0.00     0.053 C 
BRANCH   6   7
ATOM      7  C   UNL     1       4.313  34.190  -2.161  1.00  0.00     0.041 C 
ATOM      8  O   UNL     1       3.988  33.037  -2.551  1.00  0.00    -0.550 OA
ATOM      9  O   UNL     1       3.355  35.195  -2.113  1.00  0.00    -0.550 OA
ENDBRANCH   6   7
ENDBRANCH   5   6
ENDBRANCH   4   5
ENDBRANCH   3   4
ENDBRANCH   2   3
ENDBRANCH   1   2
BRANCH   1  10
ATOM     10  C   UNL     1      11.012  36.275  -0.135  1.00  0.00     0.000 C 
BRANCH  10  11
ATOM     11  C   UNL     1      10.485  36.399   1.307  1.00  0.00    -0.000 C 
BRANCH  11  12
ATOM     12  C   UNL     1       9.970  37.799   1.697  1.00  0.00    -0.000 C 
BRANCH  12  13
ATOM     13  C   UNL     1       8.500  37.851   2.152  1.00  0.00    -0.000 C 
BRANCH  13  14
ATOM     14  C   UNL     1       7.608  36.844   1.412  1.00  0.00    -0.000 C 
BRANCH  14  15
ATOM     15  C   UNL     1       6.758  37.545   0.345  1.00  0.00    -0.003 C 
ATOM     16  C   UNL     1       7.518  37.665  -0.973  1.00  0.00     0.004 C 
ENDBRANCH  14  15
ENDBRANCH  13  14
ENDBRANCH  12  13
ENDBRANCH  11  12
ENDBRANCH  10  11
ENDBRANCH   1  10
TORSDOF 12
ENDMDL
MODEL 5
REMARK VINA RESULT:    -3.837      2.273      3.507
REMARK INTER + INTRA:          -8.218
REMARK INTER:                  -6.579
REMARK INTRA:                  -1.639
REMARK UNBOUND:                -1.689
REMARK SMILES CCCCCCCCCCCCCC(=O)[O-]
REMARK SMILES IDX 8 1 9 2 10 3 11 4 12 5 13 6 14 7 15 8 16 9 7 10 6 11 5 12
REMARK SMILES IDX 4 13 3 14 2 15 1 16
REMARK H PARENT
REMARK Flexibility Score: inf
ROOT
ATOM      1  C   UNL     1       7.964  37.644  -0.387  1.00  0.00     0.000 C 
ENDROOT
BRANCH   1   2
ATOM      2  C   UNL     1       8.413  36.413  -1.205  1.00  0.00     0.000 C 
BRANCH   2   3
ATOM      3  C   UNL     1       9.939  36.217  -1.181  1.00  0.00     0.000 C 
BRANCH   3   4
ATOM      4  C   UNL     1      10.375  35.082  -0.239  1.00  0.00     0.000 C 
BRANCH   4   5
ATOM      5  C   UNL     1       9.201  34.181   0.182  1.00  0.00     0.006 C 
BRANCH   5   6
ATOM      6  C   UNL     1       9.360  32.744  -0.335  1.00  0.00     0.053 C 
BRANCH   6   7
ATOM      7  C   UNL     1       9.249  32.673  -1.827  1.00  0.00     0.041 C 
ATOM      8  O   UNL     1      10.195  32.201  -2.512  1.00  0.00    -0.550 OA
ATOM      9  O   UNL     1       8.089  33.101  -2.460  1.00  0.00    -0.550 OA
ENDBRANCH   6   7
ENDBRANCH   5   6
ENDBRANCH   4   5
ENDBRANCH   3   4
ENDBRANCH   2   3
ENDBRANCH   1   2
BRANCH   1  10
ATOM     10  C   UNL     1       7.448  37.296   1.023  1.00  0.00     0.000 C 
BRANCH  10  11
ATOM     11  C   UNL     1       8.181  38.009   2.174  1.00  0.00    -0.000 C 
BRANCH  11  12
ATOM     12  C   UNL     1       9.698  38.195   1.969  1.00  0.00    -0.000 C 
BRANCH  12  13
ATOM     13  C   UNL     1      10.187  39.655   1.992  1.00  0.00    -0.000 C 
BRANCH  13  14
ATOM     14  C   UNL     1       9.482  40.539   0.953  1.00  0.00    -0.000 C 
BRANCH  14  15
ATOM     15  C   UNL     1      10.465  41.008  -0.126  1.00  0.00    -0.003 C 
ATOM     16  C   UNL     1      10.886  39.852  -1.029  1.00  0.00     0.004 C 
ENDBRANCH  14  15
ENDBRANCH  13  14
ENDBRANCH  12  13
ENDBRANCH  11  12
ENDBRANCH  10  11
ENDBRANCH   1  10
TORSDOF 12
ENDMDL
MODEL 6
REMARK VINA RESULT:    -3.822      1.205      3.648
REMARK INTER + INTRA:          -8.192
REMARK INTER:                  -6.536
REMARK INTRA:                  -1.656
REMARK UNBOUND:                -1.689
REMARK SMILES CCCCCCCCCCCCCC(=O)[O-]
REMARK SMILES IDX 8 1 9 2 10 3 11 4 12 5 13 6 14 7 15 8 16 9 7 10 6 11 5 12
REMARK SMILES IDX 4 13 3 14 2 15 1 16
REMARK H PARENT
REMARK Flexibility Score: inf
ROOT
ATOM      1  C   UNL     1       9.887  38.189  -0.541  1.00  0.00     0.000 C 
ENDROOT
BRANCH   1   2
ATOM      2  C   UNL     1      10.027  36.831  -1.262  1.00  0.00     0.000 C 
BRANCH   2   3
ATOM      3  C   UNL     1      11.116  35.943  -0.637  1.00  0.00     0.000 C 
BRANCH   3   4
ATOM      4  C   UNL     1      10.927  34.453  -0.968  1.00  0.00     0.000 C 
BRANCH   4   5
ATOM      5  C   UNL     1       9.488  33.972  -0.719  1.00  0.00     0.006 C 
BRANCH   5   6
ATOM      6  C   UNL     1       9.149  32.715  -1.534  1.00  0.00     0.053 C 
BRANCH   6   7
ATOM      7  C   UNL     1      10.057  31.572  -1.198  1.00  0.00     0.041 C 
ATOM      8  O   UNL     1      10.871  31.135  -2.055  1.00  0.00    -0.550 OA
ATOM      9  O   UNL     1      10.027  31.008   0.072  1.00  0.00    -0.550 OA
ENDBRANCH   6   7
ENDBRANCH   5   6
ENDBRANCH   4   5
ENDBRANCH   3   4
ENDBRANCH   2   3
ENDBRANCH   1   2
BRANCH   1  10
ATOM     10  C   UNL     1       8.730  38.236   0.474  1.00  0.00     0.000 C 
BRANCH  10  11
ATOM     11  C   UNL     1       7.526  37.341   0.125  1.00  0.00    -0.000 C 
BRANCH  11  12
ATOM     12  C   UNL     1       7.189  36.260   1.172  1.00  0.00    -0.000 C 
BRANCH  12  13
ATOM     13  C   UNL     1       5.994  35.356   0.817  1.00  0.00    -0.000 C 
BRANCH  13  14
ATOM     14  C   UNL     1       5.431  35.631  -0.585  1.00  0.00    -0.000 C 
BRANCH  14  15
ATOM     15  C   UNL     1       5.873  34.547  -1.575  1.00  0.00    -0.003 C 
ATOM     16  C   UNL     1       6.629  35.153  -2.754  1.00  0.00     0.004 C 
ENDBRANCH  14  15
ENDBRANCH  13  14
ENDBRANCH  12  13
ENDBRANCH  11  12
ENDBRANCH  10  11
ENDBRANCH   1  10
TORSDOF 12
ENDMDL
MODEL 7
REMARK VINA RESULT:    -3.797      2.527      4.480
REMARK INTER + INTRA:          -8.149
REMARK INTER:                  -6.538
REMARK INTRA:                  -1.611
REMARK UNBOUND:                -1.689
REMARK SMILES CCCCCCCCCCCCCC(=O)[O-]
REMARK SMILES IDX 8 1 9 2 10 3 11 4 12 5 13 6 14 7 15 8 16 9 7 10 6 11 5 12
REMARK SMILES IDX 4 13 3 14 2 15 1 16
REMARK H PARENT
REMARK Flexibility Score: inf
ROOT
ATOM      1  C   UNL     1      11.341  37.759  -0.428  1.00  0.00     0.000 C 
ENDROOT
BRANCH   1   2
ATOM      2  C   UNL     1      10.486  36.606  -0.997  1.00  0.00     0.000 C 
BRANCH   2   3
ATOM      3  C   UNL     1      10.511  35.357  -0.099  1.00  0.00     0.000 C 
BRANCH   3   4
ATOM      4  C   UNL     1      10.355  34.052  -0.897  1.00  0.00     0.000 C 
BRANCH   4   5
ATOM      5  C   UNL     1       8.976  33.398  -0.696  1.00  0.00     0.006 C 
BRANCH   5   6
ATOM      6  C   UNL     1       8.242  33.177  -2.025  1.00  0.00     0.053 C 
BRANCH   6   7
ATOM      7  C   UNL     1       7.146  34.178  -2.230  1.00  0.00     0.041 C 
ATOM      8  O   UNL     1       7.418  35.403  -2.335  1.00  0.00    -0.550 OA
ATOM      9  O   UNL     1       5.827  33.754  -2.335  1.00  0.00    -0.550 OA
ENDBRANCH   6   7
ENDBRANCH   5   6
ENDBRANCH   4   5
ENDBRANCH   3   4
ENDBRANCH   2   3
ENDBRANCH   1   2
BRANCH   1  10
ATOM     10  C   UNL     1      10.746  39.157  -0.682  1.00  0.00     0.000 C 
BRANCH  10  11
ATOM     11  C   UNL     1       9.995  39.769   0.515  1.00  0.00    -0.000 C 
BRANCH  11  12
ATOM     12  C   UNL     1      10.250  39.077   1.870  1.00  0.00    -0.000 C 
BRANCH  12  13
ATOM     13  C   UNL     1       9.227  37.993   2.254  1.00  0.00    -0.000 C 
BRANCH  13  14
ATOM     14  C   UNL     1       7.797  38.336   1.811  1.00  0.00    -0.000 C 
BRANCH  14  15
ATOM     15  C   UNL     1       7.325  37.390   0.701  1.00  0.00    -0.003 C 
ATOM     16  C   UNL     1       7.083  35.983   1.241  1.00  0.00     0.004 C 
ENDBRANCH  14  15
ENDBRANCH  13  14
ENDBRANCH  12  13
ENDBRANCH  11  12
ENDBRANCH  10  11
ENDBRANCH   1  10
TORSDOF 12
ENDMDL
MODEL 8
REMARK VINA RESULT:    -3.791      1.880      3.090
REMARK INTER + INTRA:          -8.139
REMARK INTER:                  -6.255
REMARK INTRA:                  -1.884
REMARK UNBOUND:                -1.689
REMARK SMILES CCCCCCCCCCCCCC(=O)[O-]
REMARK SMILES IDX 8 1 9 2 10 3 11 4 12 5 13 6 14 7 15 8 16 9 7 10 6 11 5 12
REMARK SMILES IDX 4 13 3 14 2 15 1 16
REMARK H PARENT
REMARK Flexibility Score: inf
ROOT
ATOM      1  C   UNL     1       2.979  36.090  -1.262  1.00  0.00     0.000 C 
ENDROOT
BRANCH   1   2
ATOM      2  C   UNL     1       3.514  35.312  -2.484  1.00  0.00     0.000 C 
BRANCH   2   3
ATOM      3  C   UNL     1       4.577  34.269  -2.097  1.00  0.00     0.000 C 
BRANCH   3   4
ATOM      4  C   UNL     1       6.011  34.756  -2.367  1.00  0.00     0.000 C 
BRANCH   4   5
ATOM      5  C   UNL     1       7.073  33.725  -1.950  1.00  0.00     0.006 C 
BRANCH   5   6
ATOM      6  C   UNL     1       8.016  34.270  -0.868  1.00  0.00     0.053 C 
BRANCH   6   7
ATOM      7  C   UNL     1       9.261  33.446  -0.747  1.00  0.00     0.041 C 
ATOM      8  O   UNL     1       9.218  32.200  -0.930  1.00  0.00    -0.550 OA
ATOM      9  O   UNL     1      10.476  34.057  -0.462  1.00  0.00    -0.550 OA
ENDBRANCH   6   7
ENDBRANCH   5   6
ENDBRANCH   4   5
ENDBRANCH   3   4
ENDBRANCH   2   3
ENDBRANCH   1   2
BRANCH   1  10
ATOM     10  C   UNL     1       2.965  35.266   0.040  1.00  0.00     0.000 C 
BRANCH  10  11
ATOM     11  C   UNL     1       3.737  35.897   1.213  1.00  0.00    -0.000 C 
BRANCH  11  12
ATOM     12  C   UNL     1       5.257  35.639   1.211  1.00  0.00    -0.000 C 
BRANCH  12  13
ATOM     13  C   UNL     1       6.131  36.873   1.499  1.00  0.00    -0.000 C 
BRANCH  13  14
ATOM     14  C   UNL     1       6.784  37.452   0.235  1.00  0.00    -0.000 C 
BRANCH  14  15
ATOM     15  C   UNL     1       5.961  38.619  -0.322  1.00  0.00    -0.003 C 
ATOM     16  C   UNL     1       5.711  38.452  -1.818  1.00  0.00     0.004 C 
ENDBRANCH  14  15
ENDBRANCH  13  14
ENDBRANCH  12  13
ENDBRANCH  11  12
ENDBRANCH  10  11
ENDBRANCH   1  10
TORSDOF 12
ENDMDL
MODEL 9
REMARK VINA RESULT:    -3.778      3.507      5.422
REMARK INTER + INTRA:          -8.118
REMARK INTER:                  -6.175
REMARK INTRA:                  -1.943
REMARK UNBOUND:                -1.689
REMARK SMILES CCCCCCCCCCCCCC(=O)[O-]
REMARK SMILES IDX 8 1 9 2 10 3 11 4 12 5 13 6 14 7 15 8 16 9 7 10 6 11 5 12
REMARK SMILES IDX 4 13 3 14 2 15 1 16
REMARK H PARENT
REMARK Flexibility Score: inf
ROOT
ATOM      1  C   UNL     1       8.896  33.320  -0.701  1.00  0.00     0.000 C 
ENDROOT
BRANCH   1   2
ATOM      2  C   UNL     1      10.247  34.053  -0.850  1.00  0.00     0.000 C 
BRANCH   2   3
ATOM      3  C   UNL     1      10.361  35.271   0.084  1.00  0.00     0.000 C 
BRANCH   3   4
ATOM      4  C   UNL     1      11.363  36.319  -0.429  1.00  0.00     0.000 C 
BRANCH   4   5
ATOM      5  C   UNL     1      10.945  37.756  -0.076  1.00  0.00     0.006 C 
BRANCH   5   6
ATOM      6  C   UNL     1      10.618  37.914   1.415  1.00  0.00     0.053 C 
BRANCH   6   7
ATOM      7  C   UNL     1       9.960  39.229   1.705  1.00  0.00     0.041 C 
ATOM      8  O   UNL     1      10.395  39.965   2.630  1.00  0.00    -0.550 OA
ATOM      9  O   UNL     1       8.885  39.654   0.935  1.00  0.00    -0.550 OA
ENDBRANCH   6   7
ENDBRANCH   5   6
ENDBRANCH   4   5
ENDBRANCH   3   4
ENDBRANCH   2   3
ENDBRANCH   1   2
BRANCH   1  10
ATOM     10  C   UNL     1       8.028  33.355  -1.973  1.00  0.00     0.000 C 
BRANCH  10  11
ATOM     11  C   UNL     1       6.919  34.423  -1.971  1.00  0.00    -0.000 C 
BRANCH  11  12
ATOM     12  C   UNL     1       7.340  35.805  -2.510  1.00  0.00    -0.000 C 
BRANCH  12  13
ATOM     13  C   UNL     1       7.554  36.888  -1.438  1.00  0.00    -0.000 C 
BRANCH  13  14
ATOM     14  C   UNL     1       6.451  36.899  -0.369  1.00  0.00    -0.000 C 
BRANCH  14  15
ATOM     15  C   UNL     1       7.036  36.649   1.026  1.00  0.00    -0.003 C 
ATOM     16  C   UNL     1       6.620  35.282   1.561  1.00  0.00     0.004 C 
ENDBRANCH  14  15
ENDBRANCH  13  14
ENDBRANCH  12  13
ENDBRANCH  11  12
ENDBRANCH  10  11
ENDBRANCH   1  10
TORSDOF 12
ENDMDL
