MODEL 1
REMARK VINA RESULT:    -4.013      0.000      0.000
REMARK INTER + INTRA:          -6.897
REMARK INTER:                  -6.358
REMARK INTRA:                  -0.539
REMARK UNBOUND:                -0.539
REMARK SMILES CCCCCCCCCCCC(=O)[O-]
REMARK SMILES IDX 7 1 8 2 9 3 10 4 11 5 12 6 13 7 14 8 6 9 5 10 4 11 3 12 2 13
REMARK SMILES IDX 1 14
REMARK H PARENT
REMARK Flexibility Score: inf
ROOT
ATOM      1  C   UNL     1     158.617 145.558 151.504  1.00  0.00     0.000 C 
ENDROOT
BRANCH   1   2
ATOM      2  C   UNL     1     158.101 145.977 152.890  1.00  0.00     0.000 C 
BRANCH   2   3
ATOM      3  C   UNL     1     158.807 145.234 154.034  1.00  0.00     0.000 C 
BRANCH   3   4
ATOM      4  C   UNL     1     160.226 145.781 154.250  1.00  0.00     0.006 C 
BRANCH   4   5
ATOM      5  C   UNL     1     160.331 146.642 155.516  1.00  0.00     0.053 C 
BRANCH   5   6
ATOM      6  C   UNL     1     160.524 148.092 155.188  1.00  0.00     0.041 C 
ATOM      7  O   UNL     1     159.681 148.697 154.476  1.00  0.00    -0.550 OA
ATOM      8  O   UNL     1     161.652 148.762 155.642  1.00  0.00    -0.550 OA
ENDBRANCH   5   6
ENDBRANCH   4   5
ENDBRANCH   3   4
ENDBRANCH   2   3
ENDBRANCH   1   2
BRANCH   1   9
ATOM      9  C   UNL     1     157.654 144.611 150.774  1.00  0.00     0.000 C 
BRANCH   9  10
ATOM     10  C   UNL     1     158.357 143.908 149.603  1.00  0.00    -0.000 C 
BRANCH  10  11
ATOM     11  C   UNL     1     159.751 144.487 149.317  1.00  0.00    -0.000 C 
BRANCH  11  12
ATOM     12  C   UNL     1     160.391 143.893 148.050  1.00  0.00    -0.000 C 
BRANCH  12  13
ATOM     13  C   UNL     1     159.425 143.876 146.855  1.00  0.00    -0.003 C 
ATOM     14  C   UNL     1     160.148 143.953 145.511  1.00  0.00     0.004 C 
ENDBRANCH  12  13
ENDBRANCH  11  12
ENDBRANCH  10  11
ENDBRANCH   9  10
ENDBRANCH   1   9
TORSDOF 10
ENDMDL
MODEL 2
REMARK VINA RESULT:    -3.892      3.253      6.950
REMARK INTER + INTRA:          -6.707
REMARK INTER:                  -6.081
REMARK INTRA:                  -0.626
REMARK UNBOUND:                -0.539
REMARK SMILES CCCCCCCCCCCC(=O)[O-]
REMARK SMILES IDX 7 1 8 2 9 3 10 4 11 5 12 6 13 7 14 8 6 9 5 10 4 11 3 12 2 13
REMARK SMILES IDX 1 14
REMARK H PARENT
REMARK Flexibility Score: inf
ROOT
ATOM      1  C   UNL     1     158.783 145.167 151.955  1.00  0.00     0.000 C 
ENDROOT
BRANCH   1   2
ATOM      2  C   UNL     1     158.010 146.226 151.151  1.00  0.00     0.000 C 
BRANCH   2   3
ATOM      3  C   UNL     1     157.635 145.744 149.742  1.00  0.00     0.000 C 
BRANCH   3   4
ATOM      4  C   UNL     1     157.912 144.242 149.585  1.00  0.00     0.006 C 
BRANCH   4   5
ATOM      5  C   UNL     1     158.337 143.875 148.158  1.00  0.00     0.053 C 
BRANCH   5   6
ATOM      6  C   UNL     1     159.827 143.901 147.997  1.00  0.00     0.041 C 
ATOM      7  O   UNL     1     160.571 143.977 149.010  1.00  0.00    -0.550 OA
ATOM      8  O   UNL     1     160.390 143.876 146.728  1.00  0.00    -0.550 OA
ENDBRANCH   5   6
ENDBRANCH   4   5
ENDBRANCH   3   4
ENDBRANCH   2   3
ENDBRANCH   1   2
BRANCH   1   9
ATOM      9  C   UNL     1     158.645 145.357 153.473  1.00  0.00     0.000 C 
BRANCH   9  10
ATOM     10  C   UNL     1     160.005 145.210 154.171  1.00  0.00    -0.000 C 
BRANCH  10  11
ATOM     11  C   UNL     1     160.169 146.175 155.355  1.00  0.00    -0.000 C 
BRANCH  11  12
ATOM     12  C   UNL     1     161.310 147.186 155.144  1.00  0.00    -0.000 C 
BRANCH  12  13
ATOM     13  C   UNL     1     160.802 148.632 155.034  1.00  0.00    -0.003 C 
ATOM     14  C   UNL     1     159.404 148.721 154.425  1.00  0.00     0.004 C 
ENDBRANCH  12  13
ENDBRANCH  11  12
ENDBRANCH  10  11
ENDBRANCH   9  10
ENDBRANCH   1   9
TORSDOF 10
ENDMDL
MODEL 3
REMARK VINA RESULT:    -3.627      2.981      6.624
REMARK INTER + INTRA:          -6.287
REMARK INTER:                  -6.116
REMARK INTRA:                  -0.171
REMARK UNBOUND:                -0.539
REMARK SMILES CCCCCCCCCCCC(=O)[O-]
REMARK SMILES IDX 7 1 8 2 9 3 10 4 11 5 12 6 13 7 14 8 6 9 5 10 4 11 3 12 2 13
REMARK SMILES IDX 1 14
REMARK H PARENT
REMARK Flexibility Score: inf
ROOT
ATOM      1  C   UNL     1     160.247 145.308 152.009  1.00  0.00     0.000 C 
ENDROOT
BRANCH   1   2
ATOM      2  C   UNL     1     160.511 143.903 151.443  1.00  0.00     0.000 C 
BRANCH   2   3
ATOM      3  C   UNL     1     160.741 143.909 149.924  1.00  0.00     0.000 C 
BRANCH   3   4
ATOM      4  C   UNL     1     159.751 144.850 149.224  1.00  0.00     0.006 C 
BRANCH   4   5
ATOM      5  C   UNL     1     158.490 144.117 148.747  1.00  0.00     0.053 C 
BRANCH   5   6
ATOM      6  C   UNL     1     157.257 144.630 149.427  1.00  0.00     0.041 C 
ATOM      7  O   UNL     1     156.261 143.875 149.583  1.00  0.00    -0.550 OA
ATOM      8  O   UNL     1     157.196 145.949 149.855  1.00  0.00    -0.550 OA
ENDBRANCH   5   6
ENDBRANCH   4   5
ENDBRANCH   3   4
ENDBRANCH   2   3
ENDBRANCH   1   2
BRANCH   1   9
ATOM      9  C   UNL     1     158.970 145.374 152.860  1.00  0.00     0.000 C 
BRANCH   9  10
ATOM     10  C   UNL     1     159.310 145.467 154.355  1.00  0.00    -0.000 C 
BRANCH  10  11
ATOM     11  C   UNL     1     160.703 146.064 154.608  1.00  0.00    -0.000 C 
BRANCH  11  12
ATOM     12  C   UNL     1     160.685 147.188 155.658  1.00  0.00    -0.000 C 
BRANCH  12  13
ATOM     13  C   UNL     1     160.260 148.541 155.064  1.00  0.00    -0.003 C 
ATOM     14  C   UNL     1     159.029 148.431 154.167  1.00  0.00     0.004 C 
ENDBRANCH  12  13
ENDBRANCH  11  12
ENDBRANCH  10  11
ENDBRANCH   9  10
ENDBRANCH   1   9
TORSDOF 10
ENDMDL
MODEL 4
REMARK VINA RESULT:    -3.013     15.137     16.957
REMARK INTER + INTRA:          -5.314
REMARK INTER:                  -4.083
REMARK INTRA:                  -1.231
REMARK UNBOUND:                -0.539
REMARK SMILES CCCCCCCCCCCC(=O)[O-]
REMARK SMILES IDX 7 1 8 2 9 3 10 4 11 5 12 6 13 7 14 8 6 9 5 10 4 11 3 12 2 13
REMARK SMILES IDX 1 14
REMARK H PARENT
REMARK Flexibility Score: inf
ROOT
ATOM      1  C   UNL     1     144.866 151.277 153.882  1.00  0.00     0.000 C 
ENDROOT
BRANCH   1   2
ATOM      2  C   UNL     1     143.709 152.205 153.476  1.00  0.00     0.000 C 
BRANCH   2   3
ATOM      3  C   UNL     1     143.479 152.236 151.958  1.00  0.00     0.000 C 
BRANCH   3   4
ATOM      4  C   UNL     1     144.748 151.816 151.202  1.00  0.00     0.006 C 
BRANCH   4   5
ATOM      5  C   UNL     1     144.471 151.508 149.725  1.00  0.00     0.053 C 
BRANCH   5   6
ATOM      6  C   UNL     1     145.656 150.882 149.054  1.00  0.00     0.041 C 
ATOM      7  O   UNL     1     146.111 149.784 149.471  1.00  0.00    -0.550 OA
ATOM      8  O   UNL     1     146.276 151.528 147.994  1.00  0.00    -0.550 OA
ENDBRANCH   5   6
ENDBRANCH   4   5
ENDBRANCH   3   4
ENDBRANCH   2   3
ENDBRANCH   1   2
BRANCH   1   9
ATOM      9  C   UNL     1     145.831 151.934 154.881  1.00  0.00     0.000 C 
BRANCH   9  10
ATOM     10  C   UNL     1     145.811 153.463 154.738  1.00  0.00    -0.000 C 
BRANCH  10  11
ATOM     11  C   UNL     1     147.018 154.000 153.954  1.00  0.00    -0.000 C 
BRANCH  11  12
ATOM     12  C   UNL     1     146.615 154.668 152.628  1.00  0.00    -0.000 C 
BRANCH  12  13
ATOM     13  C   UNL     1     145.315 155.478 152.749  1.00  0.00    -0.003 C 
ATOM     14  C   UNL     1     145.561 156.986 152.787  1.00  0.00     0.004 C 
ENDBRANCH  12  13
ENDBRANCH  11  12
ENDBRANCH  10  11
ENDBRANCH   9  10
ENDBRANCH   1   9
TORSDOF 10
ENDMDL
MODEL 5
REMARK VINA RESULT:    -2.926     16.395     18.528
REMARK INTER + INTRA:          -5.176
REMARK INTER:                  -3.608
REMARK INTRA:                  -1.568
REMARK UNBOUND:                -0.539
REMARK SMILES CCCCCCCCCCCC(=O)[O-]
REMARK SMILES IDX 7 1 8 2 9 3 10 4 11 5 12 6 13 7 14 8 6 9 5 10 4 11 3 12 2 13
REMARK SMILES IDX 1 14
REMARK H PARENT
REMARK Flexibility Score: inf
ROOT
ATOM      1  C   UNL     1     144.494 150.268 140.746  1.00  0.00     0.000 C 
ENDROOT
BRANCH   1   2
ATOM      2  C   UNL     1     144.411 149.136 139.708  1.00  0.00     0.000 C 
BRANCH   2   3
ATOM      3  C   UNL     1     144.131 147.767 140.344  1.00  0.00     0.000 C 
BRANCH   3   4
ATOM      4  C   UNL     1     145.140 146.718 139.854  1.00  0.00     0.006 C 
BRANCH   4   5
ATOM      5  C   UNL     1     146.436 147.355 139.336  1.00  0.00     0.053 C 
BRANCH   5   6
ATOM      6  C   UNL     1     146.741 146.932 137.931  1.00  0.00     0.041 C 
ATOM      7  O   UNL     1     147.933 146.740 137.573  1.00  0.00    -0.550 OA
ATOM      8  O   UNL     1     145.713 146.785 137.010  1.00  0.00    -0.550 OA
ENDBRANCH   5   6
ENDBRANCH   4   5
ENDBRANCH   3   4
ENDBRANCH   2   3
ENDBRANCH   1   2
BRANCH   1   9
ATOM      9  C   UNL     1     145.067 149.798 142.091  1.00  0.00     0.000 C 
BRANCH   9  10
ATOM     10  C   UNL     1     146.599 149.910 142.104  1.00  0.00    -0.000 C 
BRANCH  10  11
ATOM     11  C   UNL     1     147.274 148.716 142.797  1.00  0.00    -0.000 C 
BRANCH  11  12
ATOM     12  C   UNL     1     146.263 147.661 143.278  1.00  0.00    -0.000 C 
BRANCH  12  13
ATOM     13  C   UNL     1     146.851 146.241 143.281  1.00  0.00    -0.003 C 
ATOM     14  C   UNL     1     148.244 146.178 142.657  1.00  0.00     0.004 C 
ENDBRANCH  12  13
ENDBRANCH  11  12
ENDBRANCH  10  11
ENDBRANCH   9  10
ENDBRANCH   1   9
TORSDOF 10
ENDMDL
MODEL 6
REMARK VINA RESULT:    -2.917     15.946     17.360
REMARK INTER + INTRA:          -5.161
REMARK INTER:                  -3.622
REMARK INTRA:                  -1.538
REMARK UNBOUND:                -0.539
REMARK SMILES CCCCCCCCCCCC(=O)[O-]
REMARK SMILES IDX 7 1 8 2 9 3 10 4 11 5 12 6 13 7 14 8 6 9 5 10 4 11 3 12 2 13
REMARK SMILES IDX 1 14
REMARK H PARENT
REMARK Flexibility Score: inf
ROOT
ATOM      1  C   UNL     1     143.944 146.806 143.445  1.00  0.00     0.000 C 
ENDROOT
BRANCH   1   2
ATOM      2  C   UNL     1     143.389 148.190 143.821  1.00  0.00     0.000 C 
BRANCH   2   3
ATOM      3  C   UNL     1     144.053 148.774 145.077  1.00  0.00     0.000 C 
BRANCH   3   4
ATOM      4  C   UNL     1     144.615 150.175 144.798  1.00  0.00     0.006 C 
BRANCH   4   5
ATOM      5  C   UNL     1     143.540 151.265 144.902  1.00  0.00     0.053 C 
BRANCH   5   6
ATOM      6  C   UNL     1     143.911 152.321 145.899  1.00  0.00     0.041 C 
ATOM      7  O   UNL     1     144.268 151.995 147.062  1.00  0.00    -0.550 OA
ATOM      8  O   UNL     1     143.830 153.663 145.553  1.00  0.00    -0.550 OA
ENDBRANCH   5   6
ENDBRANCH   4   5
ENDBRANCH   3   4
ENDBRANCH   2   3
ENDBRANCH   1   2
BRANCH   1   9
ATOM      9  C   UNL     1     145.437 146.656 143.775  1.00  0.00     0.000 C 
BRANCH   9  10
ATOM     10  C   UNL     1     146.307 147.028 142.565  1.00  0.00    -0.000 C 
BRANCH  10  11
ATOM     11  C   UNL     1     147.191 148.256 142.828  1.00  0.00    -0.000 C 
BRANCH  11  12
ATOM     12  C   UNL     1     146.820 149.456 141.939  1.00  0.00    -0.000 C 
BRANCH  12  13
ATOM     13  C   UNL     1     145.630 149.156 141.014  1.00  0.00    -0.003 C 
ATOM     14  C   UNL     1     144.579 150.264 141.026  1.00  0.00     0.004 C 
ENDBRANCH  12  13
ENDBRANCH  11  12
ENDBRANCH  10  11
ENDBRANCH   9  10
ENDBRANCH   1   9
TORSDOF 10
ENDMDL
MODEL 7
REMARK VINA RESULT:    -2.893     15.787     17.341
REMARK INTER + INTRA:          -5.124
REMARK INTER:                  -3.821
REMARK INTRA:                  -1.302
REMARK UNBOUND:                -0.539
REMARK SMILES CCCCCCCCCCCC(=O)[O-]
REMARK SMILES IDX 7 1 8 2 9 3 10 4 11 5 12 6 13 7 14 8 6 9 5 10 4 11 3 12 2 13
REMARK SMILES IDX 1 14
REMARK H PARENT
REMARK Flexibility Score: inf
ROOT
ATOM      1  C   UNL     1     144.398 150.302 141.121  1.00  0.00     0.000 C 
ENDROOT
BRANCH   1   2
ATOM      2  C   UNL     1     143.396 150.296 142.288  1.00  0.00     0.000 C 
BRANCH   2   3
ATOM      3  C   UNL     1     143.294 148.926 142.975  1.00  0.00     0.000 C 
BRANCH   3   4
ATOM      4  C   UNL     1     143.580 149.044 144.479  1.00  0.00     0.006 C 
BRANCH   4   5
ATOM      5  C   UNL     1     144.645 150.106 144.787  1.00  0.00     0.053 C 
BRANCH   5   6
ATOM      6  C   UNL     1     144.342 150.847 146.054  1.00  0.00     0.041 C 
ATOM      7  O   UNL     1     143.744 151.954 146.011  1.00  0.00    -0.550 OA
ATOM      8  O   UNL     1     144.753 150.331 147.276  1.00  0.00    -0.550 OA
ENDBRANCH   5   6
ENDBRANCH   4   5
ENDBRANCH   3   4
ENDBRANCH   2   3
ENDBRANCH   1   2
BRANCH   1   9
ATOM      9  C   UNL     1     144.600 148.909 140.506  1.00  0.00     0.000 C 
BRANCH   9  10
ATOM     10  C   UNL     1     146.052 148.439 140.677  1.00  0.00    -0.000 C 
BRANCH  10  11
ATOM     11  C   UNL     1     146.855 149.334 141.633  1.00  0.00    -0.000 C 
BRANCH  11  12
ATOM     12  C   UNL     1     147.310 148.590 142.901  1.00  0.00    -0.000 C 
BRANCH  12  13
ATOM     13  C   UNL     1     146.981 147.090 142.852  1.00  0.00    -0.003 C 
ATOM     14  C   UNL     1     148.230 146.213 142.779  1.00  0.00     0.004 C 
ENDBRANCH  12  13
ENDBRANCH  11  12
ENDBRANCH  10  11
ENDBRANCH   9  10
ENDBRANCH   1   9
TORSDOF 10
ENDMDL
MODEL 8
REMARK VINA RESULT:    -2.893     15.355     16.672
REMARK INTER + INTRA:          -5.123
REMARK INTER:                  -3.878
REMARK INTRA:                  -1.245
REMARK UNBOUND:                -0.539
REMARK SMILES CCCCCCCCCCCC(=O)[O-]
REMARK SMILES IDX 7 1 8 2 9 3 10 4 11 5 12 6 13 7 14 8 6 9 5 10 4 11 3 12 2 13
REMARK SMILES IDX 1 14
REMARK H PARENT
REMARK Flexibility Score: inf
ROOT
ATOM      1  C   UNL     1     143.664 148.915 143.095  1.00  0.00     0.000 C 
ENDROOT
BRANCH   1   2
ATOM      2  C   UNL     1     144.122 148.945 144.563  1.00  0.00     0.000 C 
BRANCH   2   3
ATOM      3  C   UNL     1     144.601 150.335 145.006  1.00  0.00     0.000 C 
BRANCH   3   4
ATOM      4  C   UNL     1     143.541 151.030 145.873  1.00  0.00     0.006 C 
BRANCH   4   5
ATOM      5  C   UNL     1     144.166 151.910 146.963  1.00  0.00     0.053 C 
BRANCH   5   6
ATOM      6  C   UNL     1     145.140 151.144 147.807  1.00  0.00     0.041 C 
ATOM      7  O   UNL     1     146.325 151.550 147.932  1.00  0.00    -0.550 OA
ATOM      8  O   UNL     1     144.746 149.965 148.426  1.00  0.00    -0.550 OA
ENDBRANCH   5   6
ENDBRANCH   4   5
ENDBRANCH   3   4
ENDBRANCH   2   3
ENDBRANCH   1   2
BRANCH   1   9
ATOM      9  C   UNL     1     144.271 150.053 142.261  1.00  0.00     0.000 C 
BRANCH   9  10
ATOM     10  C   UNL     1     145.450 149.546 141.417  1.00  0.00    -0.000 C 
BRANCH  10  11
ATOM     11  C   UNL     1     146.813 149.884 142.041  1.00  0.00    -0.000 C 
BRANCH  11  12
ATOM     12  C   UNL     1     147.389 148.724 142.872  1.00  0.00    -0.000 C 
BRANCH  12  13
ATOM     13  C   UNL     1     147.045 147.349 142.279  1.00  0.00    -0.003 C 
ATOM     14  C   UNL     1     146.607 146.342 143.341  1.00  0.00     0.004 C 
ENDBRANCH  12  13
ENDBRANCH  11  12
ENDBRANCH  10  11
ENDBRANCH   9  10
ENDBRANCH   1   9
TORSDOF 10
ENDMDL
MODEL 9
REMARK VINA RESULT:    -2.880     15.224     16.778
REMARK INTER + INTRA:          -5.103
REMARK INTER:                  -3.537
REMARK INTRA:                  -1.566
REMARK UNBOUND:                -0.539
REMARK SMILES CCCCCCCCCCCC(=O)[O-]
REMARK SMILES IDX 7 1 8 2 9 3 10 4 11 5 12 6 13 7 14 8 6 9 5 10 4 11 3 12 2 13
REMARK SMILES IDX 1 14
REMARK H PARENT
REMARK Flexibility Score: inf
ROOT
ATOM      1  C   UNL     1     146.893 148.178 141.592  1.00  0.00     0.000 C 
ENDROOT
BRANCH   1   2
ATOM      2  C   UNL     1     145.963 149.382 141.814  1.00  0.00     0.000 C 
BRANCH   2   3
ATOM      3  C   UNL     1     145.880 149.803 143.289  1.00  0.00     0.000 C 
BRANCH   3   4
ATOM      4  C   UNL     1     144.425 149.790 143.781  1.00  0.00     0.006 C 
BRANCH   4   5
ATOM      5  C   UNL     1     144.315 149.395 145.260  1.00  0.00     0.053 C 
BRANCH   5   6
ATOM      6  C   UNL     1     144.430 150.584 146.164  1.00  0.00     0.041 C 
ATOM      7  O   UNL     1     144.830 150.442 147.349  1.00  0.00    -0.550 OA
ATOM      8  O   UNL     1     144.062 151.843 145.708  1.00  0.00    -0.550 OA
ENDBRANCH   5   6
ENDBRANCH   4   5
ENDBRANCH   3   4
ENDBRANCH   2   3
ENDBRANCH   1   2
BRANCH   1   9
ATOM      9  C   UNL     1     147.500 147.648 142.900  1.00  0.00     0.000 C 
BRANCH   9  10
ATOM     10  C   UNL     1     147.721 146.130 142.827  1.00  0.00    -0.000 C 
BRANCH  10  11
ATOM     11  C   UNL     1     146.418 145.333 143.001  1.00  0.00    -0.000 C 
BRANCH  11  12
ATOM     12  C   UNL     1     145.535 145.881 144.135  1.00  0.00    -0.000 C 
BRANCH  12  13
ATOM     13  C   UNL     1     144.041 145.869 143.775  1.00  0.00    -0.003 C 
ATOM     14  C   UNL     1     143.778 146.294 142.331  1.00  0.00     0.004 C 
ENDBRANCH  12  13
ENDBRANCH  11  12
ENDBRANCH  10  11
ENDBRANCH   9  10
ENDBRANCH   1   9
TORSDOF 10
ENDMDL
