MODEL 1
REMARK VINA RESULT:    -6.860      0.000      0.000
REMARK INTER + INTRA:          -8.329
REMARK INTER:                  -8.063
REMARK INTRA:                  -0.266
REMARK UNBOUND:                -0.266
REMARK SMILES O=c1cc(-c2ccc(O)c(O)c2)oc2cc(O)cc(O)c12
REMARK SMILES IDX 4 1 3 2 2 3 1 4 21 5 19 6 18 7 16 8 15 9 14 10 13 11 5 12
REMARK SMILES IDX 6 13 7 14 8 15 12 16 10 17 9 18 11 20 20 22 17 24
REMARK H PARENT 9 19 11 21 20 23 17 25
REMARK Flexibility Score: inf
ROOT
ATOM      1  C   UNL     1     180.383 178.159 175.442  1.00  0.00     0.138 A 
ATOM      2  C   UNL     1     179.456 177.149 175.147  1.00  0.00     0.100 A 
ATOM      3  C   UNL     1     179.711 176.265 174.098  1.00  0.00     0.197 A 
ATOM      4  O   UNL     1     178.834 175.406 173.821  1.00  0.00    -0.289 OA
ATOM      5  C   UNL     1     180.917 176.370 173.365  1.00  0.00     0.107 A 
ATOM      6  C   UNL     1     181.299 175.504 172.297  1.00  0.00     0.134 A 
ATOM      7  C   UNL     1     182.473 175.767 171.580  1.00  0.00     0.093 A 
ATOM      8  C   UNL     1     183.308 176.831 171.931  1.00  0.00     0.123 A 
ATOM      9  C   UNL     1     182.970 177.652 173.003  1.00  0.00     0.094 A 
ATOM     10  C   UNL     1     181.787 177.438 173.715  1.00  0.00     0.146 A 
ATOM     11  O   UNL     1     181.493 178.256 174.720  1.00  0.00    -0.456 OA
ENDROOT
BRANCH   1  12
ATOM     12  C   UNL     1     180.166 179.124 176.549  1.00  0.00     0.021 A 
ATOM     13  C   UNL     1     179.316 180.225 176.349  1.00  0.00     0.016 A 
ATOM     14  C   UNL     1     179.089 181.144 177.377  1.00  0.00     0.051 A 
ATOM     15  C   UNL     1     179.699 180.973 178.625  1.00  0.00     0.157 A 
ATOM     16  C   UNL     1     180.767 178.951 177.813  1.00  0.00     0.062 A 
ATOM     17  C   UNL     1     180.537 179.873 178.844  1.00  0.00     0.158 A 
BRANCH  15  18
ATOM     18  O   UNL     1     179.476 181.887 179.652  1.00  0.00    -0.504 OA
ATOM     19  H   UNL     1     178.574 181.962 180.109  1.00  0.00     0.293 HD
ENDBRANCH  15  18
BRANCH  17  20
ATOM     20  O   UNL     1     181.134 179.699 180.092  1.00  0.00    -0.504 OA
ATOM     21  H   UNL     1     181.708 180.422 180.510  1.00  0.00     0.293 HD
ENDBRANCH  17  20
ENDBRANCH   1  12
BRANCH   6  22
ATOM     22  O   UNL     1     180.581 174.366 171.915  1.00  0.00    -0.507 OA
ATOM     23  H   UNL     1     179.859 173.926 172.463  1.00  0.00     0.293 HD
ENDBRANCH   6  22
BRANCH   8  24
ATOM     24  O   UNL     1     184.483 177.075 171.222  1.00  0.00    -0.508 OA
ATOM     25  H   UNL     1     184.959 176.339 170.714  1.00  0.00     0.293 HD
ENDBRANCH   8  24
TORSDOF 5
ENDMDL
MODEL 2
REMARK VINA RESULT:    -6.824      4.724      6.961
REMARK INTER + INTRA:          -8.287
REMARK INTER:                  -8.021
REMARK INTRA:                  -0.266
REMARK UNBOUND:                -0.266
REMARK SMILES O=c1cc(-c2ccc(O)c(O)c2)oc2cc(O)cc(O)c12
REMARK SMILES IDX 4 1 3 2 2 3 1 4 21 5 19 6 18 7 16 8 15 9 14 10 13 11 5 12
REMARK SMILES IDX 6 13 7 14 8 15 12 16 10 17 9 18 11 20 20 22 17 24
REMARK H PARENT 9 19 11 21 20 23 17 25
REMARK Flexibility Score: inf
ROOT
ATOM      1  C   UNL     1     180.366 182.558 175.395  1.00  0.00     0.138 A 
ATOM      2  C   UNL     1     181.269 183.584 175.083  1.00  0.00     0.100 A 
ATOM      3  C   UNL     1     180.979 184.466 174.042  1.00  0.00     0.197 A 
ATOM      4  O   UNL     1     181.835 185.341 173.751  1.00  0.00    -0.289 OA
ATOM      5  C   UNL     1     179.760 184.342 173.334  1.00  0.00     0.107 A 
ATOM      6  C   UNL     1     179.341 185.205 172.276  1.00  0.00     0.134 A 
ATOM      7  C   UNL     1     178.158 184.923 171.582  1.00  0.00     0.093 A 
ATOM      8  C   UNL     1     177.348 183.844 171.947  1.00  0.00     0.123 A 
ATOM      9  C   UNL     1     177.723 183.026 173.009  1.00  0.00     0.094 A 
ATOM     10  C   UNL     1     178.915 183.259 173.698  1.00  0.00     0.146 A 
ATOM     11  O   UNL     1     179.243 182.444 174.695  1.00  0.00    -0.456 OA
ENDROOT
BRANCH   1  12
ATOM     12  C   UNL     1     180.622 181.594 176.495  1.00  0.00     0.021 A 
ATOM     13  C   UNL     1     181.481 180.504 176.272  1.00  0.00     0.016 A 
ATOM     14  C   UNL     1     181.744 179.586 177.293  1.00  0.00     0.051 A 
ATOM     15  C   UNL     1     181.162 179.748 178.555  1.00  0.00     0.157 A 
ATOM     16  C   UNL     1     180.050 181.758 177.773  1.00  0.00     0.062 A 
ATOM     17  C   UNL     1     180.316 180.838 178.797  1.00  0.00     0.158 A 
BRANCH  15  18
ATOM     18  O   UNL     1     181.421 178.835 179.575  1.00  0.00    -0.504 OA
ATOM     19  H   UNL     1     182.139 179.006 180.270  1.00  0.00     0.293 HD
ENDBRANCH  15  18
BRANCH  17  20
ATOM     20  O   UNL     1     179.747 181.002 180.059  1.00  0.00    -0.504 OA
ATOM     21  H   UNL     1     179.386 181.898 180.365  1.00  0.00     0.293 HD
ENDBRANCH  17  20
ENDBRANCH   1  12
BRANCH   6  22
ATOM     22  O   UNL     1     180.033 186.356 171.883  1.00  0.00    -0.507 OA
ATOM     23  H   UNL     1     179.738 186.989 171.157  1.00  0.00     0.293 HD
ENDBRANCH   6  22
BRANCH   8  24
ATOM     24  O   UNL     1     176.164 183.581 171.261  1.00  0.00    -0.508 OA
ATOM     25  H   UNL     1     175.826 184.197 170.531  1.00  0.00     0.293 HD
ENDBRANCH   8  24
TORSDOF 5
ENDMDL
MODEL 3
REMARK VINA RESULT:    -6.595      1.137      2.791
REMARK INTER + INTRA:          -8.018
REMARK INTER:                  -7.755
REMARK INTRA:                  -0.263
REMARK UNBOUND:                -0.266
REMARK SMILES O=c1cc(-c2ccc(O)c(O)c2)oc2cc(O)cc(O)c12
REMARK SMILES IDX 4 1 3 2 2 3 1 4 21 5 19 6 18 7 16 8 15 9 14 10 13 11 5 12
REMARK SMILES IDX 6 13 7 14 8 15 12 16 10 17 9 18 11 20 20 22 17 24
REMARK H PARENT 9 19 11 21 20 23 17 25
REMARK Flexibility Score: inf
ROOT
ATOM      1  C   UNL     1     181.611 179.142 175.439  1.00  0.00     0.138 A 
ATOM      2  C   UNL     1     182.847 179.594 174.957  1.00  0.00     0.100 A 
ATOM      3  C   UNL     1     183.474 178.909 173.916  1.00  0.00     0.197 A 
ATOM      4  O   UNL     1     184.609 179.307 173.544  1.00  0.00    -0.289 OA
ATOM      5  C   UNL     1     182.842 177.786 173.330  1.00  0.00     0.107 A 
ATOM      6  C   UNL     1     183.371 177.030 172.241  1.00  0.00     0.134 A 
ATOM      7  C   UNL     1     182.702 175.879 171.810  1.00  0.00     0.093 A 
ATOM      8  C   UNL     1     181.492 175.489 172.391  1.00  0.00     0.123 A 
ATOM      9  C   UNL     1     180.942 176.247 173.421  1.00  0.00     0.094 A 
ATOM     10  C   UNL     1     181.604 177.381 173.897  1.00  0.00     0.146 A 
ATOM     11  O   UNL     1     181.053 178.067 174.893  1.00  0.00    -0.456 OA
ENDROOT
BRANCH   1  12
ATOM     12  C   UNL     1     180.897 179.833 176.542  1.00  0.00     0.021 A 
ATOM     13  C   UNL     1     179.917 180.793 176.235  1.00  0.00     0.016 A 
ATOM     14  C   UNL     1     179.225 181.453 177.254  1.00  0.00     0.051 A 
ATOM     15  C   UNL     1     179.493 181.158 178.596  1.00  0.00     0.157 A 
ATOM     16  C   UNL     1     181.153 179.532 177.895  1.00  0.00     0.062 A 
ATOM     17  C   UNL     1     180.456 180.194 178.916  1.00  0.00     0.158 A 
BRANCH  15  18
ATOM     18  O   UNL     1     178.806 181.814 179.614  1.00  0.00    -0.504 OA
ATOM     19  H   UNL     1     177.802 181.947 179.576  1.00  0.00     0.293 HD
ENDBRANCH  15  18
BRANCH  17  20
ATOM     20  O   UNL     1     180.712 179.894 180.254  1.00  0.00    -0.504 OA
ATOM     21  H   UNL     1     180.605 178.954 180.617  1.00  0.00     0.293 HD
ENDBRANCH  17  20
ENDBRANCH   1  12
BRANCH   6  22
ATOM     22  O   UNL     1     184.530 177.375 171.537  1.00  0.00    -0.507 OA
ATOM     23  H   UNL     1     184.685 177.203 170.556  1.00  0.00     0.293 HD
ENDBRANCH   6  22
BRANCH   8  24
ATOM     24  O   UNL     1     180.825 174.349 171.944  1.00  0.00    -0.508 OA
ATOM     25  H   UNL     1     180.471 173.654 172.591  1.00  0.00     0.293 HD
ENDBRANCH   8  24
TORSDOF 5
ENDMDL
MODEL 4
REMARK VINA RESULT:    -6.583      4.452      6.206
REMARK INTER + INTRA:          -8.004
REMARK INTER:                  -7.741
REMARK INTRA:                  -0.263
REMARK UNBOUND:                -0.266
REMARK SMILES O=c1cc(-c2ccc(O)c(O)c2)oc2cc(O)cc(O)c12
REMARK SMILES IDX 4 1 3 2 2 3 1 4 21 5 19 6 18 7 16 8 15 9 14 10 13 11 5 12
REMARK SMILES IDX 6 13 7 14 8 15 12 16 10 17 9 18 11 20 20 22 17 24
REMARK H PARENT 9 19 11 21 20 23 17 25
REMARK Flexibility Score: inf
ROOT
ATOM      1  C   UNL     1     179.132 181.603 175.437  1.00  0.00     0.138 A 
ATOM      2  C   UNL     1     177.888 181.177 174.952  1.00  0.00     0.100 A 
ATOM      3  C   UNL     1     177.281 181.872 173.906  1.00  0.00     0.197 A 
ATOM      4  O   UNL     1     176.139 181.500 173.530  1.00  0.00    -0.289 OA
ATOM      5  C   UNL     1     177.942 182.978 173.317  1.00  0.00     0.107 A 
ATOM      6  C   UNL     1     177.436 183.741 172.222  1.00  0.00     0.134 A 
ATOM      7  C   UNL     1     178.134 184.875 171.789  1.00  0.00     0.093 A 
ATOM      8  C   UNL     1     179.350 185.239 172.374  1.00  0.00     0.123 A 
ATOM      9  C   UNL     1     179.878 184.472 173.409  1.00  0.00     0.094 A 
ATOM     10  C   UNL     1     179.187 183.356 173.887  1.00  0.00     0.146 A 
ATOM     11  O   UNL     1     179.718 182.662 174.888  1.00  0.00    -0.456 OA
ENDROOT
BRANCH   1  12
ATOM     12  C   UNL     1     179.826 180.899 176.545  1.00  0.00     0.021 A 
ATOM     13  C   UNL     1     180.803 179.934 176.246  1.00  0.00     0.016 A 
ATOM     14  C   UNL     1     181.476 179.263 177.271  1.00  0.00     0.051 A 
ATOM     15  C   UNL     1     181.191 179.552 178.611  1.00  0.00     0.157 A 
ATOM     16  C   UNL     1     179.553 181.194 177.896  1.00  0.00     0.062 A 
ATOM     17  C   UNL     1     180.231 180.521 178.923  1.00  0.00     0.158 A 
BRANCH  15  18
ATOM     18  O   UNL     1     181.859 178.884 179.635  1.00  0.00    -0.504 OA
ATOM     19  H   UNL     1     181.670 179.086 180.610  1.00  0.00     0.293 HD
ENDBRANCH  15  18
BRANCH  17  20
ATOM     20  O   UNL     1     179.957 180.815 180.259  1.00  0.00    -0.504 OA
ATOM     21  H   UNL     1     180.191 180.167 181.003  1.00  0.00     0.293 HD
ENDBRANCH  17  20
ENDBRANCH   1  12
BRANCH   6  22
ATOM     22  O   UNL     1     176.272 183.421 171.515  1.00  0.00    -0.507 OA
ATOM     23  H   UNL     1     175.792 182.536 171.559  1.00  0.00     0.293 HD
ENDBRANCH   6  22
BRANCH   8  24
ATOM     24  O   UNL     1     180.046 186.360 171.925  1.00  0.00    -0.508 OA
ATOM     25  H   UNL     1     179.919 186.723 170.988  1.00  0.00     0.293 HD
ENDBRANCH   8  24
TORSDOF 5
ENDMDL
MODEL 5
REMARK VINA RESULT:    -6.359      4.634      6.591
REMARK INTER + INTRA:          -7.741
REMARK INTER:                  -7.475
REMARK INTRA:                  -0.266
REMARK UNBOUND:                -0.266
REMARK SMILES O=c1cc(-c2ccc(O)c(O)c2)oc2cc(O)cc(O)c12
REMARK SMILES IDX 4 1 3 2 2 3 1 4 21 5 19 6 18 7 16 8 15 9 14 10 13 11 5 12
REMARK SMILES IDX 6 13 7 14 8 15 12 16 10 17 9 18 11 20 20 22 17 24
REMARK H PARENT 9 19 11 21 20 23 17 25
REMARK Flexibility Score: inf
ROOT
ATOM      1  C   UNL     1     178.551 181.642 174.827  1.00  0.00     0.138 A 
ATOM      2  C   UNL     1     179.039 182.885 174.402  1.00  0.00     0.100 A 
ATOM      3  C   UNL     1     178.475 183.501 173.285  1.00  0.00     0.197 A 
ATOM      4  O   UNL     1     178.972 184.590 172.895  1.00  0.00    -0.289 OA
ATOM      5  C   UNL     1     177.393 182.886 172.611  1.00  0.00     0.107 A 
ATOM      6  C   UNL     1     176.717 183.437 171.481  1.00  0.00     0.134 A 
ATOM      7  C   UNL     1     175.724 182.689 170.838  1.00  0.00     0.093 A 
ATOM      8  C   UNL     1     175.341 181.434 171.319  1.00  0.00     0.123 A 
ATOM      9  C   UNL     1     175.960 180.908 172.450  1.00  0.00     0.094 A 
ATOM     10  C   UNL     1     176.979 181.615 173.094  1.00  0.00     0.146 A 
ATOM     11  O   UNL     1     177.555 181.069 174.160  1.00  0.00    -0.456 OA
ENDROOT
BRANCH   1  12
ATOM     12  C   UNL     1     179.110 180.942 176.012  1.00  0.00     0.021 A 
ATOM     13  C   UNL     1     179.729 179.691 175.847  1.00  0.00     0.016 A 
ATOM     14  C   UNL     1     180.270 179.016 176.944  1.00  0.00     0.051 A 
ATOM     15  C   UNL     1     180.210 179.583 178.223  1.00  0.00     0.157 A 
ATOM     16  C   UNL     1     179.065 181.514 177.300  1.00  0.00     0.062 A 
ATOM     17  C   UNL     1     179.610 180.835 178.400  1.00  0.00     0.158 A 
BRANCH  15  18
ATOM     18  O   UNL     1     180.747 178.913 179.319  1.00  0.00    -0.504 OA
ATOM     19  H   UNL     1     180.172 178.335 179.921  1.00  0.00     0.293 HD
ENDBRANCH  15  18
BRANCH  17  20
ATOM     20  O   UNL     1     179.562 181.403 179.673  1.00  0.00    -0.504 OA
ATOM     21  H   UNL     1     178.760 181.276 180.280  1.00  0.00     0.293 HD
ENDBRANCH  17  20
ENDBRANCH   1  12
BRANCH   6  22
ATOM     22  O   UNL     1     176.964 184.714 170.966  1.00  0.00    -0.507 OA
ATOM     23  H   UNL     1     176.378 185.520 171.111  1.00  0.00     0.293 HD
ENDBRANCH   6  22
BRANCH   8  24
ATOM     24  O   UNL     1     174.340 180.703 170.682  1.00  0.00    -0.508 OA
ATOM     25  H   UNL     1     174.488 180.284 169.771  1.00  0.00     0.293 HD
ENDBRANCH   8  24
TORSDOF 5
ENDMDL
MODEL 6
REMARK VINA RESULT:    -6.283      1.877      2.531
REMARK INTER + INTRA:          -7.651
REMARK INTER:                  -7.383
REMARK INTRA:                  -0.268
REMARK UNBOUND:                -0.266
REMARK SMILES O=c1cc(-c2ccc(O)c(O)c2)oc2cc(O)cc(O)c12
REMARK SMILES IDX 4 1 3 2 2 3 1 4 21 5 19 6 18 7 16 8 15 9 14 10 13 11 5 12
REMARK SMILES IDX 6 13 7 14 8 15 12 16 10 17 9 18 11 20 20 22 17 24
REMARK H PARENT 9 19 11 21 20 23 17 25
REMARK Flexibility Score: inf
ROOT
ATOM      1  C   UNL     1     182.200 179.134 174.793  1.00  0.00     0.138 A 
ATOM      2  C   UNL     1     181.698 177.899 174.361  1.00  0.00     0.100 A 
ATOM      3  C   UNL     1     182.254 177.283 173.239  1.00  0.00     0.197 A 
ATOM      4  O   UNL     1     181.745 176.203 172.843  1.00  0.00    -0.289 OA
ATOM      5  C   UNL     1     183.342 177.891 172.568  1.00  0.00     0.107 A 
ATOM      6  C   UNL     1     184.011 177.339 171.434  1.00  0.00     0.134 A 
ATOM      7  C   UNL     1     185.012 178.080 170.795  1.00  0.00     0.093 A 
ATOM      8  C   UNL     1     185.409 179.328 171.283  1.00  0.00     0.123 A 
ATOM      9  C   UNL     1     184.797 179.853 172.418  1.00  0.00     0.094 A 
ATOM     10  C   UNL     1     183.771 179.154 173.058  1.00  0.00     0.146 A 
ATOM     11  O   UNL     1     183.202 179.699 174.128  1.00  0.00    -0.456 OA
ENDROOT
BRANCH   1  12
ATOM     12  C   UNL     1     181.650 179.833 175.982  1.00  0.00     0.021 A 
ATOM     13  C   UNL     1     181.085 181.111 175.833  1.00  0.00     0.016 A 
ATOM     14  C   UNL     1     180.554 181.787 176.935  1.00  0.00     0.051 A 
ATOM     15  C   UNL     1     180.569 181.192 178.202  1.00  0.00     0.157 A 
ATOM     16  C   UNL     1     181.650 179.235 177.259  1.00  0.00     0.062 A 
ATOM     17  C   UNL     1     181.114 179.913 178.364  1.00  0.00     0.158 A 
BRANCH  15  18
ATOM     18  O   UNL     1     180.041 181.863 179.303  1.00  0.00    -0.504 OA
ATOM     19  H   UNL     1     179.927 182.870 179.306  1.00  0.00     0.293 HD
ENDBRANCH  15  18
BRANCH  17  20
ATOM     20  O   UNL     1     181.117 179.319 179.625  1.00  0.00    -0.504 OA
ATOM     21  H   UNL     1     181.949 178.880 180.002  1.00  0.00     0.293 HD
ENDBRANCH  17  20
ENDBRANCH   1  12
BRANCH   6  22
ATOM     22  O   UNL     1     183.750 176.068 170.912  1.00  0.00    -0.507 OA
ATOM     23  H   UNL     1     184.079 175.729 170.022  1.00  0.00     0.293 HD
ENDBRANCH   6  22
BRANCH   8  24
ATOM     24  O   UNL     1     186.417 180.051 170.649  1.00  0.00    -0.508 OA
ATOM     25  H   UNL     1     186.797 180.899 171.054  1.00  0.00     0.293 HD
ENDBRANCH   8  24
TORSDOF 5
ENDMDL
MODEL 7
REMARK VINA RESULT:    -6.221      2.002      2.792
REMARK INTER + INTRA:          -7.578
REMARK INTER:                  -7.268
REMARK INTRA:                  -0.311
REMARK UNBOUND:                -0.266
REMARK SMILES O=c1cc(-c2ccc(O)c(O)c2)oc2cc(O)cc(O)c12
REMARK SMILES IDX 4 1 3 2 2 3 1 4 21 5 19 6 18 7 16 8 15 9 14 10 13 11 5 12
REMARK SMILES IDX 6 13 7 14 8 15 12 16 10 17 9 18 11 20 20 22 17 24
REMARK H PARENT 9 19 11 21 20 23 17 25
REMARK Flexibility Score: inf
ROOT
ATOM      1  C   UNL     1     179.053 179.098 175.359  1.00  0.00     0.138 A 
ATOM      2  C   UNL     1     177.884 179.487 174.690  1.00  0.00     0.100 A 
ATOM      3  C   UNL     1     177.462 178.774 173.568  1.00  0.00     0.197 A 
ATOM      4  O   UNL     1     176.440 179.182 172.957  1.00  0.00    -0.289 OA
ATOM      5  C   UNL     1     178.195 177.643 173.134  1.00  0.00     0.107 A 
ATOM      6  C   UNL     1     177.841 176.820 172.023  1.00  0.00     0.134 A 
ATOM      7  C   UNL     1     178.698 175.785 171.629  1.00  0.00     0.093 A 
ATOM      8  C   UNL     1     179.868 175.508 172.342  1.00  0.00     0.123 A 
ATOM      9  C   UNL     1     180.197 176.274 173.457  1.00  0.00     0.094 A 
ATOM     10  C   UNL     1     179.381 177.335 173.854  1.00  0.00     0.146 A 
ATOM     11  O   UNL     1     179.741 178.051 174.914  1.00  0.00    -0.456 OA
ENDROOT
BRANCH   1  12
ATOM     12  C   UNL     1     179.547 179.816 176.561  1.00  0.00     0.021 A 
ATOM     13  C   UNL     1     179.135 181.140 176.792  1.00  0.00     0.016 A 
ATOM     14  C   UNL     1     179.579 181.836 177.919  1.00  0.00     0.051 A 
ATOM     15  C   UNL     1     180.434 181.218 178.839  1.00  0.00     0.157 A 
ATOM     16  C   UNL     1     180.397 179.196 177.498  1.00  0.00     0.062 A 
ATOM     17  C   UNL     1     180.841 179.895 178.630  1.00  0.00     0.158 A 
BRANCH  15  18
ATOM     18  O   UNL     1     180.879 181.909 179.964  1.00  0.00    -0.504 OA
ATOM     19  H   UNL     1     181.070 182.904 179.934  1.00  0.00     0.293 HD
ENDBRANCH  15  18
BRANCH  17  20
ATOM     20  O   UNL     1     181.683 179.279 179.555  1.00  0.00    -0.504 OA
ATOM     21  H   UNL     1     182.467 179.770 179.968  1.00  0.00     0.293 HD
ENDBRANCH  17  20
ENDBRANCH   1  12
BRANCH   6  22
ATOM     22  O   UNL     1     176.657 176.958 171.291  1.00  0.00    -0.507 OA
ATOM     23  H   UNL     1     176.361 177.800 170.821  1.00  0.00     0.293 HD
ENDBRANCH   6  22
BRANCH   8  24
ATOM     24  O   UNL     1     180.707 174.466 171.951  1.00  0.00    -0.508 OA
ATOM     25  H   UNL     1     181.274 174.528 171.113  1.00  0.00     0.293 HD
ENDBRANCH   8  24
TORSDOF 5
ENDMDL
MODEL 8
REMARK VINA RESULT:    -6.201      4.870      6.266
REMARK INTER + INTRA:          -7.555
REMARK INTER:                  -7.289
REMARK INTRA:                  -0.265
REMARK UNBOUND:                -0.266
REMARK SMILES O=c1cc(-c2ccc(O)c(O)c2)oc2cc(O)cc(O)c12
REMARK SMILES IDX 4 1 3 2 2 3 1 4 21 5 19 6 18 7 16 8 15 9 14 10 13 11 5 12
REMARK SMILES IDX 6 13 7 14 8 15 12 16 10 17 9 18 11 20 20 22 17 24
REMARK H PARENT 9 19 11 21 20 23 17 25
REMARK Flexibility Score: inf
ROOT
ATOM      1  C   UNL     1     180.963 182.350 175.378  1.00  0.00     0.138 A 
ATOM      2  C   UNL     1     179.902 182.773 174.566  1.00  0.00     0.100 A 
ATOM      3  C   UNL     1     180.153 183.629 173.493  1.00  0.00     0.197 A 
ATOM      4  O   UNL     1     179.173 184.035 172.817  1.00  0.00    -0.289 OA
ATOM      5  C   UNL     1     181.480 184.034 173.211  1.00  0.00     0.107 A 
ATOM      6  C   UNL     1     181.861 184.877 172.123  1.00  0.00     0.134 A 
ATOM      7  C   UNL     1     183.193 185.290 172.003  1.00  0.00     0.093 A 
ATOM      8  C   UNL     1     184.170 184.843 172.897  1.00  0.00     0.123 A 
ATOM      9  C   UNL     1     183.818 183.981 173.932  1.00  0.00     0.094 A 
ATOM     10  C   UNL     1     182.491 183.579 174.100  1.00  0.00     0.146 A 
ATOM     11  O   UNL     1     182.195 182.769 175.111  1.00  0.00    -0.456 OA
ENDROOT
BRANCH   1  12
ATOM     12  C   UNL     1     180.755 181.437 176.530  1.00  0.00     0.021 A 
ATOM     13  C   UNL     1     181.356 180.166 176.522  1.00  0.00     0.016 A 
ATOM     14  C   UNL     1     181.182 179.291 177.597  1.00  0.00     0.051 A 
ATOM     15  C   UNL     1     180.413 179.674 178.702  1.00  0.00     0.157 A 
ATOM     16  C   UNL     1     179.993 181.821 177.652  1.00  0.00     0.062 A 
ATOM     17  C   UNL     1     179.821 180.942 178.731  1.00  0.00     0.158 A 
BRANCH  15  18
ATOM     18  O   UNL     1     180.236 178.804 179.776  1.00  0.00    -0.504 OA
ATOM     19  H   UNL     1     180.959 178.669 180.473  1.00  0.00     0.293 HD
ENDBRANCH  15  18
BRANCH  17  20
ATOM     20  O   UNL     1     179.065 181.325 179.839  1.00  0.00    -0.504 OA
ATOM     21  H   UNL     1     179.311 182.136 180.394  1.00  0.00     0.293 HD
ENDBRANCH  17  20
ENDBRANCH   1  12
BRANCH   6  22
ATOM     22  O   UNL     1     180.982 185.316 171.127  1.00  0.00    -0.507 OA
ATOM     23  H   UNL     1     181.257 185.770 170.270  1.00  0.00     0.293 HD
ENDBRANCH   6  22
BRANCH   8  24
ATOM     24  O   UNL     1     185.496 185.248 172.760  1.00  0.00    -0.508 OA
ATOM     25  H   UNL     1     185.774 185.928 172.062  1.00  0.00     0.293 HD
ENDBRANCH   8  24
TORSDOF 5
ENDMDL
MODEL 9
REMARK VINA RESULT:    -6.172      1.881      3.469
REMARK INTER + INTRA:          -7.521
REMARK INTER:                  -7.254
REMARK INTRA:                  -0.266
REMARK UNBOUND:                -0.266
REMARK SMILES O=c1cc(-c2ccc(O)c(O)c2)oc2cc(O)cc(O)c12
REMARK SMILES IDX 4 1 3 2 2 3 1 4 21 5 19 6 18 7 16 8 15 9 14 10 13 11 5 12
REMARK SMILES IDX 6 13 7 14 8 15 12 16 10 17 9 18 11 20 20 22 17 24
REMARK H PARENT 9 19 11 21 20 23 17 25
REMARK Flexibility Score: inf
ROOT
ATOM      1  C   UNL     1     179.754 178.397 175.353  1.00  0.00     0.138 A 
ATOM      2  C   UNL     1     180.809 178.032 174.506  1.00  0.00     0.100 A 
ATOM      3  C   UNL     1     180.561 177.196 173.417  1.00  0.00     0.197 A 
ATOM      4  O   UNL     1     181.539 176.841 172.708  1.00  0.00    -0.289 OA
ATOM      5  C   UNL     1     179.243 176.753 173.154  1.00  0.00     0.107 A 
ATOM      6  C   UNL     1     178.865 175.926 172.053  1.00  0.00     0.134 A 
ATOM      7  C   UNL     1     177.545 175.471 171.952  1.00  0.00     0.093 A 
ATOM      8  C   UNL     1     176.575 175.861 172.880  1.00  0.00     0.123 A 
ATOM      9  C   UNL     1     176.922 176.708 173.929  1.00  0.00     0.094 A 
ATOM     10  C   UNL     1     178.239 177.150 174.077  1.00  0.00     0.146 A 
ATOM     11  O   UNL     1     178.530 177.944 175.103  1.00  0.00    -0.456 OA
ENDROOT
BRANCH   1  12
ATOM     12  C   UNL     1     179.958 179.287 176.524  1.00  0.00     0.021 A 
ATOM     13  C   UNL     1     179.371 180.564 176.532  1.00  0.00     0.016 A 
ATOM     14  C   UNL     1     179.542 181.418 177.625  1.00  0.00     0.051 A 
ATOM     15  C   UNL     1     180.293 181.007 178.732  1.00  0.00     0.157 A 
ATOM     16  C   UNL     1     180.703 178.874 177.648  1.00  0.00     0.062 A 
ATOM     17  C   UNL     1     180.871 179.732 178.745  1.00  0.00     0.158 A 
BRANCH  15  18
ATOM     18  O   UNL     1     180.466 181.855 179.823  1.00  0.00    -0.504 OA
ATOM     19  H   UNL     1     180.818 181.513 180.710  1.00  0.00     0.293 HD
ENDBRANCH  15  18
BRANCH  17  20
ATOM     20  O   UNL     1     181.610 179.321 179.854  1.00  0.00    -0.504 OA
ATOM     21  H   UNL     1     182.531 179.697 180.047  1.00  0.00     0.293 HD
ENDBRANCH  17  20
ENDBRANCH   1  12
BRANCH   6  22
ATOM     22  O   UNL     1     179.735 175.543 171.026  1.00  0.00    -0.507 OA
ATOM     23  H   UNL     1     179.470 175.014 170.210  1.00  0.00     0.293 HD
ENDBRANCH   6  22
BRANCH   8  24
ATOM     24  O   UNL     1     175.260 175.415 172.762  1.00  0.00    -0.508 OA
ATOM     25  H   UNL     1     175.023 174.605 172.202  1.00  0.00     0.293 HD
ENDBRANCH   8  24
TORSDOF 5
ENDMDL
