MODEL 1
REMARK VINA RESULT:    -6.371      0.000      0.000
REMARK INTER + INTRA:          -7.679
REMARK INTER:                  -7.674
REMARK INTRA:                  -0.005
REMARK UNBOUND:                -0.005
REMARK SMILES O=c1c(O)c(-c2ccc(O)c(O)c2)oc2cc(O)cc(O)c12
REMARK SMILES IDX 5 1 3 2 2 3 1 4 22 5 20 6 19 7 17 8 16 9 15 10 14 11 6 12
REMARK SMILES IDX 7 13 8 14 9 15 13 16 11 17 10 18 12 20 4 22 21 24 18 26
REMARK H PARENT 10 19 12 21 4 23 21 25 18 27
REMARK Flexibility Score: inf
ROOT
ATOM      1  C   UNL     1      71.019  53.826  18.071  1.00  0.00     0.180 A 
ATOM      2  C   UNL     1      71.772  53.755  19.256  1.00  0.00     0.208 A 
ATOM      3  C   UNL     1      71.384  52.849  20.255  1.00  0.00     0.238 A 
ATOM      4  O   UNL     1      72.028  52.827  21.336  1.00  0.00    -0.285 OA
ATOM      5  C   UNL     1      70.259  52.013  20.050  1.00  0.00     0.111 A 
ATOM      6  C   UNL     1      69.800  51.030  20.977  1.00  0.00     0.134 A 
ATOM      7  C   UNL     1      68.600  50.352  20.729  1.00  0.00     0.093 A 
ATOM      8  C   UNL     1      67.878  50.573  19.556  1.00  0.00     0.123 A 
ATOM      9  C   UNL     1      68.349  51.489  18.615  1.00  0.00     0.094 A 
ATOM     10  C   UNL     1      69.523  52.208  18.852  1.00  0.00     0.146 A 
ATOM     11  O   UNL     1      69.931  53.078  17.936  1.00  0.00    -0.452 OA
ENDROOT
BRANCH   1  12
ATOM     12  C   UNL     1      71.380  54.740  16.962  1.00  0.00     0.025 A 
ATOM     13  C   UNL     1      71.536  56.111  17.219  1.00  0.00     0.016 A 
ATOM     14  C   UNL     1      71.857  56.993  16.184  1.00  0.00     0.051 A 
ATOM     15  C   UNL     1      72.009  56.520  14.873  1.00  0.00     0.157 A 
ATOM     16  C   UNL     1      71.515  54.271  15.643  1.00  0.00     0.062 A 
ATOM     17  C   UNL     1      71.833  55.153  14.603  1.00  0.00     0.158 A 
BRANCH  15  18
ATOM     18  O   UNL     1      72.332  57.402  13.843  1.00  0.00    -0.504 OA
ATOM     19  H   UNL     1      72.427  58.397  14.007  1.00  0.00     0.293 HD
ENDBRANCH  15  18
BRANCH  17  20
ATOM     20  O   UNL     1      71.964  54.652  13.307  1.00  0.00    -0.504 OA
ATOM     21  H   UNL     1      71.189  54.222  12.817  1.00  0.00     0.293 HD
ENDBRANCH  17  20
ENDBRANCH   1  12
BRANCH   2  22
ATOM     22  O   UNL     1      72.865  54.604  19.446  1.00  0.00    -0.502 OA
ATOM     23  H   UNL     1      72.933  55.235  20.236  1.00  0.00     0.293 HD
ENDBRANCH   2  22
BRANCH   6  24
ATOM     24  O   UNL     1      70.494  50.665  22.135  1.00  0.00    -0.507 OA
ATOM     25  H   UNL     1      70.944  51.313  22.764  1.00  0.00     0.293 HD
ENDBRANCH   6  24
BRANCH   8  26
ATOM     26  O   UNL     1      66.697  49.869  19.334  1.00  0.00    -0.508 OA
ATOM     27  H   UNL     1      65.940  49.880  20.008  1.00  0.00     0.293 HD
ENDBRANCH   8  26
TORSDOF 6
ENDMDL
MODEL 2
REMARK VINA RESULT:    -6.168      2.034      3.821
REMARK INTER + INTRA:          -7.435
REMARK INTER:                  -7.109
REMARK INTRA:                  -0.326
REMARK UNBOUND:                -0.005
REMARK SMILES O=c1c(O)c(-c2ccc(O)c(O)c2)oc2cc(O)cc(O)c12
REMARK SMILES IDX 5 1 3 2 2 3 1 4 22 5 20 6 19 7 17 8 16 9 15 10 14 11 6 12
REMARK SMILES IDX 7 13 8 14 9 15 13 16 11 17 10 18 12 20 4 22 21 24 18 26
REMARK H PARENT 10 19 12 21 4 23 21 25 18 27
REMARK Flexibility Score: inf
ROOT
ATOM      1  C   UNL     1      70.443  52.747  19.491  1.00  0.00     0.180 A 
ATOM      2  C   UNL     1      69.400  51.810  19.391  1.00  0.00     0.208 A 
ATOM      3  C   UNL     1      69.143  50.960  20.478  1.00  0.00     0.238 A 
ATOM      4  O   UNL     1      68.244  50.086  20.363  1.00  0.00    -0.285 OA
ATOM      5  C   UNL     1      69.920  51.069  21.657  1.00  0.00     0.111 A 
ATOM      6  C   UNL     1      69.719  50.287  22.834  1.00  0.00     0.134 A 
ATOM      7  C   UNL     1      70.630  50.387  23.894  1.00  0.00     0.093 A 
ATOM      8  C   UNL     1      71.694  51.288  23.845  1.00  0.00     0.123 A 
ATOM      9  C   UNL     1      71.863  52.100  22.724  1.00  0.00     0.094 A 
ATOM     10  C   UNL     1      70.993  51.997  21.636  1.00  0.00     0.146 A 
ATOM     11  O   UNL     1      71.196  52.780  20.584  1.00  0.00    -0.452 OA
ENDROOT
BRANCH   1  12
ATOM     12  C   UNL     1      70.759  53.694  18.396  1.00  0.00     0.025 A 
ATOM     13  C   UNL     1      71.676  53.319  17.401  1.00  0.00     0.016 A 
ATOM     14  C   UNL     1      72.004  54.204  16.371  1.00  0.00     0.051 A 
ATOM     15  C   UNL     1      71.433  55.483  16.329  1.00  0.00     0.157 A 
ATOM     16  C   UNL     1      70.203  54.985  18.362  1.00  0.00     0.062 A 
ATOM     17  C   UNL     1      70.531  55.875  17.332  1.00  0.00     0.158 A 
BRANCH  15  18
ATOM     18  O   UNL     1      71.760  56.363  15.299  1.00  0.00    -0.504 OA
ATOM     19  H   UNL     1      72.138  57.284  15.487  1.00  0.00     0.293 HD
ENDBRANCH  15  18
BRANCH  17  20
ATOM     20  O   UNL     1      69.956  57.146  17.328  1.00  0.00    -0.504 OA
ATOM     21  H   UNL     1      70.489  57.978  17.552  1.00  0.00     0.293 HD
ENDBRANCH  17  20
ENDBRANCH   1  12
BRANCH   2  22
ATOM     22  O   UNL     1      68.661  51.704  18.209  1.00  0.00    -0.502 OA
ATOM     23  H   UNL     1      68.540  50.826  17.720  1.00  0.00     0.293 HD
ENDBRANCH   2  22
BRANCH   6  24
ATOM     24  O   UNL     1      68.636  49.423  23.023  1.00  0.00    -0.507 OA
ATOM     25  H   UNL     1      68.197  48.885  22.292  1.00  0.00     0.293 HD
ENDBRANCH   6  24
BRANCH   8  26
ATOM     26  O   UNL     1      72.570  51.373  24.924  1.00  0.00    -0.508 OA
ATOM     27  H   UNL     1      72.370  51.963  25.723  1.00  0.00     0.293 HD
ENDBRANCH   8  26
TORSDOF 6
ENDMDL
MODEL 3
REMARK VINA RESULT:    -5.758      4.324      6.505
REMARK INTER + INTRA:          -6.941
REMARK INTER:                  -6.704
REMARK INTRA:                  -0.237
REMARK UNBOUND:                -0.005
REMARK SMILES O=c1c(O)c(-c2ccc(O)c(O)c2)oc2cc(O)cc(O)c12
REMARK SMILES IDX 5 1 3 2 2 3 1 4 22 5 20 6 19 7 17 8 16 9 15 10 14 11 6 12
REMARK SMILES IDX 7 13 8 14 9 15 13 16 11 17 10 18 12 20 4 22 21 24 18 26
REMARK H PARENT 10 19 12 21 4 23 21 25 18 27
REMARK Flexibility Score: inf
ROOT
ATOM      1  C   UNL     1      70.751  52.167  21.526  1.00  0.00     0.180 A 
ATOM      2  C   UNL     1      70.899  51.493  22.750  1.00  0.00     0.208 A 
ATOM      3  C   UNL     1      72.091  51.650  23.474  1.00  0.00     0.238 A 
ATOM      4  O   UNL     1      72.240  51.002  24.543  1.00  0.00    -0.285 OA
ATOM      5  C   UNL     1      73.113  52.493  22.974  1.00  0.00     0.111 A 
ATOM      6  C   UNL     1      74.345  52.759  23.644  1.00  0.00     0.134 A 
ATOM      7  C   UNL     1      75.338  53.504  22.996  1.00  0.00     0.093 A 
ATOM      8  C   UNL     1      75.118  54.048  21.731  1.00  0.00     0.123 A 
ATOM      9  C   UNL     1      73.895  53.845  21.092  1.00  0.00     0.094 A 
ATOM     10  C   UNL     1      72.899  53.076  21.697  1.00  0.00     0.146 A 
ATOM     11  O   UNL     1      71.753  52.898  21.051  1.00  0.00    -0.452 OA
ENDROOT
BRANCH   1  12
ATOM     12  C   UNL     1      69.514  52.070  20.717  1.00  0.00     0.025 A 
ATOM     13  C   UNL     1      69.246  50.892  20.002  1.00  0.00     0.016 A 
ATOM     14  C   UNL     1      68.095  50.786  19.217  1.00  0.00     0.051 A 
ATOM     15  C   UNL     1      67.203  51.863  19.122  1.00  0.00     0.157 A 
ATOM     16  C   UNL     1      68.626  53.155  20.604  1.00  0.00     0.062 A 
ATOM     17  C   UNL     1      67.474  53.054  19.816  1.00  0.00     0.158 A 
BRANCH  15  18
ATOM     18  O   UNL     1      66.054  51.754  18.340  1.00  0.00    -0.504 OA
ATOM     19  H   UNL     1      65.494  50.910  18.335  1.00  0.00     0.293 HD
ENDBRANCH  15  18
BRANCH  17  20
ATOM     20  O   UNL     1      66.613  54.148  19.731  1.00  0.00    -0.504 OA
ATOM     21  H   UNL     1      66.056  54.457  20.519  1.00  0.00     0.293 HD
ENDBRANCH  17  20
ENDBRANCH   1  12
BRANCH   2  22
ATOM     22  O   UNL     1      69.886  50.648  23.215  1.00  0.00    -0.502 OA
ATOM     23  H   UNL     1      70.060  49.686  23.477  1.00  0.00     0.293 HD
ENDBRANCH   2  22
BRANCH   6  24
ATOM     24  O   UNL     1      74.631  52.339  24.947  1.00  0.00    -0.507 OA
ATOM     25  H   UNL     1      74.040  51.736  25.499  1.00  0.00     0.293 HD
ENDBRANCH   6  24
BRANCH   8  26
ATOM     26  O   UNL     1      76.123  54.798  21.123  1.00  0.00    -0.508 OA
ATOM     27  H   UNL     1      75.994  55.781  20.910  1.00  0.00     0.293 HD
ENDBRANCH   8  26
TORSDOF 6
ENDMDL
MODEL 4
REMARK VINA RESULT:    -5.732      1.985      3.308
REMARK INTER + INTRA:          -6.909
REMARK INTER:                  -6.653
REMARK INTRA:                  -0.256
REMARK UNBOUND:                -0.005
REMARK SMILES O=c1c(O)c(-c2ccc(O)c(O)c2)oc2cc(O)cc(O)c12
REMARK SMILES IDX 5 1 3 2 2 3 1 4 22 5 20 6 19 7 17 8 16 9 15 10 14 11 6 12
REMARK SMILES IDX 7 13 8 14 9 15 13 16 11 17 10 18 12 20 4 22 21 24 18 26
REMARK H PARENT 10 19 12 21 4 23 21 25 18 27
REMARK Flexibility Score: inf
ROOT
ATOM      1  C   UNL     1      71.664  53.935  18.634  1.00  0.00     0.180 A 
ATOM      2  C   UNL     1      70.691  53.365  17.795  1.00  0.00     0.208 A 
ATOM      3  C   UNL     1      69.829  52.388  18.318  1.00  0.00     0.238 A 
ATOM      4  O   UNL     1      68.996  51.843  17.548  1.00  0.00    -0.285 OA
ATOM      5  C   UNL     1      69.939  52.006  19.677  1.00  0.00     0.111 A 
ATOM      6  C   UNL     1      69.091  51.057  20.323  1.00  0.00     0.134 A 
ATOM      7  C   UNL     1      69.374  50.658  21.635  1.00  0.00     0.093 A 
ATOM      8  C   UNL     1      70.433  51.222  22.346  1.00  0.00     0.123 A 
ATOM      9  C   UNL     1      71.231  52.195  21.745  1.00  0.00     0.094 A 
ATOM     10  C   UNL     1      70.997  52.586  20.425  1.00  0.00     0.146 A 
ATOM     11  O   UNL     1      71.786  53.508  19.885  1.00  0.00    -0.452 OA
ENDROOT
BRANCH   1  12
ATOM     12  C   UNL     1      72.593  54.987  18.162  1.00  0.00     0.025 A 
ATOM     13  C   UNL     1      72.112  56.289  17.948  1.00  0.00     0.016 A 
ATOM     14  C   UNL     1      72.966  57.293  17.484  1.00  0.00     0.051 A 
ATOM     15  C   UNL     1      74.310  57.006  17.211  1.00  0.00     0.157 A 
ATOM     16  C   UNL     1      73.938  54.699  17.869  1.00  0.00     0.062 A 
ATOM     17  C   UNL     1      74.796  55.702  17.401  1.00  0.00     0.158 A 
BRANCH  15  18
ATOM     18  O   UNL     1      75.160  58.010  16.750  1.00  0.00    -0.504 OA
ATOM     19  H   UNL     1      74.803  58.903  16.431  1.00  0.00     0.293 HD
ENDBRANCH  15  18
BRANCH  17  20
ATOM     20  O   UNL     1      76.125  55.381  17.125  1.00  0.00    -0.504 OA
ATOM     21  H   UNL     1      76.622  55.781  16.339  1.00  0.00     0.293 HD
ENDBRANCH  17  20
ENDBRANCH   1  12
BRANCH   2  22
ATOM     22  O   UNL     1      70.615  53.741  16.451  1.00  0.00    -0.502 OA
ATOM     23  H   UNL     1      71.216  53.343  15.740  1.00  0.00     0.293 HD
ENDBRANCH   2  22
BRANCH   6  24
ATOM     24  O   UNL     1      67.952  50.499  19.733  1.00  0.00    -0.507 OA
ATOM     25  H   UNL     1      67.017  50.576  20.104  1.00  0.00     0.293 HD
ENDBRANCH   6  24
BRANCH   8  26
ATOM     26  O   UNL     1      70.675  50.813  23.656  1.00  0.00    -0.508 OA
ATOM     27  H   UNL     1      71.214  49.980  23.859  1.00  0.00     0.293 HD
ENDBRANCH   8  26
TORSDOF 6
ENDMDL
MODEL 5
REMARK VINA RESULT:    -5.729      2.768      6.324
REMARK INTER + INTRA:          -6.906
REMARK INTER:                  -6.591
REMARK INTRA:                  -0.315
REMARK UNBOUND:                -0.005
REMARK SMILES O=c1c(O)c(-c2ccc(O)c(O)c2)oc2cc(O)cc(O)c12
REMARK SMILES IDX 5 1 3 2 2 3 1 4 22 5 20 6 19 7 17 8 16 9 15 10 14 11 6 12
REMARK SMILES IDX 7 13 8 14 9 15 13 16 11 17 10 18 12 20 4 22 21 24 18 26
REMARK H PARENT 10 19 12 21 4 23 21 25 18 27
REMARK Flexibility Score: inf
ROOT
ATOM      1  C   UNL     1      71.263  53.126  19.946  1.00  0.00     0.180 A 
ATOM      2  C   UNL     1      71.847  52.846  21.193  1.00  0.00     0.208 A 
ATOM      3  C   UNL     1      73.168  53.257  21.433  1.00  0.00     0.238 A 
ATOM      4  O   UNL     1      73.705  52.956  22.531  1.00  0.00    -0.285 OA
ATOM      5  C   UNL     1      73.882  53.957  20.430  1.00  0.00     0.111 A 
ATOM      6  C   UNL     1      75.210  54.457  20.581  1.00  0.00     0.134 A 
ATOM      7  C   UNL     1      75.866  55.019  19.478  1.00  0.00     0.093 A 
ATOM      8  C   UNL     1      75.219  55.160  18.251  1.00  0.00     0.123 A 
ATOM      9  C   UNL     1      73.899  54.729  18.110  1.00  0.00     0.094 A 
ATOM     10  C   UNL     1      73.231  54.131  19.181  1.00  0.00     0.146 A 
ATOM     11  O   UNL     1      71.980  53.725  19.002  1.00  0.00    -0.452 OA
ENDROOT
BRANCH   1  12
ATOM     12  C   UNL     1      69.867  52.747  19.626  1.00  0.00     0.025 A 
ATOM     13  C   UNL     1      69.623  51.615  18.832  1.00  0.00     0.016 A 
ATOM     14  C   UNL     1      68.315  51.250  18.502  1.00  0.00     0.051 A 
ATOM     15  C   UNL     1      67.233  52.021  18.947  1.00  0.00     0.157 A 
ATOM     16  C   UNL     1      68.780  53.529  20.055  1.00  0.00     0.062 A 
ATOM     17  C   UNL     1      67.468  53.168  19.723  1.00  0.00     0.158 A 
BRANCH  15  18
ATOM     18  O   UNL     1      65.929  51.654  18.618  1.00  0.00    -0.504 OA
ATOM     19  H   UNL     1      65.461  52.032  17.803  1.00  0.00     0.293 HD
ENDBRANCH  15  18
BRANCH  17  20
ATOM     20  O   UNL     1      66.414  53.964  20.170  1.00  0.00    -0.504 OA
ATOM     21  H   UNL     1      66.327  54.247  21.139  1.00  0.00     0.293 HD
ENDBRANCH  17  20
ENDBRANCH   1  12
BRANCH   2  22
ATOM     22  O   UNL     1      71.133  52.134  22.160  1.00  0.00    -0.502 OA
ATOM     23  H   UNL     1      71.073  52.438  23.125  1.00  0.00     0.293 HD
ENDBRANCH   2  22
BRANCH   6  24
ATOM     24  O   UNL     1      75.915  54.449  21.788  1.00  0.00    -0.507 OA
ATOM     25  H   UNL     1      76.918  54.522  21.869  1.00  0.00     0.293 HD
ENDBRANCH   6  24
BRANCH   8  26
ATOM     26  O   UNL     1      75.896  55.739  17.180  1.00  0.00    -0.508 OA
ATOM     27  H   UNL     1      76.894  55.614  17.056  1.00  0.00     0.293 HD
ENDBRANCH   8  26
TORSDOF 6
ENDMDL
MODEL 6
REMARK VINA RESULT:    -5.652      3.888      7.711
REMARK INTER + INTRA:          -6.813
REMARK INTER:                  -6.491
REMARK INTRA:                  -0.322
REMARK UNBOUND:                -0.005
REMARK SMILES O=c1c(O)c(-c2ccc(O)c(O)c2)oc2cc(O)cc(O)c12
REMARK SMILES IDX 5 1 3 2 2 3 1 4 22 5 20 6 19 7 17 8 16 9 15 10 14 11 6 12
REMARK SMILES IDX 7 13 8 14 9 15 13 16 11 17 10 18 12 20 4 22 21 24 18 26
REMARK H PARENT 10 19 12 21 4 23 21 25 18 27
REMARK Flexibility Score: inf
ROOT
ATOM      1  C   UNL     1      70.768  52.870  23.078  1.00  0.00     0.180 A 
ATOM      2  C   UNL     1      70.405  51.540  22.810  1.00  0.00     0.208 A 
ATOM      3  C   UNL     1      70.171  51.152  21.481  1.00  0.00     0.238 A 
ATOM      4  O   UNL     1      69.794  49.974  21.252  1.00  0.00    -0.285 OA
ATOM      5  C   UNL     1      70.322  52.095  20.435  1.00  0.00     0.111 A 
ATOM      6  C   UNL     1      70.152  51.802  19.049  1.00  0.00     0.134 A 
ATOM      7  C   UNL     1      70.196  52.843  18.112  1.00  0.00     0.093 A 
ATOM      8  C   UNL     1      70.471  54.152  18.504  1.00  0.00     0.123 A 
ATOM      9  C   UNL     1      70.698  54.440  19.850  1.00  0.00     0.094 A 
ATOM     10  C   UNL     1      70.624  53.430  20.812  1.00  0.00     0.146 A 
ATOM     11  O   UNL     1      70.836  53.747  22.084  1.00  0.00    -0.452 OA
ENDROOT
BRANCH   1  12
ATOM     12  C   UNL     1      71.054  53.348  24.451  1.00  0.00     0.025 A 
ATOM     13  C   UNL     1      72.365  53.279  24.948  1.00  0.00     0.016 A 
ATOM     14  C   UNL     1      72.653  53.705  26.247  1.00  0.00     0.051 A 
ATOM     15  C   UNL     1      71.632  54.192  27.074  1.00  0.00     0.157 A 
ATOM     16  C   UNL     1      70.028  53.818  25.290  1.00  0.00     0.062 A 
ATOM     17  C   UNL     1      70.313  54.244  26.593  1.00  0.00     0.158 A 
BRANCH  15  18
ATOM     18  O   UNL     1      71.923  54.618  28.369  1.00  0.00    -0.504 OA
ATOM     19  H   UNL     1      71.208  54.669  29.084  1.00  0.00     0.293 HD
ENDBRANCH  15  18
BRANCH  17  20
ATOM     20  O   UNL     1      69.272  54.709  27.396  1.00  0.00    -0.504 OA
ATOM     21  H   UNL     1      69.441  55.243  28.241  1.00  0.00     0.293 HD
ENDBRANCH  17  20
ENDBRANCH   1  12
BRANCH   2  22
ATOM     22  O   UNL     1      70.240  50.631  23.859  1.00  0.00    -0.502 OA
ATOM     23  H   UNL     1      69.852  50.899  24.755  1.00  0.00     0.293 HD
ENDBRANCH   2  22
BRANCH   6  24
ATOM     24  O   UNL     1      69.964  50.513  18.541  1.00  0.00    -0.507 OA
ATOM     25  H   UNL     1      70.570  50.065  17.871  1.00  0.00     0.293 HD
ENDBRANCH   6  24
BRANCH   8  26
ATOM     26  O   UNL     1      70.524  55.159  17.542  1.00  0.00    -0.508 OA
ATOM     27  H   UNL     1      70.855  54.976  16.603  1.00  0.00     0.293 HD
ENDBRANCH   8  26
TORSDOF 6
ENDMDL
MODEL 7
REMARK VINA RESULT:    -5.646      3.333      6.952
REMARK INTER + INTRA:          -6.806
REMARK INTER:                  -6.478
REMARK INTRA:                  -0.328
REMARK UNBOUND:                -0.005
REMARK SMILES O=c1c(O)c(-c2ccc(O)c(O)c2)oc2cc(O)cc(O)c12
REMARK SMILES IDX 5 1 3 2 2 3 1 4 22 5 20 6 19 7 17 8 16 9 15 10 14 11 6 12
REMARK SMILES IDX 7 13 8 14 9 15 13 16 11 17 10 18 12 20 4 22 21 24 18 26
REMARK H PARENT 10 19 12 21 4 23 21 25 18 27
REMARK Flexibility Score: inf
ROOT
ATOM      1  C   UNL     1      70.803  52.798  22.297  1.00  0.00     0.180 A 
ATOM      2  C   UNL     1      71.568  53.351  21.256  1.00  0.00     0.208 A 
ATOM      3  C   UNL     1      71.202  53.084  19.927  1.00  0.00     0.238 A 
ATOM      4  O   UNL     1      71.921  53.537  18.999  1.00  0.00    -0.285 OA
ATOM      5  C   UNL     1      70.067  52.281  19.656  1.00  0.00     0.111 A 
ATOM      6  C   UNL     1      69.581  51.980  18.348  1.00  0.00     0.134 A 
ATOM      7  C   UNL     1      68.528  51.068  18.196  1.00  0.00     0.093 A 
ATOM      8  C   UNL     1      67.902  50.500  19.304  1.00  0.00     0.123 A 
ATOM      9  C   UNL     1      68.330  50.835  20.589  1.00  0.00     0.094 A 
ATOM     10  C   UNL     1      69.401  51.711  20.773  1.00  0.00     0.146 A 
ATOM     11  O   UNL     1      69.785  51.996  22.012  1.00  0.00    -0.452 OA
ENDROOT
BRANCH   1  12
ATOM     12  C   UNL     1      71.112  53.055  23.723  1.00  0.00     0.025 A 
ATOM     13  C   UNL     1      71.847  52.107  24.453  1.00  0.00     0.016 A 
ATOM     14  C   UNL     1      72.132  52.319  25.804  1.00  0.00     0.051 A 
ATOM     15  C   UNL     1      71.672  53.474  26.451  1.00  0.00     0.157 A 
ATOM     16  C   UNL     1      70.635  54.203  24.380  1.00  0.00     0.062 A 
ATOM     17  C   UNL     1      70.917  54.418  25.734  1.00  0.00     0.158 A 
BRANCH  15  18
ATOM     18  O   UNL     1      71.960  53.684  27.798  1.00  0.00    -0.504 OA
ATOM     19  H   UNL     1      72.410  54.533  28.118  1.00  0.00     0.293 HD
ENDBRANCH  15  18
BRANCH  17  20
ATOM     20  O   UNL     1      70.432  55.571  26.352  1.00  0.00    -0.504 OA
ATOM     21  H   UNL     1      70.414  56.466  25.879  1.00  0.00     0.293 HD
ENDBRANCH  17  20
ENDBRANCH   1  12
BRANCH   2  22
ATOM     22  O   UNL     1      72.697  54.122  21.545  1.00  0.00    -0.502 OA
ATOM     23  H   UNL     1      73.001  54.307  22.494  1.00  0.00     0.293 HD
ENDBRANCH   2  22
BRANCH   6  24
ATOM     24  O   UNL     1      70.076  52.563  17.178  1.00  0.00    -0.507 OA
ATOM     25  H   UNL     1      69.603  53.280  16.649  1.00  0.00     0.293 HD
ENDBRANCH   6  24
BRANCH   8  26
ATOM     26  O   UNL     1      66.847  49.610  19.115  1.00  0.00    -0.508 OA
ATOM     27  H   UNL     1      67.010  48.638  18.883  1.00  0.00     0.293 HD
ENDBRANCH   8  26
TORSDOF 6
ENDMDL
MODEL 8
REMARK VINA RESULT:    -5.634      2.007      2.791
REMARK INTER + INTRA:          -6.791
REMARK INTER:                  -6.478
REMARK INTRA:                  -0.314
REMARK UNBOUND:                -0.005
REMARK SMILES O=c1c(O)c(-c2ccc(O)c(O)c2)oc2cc(O)cc(O)c12
REMARK SMILES IDX 5 1 3 2 2 3 1 4 22 5 20 6 19 7 17 8 16 9 15 10 14 11 6 12
REMARK SMILES IDX 7 13 8 14 9 15 13 16 11 17 10 18 12 20 4 22 21 24 18 26
REMARK H PARENT 10 19 12 21 4 23 21 25 18 27
REMARK Flexibility Score: inf
ROOT
ATOM      1  C   UNL     1      71.492  53.424  19.966  1.00  0.00     0.180 A 
ATOM      2  C   UNL     1      72.346  53.820  21.009  1.00  0.00     0.208 A 
ATOM      3  C   UNL     1      72.299  53.126  22.229  1.00  0.00     0.238 A 
ATOM      4  O   UNL     1      73.027  53.519  23.177  1.00  0.00    -0.285 OA
ATOM      5  C   UNL     1      71.409  52.035  22.384  1.00  0.00     0.111 A 
ATOM      6  C   UNL     1      71.307  51.235  23.562  1.00  0.00     0.134 A 
ATOM      7  C   UNL     1      70.301  50.264  23.652  1.00  0.00     0.093 A 
ATOM      8  C   UNL     1      69.439  50.019  22.583  1.00  0.00     0.123 A 
ATOM      9  C   UNL     1      69.570  50.755  21.405  1.00  0.00     0.094 A 
ATOM     10  C   UNL     1      70.539  51.755  21.299  1.00  0.00     0.146 A 
ATOM     11  O   UNL     1      70.623  52.439  20.164  1.00  0.00    -0.452 OA
ENDROOT
BRANCH   1  12
ATOM     12  C   UNL     1      71.502  54.090  18.643  1.00  0.00     0.025 A 
ATOM     13  C   UNL     1      72.307  53.575  17.615  1.00  0.00     0.016 A 
ATOM     14  C   UNL     1      72.347  54.199  16.366  1.00  0.00     0.051 A 
ATOM     15  C   UNL     1      71.595  55.358  16.131  1.00  0.00     0.157 A 
ATOM     16  C   UNL     1      70.763  55.264  18.409  1.00  0.00     0.062 A 
ATOM     17  C   UNL     1      70.803  55.894  17.160  1.00  0.00     0.158 A 
BRANCH  15  18
ATOM     18  O   UNL     1      71.635  55.977  14.883  1.00  0.00    -0.504 OA
ATOM     19  H   UNL     1      71.336  55.497  14.042  1.00  0.00     0.293 HD
ENDBRANCH  15  18
BRANCH  17  20
ATOM     20  O   UNL     1      70.054  57.054  16.962  1.00  0.00    -0.504 OA
ATOM     21  H   UNL     1      70.490  57.954  16.799  1.00  0.00     0.293 HD
ENDBRANCH  17  20
ENDBRANCH   1  12
BRANCH   2  22
ATOM     22  O   UNL     1      73.200  54.914  20.841  1.00  0.00    -0.502 OA
ATOM     23  H   UNL     1      73.157  55.517  20.029  1.00  0.00     0.293 HD
ENDBRANCH   2  22
BRANCH   6  24
ATOM     24  O   UNL     1      72.177  51.335  24.651  1.00  0.00    -0.507 OA
ATOM     25  H   UNL     1      73.087  50.902  24.702  1.00  0.00     0.293 HD
ENDBRANCH   6  24
BRANCH   8  26
ATOM     26  O   UNL     1      68.461  49.034  22.702  1.00  0.00    -0.508 OA
ATOM     27  H   UNL     1      68.372  48.292  22.019  1.00  0.00     0.293 HD
ENDBRANCH   8  26
TORSDOF 6
ENDMDL
MODEL 9
REMARK VINA RESULT:    -5.626      4.232      6.821
REMARK INTER + INTRA:          -6.782
REMARK INTER:                  -6.636
REMARK INTRA:                  -0.145
REMARK UNBOUND:                -0.005
REMARK SMILES O=c1c(O)c(-c2ccc(O)c(O)c2)oc2cc(O)cc(O)c12
REMARK SMILES IDX 5 1 3 2 2 3 1 4 22 5 20 6 19 7 17 8 16 9 15 10 14 11 6 12
REMARK SMILES IDX 7 13 8 14 9 15 13 16 11 17 10 18 12 20 4 22 21 24 18 26
REMARK H PARENT 10 19 12 21 4 23 21 25 18 27
REMARK Flexibility Score: inf
ROOT
ATOM      1  C   UNL     1      70.687  52.634  22.968  1.00  0.00     0.180 A 
ATOM      2  C   UNL     1      71.334  51.855  23.942  1.00  0.00     0.208 A 
ATOM      3  C   UNL     1      71.645  52.436  25.182  1.00  0.00     0.238 A 
ATOM      4  O   UNL     1      72.272  51.751  26.031  1.00  0.00    -0.285 OA
ATOM      5  C   UNL     1      71.290  53.783  25.437  1.00  0.00     0.111 A 
ATOM      6  C   UNL     1      71.518  54.461  26.673  1.00  0.00     0.134 A 
ATOM      7  C   UNL     1      71.244  55.831  26.770  1.00  0.00     0.093 A 
ATOM      8  C   UNL     1      70.689  56.532  25.700  1.00  0.00     0.123 A 
ATOM      9  C   UNL     1      70.405  55.865  24.508  1.00  0.00     0.094 A 
ATOM     10  C   UNL     1      70.702  54.507  24.368  1.00  0.00     0.146 A 
ATOM     11  O   UNL     1      70.426  53.913  23.213  1.00  0.00    -0.452 OA
ENDROOT
BRANCH   1  12
ATOM     12  C   UNL     1      70.305  52.085  21.646  1.00  0.00     0.025 A 
ATOM     13  C   UNL     1      69.385  51.026  21.577  1.00  0.00     0.016 A 
ATOM     14  C   UNL     1      69.026  50.480  20.342  1.00  0.00     0.051 A 
ATOM     15  C   UNL     1      69.593  50.973  19.159  1.00  0.00     0.157 A 
ATOM     16  C   UNL     1      70.887  52.564  20.459  1.00  0.00     0.062 A 
ATOM     17  C   UNL     1      70.531  52.017  19.220  1.00  0.00     0.158 A 
BRANCH  15  18
ATOM     18  O   UNL     1      69.231  50.427  17.929  1.00  0.00    -0.504 OA
ATOM     19  H   UNL     1      69.876  50.404  17.148  1.00  0.00     0.293 HD
ENDBRANCH  15  18
BRANCH  17  20
ATOM     20  O   UNL     1      71.124  52.520  18.062  1.00  0.00    -0.504 OA
ATOM     21  H   UNL     1      70.587  52.726  17.229  1.00  0.00     0.293 HD
ENDBRANCH  17  20
ENDBRANCH   1  12
BRANCH   2  22
ATOM     22  O   UNL     1      71.696  50.535  23.660  1.00  0.00    -0.502 OA
ATOM     23  H   UNL     1      71.072  49.888  23.193  1.00  0.00     0.293 HD
ENDBRANCH   2  22
BRANCH   6  24
ATOM     24  O   UNL     1      71.984  53.834  27.832  1.00  0.00    -0.507 OA
ATOM     25  H   UNL     1      71.466  53.152  28.365  1.00  0.00     0.293 HD
ENDBRANCH   6  24
BRANCH   8  26
ATOM     26  O   UNL     1      70.414  57.890  25.838  1.00  0.00    -0.508 OA
ATOM     27  H   UNL     1      69.645  58.219  26.409  1.00  0.00     0.293 HD
ENDBRANCH   8  26
TORSDOF 6
ENDMDL
