MODEL 1
REMARK VINA RESULT:    -4.487      0.000      0.000
REMARK INTER + INTRA:          -8.136
REMARK INTER:                  -7.111
REMARK INTRA:                  -1.025
REMARK UNBOUND:                -1.025
REMARK SMILES CCCCCCCCCCCC(=O)[O-]
REMARK SMILES IDX 7 1 8 2 9 3 10 4 11 5 12 6 13 7 14 8 6 9 5 10 4 11 3 12 2 13
REMARK SMILES IDX 1 14
REMARK H PARENT
REMARK Flexibility Score: inf
ROOT
ATOM      1  C   UNL     1      85.225 125.164 131.176  1.00  0.00     0.000 C 
ENDROOT
BRANCH   1   2
ATOM      2  C   UNL     1      85.394 123.639 131.150  1.00  0.00     0.000 C 
BRANCH   2   3
ATOM      3  C   UNL     1      86.699 123.219 131.838  1.00  0.00     0.000 C 
BRANCH   3   4
ATOM      4  C   UNL     1      87.917 123.795 131.106  1.00  0.00     0.006 C 
BRANCH   4   5
ATOM      5  C   UNL     1      88.251 122.970 129.860  1.00  0.00     0.053 C 
BRANCH   5   6
ATOM      6  C   UNL     1      88.588 121.562 130.240  1.00  0.00     0.041 C 
ATOM      7  O   UNL     1      88.043 120.597 129.644  1.00  0.00    -0.550 OA
ATOM      8  O   UNL     1      89.542 121.316 131.220  1.00  0.00    -0.550 OA
ENDBRANCH   5   6
ENDBRANCH   4   5
ENDBRANCH   3   4
ENDBRANCH   2   3
ENDBRANCH   1   2
BRANCH   1   9
ATOM      9  C   UNL     1      84.597 125.671 129.873  1.00  0.00     0.000 C 
BRANCH   9  10
ATOM     10  C   UNL     1      85.610 125.621 128.720  1.00  0.00    -0.000 C 
BRANCH  10  11
ATOM     11  C   UNL     1      85.060 124.904 127.477  1.00  0.00    -0.000 C 
BRANCH  11  12
ATOM     12  C   UNL     1      83.711 124.217 127.737  1.00  0.00    -0.000 C 
BRANCH  12  13
ATOM     13  C   UNL     1      83.076 123.742 126.425  1.00  0.00    -0.003 C 
ATOM     14  C   UNL     1      84.027 123.941 125.248  1.00  0.00     0.004 C 
ENDBRANCH  12  13
ENDBRANCH  11  12
ENDBRANCH  10  11
ENDBRANCH   9  10
ENDBRANCH   1   9
TORSDOF 10
ENDMDL
MODEL 2
REMARK VINA RESULT:    -4.445      1.033      1.762
REMARK INTER + INTRA:          -8.069
REMARK INTER:                  -7.274
REMARK INTRA:                  -0.794
REMARK UNBOUND:                -1.025
REMARK SMILES CCCCCCCCCCCC(=O)[O-]
REMARK SMILES IDX 7 1 8 2 9 3 10 4 11 5 12 6 13 7 14 8 6 9 5 10 4 11 3 12 2 13
REMARK SMILES IDX 1 14
REMARK H PARENT
REMARK Flexibility Score: inf
ROOT
ATOM      1  C   UNL     1      86.492 125.167 128.888  1.00  0.00     0.000 C 
ENDROOT
BRANCH   1   2
ATOM      2  C   UNL     1      85.685 125.234 130.192  1.00  0.00     0.000 C 
BRANCH   2   3
ATOM      3  C   UNL     1      86.459 124.595 131.351  1.00  0.00     0.000 C 
BRANCH   3   4
ATOM      4  C   UNL     1      87.683 123.826 130.838  1.00  0.00     0.006 C 
BRANCH   4   5
ATOM      5  C   UNL     1      87.840 122.490 131.569  1.00  0.00     0.053 C 
BRANCH   5   6
ATOM      6  C   UNL     1      88.851 121.631 130.877  1.00  0.00     0.041 C 
ATOM      7  O   UNL     1      88.656 121.250 129.693  1.00  0.00    -0.550 OA
ATOM      8  O   UNL     1      90.032 121.290 131.525  1.00  0.00    -0.550 OA
ENDBRANCH   5   6
ENDBRANCH   4   5
ENDBRANCH   3   4
ENDBRANCH   2   3
ENDBRANCH   1   2
BRANCH   1   9
ATOM      9  C   UNL     1      85.655 124.566 127.753  1.00  0.00     0.000 C 
BRANCH   9  10
ATOM     10  C   UNL     1      84.354 123.955 128.294  1.00  0.00    -0.000 C 
BRANCH  10  11
ATOM     11  C   UNL     1      83.206 124.005 127.274  1.00  0.00    -0.000 C 
BRANCH  11  12
ATOM     12  C   UNL     1      83.698 124.242 125.838  1.00  0.00    -0.000 C 
BRANCH  12  13
ATOM     13  C   UNL     1      83.675 122.941 125.028  1.00  0.00    -0.003 C 
ATOM     14  C   UNL     1      85.088 122.440 124.748  1.00  0.00     0.004 C 
ENDBRANCH  12  13
ENDBRANCH  11  12
ENDBRANCH  10  11
ENDBRANCH   9  10
ENDBRANCH   1   9
TORSDOF 10
ENDMDL
MODEL 3
REMARK VINA RESULT:    -4.428      1.508      2.886
REMARK INTER + INTRA:          -8.043
REMARK INTER:                  -6.317
REMARK INTRA:                  -1.725
REMARK UNBOUND:                -1.025
REMARK SMILES CCCCCCCCCCCC(=O)[O-]
REMARK SMILES IDX 7 1 8 2 9 3 10 4 11 5 12 6 13 7 14 8 6 9 5 10 4 11 3 12 2 13
REMARK SMILES IDX 1 14
REMARK H PARENT
REMARK Flexibility Score: inf
ROOT
ATOM      1  C   UNL     1      85.452 125.649 128.261  1.00  0.00     0.000 C 
ENDROOT
BRANCH   1   2
ATOM      2  C   UNL     1      86.736 125.098 128.896  1.00  0.00     0.000 C 
BRANCH   2   3
ATOM      3  C   UNL     1      86.527 124.795 130.384  1.00  0.00     0.000 C 
BRANCH   3   4
ATOM      4  C   UNL     1      87.511 123.724 130.871  1.00  0.00     0.006 C 
BRANCH   4   5
ATOM      5  C   UNL     1      88.084 122.928 129.695  1.00  0.00     0.053 C 
BRANCH   5   6
ATOM      6  C   UNL     1      88.495 121.560 130.140  1.00  0.00     0.041 C 
ATOM      7  O   UNL     1      88.114 120.544 129.502  1.00  0.00    -0.550 OA
ATOM      8  O   UNL     1      89.341 121.410 131.232  1.00  0.00    -0.550 OA
ENDBRANCH   5   6
ENDBRANCH   4   5
ENDBRANCH   3   4
ENDBRANCH   2   3
ENDBRANCH   1   2
BRANCH   1   9
ATOM      9  C   UNL     1      84.500 124.513 127.871  1.00  0.00     0.000 C 
BRANCH   9  10
ATOM     10  C   UNL     1      85.250 123.396 127.131  1.00  0.00    -0.000 C 
BRANCH  10  11
ATOM     11  C   UNL     1      85.050 122.018 127.780  1.00  0.00    -0.000 C 
BRANCH  11  12
ATOM     12  C   UNL     1      84.112 122.063 128.995  1.00  0.00    -0.000 C 
BRANCH  12  13
ATOM     13  C   UNL     1      84.709 121.292 130.178  1.00  0.00    -0.003 C 
ATOM     14  C   UNL     1      84.317 121.931 131.507  1.00  0.00     0.004 C 
ENDBRANCH  12  13
ENDBRANCH  11  12
ENDBRANCH  10  11
ENDBRANCH   9  10
ENDBRANCH   1   9
TORSDOF 10
ENDMDL
MODEL 4
REMARK VINA RESULT:    -4.402     10.782     13.486
REMARK INTER + INTRA:          -8.001
REMARK INTER:                  -7.327
REMARK INTRA:                  -0.674
REMARK UNBOUND:                -1.025
REMARK SMILES CCCCCCCCCCCC(=O)[O-]
REMARK SMILES IDX 7 1 8 2 9 3 10 4 11 5 12 6 13 7 14 8 6 9 5 10 4 11 3 12 2 13
REMARK SMILES IDX 1 14
REMARK H PARENT
REMARK Flexibility Score: inf
ROOT
ATOM      1  C   UNL     1      97.849 124.012 126.103  1.00  0.00     0.000 C 
ENDROOT
BRANCH   1   2
ATOM      2  C   UNL     1      97.486 125.236 125.251  1.00  0.00     0.000 C 
BRANCH   2   3
ATOM      3  C   UNL     1      96.525 124.852 124.120  1.00  0.00     0.000 C 
BRANCH   3   4
ATOM      4  C   UNL     1      96.085 123.388 124.244  1.00  0.00     0.006 C 
BRANCH   4   5
ATOM      5  C   UNL     1      95.357 122.924 122.979  1.00  0.00     0.053 C 
BRANCH   5   6
ATOM      6  C   UNL     1      93.996 122.404 123.320  1.00  0.00     0.041 C 
ATOM      7  O   UNL     1      93.551 122.513 124.493  1.00  0.00    -0.550 OA
ATOM      8  O   UNL     1      93.198 121.843 122.330  1.00  0.00    -0.550 OA
ENDBRANCH   5   6
ENDBRANCH   4   5
ENDBRANCH   3   4
ENDBRANCH   2   3
ENDBRANCH   1   2
BRANCH   1   9
ATOM      9  C   UNL     1      99.347 123.996 126.431  1.00  0.00     0.000 C 
BRANCH   9  10
ATOM     10  C   UNL     1      99.895 122.561 126.425  1.00  0.00    -0.000 C 
BRANCH  10  11
ATOM     11  C   UNL     1      98.822 121.518 126.076  1.00  0.00    -0.000 C 
BRANCH  11  12
ATOM     12  C   UNL     1      99.313 120.075 126.265  1.00  0.00    -0.000 C 
BRANCH  12  13
ATOM     13  C   UNL     1     100.762 120.050 126.765  1.00  0.00    -0.003 C 
ATOM     14  C   UNL     1     101.729 119.709 125.635  1.00  0.00     0.004 C 
ENDBRANCH  12  13
ENDBRANCH  11  12
ENDBRANCH  10  11
ENDBRANCH   9  10
ENDBRANCH   1   9
TORSDOF 10
ENDMDL
MODEL 5
REMARK VINA RESULT:    -4.350      1.207      1.879
REMARK INTER + INTRA:          -7.917
REMARK INTER:                  -6.540
REMARK INTRA:                  -1.377
REMARK UNBOUND:                -1.025
REMARK SMILES CCCCCCCCCCCC(=O)[O-]
REMARK SMILES IDX 7 1 8 2 9 3 10 4 11 5 12 6 13 7 14 8 6 9 5 10 4 11 3 12 2 13
REMARK SMILES IDX 1 14
REMARK H PARENT
REMARK Flexibility Score: inf
ROOT
ATOM      1  C   UNL     1      85.231 126.231 128.631  1.00  0.00     0.000 C 
ENDROOT
BRANCH   1   2
ATOM      2  C   UNL     1      86.572 125.513 128.423  1.00  0.00     0.000 C 
BRANCH   2   3
ATOM      3  C   UNL     1      86.971 124.721 129.673  1.00  0.00     0.000 C 
BRANCH   3   4
ATOM      4  C   UNL     1      87.254 123.254 129.328  1.00  0.00     0.006 C 
BRANCH   4   5
ATOM      5  C   UNL     1      87.313 122.393 130.594  1.00  0.00     0.053 C 
BRANCH   5   6
ATOM      6  C   UNL     1      88.337 121.312 130.444  1.00  0.00     0.041 C 
ATOM      7  O   UNL     1      88.222 120.452 129.532  1.00  0.00    -0.550 OA
ATOM      8  O   UNL     1      89.445 121.284 131.281  1.00  0.00    -0.550 OA
ENDBRANCH   5   6
ENDBRANCH   4   5
ENDBRANCH   3   4
ENDBRANCH   2   3
ENDBRANCH   1   2
BRANCH   1   9
ATOM      9  C   UNL     1      84.470 125.640 129.823  1.00  0.00     0.000 C 
BRANCH   9  10
ATOM     10  C   UNL     1      83.189 124.930 129.360  1.00  0.00    -0.000 C 
BRANCH  10  11
ATOM     11  C   UNL     1      83.375 123.412 129.207  1.00  0.00    -0.000 C 
BRANCH  11  12
ATOM     12  C   UNL     1      83.799 123.006 127.788  1.00  0.00    -0.000 C 
BRANCH  12  13
ATOM     13  C   UNL     1      83.069 123.848 126.735  1.00  0.00    -0.003 C 
ATOM     14  C   UNL     1      83.986 124.180 125.562  1.00  0.00     0.004 C 
ENDBRANCH  12  13
ENDBRANCH  11  12
ENDBRANCH  10  11
ENDBRANCH   9  10
ENDBRANCH   1   9
TORSDOF 10
ENDMDL
MODEL 6
REMARK VINA RESULT:    -4.330      1.480      2.216
REMARK INTER + INTRA:          -7.887
REMARK INTER:                  -7.267
REMARK INTRA:                  -0.621
REMARK UNBOUND:                -1.025
REMARK SMILES CCCCCCCCCCCC(=O)[O-]
REMARK SMILES IDX 7 1 8 2 9 3 10 4 11 5 12 6 13 7 14 8 6 9 5 10 4 11 3 12 2 13
REMARK SMILES IDX 1 14
REMARK H PARENT
REMARK Flexibility Score: inf
ROOT
ATOM      1  C   UNL     1      86.262 124.847 130.182  1.00  0.00     0.000 C 
ENDROOT
BRANCH   1   2
ATOM      2  C   UNL     1      87.449 124.045 130.732  1.00  0.00     0.000 C 
BRANCH   2   3
ATOM      3  C   UNL     1      88.010 123.094 129.669  1.00  0.00     0.000 C 
BRANCH   3   4
ATOM      4  C   UNL     1      88.687 121.880 130.317  1.00  0.00     0.006 C 
BRANCH   4   5
ATOM      5  C   UNL     1      87.701 121.106 131.196  1.00  0.00     0.053 C 
BRANCH   5   6
ATOM      6  C   UNL     1      86.886 120.165 130.365  1.00  0.00     0.041 C 
ATOM      7  O   UNL     1      85.660 120.009 130.602  1.00  0.00    -0.550 OA
ATOM      8  O   UNL     1      87.471 119.498 129.296  1.00  0.00    -0.550 OA
ENDBRANCH   5   6
ENDBRANCH   4   5
ENDBRANCH   3   4
ENDBRANCH   2   3
ENDBRANCH   1   2
BRANCH   1   9
ATOM      9  C   UNL     1      86.503 125.256 128.724  1.00  0.00     0.000 C 
BRANCH   9  10
ATOM     10  C   UNL     1      85.204 125.174 127.909  1.00  0.00    -0.000 C 
BRANCH  10  11
ATOM     11  C   UNL     1      84.991 123.793 127.270  1.00  0.00    -0.000 C 
BRANCH  11  12
ATOM     12  C   UNL     1      84.365 123.876 125.870  1.00  0.00    -0.000 C 
BRANCH  12  13
ATOM     13  C   UNL     1      84.841 122.717 124.987  1.00  0.00    -0.003 C 
ATOM     14  C   UNL     1      83.751 122.285 124.010  1.00  0.00     0.004 C 
ENDBRANCH  12  13
ENDBRANCH  11  12
ENDBRANCH  10  11
ENDBRANCH   9  10
ENDBRANCH   1   9
TORSDOF 10
ENDMDL
MODEL 7
REMARK VINA RESULT:    -4.281      2.835      5.709
REMARK INTER + INTRA:          -7.809
REMARK INTER:                  -6.941
REMARK INTRA:                  -0.868
REMARK UNBOUND:                -1.025
REMARK SMILES CCCCCCCCCCCC(=O)[O-]
REMARK SMILES IDX 7 1 8 2 9 3 10 4 11 5 12 6 13 7 14 8 6 9 5 10 4 11 3 12 2 13
REMARK SMILES IDX 1 14
REMARK H PARENT
REMARK Flexibility Score: inf
ROOT
ATOM      1  C   UNL     1      86.835 124.573 129.027  1.00  0.00     0.000 C 
ENDROOT
BRANCH   1   2
ATOM      2  C   UNL     1      85.810 123.807 128.179  1.00  0.00     0.000 C 
BRANCH   2   3
ATOM      3  C   UNL     1      84.808 124.767 127.528  1.00  0.00     0.000 C 
BRANCH   3   4
ATOM      4  C   UNL     1      83.738 123.997 126.744  1.00  0.00     0.006 C 
BRANCH   4   5
ATOM      5  C   UNL     1      84.048 123.998 125.245  1.00  0.00     0.053 C 
BRANCH   5   6
ATOM      6  C   UNL     1      84.472 122.634 124.798  1.00  0.00     0.041 C 
ATOM      7  O   UNL     1      85.674 122.409 124.502  1.00  0.00    -0.550 OA
ATOM      8  O   UNL     1      83.546 121.599 124.755  1.00  0.00    -0.550 OA
ENDBRANCH   5   6
ENDBRANCH   4   5
ENDBRANCH   3   4
ENDBRANCH   2   3
ENDBRANCH   1   2
BRANCH   1   9
ATOM      9  C   UNL     1      86.293 124.843 130.435  1.00  0.00     0.000 C 
BRANCH   9  10
ATOM     10  C   UNL     1      86.957 123.918 131.466  1.00  0.00    -0.000 C 
BRANCH  10  11
ATOM     11  C   UNL     1      88.386 123.518 131.068  1.00  0.00    -0.000 C 
BRANCH  11  12
ATOM     12  C   UNL     1      88.646 122.012 131.226  1.00  0.00    -0.000 C 
BRANCH  12  13
ATOM     13  C   UNL     1      88.066 121.229 130.043  1.00  0.00    -0.003 C 
ATOM     14  C   UNL     1      86.994 120.246 130.505  1.00  0.00     0.004 C 
ENDBRANCH  12  13
ENDBRANCH  11  12
ENDBRANCH  10  11
ENDBRANCH   9  10
ENDBRANCH   1   9
TORSDOF 10
ENDMDL
MODEL 8
REMARK VINA RESULT:    -4.184      2.975      4.659
REMARK INTER + INTRA:          -7.656
REMARK INTER:                  -6.137
REMARK INTRA:                  -1.519
REMARK UNBOUND:                -1.025
REMARK SMILES CCCCCCCCCCCC(=O)[O-]
REMARK SMILES IDX 7 1 8 2 9 3 10 4 11 5 12 6 13 7 14 8 6 9 5 10 4 11 3 12 2 13
REMARK SMILES IDX 1 14
REMARK H PARENT
REMARK Flexibility Score: inf
ROOT
ATOM      1  C   UNL     1      88.598 121.908 130.900  1.00  0.00     0.000 C 
ENDROOT
BRANCH   1   2
ATOM      2  C   UNL     1      88.335 123.411 131.057  1.00  0.00     0.000 C 
BRANCH   2   3
ATOM      3  C   UNL     1      86.882 123.674 131.470  1.00  0.00     0.000 C 
BRANCH   3   4
ATOM      4  C   UNL     1      86.217 124.688 130.531  1.00  0.00     0.006 C 
BRANCH   4   5
ATOM      5  C   UNL     1      86.794 124.587 129.116  1.00  0.00     0.053 C 
BRANCH   5   6
ATOM      6  C   UNL     1      86.035 125.471 128.177  1.00  0.00     0.041 C 
ATOM      7  O   UNL     1      86.255 126.710 128.155  1.00  0.00    -0.550 OA
ATOM      8  O   UNL     1      85.119 124.918 127.291  1.00  0.00    -0.550 OA
ENDBRANCH   5   6
ENDBRANCH   4   5
ENDBRANCH   3   4
ENDBRANCH   2   3
ENDBRANCH   1   2
BRANCH   1   9
ATOM      9  C   UNL     1      87.547 121.083 131.653  1.00  0.00     0.000 C 
BRANCH   9  10
ATOM     10  C   UNL     1      86.831 120.110 130.705  1.00  0.00    -0.000 C 
BRANCH  10  11
ATOM     11  C   UNL     1      86.902 120.553 129.235  1.00  0.00    -0.000 C 
BRANCH  11  12
ATOM     12  C   UNL     1      85.519 120.846 128.636  1.00  0.00    -0.000 C 
BRANCH  12  13
ATOM     13  C   UNL     1      84.538 121.308 129.721  1.00  0.00    -0.003 C 
ATOM     14  C   UNL     1      83.589 122.377 129.186  1.00  0.00     0.004 C 
ENDBRANCH  12  13
ENDBRANCH  11  12
ENDBRANCH  10  11
ENDBRANCH   9  10
ENDBRANCH   1   9
TORSDOF 10
ENDMDL
MODEL 9
REMARK VINA RESULT:    -4.135      2.820      5.449
REMARK INTER + INTRA:          -7.577
REMARK INTER:                  -6.134
REMARK INTRA:                  -1.443
REMARK UNBOUND:                -1.025
REMARK SMILES CCCCCCCCCCCC(=O)[O-]
REMARK SMILES IDX 7 1 8 2 9 3 10 4 11 5 12 6 13 7 14 8 6 9 5 10 4 11 3 12 2 13
REMARK SMILES IDX 1 14
REMARK H PARENT
REMARK Flexibility Score: inf
ROOT
ATOM      1  C   UNL     1      86.893 120.169 130.365  1.00  0.00     0.000 C 
ENDROOT
BRANCH   1   2
ATOM      2  C   UNL     1      86.188 121.018 129.299  1.00  0.00     0.000 C 
BRANCH   2   3
ATOM      3  C   UNL     1      84.907 121.648 129.858  1.00  0.00     0.000 C 
BRANCH   3   4
ATOM      4  C   UNL     1      84.303 122.644 128.860  1.00  0.00     0.006 C 
BRANCH   4   5
ATOM      5  C   UNL     1      85.315 123.015 127.773  1.00  0.00     0.053 C 
BRANCH   5   6
ATOM      6  C   UNL     1      84.974 124.342 127.171  1.00  0.00     0.041 C 
ATOM      7  O   UNL     1      85.396 125.404 127.697  1.00  0.00    -0.550 OA
ATOM      8  O   UNL     1      84.231 124.402 125.998  1.00  0.00    -0.550 OA
ENDBRANCH   5   6
ENDBRANCH   4   5
ENDBRANCH   3   4
ENDBRANCH   2   3
ENDBRANCH   1   2
BRANCH   1   9
ATOM      9  C   UNL     1      87.582 121.057 131.408  1.00  0.00     0.000 C 
BRANCH   9  10
ATOM     10  C   UNL     1      88.601 121.995 130.745  1.00  0.00    -0.000 C 
BRANCH  10  11
ATOM     11  C   UNL     1      88.469 123.449 131.225  1.00  0.00    -0.000 C 
BRANCH  11  12
ATOM     12  C   UNL     1      87.505 124.275 130.359  1.00  0.00    -0.000 C 
BRANCH  12  13
ATOM     13  C   UNL     1      86.324 124.789 131.191  1.00  0.00    -0.003 C 
ATOM     14  C   UNL     1      86.689 124.878 132.670  1.00  0.00     0.004 C 
ENDBRANCH  12  13
ENDBRANCH  11  12
ENDBRANCH  10  11
ENDBRANCH   9  10
ENDBRANCH   1   9
TORSDOF 10
ENDMDL
