MODEL 1
REMARK VINA RESULT:    -4.085      0.000      0.000
REMARK INTER + INTRA:          -8.388
REMARK INTER:                  -6.950
REMARK INTRA:                  -1.438
REMARK UNBOUND:                -1.438
REMARK SMILES CCCCCCCCCCCCCC(=O)[O-]
REMARK SMILES IDX 8 1 9 2 10 3 11 4 12 5 13 6 14 7 15 8 16 9 7 10 6 11 5 12
REMARK SMILES IDX 4 13 3 14 2 15 1 16
REMARK H PARENT
REMARK Flexibility Score: inf
ROOT
ATOM      1  C   UNL     1      76.990  81.172  78.738  1.00  0.00     0.000 C 
ENDROOT
BRANCH   1   2
ATOM      2  C   UNL     1      75.680  81.947  78.514  1.00  0.00     0.000 C 
BRANCH   2   3
ATOM      3  C   UNL     1      74.623  81.150  77.719  1.00  0.00     0.000 C 
BRANCH   3   4
ATOM      4  C   UNL     1      74.385  81.739  76.317  1.00  0.00     0.000 C 
BRANCH   4   5
ATOM      5  C   UNL     1      75.216  83.005  76.056  1.00  0.00     0.006 C 
BRANCH   5   6
ATOM      6  C   UNL     1      76.251  82.811  74.940  1.00  0.00     0.053 C 
BRANCH   6   7
ATOM      7  C   UNL     1      77.125  84.020  74.824  1.00  0.00     0.041 C 
ATOM      8  O   UNL     1      76.625  85.173  74.904  1.00  0.00    -0.550 OA
ATOM      9  O   UNL     1      78.484  83.874  74.578  1.00  0.00    -0.550 OA
ENDBRANCH   6   7
ENDBRANCH   5   6
ENDBRANCH   4   5
ENDBRANCH   3   4
ENDBRANCH   2   3
ENDBRANCH   1   2
BRANCH   1  10
ATOM     10  C   UNL     1      77.266  80.135  77.638  1.00  0.00     0.000 C 
BRANCH  10  11
ATOM     11  C   UNL     1      78.461  80.521  76.751  1.00  0.00    -0.000 C 
BRANCH  11  12
ATOM     12  C   UNL     1      79.207  81.761  77.272  1.00  0.00    -0.000 C 
BRANCH  12  13
ATOM     13  C   UNL     1      80.680  81.789  76.835  1.00  0.00    -0.000 C 
BRANCH  13  14
ATOM     14  C   UNL     1      81.566  80.861  77.684  1.00  0.00    -0.000 C 
BRANCH  14  15
ATOM     15  C   UNL     1      81.126  80.813  79.155  1.00  0.00    -0.003 C 
ATOM     16  C   UNL     1      82.261  81.148  80.122  1.00  0.00     0.004 C 
ENDBRANCH  14  15
ENDBRANCH  13  14
ENDBRANCH  12  13
ENDBRANCH  11  12
ENDBRANCH  10  11
ENDBRANCH   1  10
TORSDOF 12
ENDMDL
MODEL 2
REMARK VINA RESULT:    -4.057      1.796      4.371
REMARK INTER + INTRA:          -8.340
REMARK INTER:                  -7.210
REMARK INTRA:                  -1.130
REMARK UNBOUND:                -1.438
REMARK SMILES CCCCCCCCCCCCCC(=O)[O-]
REMARK SMILES IDX 8 1 9 2 10 3 11 4 12 5 13 6 14 7 15 8 16 9 7 10 6 11 5 12
REMARK SMILES IDX 4 13 3 14 2 15 1 16
REMARK H PARENT
REMARK Flexibility Score: inf
ROOT
ATOM      1  C   UNL     1      80.325  80.950  77.189  1.00  0.00     0.000 C 
ENDROOT
BRANCH   1   2
ATOM      2  C   UNL     1      80.657  82.309  76.549  1.00  0.00     0.000 C 
BRANCH   2   3
ATOM      3  C   UNL     1      80.768  82.254  75.011  1.00  0.00     0.000 C 
BRANCH   3   4
ATOM      4  C   UNL     1      79.437  81.863  74.345  1.00  0.00     0.000 C 
BRANCH   4   5
ATOM      5  C   UNL     1      78.449  83.037  74.259  1.00  0.00     0.006 C 
BRANCH   5   6
ATOM      6  C   UNL     1      77.166  82.788  75.063  1.00  0.00     0.053 C 
BRANCH   6   7
ATOM      7  C   UNL     1      76.287  83.999  75.030  1.00  0.00     0.041 C 
ATOM      8  O   UNL     1      75.041  83.881  75.168  1.00  0.00    -0.550 OA
ATOM      9  O   UNL     1      76.839  85.253  74.799  1.00  0.00    -0.550 OA
ENDBRANCH   6   7
ENDBRANCH   5   6
ENDBRANCH   4   5
ENDBRANCH   3   4
ENDBRANCH   2   3
ENDBRANCH   1   2
BRANCH   1  10
ATOM     10  C   UNL     1      79.306  81.062  78.335  1.00  0.00     0.000 C 
BRANCH  10  11
ATOM     11  C   UNL     1      77.856  80.913  77.849  1.00  0.00    -0.000 C 
BRANCH  11  12
ATOM     12  C   UNL     1      76.869  81.766  78.666  1.00  0.00    -0.000 C 
BRANCH  12  13
ATOM     13  C   UNL     1      75.612  80.982  79.076  1.00  0.00    -0.000 C 
BRANCH  13  14
ATOM     14  C   UNL     1      75.853  79.463  79.120  1.00  0.00    -0.000 C 
BRANCH  14  15
ATOM     15  C   UNL     1      76.125  78.952  80.543  1.00  0.00    -0.003 C 
ATOM     16  C   UNL     1      75.453  79.807  81.616  1.00  0.00     0.004 C 
ENDBRANCH  14  15
ENDBRANCH  13  14
ENDBRANCH  12  13
ENDBRANCH  11  12
ENDBRANCH  10  11
ENDBRANCH   1  10
TORSDOF 12
ENDMDL
MODEL 3
REMARK VINA RESULT:    -3.964      1.245      2.641
REMARK INTER + INTRA:          -8.183
REMARK INTER:                  -6.777
REMARK INTRA:                  -1.406
REMARK UNBOUND:                -1.438
REMARK SMILES CCCCCCCCCCCCCC(=O)[O-]
REMARK SMILES IDX 8 1 9 2 10 3 11 4 12 5 13 6 14 7 15 8 16 9 7 10 6 11 5 12
REMARK SMILES IDX 4 13 3 14 2 15 1 16
REMARK H PARENT
REMARK Flexibility Score: inf
ROOT
ATOM      1  C   UNL     1      78.767  80.614  77.247  1.00  0.00     0.000 C 
ENDROOT
BRANCH   1   2
ATOM      2  C   UNL     1      78.082  81.462  78.333  1.00  0.00     0.000 C 
BRANCH   2   3
ATOM      3  C   UNL     1      76.610  81.070  78.583  1.00  0.00     0.000 C 
BRANCH   3   4
ATOM      4  C   UNL     1      75.631  82.167  78.132  1.00  0.00     0.000 C 
BRANCH   4   5
ATOM      5  C   UNL     1      75.495  82.249  76.603  1.00  0.00     0.006 C 
BRANCH   5   6
ATOM      6  C   UNL     1      75.422  83.694  76.093  1.00  0.00     0.053 C 
BRANCH   6   7
ATOM      7  C   UNL     1      76.522  83.958  75.114  1.00  0.00     0.041 C 
ATOM      8  O   UNL     1      76.804  85.139  74.782  1.00  0.00    -0.550 OA
ATOM      9  O   UNL     1      77.203  82.897  74.530  1.00  0.00    -0.550 OA
ENDBRANCH   6   7
ENDBRANCH   5   6
ENDBRANCH   4   5
ENDBRANCH   3   4
ENDBRANCH   2   3
ENDBRANCH   1   2
BRANCH   1  10
ATOM     10  C   UNL     1      80.029  79.900  77.755  1.00  0.00     0.000 C 
BRANCH  10  11
ATOM     11  C   UNL     1      80.770  80.708  78.832  1.00  0.00    -0.000 C 
BRANCH  11  12
ATOM     12  C   UNL     1      82.102  81.287  78.323  1.00  0.00    -0.000 C 
BRANCH  12  13
ATOM     13  C   UNL     1      82.419  80.857  76.882  1.00  0.00    -0.000 C 
BRANCH  13  14
ATOM     14  C   UNL     1      82.564  82.055  75.928  1.00  0.00    -0.000 C 
BRANCH  14  15
ATOM     15  C   UNL     1      81.276  82.339  75.140  1.00  0.00    -0.003 C 
ATOM     16  C   UNL     1      80.491  83.524  75.700  1.00  0.00     0.004 C 
ENDBRANCH  14  15
ENDBRANCH  13  14
ENDBRANCH  12  13
ENDBRANCH  11  12
ENDBRANCH  10  11
ENDBRANCH   1  10
TORSDOF 12
ENDMDL
MODEL 4
REMARK VINA RESULT:    -3.890      1.502      2.474
REMARK INTER + INTRA:          -8.057
REMARK INTER:                  -6.278
REMARK INTRA:                  -1.779
REMARK UNBOUND:                -1.438
REMARK SMILES CCCCCCCCCCCCCC(=O)[O-]
REMARK SMILES IDX 8 1 9 2 10 3 11 4 12 5 13 6 14 7 15 8 16 9 7 10 6 11 5 12
REMARK SMILES IDX 4 13 3 14 2 15 1 16
REMARK H PARENT
REMARK Flexibility Score: inf
ROOT
ATOM      1  C   UNL     1      75.149  80.478  78.372  1.00  0.00     0.000 C 
ENDROOT
BRANCH   1   2
ATOM      2  C   UNL     1      74.232  80.487  77.137  1.00  0.00     0.000 C 
BRANCH   2   3
ATOM      3  C   UNL     1      74.706  79.544  76.010  1.00  0.00     0.000 C 
BRANCH   3   4
ATOM      4  C   UNL     1      75.344  80.312  74.840  1.00  0.00     0.000 C 
BRANCH   4   5
ATOM      5  C   UNL     1      75.103  81.828  74.923  1.00  0.00     0.006 C 
BRANCH   5   6
ATOM      6  C   UNL     1      76.397  82.640  74.781  1.00  0.00     0.053 C 
BRANCH   6   7
ATOM      7  C   UNL     1      76.185  84.045  75.251  1.00  0.00     0.041 C 
ATOM      8  O   UNL     1      75.231  84.316  76.027  1.00  0.00    -0.550 OA
ATOM      9  O   UNL     1      77.010  85.064  74.792  1.00  0.00    -0.550 OA
ENDBRANCH   6   7
ENDBRANCH   5   6
ENDBRANCH   4   5
ENDBRANCH   3   4
ENDBRANCH   2   3
ENDBRANCH   1   2
BRANCH   1  10
ATOM     10  C   UNL     1      75.865  81.821  78.593  1.00  0.00     0.000 C 
BRANCH  10  11
ATOM     11  C   UNL     1      77.384  81.719  78.390  1.00  0.00    -0.000 C 
BRANCH  11  12
ATOM     12  C   UNL     1      77.799  80.420  77.677  1.00  0.00    -0.000 C 
BRANCH  12  13
ATOM     13  C   UNL     1      79.206  80.508  77.065  1.00  0.00    -0.000 C 
BRANCH  13  14
ATOM     14  C   UNL     1      79.921  81.824  77.415  1.00  0.00    -0.000 C 
BRANCH  14  15
ATOM     15  C   UNL     1      80.807  82.335  76.270  1.00  0.00    -0.003 C 
ATOM     16  C   UNL     1      80.055  83.248  75.303  1.00  0.00     0.004 C 
ENDBRANCH  14  15
ENDBRANCH  13  14
ENDBRANCH  12  13
ENDBRANCH  11  12
ENDBRANCH  10  11
ENDBRANCH   1  10
TORSDOF 12
ENDMDL
MODEL 5
REMARK VINA RESULT:    -3.880      2.338      5.232
REMARK INTER + INTRA:          -8.040
REMARK INTER:                  -5.994
REMARK INTRA:                  -2.047
REMARK UNBOUND:                -1.438
REMARK SMILES CCCCCCCCCCCCCC(=O)[O-]
REMARK SMILES IDX 8 1 9 2 10 3 11 4 12 5 13 6 14 7 15 8 16 9 7 10 6 11 5 12
REMARK SMILES IDX 4 13 3 14 2 15 1 16
REMARK H PARENT
REMARK Flexibility Score: inf
ROOT
ATOM      1  C   UNL     1      75.068  80.203  78.454  1.00  0.00     0.000 C 
ENDROOT
BRANCH   1   2
ATOM      2  C   UNL     1      75.214  81.733  78.487  1.00  0.00     0.000 C 
BRANCH   2   3
ATOM      3  C   UNL     1      76.585  82.232  77.983  1.00  0.00     0.000 C 
BRANCH   3   4
ATOM      4  C   UNL     1      77.486  81.078  77.510  1.00  0.00     0.000 C 
BRANCH   4   5
ATOM      5  C   UNL     1      77.908  81.220  76.039  1.00  0.00     0.006 C 
BRANCH   5   6
ATOM      6  C   UNL     1      78.720  82.496  75.779  1.00  0.00     0.053 C 
BRANCH   6   7
ATOM      7  C   UNL     1      78.189  83.216  74.580  1.00  0.00     0.041 C 
ATOM      8  O   UNL     1      77.615  84.329  74.712  1.00  0.00    -0.550 OA
ATOM      9  O   UNL     1      78.284  82.636  73.321  1.00  0.00    -0.550 OA
ENDBRANCH   6   7
ENDBRANCH   5   6
ENDBRANCH   4   5
ENDBRANCH   3   4
ENDBRANCH   2   3
ENDBRANCH   1   2
BRANCH   1  10
ATOM     10  C   UNL     1      74.012  79.726  77.443  1.00  0.00     0.000 C 
BRANCH  10  11
ATOM     11  C   UNL     1      74.578  79.589  76.021  1.00  0.00    -0.000 C 
BRANCH  11  12
ATOM     12  C   UNL     1      73.867  80.507  75.012  1.00  0.00    -0.000 C 
BRANCH  12  13
ATOM     13  C   UNL     1      74.549  81.878  74.880  1.00  0.00    -0.000 C 
BRANCH  13  14
ATOM     14  C   UNL     1      73.645  83.034  75.343  1.00  0.00    -0.000 C 
BRANCH  14  15
ATOM     15  C   UNL     1      72.208  82.577  75.631  1.00  0.00    -0.003 C 
ATOM     16  C   UNL     1      71.824  82.727  77.102  1.00  0.00     0.004 C 
ENDBRANCH  14  15
ENDBRANCH  13  14
ENDBRANCH  12  13
ENDBRANCH  11  12
ENDBRANCH  10  11
ENDBRANCH   1  10
TORSDOF 12
ENDMDL
MODEL 6
REMARK VINA RESULT:    -3.839      1.653      5.640
REMARK INTER + INTRA:          -7.970
REMARK INTER:                  -6.597
REMARK INTRA:                  -1.373
REMARK UNBOUND:                -1.438
REMARK SMILES CCCCCCCCCCCCCC(=O)[O-]
REMARK SMILES IDX 8 1 9 2 10 3 11 4 12 5 13 6 14 7 15 8 16 9 7 10 6 11 5 12
REMARK SMILES IDX 4 13 3 14 2 15 1 16
REMARK H PARENT
REMARK Flexibility Score: inf
ROOT
ATOM      1  C   UNL     1      75.960  80.938  78.082  1.00  0.00     0.000 C 
ENDROOT
BRANCH   1   2
ATOM      2  C   UNL     1      77.393  80.383  78.139  1.00  0.00     0.000 C 
BRANCH   2   3
ATOM      3  C   UNL     1      78.436  81.416  78.619  1.00  0.00     0.000 C 
BRANCH   3   4
ATOM      4  C   UNL     1      79.654  81.492  77.682  1.00  0.00     0.000 C 
BRANCH   4   5
ATOM      5  C   UNL     1      79.257  81.609  76.202  1.00  0.00     0.006 C 
BRANCH   5   6
ATOM      6  C   UNL     1      79.688  82.943  75.579  1.00  0.00     0.053 C 
BRANCH   6   7
ATOM      7  C   UNL     1      78.648  83.431  74.620  1.00  0.00     0.041 C 
ATOM      8  O   UNL     1      78.412  82.791  73.561  1.00  0.00    -0.550 OA
ATOM      9  O   UNL     1      77.974  84.620  74.871  1.00  0.00    -0.550 OA
ENDBRANCH   6   7
ENDBRANCH   5   6
ENDBRANCH   4   5
ENDBRANCH   3   4
ENDBRANCH   2   3
ENDBRANCH   1   2
BRANCH   1  10
ATOM     10  C   UNL     1      75.912  82.428  77.706  1.00  0.00     0.000 C 
BRANCH  10  11
ATOM     11  C   UNL     1      75.422  82.658  76.268  1.00  0.00    -0.000 C 
BRANCH  11  12
ATOM     12  C   UNL     1      74.751  81.411  75.667  1.00  0.00    -0.000 C 
BRANCH  12  13
ATOM     13  C   UNL     1      73.815  81.751  74.496  1.00  0.00    -0.000 C 
BRANCH  13  14
ATOM     14  C   UNL     1      72.780  82.828  74.864  1.00  0.00    -0.000 C 
BRANCH  14  15
ATOM     15  C   UNL     1      71.657  82.284  75.760  1.00  0.00    -0.003 C 
ATOM     16  C   UNL     1      71.694  82.866  77.172  1.00  0.00     0.004 C 
ENDBRANCH  14  15
ENDBRANCH  13  14
ENDBRANCH  12  13
ENDBRANCH  11  12
ENDBRANCH  10  11
ENDBRANCH   1  10
TORSDOF 12
ENDMDL
MODEL 7
REMARK VINA RESULT:    -3.838      2.978      4.268
REMARK INTER + INTRA:          -7.968
REMARK INTER:                  -6.632
REMARK INTRA:                  -1.336
REMARK UNBOUND:                -1.438
REMARK SMILES CCCCCCCCCCCCCC(=O)[O-]
REMARK SMILES IDX 8 1 9 2 10 3 11 4 12 5 13 6 14 7 15 8 16 9 7 10 6 11 5 12
REMARK SMILES IDX 4 13 3 14 2 15 1 16
REMARK H PARENT
REMARK Flexibility Score: inf
ROOT
ATOM      1  C   UNL     1      72.206  80.548  76.412  1.00  0.00     0.000 C 
ENDROOT
BRANCH   1   2
ATOM      2  C   UNL     1      71.934  80.756  74.913  1.00  0.00     0.000 C 
BRANCH   2   3
ATOM      3  C   UNL     1      72.646  81.993  74.324  1.00  0.00     0.000 C 
BRANCH   3   4
ATOM      4  C   UNL     1      74.178  81.878  74.410  1.00  0.00     0.000 C 
BRANCH   4   5
ATOM      5  C   UNL     1      74.837  83.152  74.962  1.00  0.00     0.006 C 
BRANCH   5   6
ATOM      6  C   UNL     1      76.303  82.932  75.361  1.00  0.00     0.053 C 
BRANCH   6   7
ATOM      7  C   UNL     1      77.154  84.056  74.859  1.00  0.00     0.041 C 
ATOM      8  O   UNL     1      78.355  83.849  74.544  1.00  0.00    -0.550 OA
ATOM      9  O   UNL     1      76.635  85.342  74.786  1.00  0.00    -0.550 OA
ENDBRANCH   6   7
ENDBRANCH   5   6
ENDBRANCH   4   5
ENDBRANCH   3   4
ENDBRANCH   2   3
ENDBRANCH   1   2
BRANCH   1  10
ATOM     10  C   UNL     1      72.965  79.243  76.706  1.00  0.00     0.000 C 
BRANCH  10  11
ATOM     11  C   UNL     1      74.200  79.466  77.592  1.00  0.00    -0.000 C 
BRANCH  11  12
ATOM     12  C   UNL     1      74.403  80.946  77.960  1.00  0.00    -0.000 C 
BRANCH  12  13
ATOM     13  C   UNL     1      75.542  81.152  78.970  1.00  0.00    -0.000 C 
BRANCH  13  14
ATOM     14  C   UNL     1      76.483  79.937  79.052  1.00  0.00    -0.000 C 
BRANCH  14  15
ATOM     15  C   UNL     1      76.530  79.324  80.460  1.00  0.00    -0.003 C 
ATOM     16  C   UNL     1      75.237  79.544  81.243  1.00  0.00     0.004 C 
ENDBRANCH  14  15
ENDBRANCH  13  14
ENDBRANCH  12  13
ENDBRANCH  11  12
ENDBRANCH  10  11
ENDBRANCH   1  10
TORSDOF 12
ENDMDL
MODEL 8
REMARK VINA RESULT:    -3.802      1.889      4.998
REMARK INTER + INTRA:          -7.907
REMARK INTER:                  -6.154
REMARK INTRA:                  -1.753
REMARK UNBOUND:                -1.438
REMARK SMILES CCCCCCCCCCCCCC(=O)[O-]
REMARK SMILES IDX 8 1 9 2 10 3 11 4 12 5 13 6 14 7 15 8 16 9 7 10 6 11 5 12
REMARK SMILES IDX 4 13 3 14 2 15 1 16
REMARK H PARENT
REMARK Flexibility Score: inf
ROOT
ATOM      1  C   UNL     1      75.436  81.739  78.757  1.00  0.00     0.000 C 
ENDROOT
BRANCH   1   2
ATOM      2  C   UNL     1      76.859  81.976  78.225  1.00  0.00     0.000 C 
BRANCH   2   3
ATOM      3  C   UNL     1      77.493  80.723  77.583  1.00  0.00     0.000 C 
BRANCH   3   4
ATOM      4  C   UNL     1      78.252  81.055  76.286  1.00  0.00     0.000 C 
BRANCH   4   5
ATOM      5  C   UNL     1      79.464  81.969  76.526  1.00  0.00     0.006 C 
BRANCH   5   6
ATOM      6  C   UNL     1      80.030  82.552  75.224  1.00  0.00     0.053 C 
BRANCH   6   7
ATOM      7  C   UNL     1      78.954  83.253  74.456  1.00  0.00     0.041 C 
ATOM      8  O   UNL     1      78.546  82.780  73.362  1.00  0.00    -0.550 OA
ATOM      9  O   UNL     1      78.436  84.454  74.922  1.00  0.00    -0.550 OA
ENDBRANCH   6   7
ENDBRANCH   5   6
ENDBRANCH   4   5
ENDBRANCH   3   4
ENDBRANCH   2   3
ENDBRANCH   1   2
BRANCH   1  10
ATOM     10  C   UNL     1      74.886  80.350  78.392  1.00  0.00     0.000 C 
BRANCH  10  11
ATOM     11  C   UNL     1      73.775  80.417  77.333  1.00  0.00    -0.000 C 
BRANCH  11  12
ATOM     12  C   UNL     1      73.038  81.768  77.334  1.00  0.00    -0.000 C 
BRANCH  12  13
ATOM     13  C   UNL     1      73.094  82.470  75.968  1.00  0.00    -0.000 C 
BRANCH  13  14
ATOM     14  C   UNL     1      74.189  81.894  75.053  1.00  0.00    -0.000 C 
BRANCH  14  15
ATOM     15  C   UNL     1      75.316  82.901  74.779  1.00  0.00    -0.003 C 
ATOM     16  C   UNL     1      75.290  84.092  75.736  1.00  0.00     0.004 C 
ENDBRANCH  14  15
ENDBRANCH  13  14
ENDBRANCH  12  13
ENDBRANCH  11  12
ENDBRANCH  10  11
ENDBRANCH   1  10
TORSDOF 12
ENDMDL
MODEL 9
REMARK VINA RESULT:    -3.746      1.594      3.637
REMARK INTER + INTRA:          -7.811
REMARK INTER:                  -6.169
REMARK INTRA:                  -1.642
REMARK UNBOUND:                -1.438
REMARK SMILES CCCCCCCCCCCCCC(=O)[O-]
REMARK SMILES IDX 8 1 9 2 10 3 11 4 12 5 13 6 14 7 15 8 16 9 7 10 6 11 5 12
REMARK SMILES IDX 4 13 3 14 2 15 1 16
REMARK H PARENT
REMARK Flexibility Score: inf
ROOT
ATOM      1  C   UNL     1      73.007  79.566  75.351  1.00  0.00     0.000 C 
ENDROOT
BRANCH   1   2
ATOM      2  C   UNL     1      72.408  80.983  75.365  1.00  0.00     0.000 C 
BRANCH   2   3
ATOM      3  C   UNL     1      73.240  82.011  74.569  1.00  0.00     0.000 C 
BRANCH   3   4
ATOM      4  C   UNL     1      73.541  83.277  75.391  1.00  0.00     0.000 C 
BRANCH   4   5
ATOM      5  C   UNL     1      74.972  83.292  75.953  1.00  0.00     0.006 C 
BRANCH   5   6
ATOM      6  C   UNL     1      76.007  82.778  74.944  1.00  0.00     0.053 C 
BRANCH   6   7
ATOM      7  C   UNL     1      77.063  83.811  74.708  1.00  0.00     0.041 C 
ATOM      8  O   UNL     1      78.240  83.462  74.427  1.00  0.00    -0.550 OA
ATOM      9  O   UNL     1      76.759  85.160  74.845  1.00  0.00    -0.550 OA
ENDBRANCH   6   7
ENDBRANCH   5   6
ENDBRANCH   4   5
ENDBRANCH   3   4
ENDBRANCH   2   3
ENDBRANCH   1   2
BRANCH   1  10
ATOM     10  C   UNL     1      74.140  79.387  76.375  1.00  0.00     0.000 C 
BRANCH  10  11
ATOM     11  C   UNL     1      73.926  80.229  77.643  1.00  0.00    -0.000 C 
BRANCH  11  12
ATOM     12  C   UNL     1      75.073  80.072  78.656  1.00  0.00    -0.000 C 
BRANCH  12  13
ATOM     13  C   UNL     1      75.832  81.386  78.897  1.00  0.00    -0.000 C 
BRANCH  13  14
ATOM     14  C   UNL     1      77.359  81.200  78.867  1.00  0.00    -0.000 C 
BRANCH  14  15
ATOM     15  C   UNL     1      77.904  81.040  77.440  1.00  0.00    -0.003 C 
ATOM     16  C   UNL     1      79.294  81.650  77.266  1.00  0.00     0.004 C 
ENDBRANCH  14  15
ENDBRANCH  13  14
ENDBRANCH  12  13
ENDBRANCH  11  12
ENDBRANCH  10  11
ENDBRANCH   1  10
TORSDOF 12
ENDMDL
