MODEL 1
REMARK VINA RESULT:    -4.725      0.000      0.000
REMARK INTER + INTRA:         -16.146
REMARK INTER:                 -12.458
REMARK INTRA:                  -3.687
REMARK UNBOUND:                -3.687
REMARK SMILES CCCCCCCCCCCCCCCCCCCCCCCCCCCCCC(=O)[O-]
REMARK SMILES IDX 16 1 17 2 18 3 19 4 20 5 21 6 22 7 23 8 24 9 25 10 26 11
REMARK SMILES IDX 27 12 28 13 29 14 30 15 31 16 32 17 15 18 14 19 13 20 12 21
REMARK SMILES IDX 11 22 10 23 9 24 8 25 7 26 6 27 5 28 4 29 3 30 2 31 1 32
REMARK H PARENT
REMARK Flexibility Score: inf
ROOT
ATOM      1  C   UNL     1      27.095  13.208  35.869  1.00  0.00     0.000 C 
ENDROOT
BRANCH   1   2
ATOM      2  C   UNL     1      27.730  14.144  34.827  1.00  0.00     0.000 C 
BRANCH   2   3
ATOM      3  C   UNL     1      27.428  13.713  33.379  1.00  0.00     0.000 C 
BRANCH   3   4
ATOM      4  C   UNL     1      28.556  12.929  32.678  1.00  0.00     0.000 C 
BRANCH   4   5
ATOM      5  C   UNL     1      28.788  13.299  31.200  1.00  0.00     0.000 C 
BRANCH   5   6
ATOM      6  C   UNL     1      28.812  12.105  30.225  1.00  0.00     0.000 C 
BRANCH   6   7
ATOM      7  C   UNL     1      27.470  11.807  29.532  1.00  0.00     0.000 C 
BRANCH   7   8
ATOM      8  C   UNL     1      26.463  12.958  29.662  1.00  0.00     0.000 C 
BRANCH   8   9
ATOM      9  C   UNL     1      25.292  12.566  30.572  1.00  0.00     0.000 C 
BRANCH   9  10
ATOM     10  C   UNL     1      25.318  11.062  30.883  1.00  0.00     0.000 C 
BRANCH  10  11
ATOM     11  C   UNL     1      23.933  10.404  30.778  1.00  0.00     0.000 C 
BRANCH  11  12
ATOM     12  C   UNL     1      22.771  11.368  30.457  1.00  0.00     0.000 C 
BRANCH  12  13
ATOM     13  C   UNL     1      21.486  10.694  29.943  1.00  0.00     0.006 C 
BRANCH  13  14
ATOM     14  C   UNL     1      20.967   9.599  30.886  1.00  0.00     0.053 C 
BRANCH  14  15
ATOM     15  C   UNL     1      19.846  10.117  31.732  1.00  0.00     0.041 C 
ATOM     16  O   UNL     1      19.000   9.322  32.222  1.00  0.00    -0.550 OA
ATOM     17  O   UNL     1      19.715  11.483  31.956  1.00  0.00    -0.550 OA
ENDBRANCH  14  15
ENDBRANCH  13  14
ENDBRANCH  12  13
ENDBRANCH  11  12
ENDBRANCH  10  11
ENDBRANCH   9  10
ENDBRANCH   8   9
ENDBRANCH   7   8
ENDBRANCH   6   7
ENDBRANCH   5   6
ENDBRANCH   4   5
ENDBRANCH   3   4
ENDBRANCH   2   3
ENDBRANCH   1   2
BRANCH   1  18
ATOM     18  C   UNL     1      25.576  13.414  36.017  1.00  0.00     0.000 C 
BRANCH  18  19
ATOM     19  C   UNL     1      24.707  12.201  35.638  1.00  0.00     0.000 C 
BRANCH  19  20
ATOM     20  C   UNL     1      24.287  12.197  34.160  1.00  0.00     0.000 C 
BRANCH  20  21
ATOM     21  C   UNL     1      22.761  12.307  34.022  1.00  0.00     0.000 C 
BRANCH  21  22
ATOM     22  C   UNL     1      22.042  12.347  35.381  1.00  0.00     0.000 C 
BRANCH  22  23
ATOM     23  C   UNL     1      21.261  13.654  35.604  1.00  0.00     0.000 C 
BRANCH  23  24
ATOM     24  C   UNL     1      20.162  13.876  34.549  1.00  0.00    -0.000 C 
BRANCH  24  25
ATOM     25  C   UNL     1      18.777  13.329  34.934  1.00  0.00    -0.000 C 
BRANCH  25  26
ATOM     26  C   UNL     1      18.660  13.003  36.433  1.00  0.00    -0.000 C 
BRANCH  26  27
ATOM     27  C   UNL     1      18.613  11.483  36.701  1.00  0.00    -0.000 C 
BRANCH  27  28
ATOM     28  C   UNL     1      18.616  10.633  35.419  1.00  0.00    -0.000 C 
BRANCH  28  29
ATOM     29  C   UNL     1      18.331   9.145  35.686  1.00  0.00    -0.000 C 
BRANCH  29  30
ATOM     30  C   UNL     1      18.637   8.727  37.136  1.00  0.00    -0.000 C 
BRANCH  30  31
ATOM     31  C   UNL     1      19.568   7.508  37.270  1.00  0.00    -0.003 C 
ATOM     32  C   UNL     1      18.816   6.179  37.276  1.00  0.00     0.004 C 
ENDBRANCH  30  31
ENDBRANCH  29  30
ENDBRANCH  28  29
ENDBRANCH  27  28
ENDBRANCH  26  27
ENDBRANCH  25  26
ENDBRANCH  24  25
ENDBRANCH  23  24
ENDBRANCH  22  23
ENDBRANCH  21  22
ENDBRANCH  20  21
ENDBRANCH  19  20
ENDBRANCH  18  19
ENDBRANCH   1  18
TORSDOF 28
ENDMDL
MODEL 2
REMARK VINA RESULT:    -4.402      1.823      8.027
REMARK INTER + INTRA:         -15.294
REMARK INTER:                 -11.543
REMARK INTRA:                  -3.751
REMARK UNBOUND:                -3.687
REMARK SMILES CCCCCCCCCCCCCCCCCCCCCCCCCCCCCC(=O)[O-]
REMARK SMILES IDX 16 1 17 2 18 3 19 4 20 5 21 6 22 7 23 8 24 9 25 10 26 11
REMARK SMILES IDX 27 12 28 13 29 14 30 15 31 16 32 17 15 18 14 19 13 20 12 21
REMARK SMILES IDX 11 22 10 23 9 24 8 25 7 26 6 27 5 28 4 29 3 30 2 31 1 32
REMARK H PARENT
REMARK Flexibility Score: inf
ROOT
ATOM      1  C   UNL     1      23.152  11.048  31.853  1.00  0.00     0.000 C 
ENDROOT
BRANCH   1   2
ATOM      2  C   UNL     1      21.665  11.262  32.181  1.00  0.00     0.000 C 
BRANCH   2   3
ATOM      3  C   UNL     1      20.730  10.456  31.260  1.00  0.00     0.000 C 
BRANCH   3   4
ATOM      4  C   UNL     1      19.504   9.829  31.955  1.00  0.00     0.000 C 
BRANCH   4   5
ATOM      5  C   UNL     1      18.348  10.806  32.244  1.00  0.00     0.000 C 
BRANCH   5   6
ATOM      6  C   UNL     1      18.254  12.008  31.283  1.00  0.00     0.000 C 
BRANCH   6   7
ATOM      7  C   UNL     1      18.135  13.381  31.971  1.00  0.00     0.000 C 
BRANCH   7   8
ATOM      8  C   UNL     1      18.418  13.319  33.478  1.00  0.00     0.000 C 
BRANCH   8   9
ATOM      9  C   UNL     1      19.856  13.752  33.788  1.00  0.00     0.000 C 
BRANCH   9  10
ATOM     10  C   UNL     1      20.277  13.294  35.192  1.00  0.00     0.000 C 
BRANCH  10  11
ATOM     11  C   UNL     1      19.102  13.247  36.183  1.00  0.00     0.000 C 
BRANCH  11  12
ATOM     12  C   UNL     1      18.595  11.832  36.533  1.00  0.00     0.000 C 
BRANCH  12  13
ATOM     13  C   UNL     1      19.463  10.677  36.002  1.00  0.00     0.006 C 
BRANCH  13  14
ATOM     14  C   UNL     1      18.645   9.425  35.656  1.00  0.00     0.053 C 
BRANCH  14  15
ATOM     15  C   UNL     1      18.679   8.442  36.786  1.00  0.00     0.041 C 
ATOM     16  O   UNL     1      17.946   8.611  37.798  1.00  0.00    -0.550 OA
ATOM     17  O   UNL     1      19.542   7.354  36.737  1.00  0.00    -0.550 OA
ENDBRANCH  14  15
ENDBRANCH  13  14
ENDBRANCH  12  13
ENDBRANCH  11  12
ENDBRANCH  10  11
ENDBRANCH   9  10
ENDBRANCH   8   9
ENDBRANCH   7   8
ENDBRANCH   6   7
ENDBRANCH   5   6
ENDBRANCH   4   5
ENDBRANCH   3   4
ENDBRANCH   2   3
ENDBRANCH   1   2
BRANCH   1  18
ATOM     18  C   UNL     1      23.377  10.073  30.683  1.00  0.00     0.000 C 
BRANCH  18  19
ATOM     19  C   UNL     1      23.944  10.704  29.398  1.00  0.00     0.000 C 
BRANCH  19  20
ATOM     20  C   UNL     1      24.270  12.197  29.552  1.00  0.00     0.000 C 
BRANCH  20  21
ATOM     21  C   UNL     1      25.692  12.503  29.056  1.00  0.00     0.000 C 
BRANCH  21  22
ATOM     22  C   UNL     1      26.620  11.279  29.118  1.00  0.00     0.000 C 
BRANCH  22  23
ATOM     23  C   UNL     1      27.894  11.538  29.940  1.00  0.00     0.000 C 
BRANCH  23  24
ATOM     24  C   UNL     1      27.594  11.843  31.419  1.00  0.00    -0.000 C 
BRANCH  24  25
ATOM     25  C   UNL     1      28.559  12.842  32.081  1.00  0.00    -0.000 C 
BRANCH  25  26
ATOM     26  C   UNL     1      28.307  13.003  33.590  1.00  0.00    -0.000 C 
BRANCH  26  27
ATOM     27  C   UNL     1      27.849  14.431  33.959  1.00  0.00    -0.000 C 
BRANCH  27  28
ATOM     28  C   UNL     1      27.408  14.576  35.426  1.00  0.00    -0.000 C 
BRANCH  28  29
ATOM     29  C   UNL     1      26.902  13.256  36.032  1.00  0.00    -0.000 C 
BRANCH  29  30
ATOM     30  C   UNL     1      25.391  13.272  36.326  1.00  0.00    -0.000 C 
BRANCH  30  31
ATOM     31  C   UNL     1      24.524  12.553  35.276  1.00  0.00    -0.003 C 
ATOM     32  C   UNL     1      25.291  11.489  34.494  1.00  0.00     0.004 C 
ENDBRANCH  30  31
ENDBRANCH  29  30
ENDBRANCH  28  29
ENDBRANCH  27  28
ENDBRANCH  26  27
ENDBRANCH  25  26
ENDBRANCH  24  25
ENDBRANCH  23  24
ENDBRANCH  22  23
ENDBRANCH  21  22
ENDBRANCH  20  21
ENDBRANCH  19  20
ENDBRANCH  18  19
ENDBRANCH   1  18
TORSDOF 28
ENDMDL
MODEL 3
REMARK VINA RESULT:    -4.392      2.739      6.064
REMARK INTER + INTRA:         -15.269
REMARK INTER:                 -10.856
REMARK INTRA:                  -4.414
REMARK UNBOUND:                -3.687
REMARK SMILES CCCCCCCCCCCCCCCCCCCCCCCCCCCCCC(=O)[O-]
REMARK SMILES IDX 16 1 17 2 18 3 19 4 20 5 21 6 22 7 23 8 24 9 25 10 26 11
REMARK SMILES IDX 27 12 28 13 29 14 30 15 31 16 32 17 15 18 14 19 13 20 12 21
REMARK SMILES IDX 11 22 10 23 9 24 8 25 7 26 6 27 5 28 4 29 3 30 2 31 1 32
REMARK H PARENT
REMARK Flexibility Score: inf
ROOT
ATOM      1  C   UNL     1      23.119  12.260  33.525  1.00  0.00     0.000 C 
ENDROOT
BRANCH   1   2
ATOM      2  C   UNL     1      22.362  11.361  32.533  1.00  0.00     0.000 C 
BRANCH   2   3
ATOM      3  C   UNL     1      23.260  10.848  31.391  1.00  0.00     0.000 C 
BRANCH   3   4
ATOM      4  C   UNL     1      23.442  11.824  30.210  1.00  0.00     0.000 C 
BRANCH   4   5
ATOM      5  C   UNL     1      24.745  12.647  30.239  1.00  0.00     0.000 C 
BRANCH   5   6
ATOM      6  C   UNL     1      25.753  12.311  29.122  1.00  0.00     0.000 C 
BRANCH   6   7
ATOM      7  C   UNL     1      26.590  11.041  29.363  1.00  0.00     0.000 C 
BRANCH   7   8
ATOM      8  C   UNL     1      27.568  11.186  30.537  1.00  0.00     0.000 C 
BRANCH   8   9
ATOM      9  C   UNL     1      28.718  12.138  30.181  1.00  0.00     0.000 C 
BRANCH   9  10
ATOM     10  C   UNL     1      28.813  13.286  31.196  1.00  0.00     0.000 C 
BRANCH  10  11
ATOM     11  C   UNL     1      27.921  13.070  32.430  1.00  0.00     0.000 C 
BRANCH  11  12
ATOM     12  C   UNL     1      28.672  12.691  33.725  1.00  0.00     0.000 C 
BRANCH  12  13
ATOM     13  C   UNL     1      27.809  12.017  34.807  1.00  0.00     0.006 C 
BRANCH  13  14
ATOM     14  C   UNL     1      26.351  12.500  34.794  1.00  0.00     0.053 C 
BRANCH  14  15
ATOM     15  C   UNL     1      26.122  13.519  35.867  1.00  0.00     0.041 C 
ATOM     16  O   UNL     1      26.905  14.499  35.990  1.00  0.00    -0.550 OA
ATOM     17  O   UNL     1      25.060  13.371  36.752  1.00  0.00    -0.550 OA
ENDBRANCH  14  15
ENDBRANCH  13  14
ENDBRANCH  12  13
ENDBRANCH  11  12
ENDBRANCH  10  11
ENDBRANCH   9  10
ENDBRANCH   8   9
ENDBRANCH   7   8
ENDBRANCH   6   7
ENDBRANCH   5   6
ENDBRANCH   4   5
ENDBRANCH   3   4
ENDBRANCH   2   3
ENDBRANCH   1   2
BRANCH   1  18
ATOM     18  C   UNL     1      22.335  12.514  34.826  1.00  0.00     0.000 C 
BRANCH  18  19
ATOM     19  C   UNL     1      21.125  13.457  34.693  1.00  0.00     0.000 C 
BRANCH  19  20
ATOM     20  C   UNL     1      20.012  13.160  35.709  1.00  0.00     0.000 C 
BRANCH  20  21
ATOM     21  C   UNL     1      18.628  13.236  35.046  1.00  0.00     0.000 C 
BRANCH  21  22
ATOM     22  C   UNL     1      18.702  13.216  33.510  1.00  0.00     0.000 C 
BRANCH  22  23
ATOM     23  C   UNL     1      18.122  11.926  32.903  1.00  0.00     0.000 C 
BRANCH  23  24
ATOM     24  C   UNL     1      18.950  10.678  33.259  1.00  0.00    -0.000 C 
BRANCH  24  25
ATOM     25  C   UNL     1      18.150   9.365  33.310  1.00  0.00    -0.000 C 
BRANCH  25  26
ATOM     26  C   UNL     1      18.516   8.399  32.170  1.00  0.00    -0.000 C 
BRANCH  26  27
ATOM     27  C   UNL     1      19.646   8.951  31.275  1.00  0.00    -0.000 C 
BRANCH  27  28
ATOM     28  C   UNL     1      19.176   9.341  29.862  1.00  0.00    -0.000 C 
BRANCH  28  29
ATOM     29  C   UNL     1      20.026  10.460  29.237  1.00  0.00    -0.000 C 
BRANCH  29  30
ATOM     30  C   UNL     1      19.314  11.825  29.237  1.00  0.00    -0.000 C 
BRANCH  30  31
ATOM     31  C   UNL     1      20.055  12.937  30.001  1.00  0.00    -0.003 C 
ATOM     32  C   UNL     1      19.381  14.301  29.876  1.00  0.00     0.004 C 
ENDBRANCH  30  31
ENDBRANCH  29  30
ENDBRANCH  28  29
ENDBRANCH  27  28
ENDBRANCH  26  27
ENDBRANCH  25  26
ENDBRANCH  24  25
ENDBRANCH  23  24
ENDBRANCH  22  23
ENDBRANCH  21  22
ENDBRANCH  20  21
ENDBRANCH  19  20
ENDBRANCH  18  19
ENDBRANCH   1  18
TORSDOF 28
ENDMDL
MODEL 4
REMARK VINA RESULT:    -4.378      1.980      7.994
REMARK INTER + INTRA:         -15.231
REMARK INTER:                 -10.710
REMARK INTRA:                  -4.521
REMARK UNBOUND:                -3.687
REMARK SMILES CCCCCCCCCCCCCCCCCCCCCCCCCCCCCC(=O)[O-]
REMARK SMILES IDX 16 1 17 2 18 3 19 4 20 5 21 6 22 7 23 8 24 9 25 10 26 11
REMARK SMILES IDX 27 12 28 13 29 14 30 15 31 16 32 17 15 18 14 19 13 20 12 21
REMARK SMILES IDX 11 22 10 23 9 24 8 25 7 26 6 27 5 28 4 29 3 30 2 31 1 32
REMARK H PARENT
REMARK Flexibility Score: inf
ROOT
ATOM      1  C   UNL     1      22.086  10.501  30.522  1.00  0.00     0.000 C 
ENDROOT
BRANCH   1   2
ATOM      2  C   UNL     1      21.234   9.237  30.730  1.00  0.00     0.000 C 
BRANCH   2   3
ATOM      3  C   UNL     1      19.891   9.534  31.423  1.00  0.00     0.000 C 
BRANCH   3   4
ATOM      4  C   UNL     1      18.636   9.219  30.583  1.00  0.00     0.000 C 
BRANCH   4   5
ATOM      5  C   UNL     1      17.880  10.453  30.052  1.00  0.00     0.000 C 
BRANCH   5   6
ATOM      6  C   UNL     1      18.563  11.182  28.877  1.00  0.00     0.000 C 
BRANCH   6   7
ATOM      7  C   UNL     1      19.217  12.528  29.241  1.00  0.00     0.000 C 
BRANCH   7   8
ATOM      8  C   UNL     1      18.551  13.208  30.445  1.00  0.00     0.000 C 
BRANCH   8   9
ATOM      9  C   UNL     1      19.494  13.232  31.655  1.00  0.00     0.000 C 
BRANCH   9  10
ATOM     10  C   UNL     1      18.725  12.956  32.955  1.00  0.00     0.000 C 
BRANCH  10  11
ATOM     11  C   UNL     1      19.643  12.860  34.185  1.00  0.00     0.000 C 
BRANCH  11  12
ATOM     12  C   UNL     1      20.140  11.439  34.525  1.00  0.00     0.000 C 
BRANCH  12  13
ATOM     13  C   UNL     1      19.042  10.449  34.957  1.00  0.00     0.006 C 
BRANCH  13  14
ATOM     14  C   UNL     1      19.150  10.046  36.434  1.00  0.00     0.053 C 
BRANCH  14  15
ATOM     15  C   UNL     1      18.958   8.570  36.596  1.00  0.00     0.041 C 
ATOM     16  O   UNL     1      19.206   8.014  37.700  1.00  0.00    -0.550 OA
ATOM     17  O   UNL     1      18.536   7.800  35.518  1.00  0.00    -0.550 OA
ENDBRANCH  14  15
ENDBRANCH  13  14
ENDBRANCH  12  13
ENDBRANCH  11  12
ENDBRANCH  10  11
ENDBRANCH   9  10
ENDBRANCH   8   9
ENDBRANCH   7   8
ENDBRANCH   6   7
ENDBRANCH   5   6
ENDBRANCH   4   5
ENDBRANCH   3   4
ENDBRANCH   2   3
ENDBRANCH   1   2
BRANCH   1  18
ATOM     18  C   UNL     1      22.569  11.127  31.843  1.00  0.00     0.000 C 
BRANCH  18  19
ATOM     19  C   UNL     1      24.096  11.253  31.993  1.00  0.00     0.000 C 
BRANCH  19  20
ATOM     20  C   UNL     1      24.540  11.533  33.437  1.00  0.00     0.000 C 
BRANCH  20  21
ATOM     21  C   UNL     1      23.621  12.569  34.103  1.00  0.00     0.000 C 
BRANCH  21  22
ATOM     22  C   UNL     1      23.745  12.575  35.636  1.00  0.00     0.000 C 
BRANCH  22  23
ATOM     23  C   UNL     1      25.189  12.357  36.118  1.00  0.00     0.000 C 
BRANCH  23  24
ATOM     24  C   UNL     1      26.078  13.597  35.909  1.00  0.00    -0.000 C 
BRANCH  24  25
ATOM     25  C   UNL     1      27.417  13.321  35.202  1.00  0.00    -0.000 C 
BRANCH  25  26
ATOM     26  C   UNL     1      27.591  14.144  33.914  1.00  0.00    -0.000 C 
BRANCH  26  27
ATOM     27  C   UNL     1      28.310  13.349  32.802  1.00  0.00    -0.000 C 
BRANCH  27  28
ATOM     28  C   UNL     1      27.726  11.944  32.576  1.00  0.00    -0.000 C 
BRANCH  28  29
ATOM     29  C   UNL     1      27.899  11.449  31.130  1.00  0.00    -0.000 C 
BRANCH  29  30
ATOM     30  C   UNL     1      27.768  12.576  30.090  1.00  0.00    -0.000 C 
BRANCH  30  31
ATOM     31  C   UNL     1      26.373  12.702  29.452  1.00  0.00    -0.003 C 
ATOM     32  C   UNL     1      25.725  14.064  29.695  1.00  0.00     0.004 C 
ENDBRANCH  30  31
ENDBRANCH  29  30
ENDBRANCH  28  29
ENDBRANCH  27  28
ENDBRANCH  26  27
ENDBRANCH  25  26
ENDBRANCH  24  25
ENDBRANCH  23  24
ENDBRANCH  22  23
ENDBRANCH  21  22
ENDBRANCH  20  21
ENDBRANCH  19  20
ENDBRANCH  18  19
ENDBRANCH   1  18
TORSDOF 28
ENDMDL
MODEL 5
REMARK VINA RESULT:    -4.369      1.829      4.720
REMARK INTER + INTRA:         -15.209
REMARK INTER:                 -11.880
REMARK INTRA:                  -3.329
REMARK UNBOUND:                -3.687
REMARK SMILES CCCCCCCCCCCCCCCCCCCCCCCCCCCCCC(=O)[O-]
REMARK SMILES IDX 16 1 17 2 18 3 19 4 20 5 21 6 22 7 23 8 24 9 25 10 26 11
REMARK SMILES IDX 27 12 28 13 29 14 30 15 31 16 32 17 15 18 14 19 13 20 12 21
REMARK SMILES IDX 11 22 10 23 9 24 8 25 7 26 6 27 5 28 4 29 3 30 2 31 1 32
REMARK H PARENT
REMARK Flexibility Score: inf
ROOT
ATOM      1  C   UNL     1      23.422  10.430  31.134  1.00  0.00     0.000 C 
ENDROOT
BRANCH   1   2
ATOM      2  C   UNL     1      23.292  11.835  30.522  1.00  0.00     0.000 C 
BRANCH   2   3
ATOM      3  C   UNL     1      24.652  12.541  30.360  1.00  0.00     0.000 C 
BRANCH   3   4
ATOM      4  C   UNL     1      25.441  12.163  29.089  1.00  0.00     0.000 C 
BRANCH   4   5
ATOM      5  C   UNL     1      26.346  10.922  29.228  1.00  0.00     0.000 C 
BRANCH   5   6
ATOM      6  C   UNL     1      27.502  11.069  30.238  1.00  0.00     0.000 C 
BRANCH   6   7
ATOM      7  C   UNL     1      28.694  11.907  29.742  1.00  0.00     0.000 C 
BRANCH   7   8
ATOM      8  C   UNL     1      29.112  12.997  30.739  1.00  0.00     0.000 C 
BRANCH   8   9
ATOM      9  C   UNL     1      27.977  13.308  31.724  1.00  0.00     0.000 C 
BRANCH   9  10
ATOM     10  C   UNL     1      28.430  13.077  33.173  1.00  0.00     0.000 C 
BRANCH  10  11
ATOM     11  C   UNL     1      27.628  13.906  34.190  1.00  0.00     0.000 C 
BRANCH  11  12
ATOM     12  C   UNL     1      26.961  13.095  35.319  1.00  0.00     0.000 C 
BRANCH  12  13
ATOM     13  C   UNL     1      26.302  11.775  34.875  1.00  0.00     0.006 C 
BRANCH  13  14
ATOM     14  C   UNL     1      25.074  11.994  33.980  1.00  0.00     0.053 C 
BRANCH  14  15
ATOM     15  C   UNL     1      23.893  12.420  34.797  1.00  0.00     0.041 C 
ATOM     16  O   UNL     1      22.778  12.621  34.244  1.00  0.00    -0.550 OA
ATOM     17  O   UNL     1      24.030  12.625  36.165  1.00  0.00    -0.550 OA
ENDBRANCH  14  15
ENDBRANCH  13  14
ENDBRANCH  12  13
ENDBRANCH  11  12
ENDBRANCH  10  11
ENDBRANCH   9  10
ENDBRANCH   8   9
ENDBRANCH   7   8
ENDBRANCH   6   7
ENDBRANCH   5   6
ENDBRANCH   4   5
ENDBRANCH   3   4
ENDBRANCH   2   3
ENDBRANCH   1   2
BRANCH   1  18
ATOM     18  C   UNL     1      22.746   9.338  30.285  1.00  0.00     0.000 C 
BRANCH  18  19
ATOM     19  C   UNL     1      21.625   9.829  29.350  1.00  0.00     0.000 C 
BRANCH  19  20
ATOM     20  C   UNL     1      20.218   9.485  29.860  1.00  0.00     0.000 C 
BRANCH  20  21
ATOM     21  C   UNL     1      19.678  10.596  30.774  1.00  0.00     0.000 C 
BRANCH  21  22
ATOM     22  C   UNL     1      19.444  11.919  30.026  1.00  0.00     0.000 C 
BRANCH  22  23
ATOM     23  C   UNL     1      18.846  13.014  30.926  1.00  0.00     0.000 C 
BRANCH  23  24
ATOM     24  C   UNL     1      19.451  13.015  32.342  1.00  0.00    -0.000 C 
BRANCH  24  25
ATOM     25  C   UNL     1      18.421  12.998  33.485  1.00  0.00    -0.000 C 
BRANCH  25  26
ATOM     26  C   UNL     1      18.217  11.595  34.083  1.00  0.00    -0.000 C 
BRANCH  26  27
ATOM     27  C   UNL     1      19.552  10.929  34.482  1.00  0.00    -0.000 C 
BRANCH  27  28
ATOM     28  C   UNL     1      19.720  10.752  36.001  1.00  0.00    -0.000 C 
BRANCH  28  29
ATOM     29  C   UNL     1      18.532  10.028  36.656  1.00  0.00    -0.000 C 
BRANCH  29  30
ATOM     30  C   UNL     1      18.964   8.840  37.534  1.00  0.00    -0.000 C 
BRANCH  30  31
ATOM     31  C   UNL     1      19.385   7.582  36.753  1.00  0.00    -0.003 C 
ATOM     32  C   UNL     1      18.999   6.283  37.457  1.00  0.00     0.004 C 
ENDBRANCH  30  31
ENDBRANCH  29  30
ENDBRANCH  28  29
ENDBRANCH  27  28
ENDBRANCH  26  27
ENDBRANCH  25  26
ENDBRANCH  24  25
ENDBRANCH  23  24
ENDBRANCH  22  23
ENDBRANCH  21  22
ENDBRANCH  20  21
ENDBRANCH  19  20
ENDBRANCH  18  19
ENDBRANCH   1  18
TORSDOF 28
ENDMDL
MODEL 6
REMARK VINA RESULT:    -4.366      1.661      6.954
REMARK INTER + INTRA:         -15.199
REMARK INTER:                 -11.687
REMARK INTRA:                  -3.512
REMARK UNBOUND:                -3.687
REMARK SMILES CCCCCCCCCCCCCCCCCCCCCCCCCCCCCC(=O)[O-]
REMARK SMILES IDX 16 1 17 2 18 3 19 4 20 5 21 6 22 7 23 8 24 9 25 10 26 11
REMARK SMILES IDX 27 12 28 13 29 14 30 15 31 16 32 17 15 18 14 19 13 20 12 21
REMARK SMILES IDX 11 22 10 23 9 24 8 25 7 26 6 27 5 28 4 29 3 30 2 31 1 32
REMARK H PARENT
REMARK Flexibility Score: inf
ROOT
ATOM      1  C   UNL     1      26.689  12.209  35.761  1.00  0.00     0.000 C 
ENDROOT
BRANCH   1   2
ATOM      2  C   UNL     1      25.981  11.395  34.664  1.00  0.00     0.000 C 
BRANCH   2   3
ATOM      3  C   UNL     1      25.141  12.275  33.720  1.00  0.00     0.000 C 
BRANCH   3   4
ATOM      4  C   UNL     1      23.622  12.265  33.991  1.00  0.00     0.000 C 
BRANCH   4   5
ATOM      5  C   UNL     1      23.221  12.480  35.464  1.00  0.00     0.000 C 
BRANCH   5   6
ATOM      6  C   UNL     1      21.710  12.670  35.707  1.00  0.00     0.000 C 
BRANCH   6   7
ATOM      7  C   UNL     1      20.819  12.418  34.477  1.00  0.00     0.000 C 
BRANCH   7   8
ATOM      8  C   UNL     1      19.833  13.565  34.210  1.00  0.00     0.000 C 
BRANCH   8   9
ATOM      9  C   UNL     1      18.439  13.232  34.758  1.00  0.00     0.000 C 
BRANCH   9  10
ATOM     10  C   UNL     1      18.343  13.570  36.253  1.00  0.00     0.000 C 
BRANCH  10  11
ATOM     11  C   UNL     1      18.053  12.339  37.128  1.00  0.00     0.000 C 
BRANCH  11  12
ATOM     12  C   UNL     1      17.877  11.013  36.358  1.00  0.00     0.000 C 
BRANCH  12  13
ATOM     13  C   UNL     1      18.854   9.892  36.756  1.00  0.00     0.006 C 
BRANCH  13  14
ATOM     14  C   UNL     1      18.173   8.753  37.527  1.00  0.00     0.053 C 
BRANCH  14  15
ATOM     15  C   UNL     1      18.530   7.424  36.933  1.00  0.00     0.041 C 
ATOM     16  O   UNL     1      17.875   6.967  35.958  1.00  0.00    -0.550 OA
ATOM     17  O   UNL     1      19.568   6.676  37.476  1.00  0.00    -0.550 OA
ENDBRANCH  14  15
ENDBRANCH  13  14
ENDBRANCH  12  13
ENDBRANCH  11  12
ENDBRANCH  10  11
ENDBRANCH   9  10
ENDBRANCH   8   9
ENDBRANCH   7   8
ENDBRANCH   6   7
ENDBRANCH   5   6
ENDBRANCH   4   5
ENDBRANCH   3   4
ENDBRANCH   2   3
ENDBRANCH   1   2
BRANCH   1  18
ATOM     18  C   UNL     1      26.701  13.722  35.476  1.00  0.00     0.000 C 
BRANCH  18  19
ATOM     19  C   UNL     1      28.002  14.265  34.857  1.00  0.00     0.000 C 
BRANCH  19  20
ATOM     20  C   UNL     1      27.975  14.293  33.321  1.00  0.00     0.000 C 
BRANCH  20  21
ATOM     21  C   UNL     1      28.725  13.086  32.737  1.00  0.00     0.000 C 
BRANCH  21  22
ATOM     22  C   UNL     1      28.601  12.993  31.207  1.00  0.00     0.000 C 
BRANCH  22  23
ATOM     23  C   UNL     1      27.475  12.045  30.757  1.00  0.00     0.000 C 
BRANCH  23  24
ATOM     24  C   UNL     1      26.198  12.796  30.341  1.00  0.00    -0.000 C 
BRANCH  24  25
ATOM     25  C   UNL     1      25.522  12.264  29.065  1.00  0.00    -0.000 C 
BRANCH  25  26
ATOM     26  C   UNL     1      25.020  10.818  29.214  1.00  0.00    -0.000 C 
BRANCH  26  27
ATOM     27  C   UNL     1      24.048  10.654  30.402  1.00  0.00    -0.000 C 
BRANCH  27  28
ATOM     28  C   UNL     1      22.606  11.085  30.080  1.00  0.00    -0.000 C 
BRANCH  28  29
ATOM     29  C   UNL     1      21.664  10.980  31.292  1.00  0.00    -0.000 C 
BRANCH  29  30
ATOM     30  C   UNL     1      20.291  10.385  30.933  1.00  0.00    -0.000 C 
BRANCH  30  31
ATOM     31  C   UNL     1      20.232   8.847  30.950  1.00  0.00    -0.003 C 
ATOM     32  C   UNL     1      20.463   8.224  29.575  1.00  0.00     0.004 C 
ENDBRANCH  30  31
ENDBRANCH  29  30
ENDBRANCH  28  29
ENDBRANCH  27  28
ENDBRANCH  26  27
ENDBRANCH  25  26
ENDBRANCH  24  25
ENDBRANCH  23  24
ENDBRANCH  22  23
ENDBRANCH  21  22
ENDBRANCH  20  21
ENDBRANCH  19  20
ENDBRANCH  18  19
ENDBRANCH   1  18
TORSDOF 28
ENDMDL
MODEL 7
REMARK VINA RESULT:    -4.268      1.926      7.977
REMARK INTER + INTRA:         -14.941
REMARK INTER:                 -10.565
REMARK INTRA:                  -4.376
REMARK UNBOUND:                -3.687
REMARK SMILES CCCCCCCCCCCCCCCCCCCCCCCCCCCCCC(=O)[O-]
REMARK SMILES IDX 16 1 17 2 18 3 19 4 20 5 21 6 22 7 23 8 24 9 25 10 26 11
REMARK SMILES IDX 27 12 28 13 29 14 30 15 31 16 32 17 15 18 14 19 13 20 12 21
REMARK SMILES IDX 11 22 10 23 9 24 8 25 7 26 6 27 5 28 4 29 3 30 2 31 1 32
REMARK H PARENT
REMARK Flexibility Score: inf
ROOT
ATOM      1  C   UNL     1      22.160  11.086  30.388  1.00  0.00     0.000 C 
ENDROOT
BRANCH   1   2
ATOM      2  C   UNL     1      21.647   9.744  29.837  1.00  0.00     0.000 C 
BRANCH   2   3
ATOM      3  C   UNL     1      20.468   9.178  30.651  1.00  0.00     0.000 C 
BRANCH   3   4
ATOM      4  C   UNL     1      19.076   9.390  30.023  1.00  0.00     0.000 C 
BRANCH   4   5
ATOM      5  C   UNL     1      18.358  10.687  30.446  1.00  0.00     0.000 C 
BRANCH   5   6
ATOM      6  C   UNL     1      18.685  11.924  29.585  1.00  0.00     0.000 C 
BRANCH   6   7
ATOM      7  C   UNL     1      19.028  13.196  30.381  1.00  0.00     0.000 C 
BRANCH   7   8
ATOM      8  C   UNL     1      18.270  13.290  31.712  1.00  0.00     0.000 C 
BRANCH   8   9
ATOM      9  C   UNL     1      19.241  13.335  32.898  1.00  0.00     0.000 C 
BRANCH   9  10
ATOM     10  C   UNL     1      18.902  12.247  33.928  1.00  0.00     0.000 C 
BRANCH  10  11
ATOM     11  C   UNL     1      19.648  12.430  35.260  1.00  0.00     0.000 C 
BRANCH  11  12
ATOM     12  C   UNL     1      20.113  11.123  35.936  1.00  0.00     0.000 C 
BRANCH  12  13
ATOM     13  C   UNL     1      18.995  10.105  36.229  1.00  0.00     0.006 C 
BRANCH  13  14
ATOM     14  C   UNL     1      19.525   8.794  36.826  1.00  0.00     0.053 C 
BRANCH  14  15
ATOM     15  C   UNL     1      18.736   7.625  36.319  1.00  0.00     0.041 C 
ATOM     16  O   UNL     1      18.562   6.612  37.049  1.00  0.00    -0.550 OA
ATOM     17  O   UNL     1      18.220   7.640  35.029  1.00  0.00    -0.550 OA
ENDBRANCH  14  15
ENDBRANCH  13  14
ENDBRANCH  12  13
ENDBRANCH  11  12
ENDBRANCH  10  11
ENDBRANCH   9  10
ENDBRANCH   8   9
ENDBRANCH   7   8
ENDBRANCH   6   7
ENDBRANCH   5   6
ENDBRANCH   4   5
ENDBRANCH   3   4
ENDBRANCH   2   3
ENDBRANCH   1   2
BRANCH   1  18
ATOM     18  C   UNL     1      21.936  11.240  31.903  1.00  0.00     0.000 C 
BRANCH  18  19
ATOM     19  C   UNL     1      23.200  11.543  32.728  1.00  0.00     0.000 C 
BRANCH  19  20
ATOM     20  C   UNL     1      24.416  11.902  31.861  1.00  0.00     0.000 C 
BRANCH  20  21
ATOM     21  C   UNL     1      25.410  10.732  31.797  1.00  0.00     0.000 C 
BRANCH  21  22
ATOM     22  C   UNL     1      25.787  10.350  30.356  1.00  0.00     0.000 C 
BRANCH  22  23
ATOM     23  C   UNL     1      26.010  11.576  29.453  1.00  0.00     0.000 C 
BRANCH  23  24
ATOM     24  C   UNL     1      27.468  12.070  29.474  1.00  0.00    -0.000 C 
BRANCH  24  25
ATOM     25  C   UNL     1      27.698  13.372  30.263  1.00  0.00    -0.000 C 
BRANCH  25  26
ATOM     26  C   UNL     1      28.825  13.247  31.303  1.00  0.00    -0.000 C 
BRANCH  26  27
ATOM     27  C   UNL     1      28.330  12.643  32.634  1.00  0.00    -0.000 C 
BRANCH  27  28
ATOM     28  C   UNL     1      28.072  13.693  33.728  1.00  0.00    -0.000 C 
BRANCH  28  29
ATOM     29  C   UNL     1      26.837  13.372  34.588  1.00  0.00    -0.000 C 
BRANCH  29  30
ATOM     30  C   UNL     1      26.673  11.866  34.862  1.00  0.00    -0.000 C 
BRANCH  30  31
ATOM     31  C   UNL     1      25.436  11.497  35.701  1.00  0.00    -0.003 C 
ATOM     32  C   UNL     1      24.509  12.684  35.955  1.00  0.00     0.004 C 
ENDBRANCH  30  31
ENDBRANCH  29  30
ENDBRANCH  28  29
ENDBRANCH  27  28
ENDBRANCH  26  27
ENDBRANCH  25  26
ENDBRANCH  24  25
ENDBRANCH  23  24
ENDBRANCH  22  23
ENDBRANCH  21  22
ENDBRANCH  20  21
ENDBRANCH  19  20
ENDBRANCH  18  19
ENDBRANCH   1  18
TORSDOF 28
ENDMDL
MODEL 8
REMARK VINA RESULT:    -4.237      1.827      7.600
REMARK INTER + INTRA:         -14.861
REMARK INTER:                 -10.970
REMARK INTRA:                  -3.891
REMARK UNBOUND:                -3.687
REMARK SMILES CCCCCCCCCCCCCCCCCCCCCCCCCCCCCC(=O)[O-]
REMARK SMILES IDX 16 1 17 2 18 3 19 4 20 5 21 6 22 7 23 8 24 9 25 10 26 11
REMARK SMILES IDX 27 12 28 13 29 14 30 15 31 16 32 17 15 18 14 19 13 20 12 21
REMARK SMILES IDX 11 22 10 23 9 24 8 25 7 26 6 27 5 28 4 29 3 30 2 31 1 32
REMARK H PARENT
REMARK Flexibility Score: inf
ROOT
ATOM      1  C   UNL     1      22.730   9.686  30.962  1.00  0.00     0.000 C 
ENDROOT
BRANCH   1   2
ATOM      2  C   UNL     1      22.600   8.513  29.977  1.00  0.00     0.000 C 
BRANCH   2   3
ATOM      3  C   UNL     1      21.138   8.221  29.589  1.00  0.00     0.000 C 
BRANCH   3   4
ATOM      4  C   UNL     1      20.081   8.706  30.603  1.00  0.00     0.000 C 
BRANCH   4   5
ATOM      5  C   UNL     1      19.273   9.942  30.161  1.00  0.00     0.000 C 
BRANCH   5   6
ATOM      6  C   UNL     1      18.969  10.957  31.282  1.00  0.00     0.000 C 
BRANCH   6   7
ATOM      7  C   UNL     1      19.654  12.327  31.121  1.00  0.00     0.000 C 
BRANCH   7   8
ATOM      8  C   UNL     1      19.067  13.399  32.049  1.00  0.00     0.000 C 
BRANCH   8   9
ATOM      9  C   UNL     1      18.107  12.778  33.072  1.00  0.00     0.000 C 
BRANCH   9  10
ATOM     10  C   UNL     1      18.682  12.873  34.492  1.00  0.00     0.000 C 
BRANCH  10  11
ATOM     11  C   UNL     1      18.213  11.729  35.406  1.00  0.00     0.000 C 
BRANCH  11  12
ATOM     12  C   UNL     1      18.907  10.372  35.168  1.00  0.00     0.000 C 
BRANCH  12  13
ATOM     13  C   UNL     1      19.686   9.815  36.374  1.00  0.00     0.006 C 
BRANCH  13  14
ATOM     14  C   UNL     1      18.816   8.954  37.300  1.00  0.00     0.053 C 
BRANCH  14  15
ATOM     15  C   UNL     1      18.799   7.530  36.838  1.00  0.00     0.041 C 
ATOM     16  O   UNL     1      19.402   6.641  37.498  1.00  0.00    -0.550 OA
ATOM     17  O   UNL     1      18.144   7.187  35.661  1.00  0.00    -0.550 OA
ENDBRANCH  14  15
ENDBRANCH  13  14
ENDBRANCH  12  13
ENDBRANCH  11  12
ENDBRANCH  10  11
ENDBRANCH   9  10
ENDBRANCH   8   9
ENDBRANCH   7   8
ENDBRANCH   6   7
ENDBRANCH   5   6
ENDBRANCH   4   5
ENDBRANCH   3   4
ENDBRANCH   2   3
ENDBRANCH   1   2
BRANCH   1  18
ATOM     18  C   UNL     1      23.847  10.674  30.579  1.00  0.00     0.000 C 
BRANCH  18  19
ATOM     19  C   UNL     1      23.392  11.897  29.761  1.00  0.00     0.000 C 
BRANCH  19  20
ATOM     20  C   UNL     1      24.463  12.994  29.669  1.00  0.00     0.000 C 
BRANCH  20  21
ATOM     21  C   UNL     1      25.871  12.405  29.846  1.00  0.00     0.000 C 
BRANCH  21  22
ATOM     22  C   UNL     1      26.648  13.056  31.003  1.00  0.00     0.000 C 
BRANCH  22  23
ATOM     23  C   UNL     1      27.954  12.314  31.336  1.00  0.00     0.000 C 
BRANCH  23  24
ATOM     24  C   UNL     1      28.587  12.791  32.655  1.00  0.00    -0.000 C 
BRANCH  24  25
ATOM     25  C   UNL     1      27.807  13.900  33.384  1.00  0.00    -0.000 C 
BRANCH  25  26
ATOM     26  C   UNL     1      27.358  13.483  34.795  1.00  0.00    -0.000 C 
BRANCH  26  27
ATOM     27  C   UNL     1      27.374  11.952  34.987  1.00  0.00    -0.000 C 
BRANCH  27  28
ATOM     28  C   UNL     1      25.971  11.319  34.998  1.00  0.00    -0.000 C 
BRANCH  28  29
ATOM     29  C   UNL     1      24.869  12.297  34.557  1.00  0.00    -0.000 C 
BRANCH  29  30
ATOM     30  C   UNL     1      23.843  12.584  35.668  1.00  0.00    -0.000 C 
BRANCH  30  31
ATOM     31  C   UNL     1      22.386  12.690  35.185  1.00  0.00    -0.003 C 
ATOM     32  C   UNL     1      22.173  12.103  33.791  1.00  0.00     0.004 C 
ENDBRANCH  30  31
ENDBRANCH  29  30
ENDBRANCH  28  29
ENDBRANCH  27  28
ENDBRANCH  26  27
ENDBRANCH  25  26
ENDBRANCH  24  25
ENDBRANCH  23  24
ENDBRANCH  22  23
ENDBRANCH  21  22
ENDBRANCH  20  21
ENDBRANCH  19  20
ENDBRANCH  18  19
ENDBRANCH   1  18
TORSDOF 28
ENDMDL
MODEL 9
REMARK VINA RESULT:    -4.114      1.863      6.772
REMARK INTER + INTRA:         -14.535
REMARK INTER:                 -10.537
REMARK INTRA:                  -3.998
REMARK UNBOUND:                -3.687
REMARK SMILES CCCCCCCCCCCCCCCCCCCCCCCCCCCCCC(=O)[O-]
REMARK SMILES IDX 16 1 17 2 18 3 19 4 20 5 21 6 22 7 23 8 24 9 25 10 26 11
REMARK SMILES IDX 27 12 28 13 29 14 30 15 31 16 32 17 15 18 14 19 13 20 12 21
REMARK SMILES IDX 11 22 10 23 9 24 8 25 7 26 6 27 5 28 4 29 3 30 2 31 1 32
REMARK H PARENT
REMARK Flexibility Score: inf
ROOT
ATOM      1  C   UNL     1      25.235  12.242  35.749  1.00  0.00     0.000 C 
ENDROOT
BRANCH   1   2
ATOM      2  C   UNL     1      24.592  11.847  34.409  1.00  0.00     0.000 C 
BRANCH   2   3
ATOM      3  C   UNL     1      23.260  12.576  34.150  1.00  0.00     0.000 C 
BRANCH   3   4
ATOM      4  C   UNL     1      22.269  12.571  35.332  1.00  0.00     0.000 C 
BRANCH   4   5
ATOM      5  C   UNL     1      21.147  13.625  35.247  1.00  0.00     0.000 C 
BRANCH   5   6
ATOM      6  C   UNL     1      19.745  13.118  35.642  1.00  0.00     0.000 C 
BRANCH   6   7
ATOM      7  C   UNL     1      18.741  13.017  34.479  1.00  0.00     0.000 C 
BRANCH   7   8
ATOM      8  C   UNL     1      19.340  13.452  33.134  1.00  0.00     0.000 C 
BRANCH   8   9
ATOM      9  C   UNL     1      19.143  12.369  32.066  1.00  0.00     0.000 C 
BRANCH   9  10
ATOM     10  C   UNL     1      19.452  10.976  32.635  1.00  0.00     0.000 C 
BRANCH  10  11
ATOM     11  C   UNL     1      18.223  10.052  32.657  1.00  0.00     0.000 C 
BRANCH  11  12
ATOM     12  C   UNL     1      18.230   8.977  33.764  1.00  0.00     0.000 C 
BRANCH  12  13
ATOM     13  C   UNL     1      17.939   9.497  35.183  1.00  0.00     0.006 C 
BRANCH  13  14
ATOM     14  C   UNL     1      19.179   9.492  36.087  1.00  0.00     0.053 C 
BRANCH  14  15
ATOM     15  C   UNL     1      19.095   8.388  37.096  1.00  0.00     0.041 C 
ATOM     16  O   UNL     1      19.189   8.643  38.327  1.00  0.00    -0.550 OA
ATOM     17  O   UNL     1      18.942   7.072  36.677  1.00  0.00    -0.550 OA
ENDBRANCH  14  15
ENDBRANCH  13  14
ENDBRANCH  12  13
ENDBRANCH  11  12
ENDBRANCH  10  11
ENDBRANCH   9  10
ENDBRANCH   8   9
ENDBRANCH   7   8
ENDBRANCH   6   7
ENDBRANCH   5   6
ENDBRANCH   4   5
ENDBRANCH   3   4
ENDBRANCH   2   3
ENDBRANCH   1   2
BRANCH   1  18
ATOM     18  C   UNL     1      26.042  13.551  35.668  1.00  0.00     0.000 C 
BRANCH  18  19
ATOM     19  C   UNL     1      27.572  13.384  35.682  1.00  0.00     0.000 C 
BRANCH  19  20
ATOM     20  C   UNL     1      28.239  13.813  34.366  1.00  0.00     0.000 C 
BRANCH  20  21
ATOM     21  C   UNL     1      27.534  13.174  33.159  1.00  0.00     0.000 C 
BRANCH  21  22
ATOM     22  C   UNL     1      28.426  13.126  31.907  1.00  0.00     0.000 C 
BRANCH  22  23
ATOM     23  C   UNL     1      27.616  13.024  30.603  1.00  0.00     0.000 C 
BRANCH  23  24
ATOM     24  C   UNL     1      26.096  13.010  30.847  1.00  0.00    -0.000 C 
BRANCH  24  25
ATOM     25  C   UNL     1      25.245  13.487  29.658  1.00  0.00    -0.000 C 
BRANCH  25  26
ATOM     26  C   UNL     1      24.030  12.582  29.392  1.00  0.00    -0.000 C 
BRANCH  26  27
ATOM     27  C   UNL     1      23.671  11.710  30.615  1.00  0.00    -0.000 C 
BRANCH  27  28
ATOM     28  C   UNL     1      22.387  10.883  30.424  1.00  0.00    -0.000 C 
BRANCH  28  29
ATOM     29  C   UNL     1      22.650   9.369  30.383  1.00  0.00    -0.000 C 
BRANCH  29  30
ATOM     30  C   UNL     1      21.366   8.532  30.531  1.00  0.00    -0.000 C 
BRANCH  30  31
ATOM     31  C   UNL     1      20.245   8.895  29.541  1.00  0.00    -0.003 C 
ATOM     32  C   UNL     1      19.065   7.927  29.592  1.00  0.00     0.004 C 
ENDBRANCH  30  31
ENDBRANCH  29  30
ENDBRANCH  28  29
ENDBRANCH  27  28
ENDBRANCH  26  27
ENDBRANCH  25  26
ENDBRANCH  24  25
ENDBRANCH  23  24
ENDBRANCH  22  23
ENDBRANCH  21  22
ENDBRANCH  20  21
ENDBRANCH  19  20
ENDBRANCH  18  19
ENDBRANCH   1  18
TORSDOF 28
ENDMDL
