MODEL 1
REMARK VINA RESULT:    -6.948      0.000      0.000
REMARK INTER + INTRA:          -8.429
REMARK INTER:                  -8.166
REMARK INTRA:                  -0.263
REMARK UNBOUND:                -0.263
REMARK SMILES O=c1cc(-c2ccc(O)c(O)c2)oc2cc(O)cc(O)c12
REMARK SMILES IDX 4 1 3 2 2 3 1 4 21 5 19 6 18 7 16 8 15 9 14 10 13 11 5 12
REMARK SMILES IDX 6 13 7 14 8 15 12 16 10 17 9 18 11 20 20 22 17 24
REMARK H PARENT 9 19 11 21 20 23 17 25
REMARK Flexibility Score: inf
ROOT
ATOM      1  C   UNL     1     -29.601 -11.925 -35.463  1.00  0.00     0.138 A 
ATOM      2  C   UNL     1     -28.231 -11.875 -35.754  1.00  0.00     0.100 A 
ATOM      3  C   UNL     1     -27.782 -12.227 -37.028  1.00  0.00     0.197 A 
ATOM      4  O   UNL     1     -26.554 -12.113 -37.277  1.00  0.00    -0.289 OA
ATOM      5  C   UNL     1     -28.709 -12.661 -38.005  1.00  0.00     0.107 A 
ATOM      6  C   UNL     1     -28.362 -13.082 -39.323  1.00  0.00     0.134 A 
ATOM      7  C   UNL     1     -29.376 -13.380 -40.241  1.00  0.00     0.093 A 
ATOM      8  C   UNL     1     -30.720 -13.329 -39.873  1.00  0.00     0.123 A 
ATOM      9  C   UNL     1     -31.069 -12.970 -38.570  1.00  0.00     0.094 A 
ATOM     10  C   UNL     1     -30.082 -12.634 -37.641  1.00  0.00     0.146 A 
ATOM     11  O   UNL     1     -30.456 -12.284 -36.415  1.00  0.00    -0.456 OA
ENDROOT
BRANCH   1  12
ATOM     12  C   UNL     1     -30.132 -11.564 -34.124  1.00  0.00     0.021 A 
ATOM     13  C   UNL     1     -30.662 -10.290 -33.858  1.00  0.00     0.016 A 
ATOM     14  C   UNL     1     -31.145  -9.976 -32.586  1.00  0.00     0.051 A 
ATOM     15  C   UNL     1     -31.104 -10.917 -31.552  1.00  0.00     0.157 A 
ATOM     16  C   UNL     1     -30.078 -12.506 -33.081  1.00  0.00     0.062 A 
ATOM     17  C   UNL     1     -30.561 -12.199 -31.803  1.00  0.00     0.158 A 
BRANCH  15  18
ATOM     18  O   UNL     1     -31.606 -10.540 -30.305  1.00  0.00    -0.504 OA
ATOM     19  H   UNL     1     -32.230 -11.109 -29.752  1.00  0.00     0.293 HD
ENDBRANCH  15  18
BRANCH  17  20
ATOM     20  O   UNL     1     -30.482 -13.188 -30.821  1.00  0.00    -0.504 OA
ATOM     21  H   UNL     1     -31.274 -13.723 -30.493  1.00  0.00     0.293 HD
ENDBRANCH  17  20
ENDBRANCH   1  12
BRANCH   6  22
ATOM     22  O   UNL     1     -27.047 -13.248 -39.769  1.00  0.00    -0.507 OA
ATOM     23  H   UNL     1     -26.561 -12.611 -40.380  1.00  0.00     0.293 HD
ENDBRANCH   6  22
BRANCH   8  24
ATOM     24  O   UNL     1     -31.702 -13.646 -40.809  1.00  0.00    -0.508 OA
ATOM     25  H   UNL     1     -31.648 -13.316 -41.766  1.00  0.00     0.293 HD
ENDBRANCH   8  24
TORSDOF 5
ENDMDL
MODEL 2
REMARK VINA RESULT:    -6.523      7.158      8.804
REMARK INTER + INTRA:          -7.930
REMARK INTER:                  -7.666
REMARK INTRA:                  -0.263
REMARK UNBOUND:                -0.263
REMARK SMILES O=c1cc(-c2ccc(O)c(O)c2)oc2cc(O)cc(O)c12
REMARK SMILES IDX 4 1 3 2 2 3 1 4 21 5 19 6 18 7 16 8 15 9 14 10 13 11 5 12
REMARK SMILES IDX 6 13 7 14 8 15 12 16 10 17 9 18 11 20 20 22 17 24
REMARK H PARENT 9 19 11 21 20 23 17 25
REMARK Flexibility Score: inf
ROOT
ATOM      1  C   UNL     1     -22.252 -11.061 -33.613  1.00  0.00     0.138 A 
ATOM      2  C   UNL     1     -23.288 -11.291 -34.529  1.00  0.00     0.100 A 
ATOM      3  C   UNL     1     -22.989 -11.454 -35.882  1.00  0.00     0.197 A 
ATOM      4  O   UNL     1     -23.932 -11.720 -36.671  1.00  0.00    -0.289 OA
ATOM      5  C   UNL     1     -21.648 -11.353 -36.324  1.00  0.00     0.107 A 
ATOM      6  C   UNL     1     -21.230 -11.461 -37.683  1.00  0.00     0.134 A 
ATOM      7  C   UNL     1     -19.863 -11.461 -37.987  1.00  0.00     0.093 A 
ATOM      8  C   UNL     1     -18.902 -11.298 -36.989  1.00  0.00     0.123 A 
ATOM      9  C   UNL     1     -19.302 -11.138 -35.661  1.00  0.00     0.094 A 
ATOM     10  C   UNL     1     -20.657 -11.167 -35.322  1.00  0.00     0.146 A 
ATOM     11  O   UNL     1     -20.996 -11.026 -34.045  1.00  0.00    -0.456 OA
ENDROOT
BRANCH   1  12
ATOM     12  C   UNL     1     -22.515 -10.879 -32.163  1.00  0.00     0.021 A 
ATOM     13  C   UNL     1     -22.228 -11.888 -31.227  1.00  0.00     0.016 A 
ATOM     14  C   UNL     1     -22.494 -11.693 -29.870  1.00  0.00     0.051 A 
ATOM     15  C   UNL     1     -23.058 -10.495 -29.417  1.00  0.00     0.157 A 
ATOM     16  C   UNL     1     -23.094  -9.681 -31.709  1.00  0.00     0.062 A 
ATOM     17  C   UNL     1     -23.364  -9.476 -30.350  1.00  0.00     0.158 A 
BRANCH  15  18
ATOM     18  O   UNL     1     -23.297 -10.362 -28.049  1.00  0.00    -0.504 OA
ATOM     19  H   UNL     1     -24.002 -10.881 -27.546  1.00  0.00     0.293 HD
ENDBRANCH  15  18
BRANCH  17  20
ATOM     20  O   UNL     1     -23.931  -8.257 -29.975  1.00  0.00    -0.504 OA
ATOM     21  H   UNL     1     -24.742  -7.850 -30.418  1.00  0.00     0.293 HD
ENDBRANCH  17  20
ENDBRANCH   1  12
BRANCH   6  22
ATOM     22  O   UNL     1     -22.110 -11.544 -38.766  1.00  0.00    -0.507 OA
ATOM     23  H   UNL     1     -22.222 -10.834 -39.474  1.00  0.00     0.293 HD
ENDBRANCH   6  22
BRANCH   8  24
ATOM     24  O   UNL     1     -17.552 -11.288 -37.329  1.00  0.00    -0.508 OA
ATOM     25  H   UNL     1     -16.827 -11.247 -36.623  1.00  0.00     0.293 HD
ENDBRANCH   8  24
TORSDOF 5
ENDMDL
MODEL 3
REMARK VINA RESULT:    -6.362      8.930     12.983
REMARK INTER + INTRA:          -7.740
REMARK INTER:                  -7.477
REMARK INTRA:                  -0.263
REMARK UNBOUND:                -0.263
REMARK SMILES O=c1cc(-c2ccc(O)c(O)c2)oc2cc(O)cc(O)c12
REMARK SMILES IDX 4 1 3 2 2 3 1 4 21 5 19 6 18 7 16 8 15 9 14 10 13 11 5 12
REMARK SMILES IDX 6 13 7 14 8 15 12 16 10 17 9 18 11 20 20 22 17 24
REMARK H PARENT 9 19 11 21 20 23 17 25
REMARK Flexibility Score: inf
ROOT
ATOM      1  C   UNL     1     -23.755  -9.437 -28.137  1.00  0.00     0.138 A 
ATOM      2  C   UNL     1     -25.127  -9.512 -27.855  1.00  0.00     0.100 A 
ATOM      3  C   UNL     1     -25.574  -9.312 -26.549  1.00  0.00     0.197 A 
ATOM      4  O   UNL     1     -26.814  -9.325 -26.338  1.00  0.00    -0.289 OA
ATOM      5  C   UNL     1     -24.640  -9.068 -25.514  1.00  0.00     0.107 A 
ATOM      6  C   UNL     1     -24.977  -8.889 -24.140  1.00  0.00     0.134 A 
ATOM      7  C   UNL     1     -23.979  -8.537 -23.224  1.00  0.00     0.093 A 
ATOM      8  C   UNL     1     -22.647  -8.415 -23.620  1.00  0.00     0.123 A 
ATOM      9  C   UNL     1     -22.297  -8.640 -24.953  1.00  0.00     0.094 A 
ATOM     10  C   UNL     1     -23.276  -8.959 -25.897  1.00  0.00     0.146 A 
ATOM     11  O   UNL     1     -22.904  -9.151 -27.158  1.00  0.00    -0.456 OA
ENDROOT
BRANCH   1  12
ATOM     12  C   UNL     1     -23.225  -9.643 -29.509  1.00  0.00     0.021 A 
ATOM     13  C   UNL     1     -22.938  -8.562 -30.361  1.00  0.00     0.016 A 
ATOM     14  C   UNL     1     -22.450  -8.787 -31.649  1.00  0.00     0.051 A 
ATOM     15  C   UNL     1     -22.243 -10.088 -32.120  1.00  0.00     0.157 A 
ATOM     16  C   UNL     1     -23.031 -10.951 -29.986  1.00  0.00     0.062 A 
ATOM     17  C   UNL     1     -22.540 -11.185 -31.278  1.00  0.00     0.158 A 
BRANCH  15  18
ATOM     18  O   UNL     1     -21.750 -10.243 -33.416  1.00  0.00    -0.504 OA
ATOM     19  H   UNL     1     -20.778 -10.401 -33.636  1.00  0.00     0.293 HD
ENDBRANCH  15  18
BRANCH  17  20
ATOM     20  O   UNL     1     -22.364 -12.511 -31.677  1.00  0.00    -0.504 OA
ATOM     21  H   UNL     1     -21.814 -13.187 -31.168  1.00  0.00     0.293 HD
ENDBRANCH  17  20
ENDBRANCH   1  12
BRANCH   6  22
ATOM     22  O   UNL     1     -26.264  -9.070 -23.622  1.00  0.00    -0.507 OA
ATOM     23  H   UNL     1     -26.859  -8.330 -23.285  1.00  0.00     0.293 HD
ENDBRANCH   6  22
BRANCH   8  24
ATOM     24  O   UNL     1     -21.678  -8.077 -22.679  1.00  0.00    -0.508 OA
ATOM     25  H   UNL     1     -21.517  -7.115 -22.406  1.00  0.00     0.293 HD
ENDBRANCH   8  24
TORSDOF 5
ENDMDL
MODEL 4
REMARK VINA RESULT:    -5.994      3.780      9.701
REMARK INTER + INTRA:          -7.308
REMARK INTER:                  -7.045
REMARK INTRA:                  -0.263
REMARK UNBOUND:                -0.263
REMARK SMILES O=c1cc(-c2ccc(O)c(O)c2)oc2cc(O)cc(O)c12
REMARK SMILES IDX 4 1 3 2 2 3 1 4 21 5 19 6 18 7 16 8 15 9 14 10 13 11 5 12
REMARK SMILES IDX 6 13 7 14 8 15 12 16 10 17 9 18 11 20 20 22 17 24
REMARK H PARENT 9 19 11 21 20 23 17 25
REMARK Flexibility Score: inf
ROOT
ATOM      1  C   UNL     1     -31.285 -11.165 -29.830  1.00  0.00     0.138 A 
ATOM      2  C   UNL     1     -30.252 -10.880 -28.926  1.00  0.00     0.100 A 
ATOM      3  C   UNL     1     -30.564 -10.508 -27.618  1.00  0.00     0.197 A 
ATOM      4  O   UNL     1     -29.616 -10.318 -26.812  1.00  0.00    -0.289 OA
ATOM      5  C   UNL     1     -31.918 -10.389 -27.223  1.00  0.00     0.107 A 
ATOM      6  C   UNL     1     -32.354  -9.979 -25.929  1.00  0.00     0.134 A 
ATOM      7  C   UNL     1     -33.719 -10.010 -25.618  1.00  0.00     0.093 A 
ATOM      8  C   UNL     1     -34.667 -10.380 -26.572  1.00  0.00     0.123 A 
ATOM      9  C   UNL     1     -34.256 -10.733 -27.858  1.00  0.00     0.094 A 
ATOM     10  C   UNL     1     -32.899 -10.744 -28.188  1.00  0.00     0.146 A 
ATOM     11  O   UNL     1     -32.547 -11.099 -29.419  1.00  0.00    -0.456 OA
ENDROOT
BRANCH   1  12
ATOM     12  C   UNL     1     -31.009 -11.563 -31.234  1.00  0.00     0.021 A 
ATOM     13  C   UNL     1     -30.905 -12.913 -31.612  1.00  0.00     0.016 A 
ATOM     14  C   UNL     1     -30.635 -13.258 -32.938  1.00  0.00     0.051 A 
ATOM     15  C   UNL     1     -30.457 -12.270 -33.912  1.00  0.00     0.157 A 
ATOM     16  C   UNL     1     -30.816 -10.571 -32.210  1.00  0.00     0.062 A 
ATOM     17  C   UNL     1     -30.546 -10.908 -33.543  1.00  0.00     0.158 A 
BRANCH  15  18
ATOM     18  O   UNL     1     -30.193 -12.682 -35.219  1.00  0.00    -0.504 OA
ATOM     19  H   UNL     1     -29.362 -13.184 -35.496  1.00  0.00     0.293 HD
ENDBRANCH  15  18
BRANCH  17  20
ATOM     20  O   UNL     1     -30.377  -9.866 -34.457  1.00  0.00    -0.504 OA
ATOM     21  H   UNL     1     -29.478  -9.534 -34.775  1.00  0.00     0.293 HD
ENDBRANCH  17  20
ENDBRANCH   1  12
BRANCH   6  22
ATOM     22  O   UNL     1     -31.497  -9.510 -24.928  1.00  0.00    -0.507 OA
ATOM     23  H   UNL     1     -30.551  -9.195 -25.079  1.00  0.00     0.293 HD
ENDBRANCH   6  22
BRANCH   8  24
ATOM     24  O   UNL     1     -36.017 -10.387 -26.231  1.00  0.00    -0.508 OA
ATOM     25  H   UNL     1     -36.321 -10.461 -25.268  1.00  0.00     0.293 HD
ENDBRANCH   8  24
TORSDOF 5
ENDMDL
MODEL 5
REMARK VINA RESULT:    -5.718      1.479      7.354
REMARK INTER + INTRA:          -6.984
REMARK INTER:                  -6.707
REMARK INTRA:                  -0.277
REMARK UNBOUND:                -0.263
REMARK SMILES O=c1cc(-c2ccc(O)c(O)c2)oc2cc(O)cc(O)c12
REMARK SMILES IDX 4 1 3 2 2 3 1 4 21 5 19 6 18 7 16 8 15 9 14 10 13 11 5 12
REMARK SMILES IDX 6 13 7 14 8 15 12 16 10 17 9 18 11 20 20 22 17 24
REMARK H PARENT 9 19 11 21 20 23 17 25
REMARK Flexibility Score: inf
ROOT
ATOM      1  C   UNL     1     -30.036 -11.719 -35.073  1.00  0.00     0.138 A 
ATOM      2  C   UNL     1     -30.501 -10.401 -34.960  1.00  0.00     0.100 A 
ATOM      3  C   UNL     1     -30.901  -9.916 -33.714  1.00  0.00     0.197 A 
ATOM      4  O   UNL     1     -31.255  -8.711 -33.633  1.00  0.00    -0.289 OA
ATOM      5  C   UNL     1     -30.865 -10.765 -32.583  1.00  0.00     0.107 A 
ATOM      6  C   UNL     1     -31.286 -10.391 -31.272  1.00  0.00     0.134 A 
ATOM      7  C   UNL     1     -31.095 -11.279 -30.206  1.00  0.00     0.093 A 
ATOM      8  C   UNL     1     -30.555 -12.548 -30.413  1.00  0.00     0.123 A 
ATOM      9  C   UNL     1     -30.188 -12.944 -31.700  1.00  0.00     0.094 A 
ATOM     10  C   UNL     1     -30.334 -12.068 -32.778  1.00  0.00     0.146 A 
ATOM     11  O   UNL     1     -29.961 -12.478 -33.986  1.00  0.00    -0.456 OA
ENDROOT
BRANCH   1  12
ATOM     12  C   UNL     1     -29.600 -12.287 -36.374  1.00  0.00     0.021 A 
ATOM     13  C   UNL     1     -28.423 -13.047 -36.492  1.00  0.00     0.016 A 
ATOM     14  C   UNL     1     -28.033 -13.560 -37.730  1.00  0.00     0.051 A 
ATOM     15  C   UNL     1     -28.799 -13.322 -38.877  1.00  0.00     0.157 A 
ATOM     16  C   UNL     1     -30.362 -12.036 -37.528  1.00  0.00     0.062 A 
ATOM     17  C   UNL     1     -29.978 -12.548 -38.775  1.00  0.00     0.158 A 
BRANCH  15  18
ATOM     18  O   UNL     1     -28.354 -13.866 -40.083  1.00  0.00    -0.504 OA
ATOM     19  H   UNL     1     -28.174 -13.323 -40.915  1.00  0.00     0.293 HD
ENDBRANCH  15  18
BRANCH  17  20
ATOM     20  O   UNL     1     -30.791 -12.265 -39.874  1.00  0.00    -0.504 OA
ATOM     21  H   UNL     1     -31.682 -12.707 -40.047  1.00  0.00     0.293 HD
ENDBRANCH  17  20
ENDBRANCH   1  12
BRANCH   6  22
ATOM     22  O   UNL     1     -31.916  -9.179 -30.970  1.00  0.00    -0.507 OA
ATOM     23  H   UNL     1     -31.940  -8.754 -30.057  1.00  0.00     0.293 HD
ENDBRANCH   6  22
BRANCH   8  24
ATOM     24  O   UNL     1     -30.393 -13.410 -29.331  1.00  0.00    -0.508 OA
ATOM     25  H   UNL     1     -29.515 -13.886 -29.160  1.00  0.00     0.293 HD
ENDBRANCH   8  24
TORSDOF 5
ENDMDL
MODEL 6
REMARK VINA RESULT:    -5.343      3.097      5.446
REMARK INTER + INTRA:          -6.543
REMARK INTER:                  -6.260
REMARK INTRA:                  -0.283
REMARK UNBOUND:                -0.263
REMARK SMILES O=c1cc(-c2ccc(O)c(O)c2)oc2cc(O)cc(O)c12
REMARK SMILES IDX 4 1 3 2 2 3 1 4 21 5 19 6 18 7 16 8 15 9 14 10 13 11 5 12
REMARK SMILES IDX 6 13 7 14 8 15 12 16 10 17 9 18 11 20 20 22 17 24
REMARK H PARENT 9 19 11 21 20 23 17 25
REMARK Flexibility Score: inf
ROOT
ATOM      1  C   UNL     1     -31.135 -11.372 -30.697  1.00  0.00     0.138 A 
ATOM      2  C   UNL     1     -31.179 -12.759 -30.897  1.00  0.00     0.100 A 
ATOM      3  C   UNL     1     -30.827 -13.289 -32.139  1.00  0.00     0.197 A 
ATOM      4  O   UNL     1     -30.818 -14.540 -32.270  1.00  0.00    -0.289 OA
ATOM      5  C   UNL     1     -30.459 -12.422 -33.195  1.00  0.00     0.107 A 
ATOM      6  C   UNL     1     -30.120 -12.846 -34.514  1.00  0.00     0.134 A 
ATOM      7  C   UNL     1     -29.659 -11.906 -35.444  1.00  0.00     0.093 A 
ATOM      8  C   UNL     1     -29.582 -10.551 -35.123  1.00  0.00     0.123 A 
ATOM      9  C   UNL     1     -29.962 -10.117 -33.851  1.00  0.00     0.094 A 
ATOM     10  C   UNL     1     -30.393 -11.035 -32.891  1.00  0.00     0.146 A 
ATOM     11  O   UNL     1     -30.733 -10.584 -31.688  1.00  0.00    -0.456 OA
ENDROOT
BRANCH   1  12
ATOM     12  C   UNL     1     -31.501 -10.756 -29.396  1.00  0.00     0.021 A 
ATOM     13  C   UNL     1     -30.828  -9.627 -28.897  1.00  0.00     0.016 A 
ATOM     14  C   UNL     1     -31.188  -9.075 -27.666  1.00  0.00     0.051 A 
ATOM     15  C   UNL     1     -32.217  -9.637 -26.904  1.00  0.00     0.157 A 
ATOM     16  C   UNL     1     -32.526 -11.329 -28.623  1.00  0.00     0.062 A 
ATOM     17  C   UNL     1     -32.893 -10.781 -27.388  1.00  0.00     0.158 A 
BRANCH  15  18
ATOM     18  O   UNL     1     -32.529  -9.035 -25.683  1.00  0.00    -0.504 OA
ATOM     19  H   UNL     1     -32.916  -9.529 -24.893  1.00  0.00     0.293 HD
ENDBRANCH  15  18
BRANCH  17  20
ATOM     20  O   UNL     1     -33.927 -11.399 -26.682  1.00  0.00    -0.504 OA
ATOM     21  H   UNL     1     -33.818 -12.249 -26.148  1.00  0.00     0.293 HD
ENDBRANCH  17  20
ENDBRANCH   1  12
BRANCH   6  22
ATOM     22  O   UNL     1     -30.241 -14.164 -34.966  1.00  0.00    -0.507 OA
ATOM     23  H   UNL     1     -31.002 -14.513 -35.528  1.00  0.00     0.293 HD
ENDBRANCH   6  22
BRANCH   8  24
ATOM     24  O   UNL     1     -29.132  -9.643 -36.078  1.00  0.00    -0.508 OA
ATOM     25  H   UNL     1     -28.324  -9.838 -36.656  1.00  0.00     0.293 HD
ENDBRANCH   8  24
TORSDOF 5
ENDMDL
MODEL 7
REMARK VINA RESULT:    -5.040      7.858     10.898
REMARK INTER + INTRA:          -6.186
REMARK INTER:                  -5.903
REMARK INTRA:                  -0.283
REMARK UNBOUND:                -0.263
REMARK SMILES O=c1cc(-c2ccc(O)c(O)c2)oc2cc(O)cc(O)c12
REMARK SMILES IDX 4 1 3 2 2 3 1 4 21 5 19 6 18 7 16 8 15 9 14 10 13 11 5 12
REMARK SMILES IDX 6 13 7 14 8 15 12 16 10 17 9 18 11 20 20 22 17 24
REMARK H PARENT 9 19 11 21 20 23 17 25
REMARK Flexibility Score: inf
ROOT
ATOM      1  C   UNL     1     -22.268 -10.879 -32.771  1.00  0.00     0.138 A 
ATOM      2  C   UNL     1     -21.988 -11.993 -31.967  1.00  0.00     0.100 A 
ATOM      3  C   UNL     1     -22.291 -11.955 -30.605  1.00  0.00     0.197 A 
ATOM      4  O   UNL     1     -22.086 -12.991 -29.922  1.00  0.00    -0.289 OA
ATOM      5  C   UNL     1     -22.848 -10.782 -30.041  1.00  0.00     0.107 A 
ATOM      6  C   UNL     1     -23.160 -10.615 -28.659  1.00  0.00     0.134 A 
ATOM      7  C   UNL     1     -23.815  -9.452 -28.236  1.00  0.00     0.093 A 
ATOM      8  C   UNL     1     -24.116  -8.427 -29.132  1.00  0.00     0.123 A 
ATOM      9  C   UNL     1     -23.768  -8.557 -30.477  1.00  0.00     0.094 A 
ATOM     10  C   UNL     1     -23.144  -9.719 -30.936  1.00  0.00     0.146 A 
ATOM     11  O   UNL     1     -22.841  -9.811 -32.227  1.00  0.00    -0.456 OA
ENDROOT
BRANCH   1  12
ATOM     12  C   UNL     1     -21.964 -10.866 -34.224  1.00  0.00     0.021 A 
ATOM     13  C   UNL     1     -22.802 -10.219 -35.149  1.00  0.00     0.016 A 
ATOM     14  C   UNL     1     -22.496 -10.231 -36.511  1.00  0.00     0.051 A 
ATOM     15  C   UNL     1     -21.356 -10.892 -36.983  1.00  0.00     0.157 A 
ATOM     16  C   UNL     1     -20.827 -11.542 -34.700  1.00  0.00     0.062 A 
ATOM     17  C   UNL     1     -20.512 -11.559 -36.065  1.00  0.00     0.158 A 
BRANCH  15  18
ATOM     18  O   UNL     1     -21.107 -10.864 -38.356  1.00  0.00    -0.504 OA
ATOM     19  H   UNL     1     -20.183 -10.890 -38.762  1.00  0.00     0.293 HD
ENDBRANCH  15  18
BRANCH  17  20
ATOM     20  O   UNL     1     -19.361 -12.242 -36.460  1.00  0.00    -0.504 OA
ATOM     21  H   UNL     1     -19.252 -12.697 -37.355  1.00  0.00     0.293 HD
ENDBRANCH  17  20
ENDBRANCH   1  12
BRANCH   6  22
ATOM     22  O   UNL     1     -22.827 -11.541 -27.666  1.00  0.00    -0.507 OA
ATOM     23  H   UNL     1     -21.961 -11.547 -27.150  1.00  0.00     0.293 HD
ENDBRANCH   6  22
BRANCH   8  24
ATOM     24  O   UNL     1     -24.756  -7.279 -28.672  1.00  0.00    -0.508 OA
ATOM     25  H   UNL     1     -25.527  -7.327 -28.017  1.00  0.00     0.293 HD
ENDBRANCH   8  24
TORSDOF 5
ENDMDL
MODEL 8
REMARK VINA RESULT:    -4.588      8.365      9.786
REMARK INTER + INTRA:          -5.656
REMARK INTER:                  -5.370
REMARK INTRA:                  -0.286
REMARK UNBOUND:                -0.263
REMARK SMILES O=c1cc(-c2ccc(O)c(O)c2)oc2cc(O)cc(O)c12
REMARK SMILES IDX 4 1 3 2 2 3 1 4 21 5 19 6 18 7 16 8 15 9 14 10 13 11 5 12
REMARK SMILES IDX 6 13 7 14 8 15 12 16 10 17 9 18 11 20 20 22 17 24
REMARK H PARENT 9 19 11 21 20 23 17 25
REMARK Flexibility Score: inf
ROOT
ATOM      1  C   UNL     1     -23.430  -9.520 -28.921  1.00  0.00     0.138 A 
ATOM      2  C   UNL     1     -23.117  -8.330 -29.593  1.00  0.00     0.100 A 
ATOM      3  C   UNL     1     -22.733  -8.377 -30.934  1.00  0.00     0.197 A 
ATOM      4  O   UNL     1     -22.518  -7.289 -31.528  1.00  0.00    -0.289 OA
ATOM      5  C   UNL     1     -22.633  -9.624 -31.595  1.00  0.00     0.107 A 
ATOM      6  C   UNL     1     -22.214  -9.796 -32.948  1.00  0.00     0.134 A 
ATOM      7  C   UNL     1     -22.265 -11.068 -33.530  1.00  0.00     0.093 A 
ATOM      8  C   UNL     1     -22.663 -12.183 -32.793  1.00  0.00     0.123 A 
ATOM      9  C   UNL     1     -23.025 -12.035 -31.452  1.00  0.00     0.094 A 
ATOM     10  C   UNL     1     -23.017 -10.774 -30.853  1.00  0.00     0.146 A 
ATOM     11  O   UNL     1     -23.381 -10.672 -29.579  1.00  0.00    -0.456 OA
ENDROOT
BRANCH   1  12
ATOM     12  C   UNL     1     -23.842  -9.528 -27.494  1.00  0.00     0.021 A 
ATOM     13  C   UNL     1     -24.730 -10.491 -26.986  1.00  0.00     0.016 A 
ATOM     14  C   UNL     1     -25.107 -10.468 -25.642  1.00  0.00     0.051 A 
ATOM     15  C   UNL     1     -24.615  -9.484 -24.778  1.00  0.00     0.157 A 
ATOM     16  C   UNL     1     -23.358  -8.531 -26.629  1.00  0.00     0.062 A 
ATOM     17  C   UNL     1     -23.731  -8.501 -25.279  1.00  0.00     0.158 A 
BRANCH  15  18
ATOM     18  O   UNL     1     -25.029  -9.519 -23.445  1.00  0.00    -0.504 OA
ATOM     19  H   UNL     1     -25.576 -10.266 -23.044  1.00  0.00     0.293 HD
ENDBRANCH  15  18
BRANCH  17  20
ATOM     20  O   UNL     1     -23.202  -7.486 -24.479  1.00  0.00    -0.504 OA
ATOM     21  H   UNL     1     -22.609  -6.744 -24.825  1.00  0.00     0.293 HD
ENDBRANCH  17  20
ENDBRANCH   1  12
BRANCH   6  22
ATOM     22  O   UNL     1     -21.718  -8.763 -33.749  1.00  0.00    -0.507 OA
ATOM     23  H   UNL     1     -21.960  -8.616 -34.716  1.00  0.00     0.293 HD
ENDBRANCH   6  22
BRANCH   8  24
ATOM     24  O   UNL     1     -22.689 -13.436 -33.401  1.00  0.00    -0.508 OA
ATOM     25  H   UNL     1     -23.488 -13.748 -33.938  1.00  0.00     0.293 HD
ENDBRANCH   8  24
TORSDOF 5
ENDMDL
MODEL 9
REMARK VINA RESULT:    -4.420      1.109      2.618
REMARK INTER + INTRA:          -5.458
REMARK INTER:                  -5.185
REMARK INTRA:                  -0.273
REMARK UNBOUND:                -0.263
REMARK SMILES O=c1cc(-c2ccc(O)c(O)c2)oc2cc(O)cc(O)c12
REMARK SMILES IDX 4 1 3 2 2 3 1 4 21 5 19 6 18 7 16 8 15 9 14 10 13 11 5 12
REMARK SMILES IDX 6 13 7 14 8 15 12 16 10 17 9 18 11 20 20 22 17 24
REMARK H PARENT 9 19 11 21 20 23 17 25
REMARK Flexibility Score: inf
ROOT
ATOM      1  C   UNL     1     -30.590 -11.828 -35.897  1.00  0.00     0.138 A 
ATOM      2  C   UNL     1     -31.713 -11.760 -36.733  1.00  0.00     0.100 A 
ATOM      3  C   UNL     1     -31.584 -12.073 -38.087  1.00  0.00     0.197 A 
ATOM      4  O   UNL     1     -32.621 -12.062 -38.799  1.00  0.00    -0.289 OA
ATOM      5  C   UNL     1     -30.318 -12.424 -38.611  1.00  0.00     0.107 A 
ATOM      6  C   UNL     1     -30.060 -12.723 -39.982  1.00  0.00     0.134 A 
ATOM      7  C   UNL     1     -28.790 -13.171 -40.364  1.00  0.00     0.093 A 
ATOM      8  C   UNL     1     -27.753 -13.275 -39.437  1.00  0.00     0.123 A 
ATOM      9  C   UNL     1     -27.979 -12.934 -38.102  1.00  0.00     0.094 A 
ATOM     10  C   UNL     1     -29.245 -12.516 -37.684  1.00  0.00     0.146 A 
ATOM     11  O   UNL     1     -29.424 -12.214 -36.403  1.00  0.00    -0.456 OA
ENDROOT
BRANCH   1  12
ATOM     12  C   UNL     1     -30.670 -11.505 -34.450  1.00  0.00     0.021 A 
ATOM     13  C   UNL     1     -30.864 -10.189 -33.996  1.00  0.00     0.016 A 
ATOM     14  C   UNL     1     -30.926  -9.913 -32.628  1.00  0.00     0.051 A 
ATOM     15  C   UNL     1     -30.789 -10.937 -31.685  1.00  0.00     0.157 A 
ATOM     16  C   UNL     1     -30.519 -12.532 -33.501  1.00  0.00     0.062 A 
ATOM     17  C   UNL     1     -30.580 -12.264 -32.128  1.00  0.00     0.158 A 
BRANCH  15  18
ATOM     18  O   UNL     1     -30.863 -10.594 -30.334  1.00  0.00    -0.504 OA
ATOM     19  H   UNL     1     -30.201  -9.992 -29.867  1.00  0.00     0.293 HD
ENDBRANCH  15  18
BRANCH  17  20
ATOM     20  O   UNL     1     -30.430 -13.337 -31.247  1.00  0.00    -0.504 OA
ATOM     21  H   UNL     1     -31.185 -13.945 -30.964  1.00  0.00     0.293 HD
ENDBRANCH  17  20
ENDBRANCH   1  12
BRANCH   6  22
ATOM     22  O   UNL     1     -31.002 -12.573 -41.004  1.00  0.00    -0.507 OA
ATOM     23  H   UNL     1     -31.948 -12.250 -40.874  1.00  0.00     0.293 HD
ENDBRANCH   6  22
BRANCH   8  24
ATOM     24  O   UNL     1     -26.498 -13.710 -39.855  1.00  0.00    -0.508 OA
ATOM     25  H   UNL     1     -26.394 -14.485 -40.499  1.00  0.00     0.293 HD
ENDBRANCH   8  24
TORSDOF 5
ENDMDL
