MODEL 1
REMARK VINA RESULT:    -6.648      0.000      0.000
REMARK INTER + INTRA:          -8.407
REMARK INTER:                  -8.009
REMARK INTRA:                  -0.399
REMARK UNBOUND:                -0.399
REMARK SMILES O=c1c(O)c(-c2ccc(O)cc2O)oc2cc(O)cc(O)c12
REMARK SMILES IDX 5 1 3 2 2 3 1 4 22 5 20 6 19 7 17 8 16 9 15 10 14 11 6 12
REMARK SMILES IDX 8 13 7 14 9 15 11 16 12 17 10 18 13 20 4 22 21 24 18 26
REMARK H PARENT 10 19 13 21 4 23 21 25 18 27
REMARK Flexibility Score: inf
ROOT
ATOM      1  C   UNL     1      17.626  -0.656  14.818  1.00  0.00     0.184 A 
ATOM      2  C   UNL     1      18.151   0.575  15.237  1.00  0.00     0.208 A 
ATOM      3  C   UNL     1      19.424   0.960  14.790  1.00  0.00     0.238 A 
ATOM      4  O   UNL     1      19.914   2.037  15.218  1.00  0.00    -0.285 OA
ATOM      5  C   UNL     1      20.143   0.119  13.906  1.00  0.00     0.111 A 
ATOM      6  C   UNL     1      21.426   0.426  13.359  1.00  0.00     0.134 A 
ATOM      7  C   UNL     1      22.097  -0.535  12.592  1.00  0.00     0.093 A 
ATOM      8  C   UNL     1      21.504  -1.766  12.300  1.00  0.00     0.123 A 
ATOM      9  C   UNL     1      20.230  -2.052  12.782  1.00  0.00     0.094 A 
ATOM     10  C   UNL     1      19.550  -1.129  13.580  1.00  0.00     0.146 A 
ATOM     11  O   UNL     1      18.342  -1.448  14.031  1.00  0.00    -0.451 OA
ENDROOT
BRANCH   1  12
ATOM     12  C   UNL     1      16.280  -1.103  15.237  1.00  0.00     0.063 A 
ATOM     13  C   UNL     1      14.872  -2.213  16.883  1.00  0.00     0.047 A 
ATOM     14  C   UNL     1      16.137  -1.825  16.435  1.00  0.00     0.020 A 
ATOM     15  C   UNL     1      13.733  -1.881  16.148  1.00  0.00     0.119 A 
ATOM     16  C   UNL     1      13.864  -1.160  14.953  1.00  0.00     0.093 A 
ATOM     17  C   UNL     1      15.126  -0.774  14.488  1.00  0.00     0.130 A 
BRANCH  15  18
ATOM     18  O   UNL     1      12.478  -2.269  16.610  1.00  0.00    -0.508 OA
ATOM     19  H   UNL     1      11.733  -1.597  16.747  1.00  0.00     0.293 HD
ENDBRANCH  15  18
BRANCH  17  20
ATOM     20  O   UNL     1      15.202  -0.090  13.273  1.00  0.00    -0.507 OA
ATOM     21  H   UNL     1      14.397   0.083  12.685  1.00  0.00     0.293 HD
ENDBRANCH  17  20
ENDBRANCH   1  12
BRANCH   2  22
ATOM     22  O   UNL     1      17.416   1.386  16.107  1.00  0.00    -0.502 OA
ATOM     23  H   UNL     1      16.745   1.008  16.766  1.00  0.00     0.293 HD
ENDBRANCH   2  22
BRANCH   6  24
ATOM     24  O   UNL     1      22.066   1.658  13.513  1.00  0.00    -0.507 OA
ATOM     25  H   UNL     1      22.742   2.042  12.870  1.00  0.00     0.293 HD
ENDBRANCH   6  24
BRANCH   8  26
ATOM     26  O   UNL     1      22.173  -2.710  11.523  1.00  0.00    -0.508 OA
ATOM     27  H   UNL     1      23.098  -3.043  11.773  1.00  0.00     0.293 HD
ENDBRANCH   8  26
TORSDOF 6
ENDMDL
MODEL 2
REMARK VINA RESULT:    -6.317      4.345      7.359
REMARK INTER + INTRA:          -8.008
REMARK INTER:                  -7.617
REMARK INTRA:                  -0.390
REMARK UNBOUND:                -0.399
REMARK SMILES O=c1c(O)c(-c2ccc(O)cc2O)oc2cc(O)cc(O)c12
REMARK SMILES IDX 5 1 3 2 2 3 1 4 22 5 20 6 19 7 17 8 16 9 15 10 14 11 6 12
REMARK SMILES IDX 8 13 7 14 9 15 11 16 12 17 10 18 13 20 4 22 21 24 18 26
REMARK H PARENT 10 19 13 21 4 23 21 25 18 27
REMARK Flexibility Score: inf
ROOT
ATOM      1  C   UNL     1      17.984  -1.238  10.736  1.00  0.00     0.184 A 
ATOM      2  C   UNL     1      16.861  -1.299  11.573  1.00  0.00     0.208 A 
ATOM      3  C   UNL     1      15.637  -1.733  11.041  1.00  0.00     0.238 A 
ATOM      4  O   UNL     1      14.620  -1.727  11.782  1.00  0.00    -0.285 OA
ATOM      5  C   UNL     1      15.561  -2.126   9.682  1.00  0.00     0.111 A 
ATOM      6  C   UNL     1      14.382  -2.619   9.045  1.00  0.00     0.134 A 
ATOM      7  C   UNL     1      14.392  -2.863   7.666  1.00  0.00     0.093 A 
ATOM      8  C   UNL     1      15.557  -2.693   6.913  1.00  0.00     0.123 A 
ATOM      9  C   UNL     1      16.727  -2.268   7.536  1.00  0.00     0.094 A 
ATOM     10  C   UNL     1      16.739  -1.981   8.903  1.00  0.00     0.146 A 
ATOM     11  O   UNL     1      17.873  -1.564   9.453  1.00  0.00    -0.451 OA
ENDROOT
BRANCH   1  12
ATOM     12  C   UNL     1      19.304  -0.812  11.246  1.00  0.00     0.063 A 
ATOM     13  C   UNL     1      20.838   0.993  11.809  1.00  0.00     0.047 A 
ATOM     14  C   UNL     1      19.620   0.558  11.282  1.00  0.00     0.020 A 
ATOM     15  C   UNL     1      21.754   0.069  12.316  1.00  0.00     0.119 A 
ATOM     16  C   UNL     1      21.450  -1.298  12.287  1.00  0.00     0.093 A 
ATOM     17  C   UNL     1      20.237  -1.748  11.752  1.00  0.00     0.130 A 
BRANCH  15  18
ATOM     18  O   UNL     1      22.962   0.518  12.844  1.00  0.00    -0.508 OA
ATOM     19  H   UNL     1      23.754  -0.104  12.958  1.00  0.00     0.293 HD
ENDBRANCH  15  18
BRANCH  17  20
ATOM     20  O   UNL     1      20.001  -3.123  11.715  1.00  0.00    -0.507 OA
ATOM     21  H   UNL     1      20.069  -3.674  10.869  1.00  0.00     0.293 HD
ENDBRANCH  17  20
ENDBRANCH   1  12
BRANCH   2  22
ATOM     22  O   UNL     1      16.966  -0.908  12.911  1.00  0.00    -0.502 OA
ATOM     23  H   UNL     1      17.788  -1.104  13.470  1.00  0.00     0.293 HD
ENDBRANCH   2  22
BRANCH   6  24
ATOM     24  O   UNL     1      13.193  -2.910   9.721  1.00  0.00    -0.507 OA
ATOM     25  H   UNL     1      12.675  -3.771   9.631  1.00  0.00     0.293 HD
ENDBRANCH   6  24
BRANCH   8  26
ATOM     26  O   UNL     1      15.562  -2.953   5.545  1.00  0.00    -0.508 OA
ATOM     27  H   UNL     1      14.857  -3.541   5.114  1.00  0.00     0.293 HD
ENDBRANCH   8  26
TORSDOF 6
ENDMDL
MODEL 3
REMARK VINA RESULT:    -6.207      5.264      8.504
REMARK INTER + INTRA:          -7.876
REMARK INTER:                  -8.125
REMARK INTRA:                   0.249
REMARK UNBOUND:                -0.399
REMARK SMILES O=c1c(O)c(-c2ccc(O)cc2O)oc2cc(O)cc(O)c12
REMARK SMILES IDX 5 1 3 2 2 3 1 4 22 5 20 6 19 7 17 8 16 9 15 10 14 11 6 12
REMARK SMILES IDX 8 13 7 14 9 15 11 16 12 17 10 18 13 20 4 22 21 24 18 26
REMARK H PARENT 10 19 13 21 4 23 21 25 18 27
REMARK Flexibility Score: inf
ROOT
ATOM      1  C   UNL     1      14.277  -2.211  10.004  1.00  0.00     0.184 A 
ATOM      2  C   UNL     1      15.222  -1.673  10.890  1.00  0.00     0.208 A 
ATOM      3  C   UNL     1      14.891  -1.549  12.248  1.00  0.00     0.238 A 
ATOM      4  O   UNL     1      15.719  -1.009  13.025  1.00  0.00    -0.285 OA
ATOM      5  C   UNL     1      13.626  -1.994  12.706  1.00  0.00     0.111 A 
ATOM      6  C   UNL     1      13.198  -1.953  14.068  1.00  0.00     0.134 A 
ATOM      7  C   UNL     1      11.880  -2.307  14.388  1.00  0.00     0.093 A 
ATOM      8  C   UNL     1      10.997  -2.760  13.405  1.00  0.00     0.123 A 
ATOM      9  C   UNL     1      11.423  -2.858  12.083  1.00  0.00     0.094 A 
ATOM     10  C   UNL     1      12.719  -2.478  11.727  1.00  0.00     0.146 A 
ATOM     11  O   UNL     1      13.080  -2.573  10.452  1.00  0.00    -0.451 OA
ENDROOT
BRANCH   1  12
ATOM     12  C   UNL     1      14.578  -2.388   8.568  1.00  0.00     0.063 A 
ATOM     13  C   UNL     1      16.227  -2.743   6.813  1.00  0.00     0.047 A 
ATOM     14  C   UNL     1      15.916  -2.521   8.156  1.00  0.00     0.020 A 
ATOM     15  C   UNL     1      15.209  -2.842   5.863  1.00  0.00     0.119 A 
ATOM     16  C   UNL     1      13.872  -2.712   6.261  1.00  0.00     0.093 A 
ATOM     17  C   UNL     1      13.547  -2.479   7.603  1.00  0.00     0.130 A 
BRANCH  15  18
ATOM     18  O   UNL     1      15.534  -3.069   4.528  1.00  0.00    -0.508 OA
ATOM     19  H   UNL     1      15.213  -3.896   4.038  1.00  0.00     0.293 HD
ENDBRANCH  15  18
BRANCH  17  20
ATOM     20  O   UNL     1      12.202  -2.321   7.939  1.00  0.00    -0.507 OA
ATOM     21  H   UNL     1      11.549  -3.093   7.986  1.00  0.00     0.293 HD
ENDBRANCH  17  20
ENDBRANCH   1  12
BRANCH   2  22
ATOM     22  O   UNL     1      16.463  -1.245  10.409  1.00  0.00    -0.502 OA
ATOM     23  H   UNL     1      17.169  -0.840  11.013  1.00  0.00     0.293 HD
ENDBRANCH   2  22
BRANCH   6  24
ATOM     24  O   UNL     1      14.026  -1.603  15.137  1.00  0.00    -0.507 OA
ATOM     25  H   UNL     1      15.001  -1.356  15.055  1.00  0.00     0.293 HD
ENDBRANCH   6  24
BRANCH   8  26
ATOM     26  O   UNL     1       9.693  -3.125  13.735  1.00  0.00    -0.508 OA
ATOM     27  H   UNL     1       9.282  -2.873  14.627  1.00  0.00     0.293 HD
ENDBRANCH   8  26
TORSDOF 6
ENDMDL
MODEL 4
REMARK VINA RESULT:    -6.065      3.923      6.249
REMARK INTER + INTRA:          -7.704
REMARK INTER:                  -7.303
REMARK INTRA:                  -0.401
REMARK UNBOUND:                -0.399
REMARK SMILES O=c1c(O)c(-c2ccc(O)cc2O)oc2cc(O)cc(O)c12
REMARK SMILES IDX 5 1 3 2 2 3 1 4 22 5 20 6 19 7 17 8 16 9 15 10 14 11 6 12
REMARK SMILES IDX 8 13 7 14 9 15 11 16 12 17 10 18 13 20 4 22 21 24 18 26
REMARK H PARENT 10 19 13 21 4 23 21 25 18 27
REMARK Flexibility Score: inf
ROOT
ATOM      1  C   UNL     1      15.542  -1.623  12.794  1.00  0.00     0.184 A 
ATOM      2  C   UNL     1      14.193  -1.993  12.898  1.00  0.00     0.208 A 
ATOM      3  C   UNL     1      13.473  -2.280  11.728  1.00  0.00     0.238 A 
ATOM      4  O   UNL     1      12.248  -2.551  11.824  1.00  0.00    -0.285 OA
ATOM      5  C   UNL     1      14.122  -2.221  10.470  1.00  0.00     0.111 A 
ATOM      6  C   UNL     1      13.501  -2.529   9.222  1.00  0.00     0.134 A 
ATOM      7  C   UNL     1      14.206  -2.318   8.030  1.00  0.00     0.093 A 
ATOM      8  C   UNL     1      15.529  -1.872   8.044  1.00  0.00     0.123 A 
ATOM      9  C   UNL     1      16.163  -1.623   9.259  1.00  0.00     0.094 A 
ATOM     10  C   UNL     1      15.475  -1.788  10.464  1.00  0.00     0.146 A 
ATOM     11  O   UNL     1      16.112  -1.526  11.599  1.00  0.00    -0.451 OA
ENDROOT
BRANCH   1  12
ATOM     12  C   UNL     1      16.356  -1.333  13.993  1.00  0.00     0.063 A 
ATOM     13  C   UNL     1      18.004  -2.076  15.623  1.00  0.00     0.047 A 
ATOM     14  C   UNL     1      17.184  -2.338  14.524  1.00  0.00     0.020 A 
ATOM     15  C   UNL     1      18.018  -0.806  16.203  1.00  0.00     0.119 A 
ATOM     16  C   UNL     1      17.200   0.204  15.682  1.00  0.00     0.093 A 
ATOM     17  C   UNL     1      16.364  -0.049  14.587  1.00  0.00     0.130 A 
BRANCH  15  18
ATOM     18  O   UNL     1      18.846  -0.557  17.295  1.00  0.00    -0.508 OA
ATOM     19  H   UNL     1      18.687   0.231  17.911  1.00  0.00     0.293 HD
ENDBRANCH  15  18
BRANCH  17  20
ATOM     20  O   UNL     1      15.542   0.983  14.131  1.00  0.00    -0.507 OA
ATOM     21  H   UNL     1      15.899   1.825  13.698  1.00  0.00     0.293 HD
ENDBRANCH  17  20
ENDBRANCH   1  12
BRANCH   2  22
ATOM     22  O   UNL     1      13.580  -2.046  14.153  1.00  0.00    -0.502 OA
ATOM     23  H   UNL     1      13.912  -1.504  14.943  1.00  0.00     0.293 HD
ENDBRANCH   2  22
BRANCH   6  24
ATOM     24  O   UNL     1      12.217  -3.066   9.101  1.00  0.00    -0.507 OA
ATOM     25  H   UNL     1      11.728  -3.200   8.228  1.00  0.00     0.293 HD
ENDBRANCH   6  24
BRANCH   8  26
ATOM     26  O   UNL     1      16.227  -1.680   6.854  1.00  0.00    -0.508 OA
ATOM     27  H   UNL     1      16.968  -2.310   6.566  1.00  0.00     0.293 HD
ENDBRANCH   8  26
TORSDOF 6
ENDMDL
MODEL 5
REMARK VINA RESULT:    -5.981      5.053      6.618
REMARK INTER + INTRA:          -7.603
REMARK INTER:                  -7.400
REMARK INTRA:                  -0.203
REMARK UNBOUND:                -0.399
REMARK SMILES O=c1c(O)c(-c2ccc(O)cc2O)oc2cc(O)cc(O)c12
REMARK SMILES IDX 5 1 3 2 2 3 1 4 22 5 20 6 19 7 17 8 16 9 15 10 14 11 6 12
REMARK SMILES IDX 8 13 7 14 9 15 11 16 12 17 10 18 13 20 4 22 21 24 18 26
REMARK H PARENT 10 19 13 21 4 23 21 25 18 27
REMARK Flexibility Score: inf
ROOT
ATOM      1  C   UNL     1      14.455  -2.087  11.303  1.00  0.00     0.184 A 
ATOM      2  C   UNL     1      15.780  -1.801  10.941  1.00  0.00     0.208 A 
ATOM      3  C   UNL     1      16.128  -1.796   9.582  1.00  0.00     0.238 A 
ATOM      4  O   UNL     1      17.330  -1.598   9.267  1.00  0.00    -0.285 OA
ATOM      5  C   UNL     1      15.138  -2.049   8.600  1.00  0.00     0.111 A 
ATOM      6  C   UNL     1      15.369  -2.031   7.192  1.00  0.00     0.134 A 
ATOM      7  C   UNL     1      14.344  -2.417   6.319  1.00  0.00     0.093 A 
ATOM      8  C   UNL     1      13.078  -2.758   6.800  1.00  0.00     0.123 A 
ATOM      9  C   UNL     1      12.826  -2.723   8.169  1.00  0.00     0.094 A 
ATOM     10  C   UNL     1      13.838  -2.378   9.068  1.00  0.00     0.146 A 
ATOM     11  O   UNL     1      13.559  -2.372  10.366  1.00  0.00    -0.451 OA
ENDROOT
BRANCH   1  12
ATOM     12  C   UNL     1      14.025  -2.084  12.717  1.00  0.00     0.063 A 
ATOM     13  C   UNL     1      14.383  -2.829  15.007  1.00  0.00     0.047 A 
ATOM     14  C   UNL     1      14.734  -2.855  13.655  1.00  0.00     0.020 A 
ATOM     15  C   UNL     1      13.327  -2.028  15.443  1.00  0.00     0.119 A 
ATOM     16  C   UNL     1      12.614  -1.254  14.519  1.00  0.00     0.093 A 
ATOM     17  C   UNL     1      12.948  -1.279  13.159  1.00  0.00     0.130 A 
BRANCH  15  18
ATOM     18  O   UNL     1      12.992  -2.008  16.795  1.00  0.00    -0.508 OA
ATOM     19  H   UNL     1      12.065  -1.744  17.107  1.00  0.00     0.293 HD
ENDBRANCH  15  18
BRANCH  17  20
ATOM     20  O   UNL     1      12.182  -0.517  12.276  1.00  0.00    -0.507 OA
ATOM     21  H   UNL     1      11.355  -0.007  12.560  1.00  0.00     0.293 HD
ENDBRANCH  17  20
ENDBRANCH   1  12
BRANCH   2  22
ATOM     22  O   UNL     1      16.734  -1.551  11.931  1.00  0.00    -0.502 OA
ATOM     23  H   UNL     1      16.576  -0.891  12.683  1.00  0.00     0.293 HD
ENDBRANCH   2  22
BRANCH   6  24
ATOM     24  O   UNL     1      16.568  -1.619   6.602  1.00  0.00    -0.507 OA
ATOM     25  H   UNL     1      16.889  -0.664   6.555  1.00  0.00     0.293 HD
ENDBRANCH   6  24
BRANCH   8  26
ATOM     26  O   UNL     1      12.059  -3.125   5.924  1.00  0.00    -0.508 OA
ATOM     27  H   UNL     1      11.666  -4.060   5.930  1.00  0.00     0.293 HD
ENDBRANCH   8  26
TORSDOF 6
ENDMDL
MODEL 6
REMARK VINA RESULT:    -5.920      3.460      6.228
REMARK INTER + INTRA:          -7.530
REMARK INTER:                  -7.235
REMARK INTRA:                  -0.295
REMARK UNBOUND:                -0.399
REMARK SMILES O=c1c(O)c(-c2ccc(O)cc2O)oc2cc(O)cc(O)c12
REMARK SMILES IDX 5 1 3 2 2 3 1 4 22 5 20 6 19 7 17 8 16 9 15 10 14 11 6 12
REMARK SMILES IDX 8 13 7 14 9 15 11 16 12 17 10 18 13 20 4 22 21 24 18 26
REMARK H PARENT 10 19 13 21 4 23 21 25 18 27
REMARK Flexibility Score: inf
ROOT
ATOM      1  C   UNL     1      17.264  -1.186  12.755  1.00  0.00     0.184 A 
ATOM      2  C   UNL     1      16.019  -1.493  13.324  1.00  0.00     0.208 A 
ATOM      3  C   UNL     1      14.950  -1.833  12.481  1.00  0.00     0.238 A 
ATOM      4  O   UNL     1      13.821  -2.047  12.993  1.00  0.00    -0.285 OA
ATOM      5  C   UNL     1      15.150  -1.888  11.079  1.00  0.00     0.111 A 
ATOM      6  C   UNL     1      14.148  -2.258  10.132  1.00  0.00     0.134 A 
ATOM      7  C   UNL     1      14.423  -2.159   8.762  1.00  0.00     0.093 A 
ATOM      8  C   UNL     1      15.684  -1.766   8.307  1.00  0.00     0.123 A 
ATOM      9  C   UNL     1      16.685  -1.459   9.224  1.00  0.00     0.094 A 
ATOM     10  C   UNL     1      16.431  -1.511  10.596  1.00  0.00     0.146 A 
ATOM     11  O   UNL     1      17.410  -1.196  11.435  1.00  0.00    -0.451 OA
ENDROOT
BRANCH   1  12
ATOM     12  C   UNL     1      18.432  -0.845  13.594  1.00  0.00     0.063 A 
ATOM     13  C   UNL     1      20.695  -1.364  14.326  1.00  0.00     0.047 A 
ATOM     14  C   UNL     1      19.557  -1.689  13.585  1.00  0.00     0.020 A 
ATOM     15  C   UNL     1      20.731  -0.189  15.080  1.00  0.00     0.119 A 
ATOM     16  C   UNL     1      19.618   0.660  15.095  1.00  0.00     0.093 A 
ATOM     17  C   UNL     1      18.466   0.341  14.365  1.00  0.00     0.130 A 
BRANCH  15  18
ATOM     18  O   UNL     1      21.875   0.125  15.809  1.00  0.00    -0.508 OA
ATOM     19  H   UNL     1      21.819   0.587  16.709  1.00  0.00     0.293 HD
ENDBRANCH  15  18
BRANCH  17  20
ATOM     20  O   UNL     1      17.372   1.204  14.446  1.00  0.00    -0.507 OA
ATOM     21  H   UNL     1      16.934   1.619  13.634  1.00  0.00     0.293 HD
ENDBRANCH  17  20
ENDBRANCH   1  12
BRANCH   2  22
ATOM     22  O   UNL     1      15.853  -1.434  14.710  1.00  0.00    -0.502 OA
ATOM     23  H   UNL     1      15.135  -1.961  15.194  1.00  0.00     0.293 HD
ENDBRANCH   2  22
BRANCH   6  24
ATOM     24  O   UNL     1      12.887  -2.750  10.480  1.00  0.00    -0.507 OA
ATOM     25  H   UNL     1      12.271  -2.330  11.160  1.00  0.00     0.293 HD
ENDBRANCH   6  24
BRANCH   8  26
ATOM     26  O   UNL     1      15.953  -1.686   6.942  1.00  0.00    -0.508 OA
ATOM     27  H   UNL     1      16.280  -0.826   6.516  1.00  0.00     0.293 HD
ENDBRANCH   8  26
TORSDOF 6
ENDMDL
MODEL 7
REMARK VINA RESULT:    -5.901      2.903      6.643
REMARK INTER + INTRA:          -7.507
REMARK INTER:                  -7.123
REMARK INTRA:                  -0.384
REMARK UNBOUND:                -0.399
REMARK SMILES O=c1c(O)c(-c2ccc(O)cc2O)oc2cc(O)cc(O)c12
REMARK SMILES IDX 5 1 3 2 2 3 1 4 22 5 20 6 19 7 17 8 16 9 15 10 14 11 6 12
REMARK SMILES IDX 8 13 7 14 9 15 11 16 12 17 10 18 13 20 4 22 21 24 18 26
REMARK H PARENT 10 19 13 21 4 23 21 25 18 27
REMARK Flexibility Score: inf
ROOT
ATOM      1  C   UNL     1      18.200  -0.940  12.557  1.00  0.00     0.184 A 
ATOM      2  C   UNL     1      18.397  -1.184  11.190  1.00  0.00     0.208 A 
ATOM      3  C   UNL     1      17.291  -1.511  10.391  1.00  0.00     0.238 A 
ATOM      4  O   UNL     1      17.483  -1.788   9.179  1.00  0.00    -0.285 OA
ATOM      5  C   UNL     1      15.997  -1.562  10.966  1.00  0.00     0.111 A 
ATOM      6  C   UNL     1      14.799  -1.845  10.243  1.00  0.00     0.134 A 
ATOM      7  C   UNL     1      13.591  -1.990  10.938  1.00  0.00     0.093 A 
ATOM      8  C   UNL     1      13.528  -1.797  12.321  1.00  0.00     0.123 A 
ATOM      9  C   UNL     1      14.681  -1.464  13.026  1.00  0.00     0.094 A 
ATOM     10  C   UNL     1      15.907  -1.350  12.367  1.00  0.00     0.146 A 
ATOM     11  O   UNL     1      16.985  -1.044  13.081  1.00  0.00    -0.451 OA
ENDROOT
BRANCH   1  12
ATOM     12  C   UNL     1      19.324  -0.568  13.444  1.00  0.00     0.063 A 
ATOM     13  C   UNL     1      21.059  -1.251  15.007  1.00  0.00     0.047 A 
ATOM     14  C   UNL     1      19.961  -1.565  14.203  1.00  0.00     0.020 A 
ATOM     15  C   UNL     1      21.542   0.058  15.059  1.00  0.00     0.119 A 
ATOM     16  C   UNL     1      20.916   1.059  14.306  1.00  0.00     0.093 A 
ATOM     17  C   UNL     1      19.807   0.760  13.504  1.00  0.00     0.130 A 
BRANCH  15  18
ATOM     18  O   UNL     1      22.641   0.354  15.861  1.00  0.00    -0.508 OA
ATOM     19  H   UNL     1      23.219  -0.377  16.258  1.00  0.00     0.293 HD
ENDBRANCH  15  18
BRANCH  17  20
ATOM     20  O   UNL     1      19.200   1.803  12.803  1.00  0.00    -0.507 OA
ATOM     21  H   UNL     1      18.618   1.657  11.988  1.00  0.00     0.293 HD
ENDBRANCH  17  20
ENDBRANCH   1  12
BRANCH   2  22
ATOM     22  O   UNL     1      19.684  -1.123  10.650  1.00  0.00    -0.502 OA
ATOM     23  H   UNL     1      20.053  -1.847  10.044  1.00  0.00     0.293 HD
ENDBRANCH   2  22
BRANCH   6  24
ATOM     24  O   UNL     1      14.736  -1.966   8.852  1.00  0.00    -0.507 OA
ATOM     25  H   UNL     1      14.075  -1.485   8.261  1.00  0.00     0.293 HD
ENDBRANCH   6  24
BRANCH   8  26
ATOM     26  O   UNL     1      12.320  -1.927  13.001  1.00  0.00    -0.508 OA
ATOM     27  H   UNL     1      11.449  -2.097  12.509  1.00  0.00     0.293 HD
ENDBRANCH   8  26
TORSDOF 6
ENDMDL
MODEL 8
REMARK VINA RESULT:    -5.815      1.992      7.273
REMARK INTER + INTRA:          -7.404
REMARK INTER:                  -7.038
REMARK INTRA:                  -0.366
REMARK UNBOUND:                -0.399
REMARK SMILES O=c1c(O)c(-c2ccc(O)cc2O)oc2cc(O)cc(O)c12
REMARK SMILES IDX 5 1 3 2 2 3 1 4 22 5 20 6 19 7 17 8 16 9 15 10 14 11 6 12
REMARK SMILES IDX 8 13 7 14 9 15 11 16 12 17 10 18 13 20 4 22 21 24 18 26
REMARK H PARENT 10 19 13 21 4 23 21 25 18 27
REMARK Flexibility Score: inf
ROOT
ATOM      1  C   UNL     1      16.051  -1.243  13.816  1.00  0.00     0.184 A 
ATOM      2  C   UNL     1      15.533  -1.356  12.518  1.00  0.00     0.208 A 
ATOM      3  C   UNL     1      14.166  -1.622  12.351  1.00  0.00     0.238 A 
ATOM      4  O   UNL     1      13.719  -1.782  11.186  1.00  0.00    -0.285 OA
ATOM      5  C   UNL     1      13.329  -1.744  13.488  1.00  0.00     0.111 A 
ATOM      6  C   UNL     1      11.921  -1.975  13.437  1.00  0.00     0.134 A 
ATOM      7  C   UNL     1      11.215  -2.200  14.626  1.00  0.00     0.093 A 
ATOM      8  C   UNL     1      11.854  -2.138  15.866  1.00  0.00     0.123 A 
ATOM      9  C   UNL     1      13.216  -1.857  15.929  1.00  0.00     0.094 A 
ATOM     10  C   UNL     1      13.955  -1.665  14.760  1.00  0.00     0.146 A 
ATOM     11  O   UNL     1      15.255  -1.413  14.865  1.00  0.00    -0.451 OA
ENDROOT
BRANCH   1  12
ATOM     12  C   UNL     1      17.479  -0.940  14.053  1.00  0.00     0.063 A 
ATOM     13  C   UNL     1      19.806  -1.646  13.941  1.00  0.00     0.047 A 
ATOM     14  C   UNL     1      18.446  -1.922  13.778  1.00  0.00     0.020 A 
ATOM     15  C   UNL     1      20.220  -0.385  14.372  1.00  0.00     0.119 A 
ATOM     16  C   UNL     1      19.265   0.603  14.648  1.00  0.00     0.093 A 
ATOM     17  C   UNL     1      17.898   0.335  14.500  1.00  0.00     0.130 A 
BRANCH  15  18
ATOM     18  O   UNL     1      21.578  -0.122  14.525  1.00  0.00    -0.508 OA
ATOM     19  H   UNL     1      22.124   0.296  13.779  1.00  0.00     0.293 HD
ENDBRANCH  15  18
BRANCH  17  20
ATOM     20  O   UNL     1      16.989   1.343  14.824  1.00  0.00    -0.507 OA
ATOM     21  H   UNL     1      17.235   2.154  15.376  1.00  0.00     0.293 HD
ENDBRANCH  17  20
ENDBRANCH   1  12
BRANCH   2  22
ATOM     22  O   UNL     1      16.382  -1.227  11.415  1.00  0.00    -0.502 OA
ATOM     23  H   UNL     1      16.644  -0.325  11.034  1.00  0.00     0.293 HD
ENDBRANCH   2  22
BRANCH   6  24
ATOM     24  O   UNL     1      11.170  -1.965  12.258  1.00  0.00    -0.507 OA
ATOM     25  H   UNL     1      11.402  -1.438  11.430  1.00  0.00     0.293 HD
ENDBRANCH   6  24
BRANCH   8  26
ATOM     26  O   UNL     1      11.141  -2.348  17.044  1.00  0.00    -0.508 OA
ATOM     27  H   UNL     1      10.315  -1.804  17.268  1.00  0.00     0.293 HD
ENDBRANCH   8  26
TORSDOF 6
ENDMDL
MODEL 9
REMARK VINA RESULT:    -5.693      2.564      6.799
REMARK INTER + INTRA:          -7.256
REMARK INTER:                  -6.912
REMARK INTRA:                  -0.345
REMARK UNBOUND:                -0.399
REMARK SMILES O=c1c(O)c(-c2ccc(O)cc2O)oc2cc(O)cc(O)c12
REMARK SMILES IDX 5 1 3 2 2 3 1 4 22 5 20 6 19 7 17 8 16 9 15 10 14 11 6 12
REMARK SMILES IDX 8 13 7 14 9 15 11 16 12 17 10 18 13 20 4 22 21 24 18 26
REMARK H PARENT 10 19 13 21 4 23 21 25 18 27
REMARK Flexibility Score: inf
ROOT
ATOM      1  C   UNL     1      17.446  -1.273  12.953  1.00  0.00     0.184 A 
ATOM      2  C   UNL     1      16.804  -1.673  14.134  1.00  0.00     0.208 A 
ATOM      3  C   UNL     1      15.459  -2.070  14.077  1.00  0.00     0.238 A 
ATOM      4  O   UNL     1      14.872  -2.368  15.149  1.00  0.00    -0.285 OA
ATOM      5  C   UNL     1      14.783  -2.088  12.833  1.00  0.00     0.111 A 
ATOM      6  C   UNL     1      13.431  -2.509  12.651  1.00  0.00     0.134 A 
ATOM      7  C   UNL     1      12.827  -2.370  11.394  1.00  0.00     0.093 A 
ATOM      8  C   UNL     1      13.546  -1.885  10.299  1.00  0.00     0.123 A 
ATOM      9  C   UNL     1      14.883  -1.526  10.453  1.00  0.00     0.094 A 
ATOM     10  C   UNL     1      15.502  -1.618  11.702  1.00  0.00     0.146 A 
ATOM     11  O   UNL     1      16.774  -1.251  11.808  1.00  0.00    -0.451 OA
ENDROOT
BRANCH   1  12
ATOM     12  C   UNL     1      18.867  -0.868  12.947  1.00  0.00     0.063 A 
ATOM     13  C   UNL     1      21.169  -1.348  12.316  1.00  0.00     0.047 A 
ATOM     14  C   UNL     1      19.827  -1.728  12.384  1.00  0.00     0.020 A 
ATOM     15  C   UNL     1      21.572  -0.102  12.801  1.00  0.00     0.119 A 
ATOM     16  C   UNL     1      20.625   0.764  13.363  1.00  0.00     0.093 A 
ATOM     17  C   UNL     1      19.278   0.391  13.447  1.00  0.00     0.130 A 
BRANCH  15  18
ATOM     18  O   UNL     1      22.913   0.266  12.722  1.00  0.00    -0.508 OA
ATOM     19  H   UNL     1      23.271   0.792  11.934  1.00  0.00     0.293 HD
ENDBRANCH  15  18
BRANCH  17  20
ATOM     20  O   UNL     1      18.383   1.277  14.049  1.00  0.00    -0.507 OA
ATOM     21  H   UNL     1      18.293   1.375  15.052  1.00  0.00     0.293 HD
ENDBRANCH  17  20
ENDBRANCH   1  12
BRANCH   2  22
ATOM     22  O   UNL     1      17.497  -1.647  15.347  1.00  0.00    -0.502 OA
ATOM     23  H   UNL     1      18.510  -1.641  15.393  1.00  0.00     0.293 HD
ENDBRANCH   2  22
BRANCH   6  24
ATOM     24  O   UNL     1      12.652  -3.092  13.655  1.00  0.00    -0.507 OA
ATOM     25  H   UNL     1      12.996  -3.372  14.562  1.00  0.00     0.293 HD
ENDBRANCH   6  24
BRANCH   8  26
ATOM     26  O   UNL     1      12.942  -1.765   9.050  1.00  0.00    -0.508 OA
ATOM     27  H   UNL     1      12.380  -2.512   8.658  1.00  0.00     0.293 HD
ENDBRANCH   8  26
TORSDOF 6
ENDMDL
