MODEL 1
REMARK VINA RESULT:    -4.093      0.000      0.000
REMARK INTER + INTRA:          -4.213
REMARK INTER:                  -4.213
REMARK INTRA:                   0.000
REMARK UNBOUND:                 0.000
REMARK SMILES O=c1ccc2ccc(O)cc2o1
REMARK SMILES IDX 6 1 7 2 8 3 10 4 11 5 5 6 4 7 3 8 2 9 1 10 12 11 9 12
REMARK H PARENT 9 13
REMARK Flexibility Score: inf
ROOT
ATOM      1  C   UNL     1       8.074  10.796   7.504  1.00  0.00     0.016 A 
ATOM      2  C   UNL     1       9.042  11.752   7.182  1.00  0.00     0.047 A 
ATOM      3  C   UNL     1       8.691  13.104   7.068  1.00  0.00     0.119 A 
ATOM      4  C   UNL     1       7.363  13.502   7.279  1.00  0.00     0.094 A 
ATOM      5  C   UNL     1       6.388  12.553   7.601  1.00  0.00     0.142 A 
ATOM      6  C   UNL     1       6.745  11.190   7.715  1.00  0.00     0.018 A 
ATOM      7  C   UNL     1       5.748  10.264   8.039  1.00  0.00     0.019 A 
ATOM      8  C   UNL     1       4.441  10.708   8.238  1.00  0.00     0.094 A 
ATOM      9  C   UNL     1       4.161  12.072   8.108  1.00  0.00     0.336 A 
ATOM     10  O   UNL     1       2.987  12.492   8.284  1.00  0.00    -0.246 OA
ATOM     11  O   UNL     1       5.128  12.933   7.799  1.00  0.00    -0.423 OA
ENDROOT
BRANCH   3  12
ATOM     12  O   UNL     1       9.670  14.041   6.747  1.00  0.00    -0.508 OA
ATOM     13  H   UNL     1       9.511  14.753   6.044  1.00  0.00     0.293 HD
ENDBRANCH   3  12
TORSDOF 1
ENDMDL
MODEL 2
REMARK VINA RESULT:    -4.008      2.284      3.091
REMARK INTER + INTRA:          -4.125
REMARK INTER:                  -4.125
REMARK INTRA:                   0.000
REMARK UNBOUND:                 0.000
REMARK SMILES O=c1ccc2ccc(O)cc2o1
REMARK SMILES IDX 6 1 7 2 8 3 10 4 11 5 5 6 4 7 3 8 2 9 1 10 12 11 9 12
REMARK H PARENT 9 13
REMARK Flexibility Score: inf
ROOT
ATOM      1  C   UNL     1       6.304  12.691   7.799  1.00  0.00     0.016 A 
ATOM      2  C   UNL     1       7.343  13.564   7.463  1.00  0.00     0.047 A 
ATOM      3  C   UNL     1       8.600  13.063   7.104  1.00  0.00     0.119 A 
ATOM      4  C   UNL     1       8.821  11.677   7.082  1.00  0.00     0.094 A 
ATOM      5  C   UNL     1       7.788  10.796   7.418  1.00  0.00     0.142 A 
ATOM      6  C   UNL     1       6.520  11.306   7.780  1.00  0.00     0.018 A 
ATOM      7  C   UNL     1       5.507  10.401   8.110  1.00  0.00     0.019 A 
ATOM      8  C   UNL     1       5.774   9.032   8.074  1.00  0.00     0.094 A 
ATOM      9  C   UNL     1       7.053   8.600   7.708  1.00  0.00     0.336 A 
ATOM     10  O   UNL     1       7.312   7.369   7.669  1.00  0.00    -0.246 OA
ATOM     11  O   UNL     1       7.999   9.482   7.397  1.00  0.00    -0.423 OA
ENDROOT
BRANCH   3  12
ATOM     12  O   UNL     1       9.623  13.948   6.771  1.00  0.00    -0.508 OA
ATOM     13  H   UNL     1      10.589  13.647   6.722  1.00  0.00     0.293 HD
ENDBRANCH   3  12
TORSDOF 1
ENDMDL
MODEL 3
REMARK VINA RESULT:    -4.000      1.689      4.794
REMARK INTER + INTRA:          -4.117
REMARK INTER:                  -4.117
REMARK INTRA:                   0.000
REMARK UNBOUND:                 0.000
REMARK SMILES O=c1ccc2ccc(O)cc2o1
REMARK SMILES IDX 6 1 7 2 8 3 10 4 11 5 5 6 4 7 3 8 2 9 1 10 12 11 9 12
REMARK H PARENT 9 13
REMARK Flexibility Score: inf
ROOT
ATOM      1  C   UNL     1       3.798  12.648   7.715  1.00  0.00     0.016 A 
ATOM      2  C   UNL     1       3.046  11.469   7.693  1.00  0.00     0.047 A 
ATOM      3  C   UNL     1       3.685  10.223   7.673  1.00  0.00     0.119 A 
ATOM      4  C   UNL     1       5.086  10.155   7.675  1.00  0.00     0.094 A 
ATOM      5  C   UNL     1       5.846  11.328   7.696  1.00  0.00     0.142 A 
ATOM      6  C   UNL     1       5.198  12.584   7.717  1.00  0.00     0.018 A 
ATOM      7  C   UNL     1       5.985  13.741   7.739  1.00  0.00     0.019 A 
ATOM      8  C   UNL     1       7.375  13.622   7.739  1.00  0.00     0.094 A 
ATOM      9  C   UNL     1       7.947  12.346   7.717  1.00  0.00     0.336 A 
ATOM     10  O   UNL     1       9.199  12.219   7.718  1.00  0.00    -0.246 OA
ATOM     11  O   UNL     1       7.175  11.261   7.698  1.00  0.00    -0.423 OA
ENDROOT
BRANCH   3  12
ATOM     12  O   UNL     1       2.919   9.060   7.652  1.00  0.00    -0.508 OA
ATOM     13  H   UNL     1       2.073   8.972   8.202  1.00  0.00     0.293 HD
ENDBRANCH   3  12
TORSDOF 1
ENDMDL
MODEL 4
REMARK VINA RESULT:    -3.945      1.494      4.160
REMARK INTER + INTRA:          -4.061
REMARK INTER:                  -4.061
REMARK INTRA:                   0.000
REMARK UNBOUND:                 0.000
REMARK SMILES O=c1ccc2ccc(O)cc2o1
REMARK SMILES IDX 6 1 7 2 8 3 10 4 11 5 5 6 4 7 3 8 2 9 1 10 12 11 9 12
REMARK H PARENT 9 13
REMARK Flexibility Score: inf
ROOT
ATOM      1  C   UNL     1       4.122  11.421   7.767  1.00  0.00     0.016 A 
ATOM      2  C   UNL     1       3.241  12.507   7.753  1.00  0.00     0.047 A 
ATOM      3  C   UNL     1       3.734  13.816   7.682  1.00  0.00     0.119 A 
ATOM      4  C   UNL     1       5.118  14.041   7.625  1.00  0.00     0.094 A 
ATOM      5  C   UNL     1       6.006  12.961   7.640  1.00  0.00     0.142 A 
ATOM      6  C   UNL     1       5.506  11.642   7.712  1.00  0.00     0.018 A 
ATOM      7  C   UNL     1       6.418  10.582   7.725  1.00  0.00     0.019 A 
ATOM      8  C   UNL     1       7.784  10.856   7.667  1.00  0.00     0.094 A 
ATOM      9  C   UNL     1       8.207  12.187   7.599  1.00  0.00     0.336 A 
ATOM     10  O   UNL     1       9.437  12.453   7.546  1.00  0.00    -0.246 OA
ATOM     11  O   UNL     1       7.318  13.177   7.587  1.00  0.00    -0.423 OA
ENDROOT
BRANCH   3  12
ATOM     12  O   UNL     1       2.841  14.885   7.668  1.00  0.00    -0.508 OA
ATOM     13  H   UNL     1       3.164  15.846   7.689  1.00  0.00     0.293 HD
ENDBRANCH   3  12
TORSDOF 1
ENDMDL
MODEL 5
REMARK VINA RESULT:    -3.899      2.466      3.436
REMARK INTER + INTRA:          -4.013
REMARK INTER:                  -4.013
REMARK INTRA:                   0.000
REMARK UNBOUND:                 0.000
REMARK SMILES O=c1ccc2ccc(O)cc2o1
REMARK SMILES IDX 6 1 7 2 8 3 10 4 11 5 5 6 4 7 3 8 2 9 1 10 12 11 9 12
REMARK H PARENT 9 13
REMARK Flexibility Score: inf
ROOT
ATOM      1  C   UNL     1       7.835   8.892   6.443  1.00  0.00     0.016 A 
ATOM      2  C   UNL     1       8.971   8.680   5.656  1.00  0.00     0.047 A 
ATOM      3  C   UNL     1      10.017   9.613   5.657  1.00  0.00     0.119 A 
ATOM      4  C   UNL     1       9.925  10.766   6.451  1.00  0.00     0.094 A 
ATOM      5  C   UNL     1       8.792  10.986   7.241  1.00  0.00     0.142 A 
ATOM      6  C   UNL     1       7.739  10.044   7.237  1.00  0.00     0.018 A 
ATOM      7  C   UNL     1       6.619  10.291   8.037  1.00  0.00     0.019 A 
ATOM      8  C   UNL     1       6.573  11.452   8.809  1.00  0.00     0.094 A 
ATOM      9  C   UNL     1       7.652  12.341   8.762  1.00  0.00     0.336 A 
ATOM     10  O   UNL     1       7.628  13.394   9.452  1.00  0.00    -0.246 OA
ATOM     11  O   UNL     1       8.706  12.081   7.992  1.00  0.00    -0.423 OA
ENDROOT
BRANCH   3  12
ATOM     12  O   UNL     1      11.141   9.384   4.868  1.00  0.00    -0.508 OA
ATOM     13  H   UNL     1      11.629  10.144   4.408  1.00  0.00     0.293 HD
ENDBRANCH   3  12
TORSDOF 1
ENDMDL
MODEL 6
REMARK VINA RESULT:    -3.889      1.631      2.167
REMARK INTER + INTRA:          -4.002
REMARK INTER:                  -4.002
REMARK INTRA:                   0.000
REMARK UNBOUND:                 0.000
REMARK SMILES O=c1ccc2ccc(O)cc2o1
REMARK SMILES IDX 6 1 7 2 8 3 10 4 11 5 5 6 4 7 3 8 2 9 1 10 12 11 9 12
REMARK H PARENT 9 13
REMARK Flexibility Score: inf
ROOT
ATOM      1  C   UNL     1       5.923  10.772   7.836  1.00  0.00     0.016 A 
ATOM      2  C   UNL     1       7.320  10.736   7.898  1.00  0.00     0.047 A 
ATOM      3  C   UNL     1       8.060  11.925   7.863  1.00  0.00     0.119 A 
ATOM      4  C   UNL     1       7.399  13.158   7.764  1.00  0.00     0.094 A 
ATOM      5  C   UNL     1       6.003  13.204   7.699  1.00  0.00     0.142 A 
ATOM      6  C   UNL     1       5.259  12.003   7.735  1.00  0.00     0.018 A 
ATOM      7  C   UNL     1       3.864  12.080   7.670  1.00  0.00     0.019 A 
ATOM      8  C   UNL     1       3.252  13.330   7.571  1.00  0.00     0.094 A 
ATOM      9  C   UNL     1       4.053  14.476   7.540  1.00  0.00     0.336 A 
ATOM     10  O   UNL     1       3.519  15.613   7.452  1.00  0.00    -0.246 OA
ATOM     11  O   UNL     1       5.378  14.375   7.604  1.00  0.00    -0.423 OA
ENDROOT
BRANCH   3  12
ATOM     12  O   UNL     1       9.450  11.869   7.927  1.00  0.00    -0.508 OA
ATOM     13  H   UNL     1       9.926  11.288   8.608  1.00  0.00     0.293 HD
ENDBRANCH   3  12
TORSDOF 1
ENDMDL
MODEL 7
REMARK VINA RESULT:    -3.812     11.562     12.223
REMARK INTER + INTRA:          -3.923
REMARK INTER:                  -3.923
REMARK INTRA:                   0.000
REMARK UNBOUND:                 0.000
REMARK SMILES O=c1ccc2ccc(O)cc2o1
REMARK SMILES IDX 6 1 7 2 8 3 10 4 11 5 5 6 4 7 3 8 2 9 1 10 12 11 9 12
REMARK H PARENT 9 13
REMARK Flexibility Score: inf
ROOT
ATOM      1  C   UNL     1      15.377  13.585  -1.464  1.00  0.00     0.016 A 
ATOM      2  C   UNL     1      15.646  12.314  -0.947  1.00  0.00     0.047 A 
ATOM      3  C   UNL     1      14.648  11.332  -0.925  1.00  0.00     0.119 A 
ATOM      4  C   UNL     1      13.369  11.623  -1.424  1.00  0.00     0.094 A 
ATOM      5  C   UNL     1      13.090  12.892  -1.943  1.00  0.00     0.142 A 
ATOM      6  C   UNL     1      14.100  13.880  -1.963  1.00  0.00     0.018 A 
ATOM      7  C   UNL     1      13.791  15.139  -2.488  1.00  0.00     0.019 A 
ATOM      8  C   UNL     1      12.505  15.381  -2.973  1.00  0.00     0.094 A 
ATOM      9  C   UNL     1      11.556  14.355  -2.919  1.00  0.00     0.336 A 
ATOM     10  O   UNL     1      10.391  14.555  -3.352  1.00  0.00    -0.246 OA
ATOM     11  O   UNL     1      11.876  13.166  -2.415  1.00  0.00    -0.423 OA
ENDROOT
BRANCH   3  12
ATOM     12  O   UNL     1      14.936  10.072  -0.406  1.00  0.00    -0.508 OA
ATOM     13  H   UNL     1      15.819   9.877   0.052  1.00  0.00     0.293 HD
ENDBRANCH   3  12
TORSDOF 1
ENDMDL
MODEL 8
REMARK VINA RESULT:    -3.735     11.681     12.862
REMARK INTER + INTRA:          -3.844
REMARK INTER:                  -3.844
REMARK INTRA:                   0.000
REMARK UNBOUND:                 0.000
REMARK SMILES O=c1ccc2ccc(O)cc2o1
REMARK SMILES IDX 6 1 7 2 8 3 10 4 11 5 5 6 4 7 3 8 2 9 1 10 12 11 9 12
REMARK H PARENT 9 13
REMARK Flexibility Score: inf
ROOT
ATOM      1  C   UNL     1      14.318  15.314  -2.447  1.00  0.00     0.016 A 
ATOM      2  C   UNL     1      12.978  15.359  -2.842  1.00  0.00     0.047 A 
ATOM      3  C   UNL     1      12.140  14.257  -2.631  1.00  0.00     0.119 A 
ATOM      4  C   UNL     1      12.646  13.100  -2.020  1.00  0.00     0.094 A 
ATOM      5  C   UNL     1      13.986  13.045  -1.622  1.00  0.00     0.142 A 
ATOM      6  C   UNL     1      14.828  14.159  -1.836  1.00  0.00     0.018 A 
ATOM      7  C   UNL     1      16.163  14.075  -1.427  1.00  0.00     0.019 A 
ATOM      8  C   UNL     1      16.621  12.903  -0.824  1.00  0.00     0.094 A 
ATOM      9  C   UNL     1      15.729  11.840  -0.645  1.00  0.00     0.336 A 
ATOM     10  O   UNL     1      16.124  10.775  -0.102  1.00  0.00    -0.246 OA
ATOM     11  O   UNL     1      14.464  11.947  -1.043  1.00  0.00    -0.423 OA
ENDROOT
BRANCH   3  12
ATOM     12  O   UNL     1      10.807  14.322  -3.031  1.00  0.00    -0.508 OA
ATOM     13  H   UNL     1      10.068  13.904  -2.479  1.00  0.00     0.293 HD
ENDBRANCH   3  12
TORSDOF 1
ENDMDL
MODEL 9
REMARK VINA RESULT:    -3.706      1.992      2.630
REMARK INTER + INTRA:          -3.814
REMARK INTER:                  -3.814
REMARK INTRA:                   0.000
REMARK UNBOUND:                 0.000
REMARK SMILES O=c1ccc2ccc(O)cc2o1
REMARK SMILES IDX 6 1 7 2 8 3 10 4 11 5 5 6 4 7 3 8 2 9 1 10 12 11 9 12
REMARK H PARENT 9 13
REMARK Flexibility Score: inf
ROOT
ATOM      1  C   UNL     1       8.043  12.271   7.874  1.00  0.00     0.016 A 
ATOM      2  C   UNL     1       9.112  11.373   7.793  1.00  0.00     0.047 A 
ATOM      3  C   UNL     1       8.874  10.004   7.620  1.00  0.00     0.119 A 
ATOM      4  C   UNL     1       7.557   9.528   7.528  1.00  0.00     0.094 A 
ATOM      5  C   UNL     1       6.482  10.419   7.609  1.00  0.00     0.142 A 
ATOM      6  C   UNL     1       6.726  11.800   7.783  1.00  0.00     0.018 A 
ATOM      7  C   UNL     1       5.630  12.666   7.860  1.00  0.00     0.019 A 
ATOM      8  C   UNL     1       4.340  12.146   7.763  1.00  0.00     0.094 A 
ATOM      9  C   UNL     1       4.174  10.768   7.592  1.00  0.00     0.336 A 
ATOM     10  O   UNL     1       3.017  10.281   7.502  1.00  0.00    -0.246 OA
ATOM     11  O   UNL     1       5.234   9.966   7.521  1.00  0.00    -0.423 OA
ENDROOT
BRANCH   3  12
ATOM     12  O   UNL     1       9.952   9.125   7.541  1.00  0.00    -0.508 OA
ATOM     13  H   UNL     1      10.819   9.390   7.089  1.00  0.00     0.293 HD
ENDBRANCH   3  12
TORSDOF 1
ENDMDL
