MODEL 1
REMARK VINA RESULT:    -5.446      0.000      0.000
REMARK INTER + INTRA:          -6.885
REMARK INTER:                  -6.560
REMARK INTRA:                  -0.325
REMARK UNBOUND:                -0.325
REMARK SMILES O=c1c(O)c(-c2ccc(O)c(O)c2)oc2cc(O)cc(O)c12
REMARK SMILES IDX 5 1 3 2 2 3 1 4 22 5 20 6 19 7 17 8 16 9 15 10 14 11 6 12
REMARK SMILES IDX 7 13 8 14 9 15 13 16 11 17 10 18 12 20 4 22 21 24 18 26
REMARK H PARENT 10 19 12 21 4 23 21 25 18 27
REMARK Flexibility Score: inf
ROOT
ATOM      1  C   UNL     1     109.361 102.627  86.580  1.00  0.00     0.180 A 
ATOM      2  C   UNL     1     109.891 101.754  87.550  1.00  0.00     0.208 A 
ATOM      3  C   UNL     1     109.288 101.703  88.817  1.00  0.00     0.238 A 
ATOM      4  O   UNL     1     109.747 100.917  89.690  1.00  0.00    -0.285 OA
ATOM      5  C   UNL     1     108.187 102.536  89.099  1.00  0.00     0.111 A 
ATOM      6  C   UNL     1     107.526 102.550  90.352  1.00  0.00     0.134 A 
ATOM      7  C   UNL     1     106.442 103.415  90.558  1.00  0.00     0.093 A 
ATOM      8  C   UNL     1     106.006 104.266  89.539  1.00  0.00     0.123 A 
ATOM      9  C   UNL     1     106.654 104.257  88.300  1.00  0.00     0.094 A 
ATOM     10  C   UNL     1     107.735 103.401  88.074  1.00  0.00     0.146 A 
ATOM     11  O   UNL     1     108.330 103.409  86.886  1.00  0.00    -0.452 OA
ENDROOT
BRANCH   1  12
ATOM     12  C   UNL     1     109.927 102.723  85.215  1.00  0.00     0.025 A 
ATOM     13  C   UNL     1     109.450 101.869  84.208  1.00  0.00     0.016 A 
ATOM     14  C   UNL     1     109.984 101.928  82.918  1.00  0.00     0.051 A 
ATOM     15  C   UNL     1     111.014 102.830  82.621  1.00  0.00     0.157 A 
ATOM     16  C   UNL     1     110.975 103.613  84.917  1.00  0.00     0.062 A 
ATOM     17  C   UNL     1     111.514 103.673  83.627  1.00  0.00     0.158 A 
BRANCH  15  18
ATOM     18  O   UNL     1     111.544 102.888  81.332  1.00  0.00    -0.504 OA
ATOM     19  H   UNL     1     110.950 102.991  80.519  1.00  0.00     0.293 HD
ENDBRANCH  15  18
BRANCH  17  20
ATOM     20  O   UNL     1     112.548 104.572  83.367  1.00  0.00    -0.504 OA
ATOM     21  H   UNL     1     112.372 105.518  83.051  1.00  0.00     0.293 HD
ENDBRANCH  17  20
ENDBRANCH   1  12
BRANCH   2  22
ATOM     22  O   UNL     1     111.013 100.975  87.261  1.00  0.00    -0.502 OA
ATOM     23  H   UNL     1     111.041  99.977  87.435  1.00  0.00     0.293 HD
ENDBRANCH   2  22
BRANCH   6  24
ATOM     24  O   UNL     1     107.938 101.712  91.390  1.00  0.00    -0.507 OA
ATOM     25  H   UNL     1     108.797 101.881  91.902  1.00  0.00     0.293 HD
ENDBRANCH   6  24
BRANCH   8  26
ATOM     26  O   UNL     1     104.928 105.117  89.770  1.00  0.00    -0.508 OA
ATOM     27  H   UNL     1     104.155 104.843  90.368  1.00  0.00     0.293 HD
ENDBRANCH   8  26
TORSDOF 6
ENDMDL
MODEL 2
REMARK VINA RESULT:    -5.251      2.308      4.088
REMARK INTER + INTRA:          -6.650
REMARK INTER:                  -6.891
REMARK INTRA:                   0.241
REMARK UNBOUND:                -0.325
REMARK SMILES O=c1c(O)c(-c2ccc(O)c(O)c2)oc2cc(O)cc(O)c12
REMARK SMILES IDX 5 1 3 2 2 3 1 4 22 5 20 6 19 7 17 8 16 9 15 10 14 11 6 12
REMARK SMILES IDX 7 13 8 14 9 15 13 16 11 17 10 18 12 20 4 22 21 24 18 26
REMARK H PARENT 10 19 12 21 4 23 21 25 18 27
REMARK Flexibility Score: inf
ROOT
ATOM      1  C   UNL     1     108.993 102.425  85.480  1.00  0.00     0.180 A 
ATOM      2  C   UNL     1     107.965 102.626  86.421  1.00  0.00     0.208 A 
ATOM      3  C   UNL     1     108.185 102.247  87.755  1.00  0.00     0.238 A 
ATOM      4  O   UNL     1     107.275 102.432  88.609  1.00  0.00    -0.285 OA
ATOM      5  C   UNL     1     109.412 101.656  88.119  1.00  0.00     0.111 A 
ATOM      6  C   UNL     1     109.710 101.242  89.440  1.00  0.00     0.134 A 
ATOM      7  C   UNL     1     110.951 100.653  89.721  1.00  0.00     0.093 A 
ATOM      8  C   UNL     1     111.898 100.471  88.710  1.00  0.00     0.123 A 
ATOM      9  C   UNL     1     111.610 100.879  87.404  1.00  0.00     0.094 A 
ATOM     10  C   UNL     1     110.379 101.469  87.104  1.00  0.00     0.146 A 
ATOM     11  O   UNL     1     110.132 101.851  85.856  1.00  0.00    -0.452 OA
ENDROOT
BRANCH   1  12
ATOM     12  C   UNL     1     108.846 102.817  84.059  1.00  0.00     0.025 A 
ATOM     13  C   UNL     1     109.574 102.130  83.075  1.00  0.00     0.016 A 
ATOM     14  C   UNL     1     109.467 102.495  81.730  1.00  0.00     0.051 A 
ATOM     15  C   UNL     1     108.643 103.564  81.353  1.00  0.00     0.157 A 
ATOM     16  C   UNL     1     108.036 103.902  83.678  1.00  0.00     0.062 A 
ATOM     17  C   UNL     1     107.928 104.272  82.332  1.00  0.00     0.158 A 
BRANCH  15  18
ATOM     18  O   UNL     1     108.537 103.926  80.010  1.00  0.00    -0.504 OA
ATOM     19  H   UNL     1     108.438 103.231  79.280  1.00  0.00     0.293 HD
ENDBRANCH  15  18
BRANCH  17  20
ATOM     20  O   UNL     1     107.112 105.350  81.991  1.00  0.00    -0.504 OA
ATOM     21  H   UNL     1     106.933 106.114  82.632  1.00  0.00     0.293 HD
ENDBRANCH  17  20
ENDBRANCH   1  12
BRANCH   2  22
ATOM     22  O   UNL     1     106.741 103.168  86.024  1.00  0.00    -0.502 OA
ATOM     23  H   UNL     1     105.958 102.591  85.740  1.00  0.00     0.293 HD
ENDBRANCH   2  22
BRANCH   6  24
ATOM     24  O   UNL     1     108.785 101.409  90.471  1.00  0.00    -0.507 OA
ATOM     25  H   UNL     1     108.346 102.305  90.653  1.00  0.00     0.293 HD
ENDBRANCH   6  24
BRANCH   8  26
ATOM     26  O   UNL     1     113.124  99.883  89.016  1.00  0.00    -0.508 OA
ATOM     27  H   UNL     1     113.794  99.648  88.292  1.00  0.00     0.293 HD
ENDBRANCH   8  26
TORSDOF 6
ENDMDL
MODEL 3
REMARK VINA RESULT:    -5.228      2.039      6.631
REMARK INTER + INTRA:          -6.622
REMARK INTER:                  -6.379
REMARK INTRA:                  -0.243
REMARK UNBOUND:                -0.325
REMARK SMILES O=c1c(O)c(-c2ccc(O)c(O)c2)oc2cc(O)cc(O)c12
REMARK SMILES IDX 5 1 3 2 2 3 1 4 22 5 20 6 19 7 17 8 16 9 15 10 14 11 6 12
REMARK SMILES IDX 7 13 8 14 9 15 13 16 11 17 10 18 12 20 4 22 21 24 18 26
REMARK H PARENT 10 19 12 21 4 23 21 25 18 27
REMARK Flexibility Score: inf
ROOT
ATOM      1  C   UNL     1     108.884 103.027  88.866  1.00  0.00     0.180 A 
ATOM      2  C   UNL     1     109.313 101.849  89.506  1.00  0.00     0.208 A 
ATOM      3  C   UNL     1     110.478 101.214  89.048  1.00  0.00     0.238 A 
ATOM      4  O   UNL     1     110.878 100.164  89.621  1.00  0.00    -0.285 OA
ATOM      5  C   UNL     1     111.179 101.752  87.950  1.00  0.00     0.111 A 
ATOM      6  C   UNL     1     112.359 101.171  87.424  1.00  0.00     0.134 A 
ATOM      7  C   UNL     1     112.994 101.762  86.322  1.00  0.00     0.093 A 
ATOM      8  C   UNL     1     112.475 102.919  85.737  1.00  0.00     0.123 A 
ATOM      9  C   UNL     1     111.310 103.498  86.252  1.00  0.00     0.094 A 
ATOM     10  C   UNL     1     110.664 102.925  87.350  1.00  0.00     0.146 A 
ATOM     11  O   UNL     1     109.562 103.498  87.823  1.00  0.00    -0.452 OA
ENDROOT
BRANCH   1  12
ATOM     12  C   UNL     1     107.677 103.766  89.303  1.00  0.00     0.025 A 
ATOM     13  C   UNL     1     107.709 104.488  90.506  1.00  0.00     0.016 A 
ATOM     14  C   UNL     1     106.575 105.176  90.948  1.00  0.00     0.051 A 
ATOM     15  C   UNL     1     105.390 105.137  90.203  1.00  0.00     0.157 A 
ATOM     16  C   UNL     1     106.479 103.712  88.568  1.00  0.00     0.062 A 
ATOM     17  C   UNL     1     105.341 104.398  89.010  1.00  0.00     0.158 A 
BRANCH  15  18
ATOM     18  O   UNL     1     104.260 105.825  90.646  1.00  0.00    -0.504 OA
ATOM     19  H   UNL     1     104.227 106.837  90.658  1.00  0.00     0.293 HD
ENDBRANCH  15  18
BRANCH  17  20
ATOM     20  O   UNL     1     104.172 104.326  88.252  1.00  0.00    -0.504 OA
ATOM     21  H   UNL     1     104.143 104.611  87.280  1.00  0.00     0.293 HD
ENDBRANCH  17  20
ENDBRANCH   1  12
BRANCH   2  22
ATOM     22  O   UNL     1     108.573 101.309  90.561  1.00  0.00    -0.502 OA
ATOM     23  H   UNL     1     107.772 101.783  90.960  1.00  0.00     0.293 HD
ENDBRANCH   2  22
BRANCH   6  24
ATOM     24  O   UNL     1     112.902 100.015  87.985  1.00  0.00    -0.507 OA
ATOM     25  H   UNL     1     112.892  99.854  88.986  1.00  0.00     0.293 HD
ENDBRANCH   6  24
BRANCH   8  26
ATOM     26  O   UNL     1     113.124 103.486  84.642  1.00  0.00    -0.508 OA
ATOM     27  H   UNL     1     112.743 104.290  84.157  1.00  0.00     0.293 HD
ENDBRANCH   8  26
TORSDOF 6
ENDMDL
MODEL 4
REMARK VINA RESULT:    -5.211      2.897      6.739
REMARK INTER + INTRA:          -6.602
REMARK INTER:                  -6.306
REMARK INTRA:                  -0.296
REMARK UNBOUND:                -0.325
REMARK SMILES O=c1c(O)c(-c2ccc(O)c(O)c2)oc2cc(O)cc(O)c12
REMARK SMILES IDX 5 1 3 2 2 3 1 4 22 5 20 6 19 7 17 8 16 9 15 10 14 11 6 12
REMARK SMILES IDX 7 13 8 14 9 15 13 16 11 17 10 18 12 20 4 22 21 24 18 26
REMARK H PARENT 10 19 12 21 4 23 21 25 18 27
REMARK Flexibility Score: inf
ROOT
ATOM      1  C   UNL     1     110.104 102.070  86.089  1.00  0.00     0.180 A 
ATOM      2  C   UNL     1     108.752 102.454  86.006  1.00  0.00     0.208 A 
ATOM      3  C   UNL     1     108.234 102.847  84.762  1.00  0.00     0.238 A 
ATOM      4  O   UNL     1     107.021 103.183  84.673  1.00  0.00    -0.285 OA
ATOM      5  C   UNL     1     109.077 102.872  83.632  1.00  0.00     0.111 A 
ATOM      6  C   UNL     1     108.635 103.261  82.344  1.00  0.00     0.134 A 
ATOM      7  C   UNL     1     109.538 103.267  81.271  1.00  0.00     0.093 A 
ATOM      8  C   UNL     1     110.871 102.895  81.460  1.00  0.00     0.123 A 
ATOM      9  C   UNL     1     111.314 102.510  82.730  1.00  0.00     0.094 A 
ATOM     10  C   UNL     1     110.429 102.495  83.811  1.00  0.00     0.146 A 
ATOM     11  O   UNL     1     110.874 102.120  85.006  1.00  0.00    -0.452 OA
ENDROOT
BRANCH   1  12
ATOM     12  C   UNL     1     110.719 101.624  87.360  1.00  0.00     0.025 A 
ATOM     13  C   UNL     1     110.499 100.312  87.809  1.00  0.00     0.016 A 
ATOM     14  C   UNL     1     111.052  99.875  89.016  1.00  0.00     0.051 A 
ATOM     15  C   UNL     1     111.819 100.748  89.799  1.00  0.00     0.157 A 
ATOM     16  C   UNL     1     111.472 102.503  88.159  1.00  0.00     0.062 A 
ATOM     17  C   UNL     1     112.025 102.069  89.370  1.00  0.00     0.158 A 
BRANCH  15  18
ATOM     18  O   UNL     1     112.370 100.309  91.002  1.00  0.00    -0.504 OA
ATOM     19  H   UNL     1     113.313 100.560  91.276  1.00  0.00     0.293 HD
ENDBRANCH  15  18
BRANCH  17  20
ATOM     20  O   UNL     1     112.771 102.967  90.133  1.00  0.00    -0.504 OA
ATOM     21  H   UNL     1     113.614 103.403  89.778  1.00  0.00     0.293 HD
ENDBRANCH  17  20
ENDBRANCH   1  12
BRANCH   2  22
ATOM     22  O   UNL     1     107.950 102.468  87.150  1.00  0.00    -0.502 OA
ATOM     23  H   UNL     1     106.985 102.772  87.133  1.00  0.00     0.293 HD
ENDBRANCH   2  22
BRANCH   6  24
ATOM     24  O   UNL     1     107.310 103.639  82.124  1.00  0.00    -0.507 OA
ATOM     25  H   UNL     1     106.542 103.211  82.629  1.00  0.00     0.293 HD
ENDBRANCH   6  24
BRANCH   8  26
ATOM     26  O   UNL     1     111.748 102.912  80.377  1.00  0.00    -0.508 OA
ATOM     27  H   UNL     1     112.688 103.283  80.462  1.00  0.00     0.293 HD
ENDBRANCH   8  26
TORSDOF 6
ENDMDL
MODEL 5
REMARK VINA RESULT:    -5.070      5.497      9.009
REMARK INTER + INTRA:          -6.432
REMARK INTER:                  -6.180
REMARK INTRA:                  -0.252
REMARK UNBOUND:                -0.325
REMARK SMILES O=c1c(O)c(-c2ccc(O)c(O)c2)oc2cc(O)cc(O)c12
REMARK SMILES IDX 5 1 3 2 2 3 1 4 22 5 20 6 19 7 17 8 16 9 15 10 14 11 6 12
REMARK SMILES IDX 7 13 8 14 9 15 13 16 11 17 10 18 12 20 4 22 21 24 18 26
REMARK H PARENT 10 19 12 21 4 23 21 25 18 27
REMARK Flexibility Score: inf
ROOT
ATOM      1  C   UNL     1     107.242 104.211  79.885  1.00  0.00     0.180 A 
ATOM      2  C   UNL     1     108.270 104.372  78.937  1.00  0.00     0.208 A 
ATOM      3  C   UNL     1     109.577 103.994  79.284  1.00  0.00     0.238 A 
ATOM      4  O   UNL     1     110.505 104.124  78.439  1.00  0.00    -0.285 OA
ATOM      5  C   UNL     1     109.837 103.485  80.572  1.00  0.00     0.111 A 
ATOM      6  C   UNL     1     111.125 103.086  81.003  1.00  0.00     0.134 A 
ATOM      7  C   UNL     1     111.304 102.597  82.305  1.00  0.00     0.093 A 
ATOM      8  C   UNL     1     110.223 102.500  83.184  1.00  0.00     0.123 A 
ATOM      9  C   UNL     1     108.947 102.892  82.764  1.00  0.00     0.094 A 
ATOM     10  C   UNL     1     108.748 103.380  81.471  1.00  0.00     0.146 A 
ATOM     11  O   UNL     1     107.526 103.741  81.096  1.00  0.00    -0.452 OA
ENDROOT
BRANCH   1  12
ATOM     12  C   UNL     1     105.835 104.567  79.587  1.00  0.00     0.025 A 
ATOM     13  C   UNL     1     105.246 105.658  80.245  1.00  0.00     0.016 A 
ATOM     14  C   UNL     1     103.915 106.000  79.996  1.00  0.00     0.051 A 
ATOM     15  C   UNL     1     103.148 105.246  79.097  1.00  0.00     0.157 A 
ATOM     16  C   UNL     1     105.056 103.800  78.702  1.00  0.00     0.062 A 
ATOM     17  C   UNL     1     103.721 104.139  78.451  1.00  0.00     0.158 A 
BRANCH  15  18
ATOM     18  O   UNL     1     101.820 105.590  78.849  1.00  0.00    -0.504 OA
ATOM     19  H   UNL     1     101.437 105.587  77.912  1.00  0.00     0.293 HD
ENDBRANCH  15  18
BRANCH  17  20
ATOM     20  O   UNL     1     102.981 103.359  77.563  1.00  0.00    -0.504 OA
ATOM     21  H   UNL     1     103.167 103.356  76.567  1.00  0.00     0.293 HD
ENDBRANCH  17  20
ENDBRANCH   1  12
BRANCH   2  22
ATOM     22  O   UNL     1     107.995 104.925  77.684  1.00  0.00    -0.502 OA
ATOM     23  H   UNL     1     108.461 105.758  77.344  1.00  0.00     0.293 HD
ENDBRANCH   2  22
BRANCH   6  24
ATOM     24  O   UNL     1     112.226 103.172  80.149  1.00  0.00    -0.507 OA
ATOM     25  H   UNL     1     112.888 102.410  80.054  1.00  0.00     0.293 HD
ENDBRANCH   6  24
BRANCH   8  26
ATOM     26  O   UNL     1     110.427 102.012  84.472  1.00  0.00    -0.508 OA
ATOM     27  H   UNL     1     109.670 101.957  85.145  1.00  0.00     0.293 HD
ENDBRANCH   8  26
TORSDOF 6
ENDMDL
MODEL 6
REMARK VINA RESULT:    -5.048      1.833      3.293
REMARK INTER + INTRA:          -6.406
REMARK INTER:                  -6.395
REMARK INTRA:                  -0.010
REMARK UNBOUND:                -0.325
REMARK SMILES O=c1c(O)c(-c2ccc(O)c(O)c2)oc2cc(O)cc(O)c12
REMARK SMILES IDX 5 1 3 2 2 3 1 4 22 5 20 6 19 7 17 8 16 9 15 10 14 11 6 12
REMARK SMILES IDX 7 13 8 14 9 15 13 16 11 17 10 18 12 20 4 22 21 24 18 26
REMARK H PARENT 10 19 12 21 4 23 21 25 18 27
REMARK Flexibility Score: inf
ROOT
ATOM      1  C   UNL     1     109.408 102.854  85.047  1.00  0.00     0.180 A 
ATOM      2  C   UNL     1     108.040 102.970  85.360  1.00  0.00     0.208 A 
ATOM      3  C   UNL     1     107.621 102.712  86.675  1.00  0.00     0.238 A 
ATOM      4  O   UNL     1     106.399 102.823  86.969  1.00  0.00    -0.285 OA
ATOM      5  C   UNL     1     108.568 102.324  87.645  1.00  0.00     0.111 A 
ATOM      6  C   UNL     1     108.228 102.042  88.990  1.00  0.00     0.134 A 
ATOM      7  C   UNL     1     109.227 101.653  89.894  1.00  0.00     0.093 A 
ATOM      8  C   UNL     1     110.556 101.541  89.480  1.00  0.00     0.123 A 
ATOM      9  C   UNL     1     110.899 101.819  88.153  1.00  0.00     0.094 A 
ATOM     10  C   UNL     1     109.918 102.209  87.238  1.00  0.00     0.146 A 
ATOM     11  O   UNL     1     110.271 102.471  85.984  1.00  0.00    -0.452 OA
ENDROOT
BRANCH   1  12
ATOM     12  C   UNL     1     109.930 103.128  83.689  1.00  0.00     0.025 A 
ATOM     13  C   UNL     1     109.378 102.454  82.588  1.00  0.00     0.016 A 
ATOM     14  C   UNL     1     109.868 102.681  81.300  1.00  0.00     0.051 A 
ATOM     15  C   UNL     1     110.929 103.574  81.095  1.00  0.00     0.157 A 
ATOM     16  C   UNL     1     111.008 104.008  83.481  1.00  0.00     0.062 A 
ATOM     17  C   UNL     1     111.503 104.236  82.192  1.00  0.00     0.158 A 
BRANCH  15  18
ATOM     18  O   UNL     1     111.415 103.800  79.808  1.00  0.00    -0.504 OA
ATOM     19  H   UNL     1     112.110 104.513  79.621  1.00  0.00     0.293 HD
ENDBRANCH  15  18
BRANCH  17  20
ATOM     20  O   UNL     1     112.569 105.119  82.024  1.00  0.00    -0.504 OA
ATOM     21  H   UNL     1     112.662 105.963  82.578  1.00  0.00     0.293 HD
ENDBRANCH  17  20
ENDBRANCH   1  12
BRANCH   2  22
ATOM     22  O   UNL     1     107.115 103.307  84.369  1.00  0.00    -0.502 OA
ATOM     23  H   UNL     1     106.301 103.878  84.559  1.00  0.00     0.293 HD
ENDBRANCH   2  22
BRANCH   6  24
ATOM     24  O   UNL     1     106.909 102.145  89.434  1.00  0.00    -0.507 OA
ATOM     25  H   UNL     1     106.669 102.648  90.281  1.00  0.00     0.293 HD
ENDBRANCH   6  24
BRANCH   8  26
ATOM     26  O   UNL     1     111.530 101.151  90.398  1.00  0.00    -0.508 OA
ATOM     27  H   UNL     1     112.324 101.744  90.611  1.00  0.00     0.293 HD
ENDBRANCH   8  26
TORSDOF 6
ENDMDL
MODEL 7
REMARK VINA RESULT:    -4.997     16.150     18.529
REMARK INTER + INTRA:          -6.345
REMARK INTER:                  -6.178
REMARK INTRA:                  -0.167
REMARK UNBOUND:                -0.325
REMARK SMILES O=c1c(O)c(-c2ccc(O)c(O)c2)oc2cc(O)cc(O)c12
REMARK SMILES IDX 5 1 3 2 2 3 1 4 22 5 20 6 19 7 17 8 16 9 15 10 14 11 6 12
REMARK SMILES IDX 7 13 8 14 9 15 13 16 11 17 10 18 12 20 4 22 21 24 18 26
REMARK H PARENT 10 19 12 21 4 23 21 25 18 27
REMARK Flexibility Score: inf
ROOT
ATOM      1  C   UNL     1     100.419 116.931  82.724  1.00  0.00     0.180 A 
ATOM      2  C   UNL     1     101.820 117.024  82.828  1.00  0.00     0.208 A 
ATOM      3  C   UNL     1     102.529 117.706  81.826  1.00  0.00     0.238 A 
ATOM      4  O   UNL     1     103.784 117.805  81.914  1.00  0.00    -0.285 OA
ATOM      5  C   UNL     1     101.833 118.262  80.734  1.00  0.00     0.111 A 
ATOM      6  C   UNL     1     102.473 118.960  79.681  1.00  0.00     0.134 A 
ATOM      7  C   UNL     1     101.710 119.476  78.624  1.00  0.00     0.093 A 
ATOM      8  C   UNL     1     100.324 119.309  78.597  1.00  0.00     0.123 A 
ATOM      9  C   UNL     1      99.685 118.620  79.635  1.00  0.00     0.094 A 
ATOM     10  C   UNL     1     100.428 118.100  80.698  1.00  0.00     0.146 A 
ATOM     11  O   UNL     1      99.796 117.454  81.672  1.00  0.00    -0.452 OA
ENDROOT
BRANCH   1  12
ATOM     12  C   UNL     1      99.598 116.245  83.750  1.00  0.00     0.025 A 
ATOM     13  C   UNL     1      99.547 116.765  85.053  1.00  0.00     0.016 A 
ATOM     14  C   UNL     1      98.796 116.124  86.041  1.00  0.00     0.051 A 
ATOM     15  C   UNL     1      98.099 114.945  85.745  1.00  0.00     0.157 A 
ATOM     16  C   UNL     1      98.913 115.051  83.462  1.00  0.00     0.062 A 
ATOM     17  C   UNL     1      98.162 114.405  84.451  1.00  0.00     0.158 A 
BRANCH  15  18
ATOM     18  O   UNL     1      97.349 114.308  86.734  1.00  0.00    -0.504 OA
ATOM     19  H   UNL     1      97.770 113.645  87.373  1.00  0.00     0.293 HD
ENDBRANCH  15  18
BRANCH  17  20
ATOM     20  O   UNL     1      97.491 113.225  84.128  1.00  0.00    -0.504 OA
ATOM     21  H   UNL     1      96.489 113.199  83.982  1.00  0.00     0.293 HD
ENDBRANCH  17  20
ENDBRANCH   1  12
BRANCH   2  22
ATOM     22  O   UNL     1     102.491 116.422  83.895  1.00  0.00    -0.502 OA
ATOM     23  H   UNL     1     102.349 116.707  84.856  1.00  0.00     0.293 HD
ENDBRANCH   2  22
BRANCH   6  24
ATOM     24  O   UNL     1     103.856 119.143  79.679  1.00  0.00    -0.507 OA
ATOM     25  H   UNL     1     104.353 119.437  78.845  1.00  0.00     0.293 HD
ENDBRANCH   6  24
BRANCH   8  26
ATOM     26  O   UNL     1      99.589 119.831  77.535  1.00  0.00    -0.508 OA
ATOM     27  H   UNL     1      99.271 120.793  77.533  1.00  0.00     0.293 HD
ENDBRANCH   8  26
TORSDOF 6
ENDMDL
MODEL 8
REMARK VINA RESULT:    -4.984      2.671      4.320
REMARK INTER + INTRA:          -6.328
REMARK INTER:                  -6.103
REMARK INTRA:                  -0.225
REMARK UNBOUND:                -0.325
REMARK SMILES O=c1c(O)c(-c2ccc(O)c(O)c2)oc2cc(O)cc(O)c12
REMARK SMILES IDX 5 1 3 2 2 3 1 4 22 5 20 6 19 7 17 8 16 9 15 10 14 11 6 12
REMARK SMILES IDX 7 13 8 14 9 15 13 16 11 17 10 18 12 20 4 22 21 24 18 26
REMARK H PARENT 10 19 12 21 4 23 21 25 18 27
REMARK Flexibility Score: inf
ROOT
ATOM      1  C   UNL     1     108.474 102.825  89.141  1.00  0.00     0.180 A 
ATOM      2  C   UNL     1     107.302 102.861  88.360  1.00  0.00     0.208 A 
ATOM      3  C   UNL     1     106.214 103.626  88.807  1.00  0.00     0.238 A 
ATOM      4  O   UNL     1     105.163 103.675  88.110  1.00  0.00    -0.285 OA
ATOM      5  C   UNL     1     106.305 104.321  90.030  1.00  0.00     0.111 A 
ATOM      6  C   UNL     1     105.252 105.111  90.553  1.00  0.00     0.134 A 
ATOM      7  C   UNL     1     105.418 105.765  91.782  1.00  0.00     0.093 A 
ATOM      8  C   UNL     1     106.611 105.645  92.498  1.00  0.00     0.123 A 
ATOM      9  C   UNL     1     107.655 104.867  91.986  1.00  0.00     0.094 A 
ATOM     10  C   UNL     1     107.510 104.209  90.762  1.00  0.00     0.146 A 
ATOM     11  O   UNL     1     108.519 103.480  90.297  1.00  0.00    -0.452 OA
ENDROOT
BRANCH   1  12
ATOM     12  C   UNL     1     109.671 102.057  88.728  1.00  0.00     0.025 A 
ATOM     13  C   UNL     1     110.087 100.960  89.499  1.00  0.00     0.016 A 
ATOM     14  C   UNL     1     111.225 100.233  89.139  1.00  0.00     0.051 A 
ATOM     15  C   UNL     1     111.973 100.603  88.013  1.00  0.00     0.157 A 
ATOM     16  C   UNL     1     110.436 102.437  87.610  1.00  0.00     0.062 A 
ATOM     17  C   UNL     1     111.578 101.712  87.249  1.00  0.00     0.158 A 
BRANCH  15  18
ATOM     18  O   UNL     1     113.107  99.875  87.657  1.00  0.00    -0.504 OA
ATOM     19  H   UNL     1     113.396  99.054  88.175  1.00  0.00     0.293 HD
ENDBRANCH  15  18
BRANCH  17  20
ATOM     20  O   UNL     1     112.309 102.115  86.132  1.00  0.00    -0.504 OA
ATOM     21  H   UNL     1     112.379 101.542  85.299  1.00  0.00     0.293 HD
ENDBRANCH  17  20
ENDBRANCH   1  12
BRANCH   2  22
ATOM     22  O   UNL     1     107.219 102.124  87.176  1.00  0.00    -0.502 OA
ATOM     23  H   UNL     1     107.550 101.169  87.107  1.00  0.00     0.293 HD
ENDBRANCH   2  22
BRANCH   6  24
ATOM     24  O   UNL     1     104.047 105.249  89.863  1.00  0.00    -0.507 OA
ATOM     25  H   UNL     1     103.222 104.719  90.119  1.00  0.00     0.293 HD
ENDBRANCH   6  24
BRANCH   8  26
ATOM     26  O   UNL     1     106.749 106.305  93.717  1.00  0.00    -0.508 OA
ATOM     27  H   UNL     1     107.507 106.958  93.884  1.00  0.00     0.293 HD
ENDBRANCH   8  26
TORSDOF 6
ENDMDL
MODEL 9
REMARK VINA RESULT:    -4.952      2.099      3.341
REMARK INTER + INTRA:          -6.289
REMARK INTER:                  -5.993
REMARK INTRA:                  -0.296
REMARK UNBOUND:                -0.325
REMARK SMILES O=c1c(O)c(-c2ccc(O)c(O)c2)oc2cc(O)cc(O)c12
REMARK SMILES IDX 5 1 3 2 2 3 1 4 22 5 20 6 19 7 17 8 16 9 15 10 14 11 6 12
REMARK SMILES IDX 7 13 8 14 9 15 13 16 11 17 10 18 12 20 4 22 21 24 18 26
REMARK H PARENT 10 19 12 21 4 23 21 25 18 27
REMARK Flexibility Score: inf
ROOT
ATOM      1  C   UNL     1     110.222 102.848  85.092  1.00  0.00     0.180 A 
ATOM      2  C   UNL     1     111.564 102.490  85.321  1.00  0.00     0.208 A 
ATOM      3  C   UNL     1     111.928 101.999  86.586  1.00  0.00     0.238 A 
ATOM      4  O   UNL     1     113.125 101.664  86.800  1.00  0.00    -0.285 OA
ATOM      5  C   UNL     1     110.954 101.896  87.600  1.00  0.00     0.111 A 
ATOM      6  C   UNL     1     111.239 101.417  88.902  1.00  0.00     0.134 A 
ATOM      7  C   UNL     1     110.216 101.353  89.859  1.00  0.00     0.093 A 
ATOM      8  C   UNL     1     108.918 101.759  89.543  1.00  0.00     0.123 A 
ATOM      9  C   UNL     1     108.630 102.233  88.259  1.00  0.00     0.094 A 
ATOM     10  C   UNL     1     109.635 102.303  87.290  1.00  0.00     0.146 A 
ATOM     11  O   UNL     1     109.334 102.753  86.077  1.00  0.00    -0.452 OA
ENDROOT
BRANCH   1  12
ATOM     12  C   UNL     1     109.756 103.355  83.780  1.00  0.00     0.025 A 
ATOM     13  C   UNL     1     109.513 102.447  82.738  1.00  0.00     0.016 A 
ATOM     14  C   UNL     1     109.093 102.903  81.486  1.00  0.00     0.051 A 
ATOM     15  C   UNL     1     108.926 104.275  81.254  1.00  0.00     0.157 A 
ATOM     16  C   UNL     1     109.607 104.732  83.537  1.00  0.00     0.062 A 
ATOM     17  C   UNL     1     109.188 105.193  82.283  1.00  0.00     0.158 A 
BRANCH  15  18
ATOM     18  O   UNL     1     108.505 104.728  80.003  1.00  0.00    -0.504 OA
ATOM     19  H   UNL     1     109.120 104.713  79.199  1.00  0.00     0.293 HD
ENDBRANCH  15  18
BRANCH  17  20
ATOM     20  O   UNL     1     109.046 106.565  82.081  1.00  0.00    -0.504 OA
ATOM     21  H   UNL     1     109.000 106.970  81.153  1.00  0.00     0.293 HD
ENDBRANCH  17  20
ENDBRANCH   1  12
BRANCH   2  22
ATOM     22  O   UNL     1     112.519 102.647  84.315  1.00  0.00    -0.502 OA
ATOM     23  H   UNL     1     112.284 102.998  83.394  1.00  0.00     0.293 HD
ENDBRANCH   2  22
BRANCH   6  24
ATOM     24  O   UNL     1     112.526 101.005  89.249  1.00  0.00    -0.507 OA
ATOM     25  H   UNL     1     112.939 101.244  90.144  1.00  0.00     0.293 HD
ENDBRANCH   6  24
BRANCH   8  26
ATOM     26  O   UNL     1     107.921 101.687  90.513  1.00  0.00    -0.508 OA
ATOM     27  H   UNL     1     107.475 100.808  90.750  1.00  0.00     0.293 HD
ENDBRANCH   8  26
TORSDOF 6
ENDMDL
