MODEL 1
REMARK VINA RESULT:    -3.649      0.000      0.000
REMARK INTER + INTRA:          -7.913
REMARK INTER:                  -6.208
REMARK INTRA:                  -1.705
REMARK UNBOUND:                -1.705
REMARK SMILES CCCCCCCCCCCCCC(=O)[O-]
REMARK SMILES IDX 8 1 9 2 10 3 11 4 12 5 13 6 14 7 15 8 16 9 7 10 6 11 5 12
REMARK SMILES IDX 4 13 3 14 2 15 1 16
REMARK H PARENT
REMARK Flexibility Score: inf
ROOT
ATOM      1  C   UNL     1     182.143 182.830 200.999  1.00  0.00     0.000 C 
ENDROOT
BRANCH   1   2
ATOM      2  C   UNL     1     182.681 184.081 201.703  1.00  0.00     0.000 C 
BRANCH   2   3
ATOM      3  C   UNL     1     183.289 185.062 200.694  1.00  0.00     0.000 C 
BRANCH   3   4
ATOM      4  C   UNL     1     184.663 184.579 200.216  1.00  0.00     0.000 C 
BRANCH   4   5
ATOM      5  C   UNL     1     184.667 184.345 198.698  1.00  0.00     0.006 C 
BRANCH   5   6
ATOM      6  C   UNL     1     186.010 184.718 198.056  1.00  0.00     0.053 C 
BRANCH   6   7
ATOM      7  C   UNL     1     186.217 186.202 198.027  1.00  0.00     0.041 C 
ATOM      8  O   UNL     1     185.329 186.958 197.555  1.00  0.00    -0.550 OA
ATOM      9  O   UNL     1     187.380 186.751 198.552  1.00  0.00    -0.550 OA
ENDBRANCH   6   7
ENDBRANCH   5   6
ENDBRANCH   4   5
ENDBRANCH   3   4
ENDBRANCH   2   3
ENDBRANCH   1   2
BRANCH   1  10
ATOM     10  C   UNL     1     182.463 181.564 201.803  1.00  0.00     0.000 C 
BRANCH  10  11
ATOM     11  C   UNL     1     183.967 181.454 202.081  1.00  0.00    -0.000 C 
BRANCH  11  12
ATOM     12  C   UNL     1     184.437 179.995 202.001  1.00  0.00    -0.000 C 
BRANCH  12  13
ATOM     13  C   UNL     1     185.412 179.743 200.839  1.00  0.00    -0.000 C 
BRANCH  13  14
ATOM     14  C   UNL     1     185.457 180.892 199.809  1.00  0.00    -0.000 C 
BRANCH  14  15
ATOM     15  C   UNL     1     186.893 181.353 199.517  1.00  0.00    -0.003 C 
ATOM     16  C   UNL     1     187.486 182.098 200.710  1.00  0.00     0.004 C 
ENDBRANCH  14  15
ENDBRANCH  13  14
ENDBRANCH  12  13
ENDBRANCH  11  12
ENDBRANCH  10  11
ENDBRANCH   1  10
TORSDOF 12
ENDMDL
MODEL 2
REMARK VINA RESULT:    -3.596      1.917      3.220
REMARK INTER + INTRA:          -7.824
REMARK INTER:                  -5.893
REMARK INTRA:                  -1.931
REMARK UNBOUND:                -1.705
REMARK SMILES CCCCCCCCCCCCCC(=O)[O-]
REMARK SMILES IDX 8 1 9 2 10 3 11 4 12 5 13 6 14 7 15 8 16 9 7 10 6 11 5 12
REMARK SMILES IDX 4 13 3 14 2 15 1 16
REMARK H PARENT
REMARK Flexibility Score: inf
ROOT
ATOM      1  C   UNL     1     182.991 182.580 200.769  1.00  0.00     0.000 C 
ENDROOT
BRANCH   1   2
ATOM      2  C   UNL     1     181.759 182.543 201.681  1.00  0.00     0.000 C 
BRANCH   2   3
ATOM      3  C   UNL     1     180.632 183.417 201.121  1.00  0.00     0.000 C 
BRANCH   3   4
ATOM      4  C   UNL     1     180.662 183.438 199.588  1.00  0.00     0.000 C 
BRANCH   4   5
ATOM      5  C   UNL     1     180.673 184.879 199.057  1.00  0.00     0.006 C 
BRANCH   5   6
ATOM      6  C   UNL     1     182.018 185.254 198.419  1.00  0.00     0.053 C 
BRANCH   6   7
ATOM      7  C   UNL     1     182.836 186.126 199.321  1.00  0.00     0.041 C 
ATOM      8  O   UNL     1     182.428 186.400 200.479  1.00  0.00    -0.550 OA
ATOM      9  O   UNL     1     184.065 186.610 198.891  1.00  0.00    -0.550 OA
ENDBRANCH   6   7
ENDBRANCH   5   6
ENDBRANCH   4   5
ENDBRANCH   3   4
ENDBRANCH   2   3
ENDBRANCH   1   2
BRANCH   1  10
ATOM     10  C   UNL     1     184.161 183.298 201.452  1.00  0.00     0.000 C 
BRANCH  10  11
ATOM     11  C   UNL     1     185.268 183.629 200.443  1.00  0.00    -0.000 C 
BRANCH  11  12
ATOM     12  C   UNL     1     185.034 182.903 199.111  1.00  0.00    -0.000 C 
BRANCH  12  13
ATOM     13  C   UNL     1     186.225 182.024 198.692  1.00  0.00    -0.000 C 
BRANCH  13  14
ATOM     14  C   UNL     1     186.610 180.961 199.743  1.00  0.00    -0.000 C 
BRANCH  14  15
ATOM     15  C   UNL     1     185.531 179.880 199.898  1.00  0.00    -0.003 C 
ATOM     16  C   UNL     1     185.196 179.642 201.369  1.00  0.00     0.004 C 
ENDBRANCH  14  15
ENDBRANCH  13  14
ENDBRANCH  12  13
ENDBRANCH  11  12
ENDBRANCH  10  11
ENDBRANCH   1  10
TORSDOF 12
ENDMDL
MODEL 3
REMARK VINA RESULT:    -3.588     12.668     16.269
REMARK INTER + INTRA:          -7.810
REMARK INTER:                  -5.955
REMARK INTRA:                  -1.855
REMARK UNBOUND:                -1.705
REMARK SMILES CCCCCCCCCCCCCC(=O)[O-]
REMARK SMILES IDX 8 1 9 2 10 3 11 4 12 5 13 6 14 7 15 8 16 9 7 10 6 11 5 12
REMARK SMILES IDX 4 13 3 14 2 15 1 16
REMARK H PARENT
REMARK Flexibility Score: inf
ROOT
ATOM      1  C   UNL     1     197.695 195.434 201.383  1.00  0.00     0.000 C 
ENDROOT
BRANCH   1   2
ATOM      2  C   UNL     1     197.177 194.210 200.619  1.00  0.00     0.000 C 
BRANCH   2   3
ATOM      3  C   UNL     1     196.669 194.604 199.227  1.00  0.00     0.000 C 
BRANCH   3   4
ATOM      4  C   UNL     1     195.161 194.358 199.102  1.00  0.00     0.000 C 
BRANCH   4   5
ATOM      5  C   UNL     1     194.635 193.542 200.292  1.00  0.00     0.006 C 
BRANCH   5   6
ATOM      6  C   UNL     1     193.664 192.437 199.856  1.00  0.00     0.053 C 
BRANCH   6   7
ATOM      7  C   UNL     1     192.374 193.002 199.344  1.00  0.00     0.041 C 
ATOM      8  O   UNL     1     192.001 192.765 198.166  1.00  0.00    -0.550 OA
ATOM      9  O   UNL     1     191.569 193.764 200.182  1.00  0.00    -0.550 OA
ENDBRANCH   6   7
ENDBRANCH   5   6
ENDBRANCH   4   5
ENDBRANCH   3   4
ENDBRANCH   2   3
ENDBRANCH   1   2
BRANCH   1  10
ATOM     10  C   UNL     1     196.541 196.210 202.029  1.00  0.00     0.000 C 
BRANCH  10  11
ATOM     11  C   UNL     1     196.461 197.639 201.478  1.00  0.00    -0.000 C 
BRANCH  11  12
ATOM     12  C   UNL     1     195.018 198.006 201.104  1.00  0.00    -0.000 C 
BRANCH  12  13
ATOM     13  C   UNL     1     193.999 196.936 201.531  1.00  0.00    -0.000 C 
BRANCH  13  14
ATOM     14  C   UNL     1     192.612 197.104 200.875  1.00  0.00    -0.000 C 
BRANCH  14  15
ATOM     15  C   UNL     1     192.703 197.745 199.482  1.00  0.00    -0.003 C 
ATOM     16  C   UNL     1     192.364 196.737 198.388  1.00  0.00     0.004 C 
ENDBRANCH  14  15
ENDBRANCH  13  14
ENDBRANCH  12  13
ENDBRANCH  11  12
ENDBRANCH  10  11
ENDBRANCH   1  10
TORSDOF 12
ENDMDL
MODEL 4
REMARK VINA RESULT:    -3.587      1.767      3.992
REMARK INTER + INTRA:          -7.808
REMARK INTER:                  -6.113
REMARK INTRA:                  -1.695
REMARK UNBOUND:                -1.705
REMARK SMILES CCCCCCCCCCCCCC(=O)[O-]
REMARK SMILES IDX 8 1 9 2 10 3 11 4 12 5 13 6 14 7 15 8 16 9 7 10 6 11 5 12
REMARK SMILES IDX 4 13 3 14 2 15 1 16
REMARK H PARENT
REMARK Flexibility Score: inf
ROOT
ATOM      1  C   UNL     1     186.106 180.938 199.359  1.00  0.00     0.000 C 
ENDROOT
BRANCH   1   2
ATOM      2  C   UNL     1     186.908 181.996 200.127  1.00  0.00     0.000 C 
BRANCH   2   3
ATOM      3  C   UNL     1     186.174 183.341 200.138  1.00  0.00     0.000 C 
BRANCH   3   4
ATOM      4  C   UNL     1     184.985 183.328 199.170  1.00  0.00     0.000 C 
BRANCH   4   5
ATOM      5  C   UNL     1     184.700 184.737 198.629  1.00  0.00     0.006 C 
BRANCH   5   6
ATOM      6  C   UNL     1     183.394 185.320 199.185  1.00  0.00     0.053 C 
BRANCH   6   7
ATOM      7  C   UNL     1     183.620 186.064 200.466  1.00  0.00     0.041 C 
ATOM      8  O   UNL     1     183.423 185.498 201.572  1.00  0.00    -0.550 OA
ATOM      9  O   UNL     1     184.080 187.375 200.435  1.00  0.00    -0.550 OA
ENDBRANCH   6   7
ENDBRANCH   5   6
ENDBRANCH   4   5
ENDBRANCH   3   4
ENDBRANCH   2   3
ENDBRANCH   1   2
BRANCH   1  10
ATOM     10  C   UNL     1     185.676 179.793 200.284  1.00  0.00     0.000 C 
BRANCH  10  11
ATOM     11  C   UNL     1     184.215 179.956 200.718  1.00  0.00    -0.000 C 
BRANCH  11  12
ATOM     12  C   UNL     1     184.122 180.611 202.104  1.00  0.00    -0.000 C 
BRANCH  12  13
ATOM     13  C   UNL     1     183.344 181.938 202.087  1.00  0.00    -0.000 C 
BRANCH  13  14
ATOM     14  C   UNL     1     181.840 181.770 201.786  1.00  0.00    -0.000 C 
BRANCH  14  15
ATOM     15  C   UNL     1     181.371 182.683 200.644  1.00  0.00    -0.003 C 
ATOM     16  C   UNL     1     180.368 183.720 201.142  1.00  0.00     0.004 C 
ENDBRANCH  14  15
ENDBRANCH  13  14
ENDBRANCH  12  13
ENDBRANCH  11  12
ENDBRANCH  10  11
ENDBRANCH   1  10
TORSDOF 12
ENDMDL
MODEL 5
REMARK VINA RESULT:    -3.577      1.428      3.759
REMARK INTER + INTRA:          -7.791
REMARK INTER:                  -5.852
REMARK INTRA:                  -1.938
REMARK UNBOUND:                -1.705
REMARK SMILES CCCCCCCCCCCCCC(=O)[O-]
REMARK SMILES IDX 8 1 9 2 10 3 11 4 12 5 13 6 14 7 15 8 16 9 7 10 6 11 5 12
REMARK SMILES IDX 4 13 3 14 2 15 1 16
REMARK H PARENT
REMARK Flexibility Score: inf
ROOT
ATOM      1  C   UNL     1     183.867 180.746 201.104  1.00  0.00     0.000 C 
ENDROOT
BRANCH   1   2
ATOM      2  C   UNL     1     184.901 181.529 200.287  1.00  0.00     0.000 C 
BRANCH   2   3
ATOM      3  C   UNL     1     185.411 182.747 201.065  1.00  0.00     0.000 C 
BRANCH   3   4
ATOM      4  C   UNL     1     185.687 183.925 200.125  1.00  0.00     0.000 C 
BRANCH   4   5
ATOM      5  C   UNL     1     184.704 183.931 198.946  1.00  0.00     0.006 C 
BRANCH   5   6
ATOM      6  C   UNL     1     184.694 185.274 198.203  1.00  0.00     0.053 C 
BRANCH   6   7
ATOM      7  C   UNL     1     186.008 185.550 197.539  1.00  0.00     0.041 C 
ATOM      8  O   UNL     1     186.475 184.741 196.696  1.00  0.00    -0.550 OA
ATOM      9  O   UNL     1     186.700 186.719 197.828  1.00  0.00    -0.550 OA
ENDBRANCH   6   7
ENDBRANCH   5   6
ENDBRANCH   4   5
ENDBRANCH   3   4
ENDBRANCH   2   3
ENDBRANCH   1   2
BRANCH   1  10
ATOM     10  C   UNL     1     182.910 181.694 201.836  1.00  0.00     0.000 C 
BRANCH  10  11
ATOM     11  C   UNL     1     181.533 181.716 201.161  1.00  0.00    -0.000 C 
BRANCH  11  12
ATOM     12  C   UNL     1     181.057 183.157 200.928  1.00  0.00    -0.000 C 
BRANCH  12  13
ATOM     13  C   UNL     1     181.754 184.174 201.847  1.00  0.00    -0.000 C 
BRANCH  13  14
ATOM     14  C   UNL     1     182.116 185.499 201.143  1.00  0.00    -0.000 C 
BRANCH  14  15
ATOM     15  C   UNL     1     183.303 186.206 201.812  1.00  0.00    -0.003 C 
ATOM     16  C   UNL     1     183.695 187.468 201.049  1.00  0.00     0.004 C 
ENDBRANCH  14  15
ENDBRANCH  13  14
ENDBRANCH  12  13
ENDBRANCH  11  12
ENDBRANCH  10  11
ENDBRANCH   1  10
TORSDOF 12
ENDMDL
MODEL 6
REMARK VINA RESULT:    -3.570      2.007      4.472
REMARK INTER + INTRA:          -7.780
REMARK INTER:                  -6.106
REMARK INTRA:                  -1.674
REMARK UNBOUND:                -1.705
REMARK SMILES CCCCCCCCCCCCCC(=O)[O-]
REMARK SMILES IDX 8 1 9 2 10 3 11 4 12 5 13 6 14 7 15 8 16 9 7 10 6 11 5 12
REMARK SMILES IDX 4 13 3 14 2 15 1 16
REMARK H PARENT
REMARK Flexibility Score: inf
ROOT
ATOM      1  C   UNL     1     183.139 180.621 201.106  1.00  0.00     0.000 C 
ENDROOT
BRANCH   1   2
ATOM      2  C   UNL     1     184.271 180.439 202.123  1.00  0.00     0.000 C 
BRANCH   2   3
ATOM      3  C   UNL     1     185.482 179.751 201.482  1.00  0.00     0.000 C 
BRANCH   3   4
ATOM      4  C   UNL     1     185.333 179.683 199.958  1.00  0.00     0.000 C 
BRANCH   4   5
ATOM      5  C   UNL     1     186.427 180.504 199.260  1.00  0.00     0.006 C 
BRANCH   5   6
ATOM      6  C   UNL     1     186.112 182.006 199.253  1.00  0.00     0.053 C 
BRANCH   6   7
ATOM      7  C   UNL     1     187.008 182.766 200.182  1.00  0.00     0.041 C 
ATOM      8  O   UNL     1     186.843 184.001 200.354  1.00  0.00    -0.550 OA
ATOM      9  O   UNL     1     188.007 182.100 200.882  1.00  0.00    -0.550 OA
ENDBRANCH   6   7
ENDBRANCH   5   6
ENDBRANCH   4   5
ENDBRANCH   3   4
ENDBRANCH   2   3
ENDBRANCH   1   2
BRANCH   1  10
ATOM     10  C   UNL     1     182.483 182.000 201.252  1.00  0.00     0.000 C 
BRANCH  10  11
ATOM     11  C   UNL     1     183.483 183.031 201.790  1.00  0.00    -0.000 C 
BRANCH  11  12
ATOM     12  C   UNL     1     183.441 184.323 200.962  1.00  0.00    -0.000 C 
BRANCH  12  13
ATOM     13  C   UNL     1     182.997 184.087 199.509  1.00  0.00    -0.000 C 
BRANCH  13  14
ATOM     14  C   UNL     1     183.604 185.091 198.505  1.00  0.00    -0.000 C 
BRANCH  14  15
ATOM     15  C   UNL     1     184.410 186.195 199.204  1.00  0.00    -0.003 C 
ATOM     16  C   UNL     1     183.768 187.563 198.996  1.00  0.00     0.004 C 
ENDBRANCH  14  15
ENDBRANCH  13  14
ENDBRANCH  12  13
ENDBRANCH  11  12
ENDBRANCH  10  11
ENDBRANCH   1  10
TORSDOF 12
ENDMDL
MODEL 7
REMARK VINA RESULT:    -3.540      1.563      3.586
REMARK INTER + INTRA:          -7.728
REMARK INTER:                  -6.260
REMARK INTRA:                  -1.468
REMARK UNBOUND:                -1.705
REMARK SMILES CCCCCCCCCCCCCC(=O)[O-]
REMARK SMILES IDX 8 1 9 2 10 3 11 4 12 5 13 6 14 7 15 8 16 9 7 10 6 11 5 12
REMARK SMILES IDX 4 13 3 14 2 15 1 16
REMARK H PARENT
REMARK Flexibility Score: inf
ROOT
ATOM      1  C   UNL     1     186.655 181.520 199.229  1.00  0.00     0.000 C 
ENDROOT
BRANCH   1   2
ATOM      2  C   UNL     1     186.005 182.716 198.524  1.00  0.00     0.000 C 
BRANCH   2   3
ATOM      3  C   UNL     1     185.332 183.651 199.534  1.00  0.00     0.000 C 
BRANCH   3   4
ATOM      4  C   UNL     1     183.933 184.059 199.060  1.00  0.00     0.000 C 
BRANCH   4   5
ATOM      5  C   UNL     1     183.813 185.585 198.943  1.00  0.00     0.006 C 
BRANCH   5   6
ATOM      6  C   UNL     1     185.182 186.279 198.960  1.00  0.00     0.053 C 
BRANCH   6   7
ATOM      7  C   UNL     1     185.301 187.242 200.101  1.00  0.00     0.041 C 
ATOM      8  O   UNL     1     186.422 187.470 200.625  1.00  0.00    -0.550 OA
ATOM      9  O   UNL     1     184.175 187.913 200.563  1.00  0.00    -0.550 OA
ENDBRANCH   6   7
ENDBRANCH   5   6
ENDBRANCH   4   5
ENDBRANCH   3   4
ENDBRANCH   2   3
ENDBRANCH   1   2
BRANCH   1  10
ATOM     10  C   UNL     1     187.378 181.960 200.507  1.00  0.00     0.000 C 
BRANCH  10  11
ATOM     11  C   UNL     1     186.834 181.216 201.733  1.00  0.00    -0.000 C 
BRANCH  11  12
ATOM     12  C   UNL     1     185.790 180.167 201.322  1.00  0.00    -0.000 C 
BRANCH  12  13
ATOM     13  C   UNL     1     184.468 180.303 202.095  1.00  0.00    -0.000 C 
BRANCH  13  14
ATOM     14  C   UNL     1     183.358 181.025 201.303  1.00  0.00    -0.000 C 
BRANCH  14  15
ATOM     15  C   UNL     1     182.687 182.136 202.124  1.00  0.00    -0.003 C 
ATOM     16  C   UNL     1     181.421 182.641 201.437  1.00  0.00     0.004 C 
ENDBRANCH  14  15
ENDBRANCH  13  14
ENDBRANCH  12  13
ENDBRANCH  11  12
ENDBRANCH  10  11
ENDBRANCH   1  10
TORSDOF 12
ENDMDL
MODEL 8
REMARK VINA RESULT:    -3.507      1.765      4.460
REMARK INTER + INTRA:          -7.673
REMARK INTER:                  -6.243
REMARK INTRA:                  -1.430
REMARK UNBOUND:                -1.705
REMARK SMILES CCCCCCCCCCCCCC(=O)[O-]
REMARK SMILES IDX 8 1 9 2 10 3 11 4 12 5 13 6 14 7 15 8 16 9 7 10 6 11 5 12
REMARK SMILES IDX 4 13 3 14 2 15 1 16
REMARK H PARENT
REMARK Flexibility Score: inf
ROOT
ATOM      1  C   UNL     1     183.961 180.032 201.043  1.00  0.00     0.000 C 
ENDROOT
BRANCH   1   2
ATOM      2  C   UNL     1     185.324 179.409 200.718  1.00  0.00     0.000 C 
BRANCH   2   3
ATOM      3  C   UNL     1     185.879 179.956 199.398  1.00  0.00     0.000 C 
BRANCH   3   4
ATOM      4  C   UNL     1     186.862 181.105 199.648  1.00  0.00     0.000 C 
BRANCH   4   5
ATOM      5  C   UNL     1     186.553 182.303 198.738  1.00  0.00     0.006 C 
BRANCH   5   6
ATOM      6  C   UNL     1     185.247 183.008 199.128  1.00  0.00     0.053 C 
BRANCH   6   7
ATOM      7  C   UNL     1     185.507 184.294 199.853  1.00  0.00     0.041 C 
ATOM      8  O   UNL     1     186.687 184.679 200.059  1.00  0.00    -0.550 OA
ATOM      9  O   UNL     1     184.442 185.082 200.272  1.00  0.00    -0.550 OA
ENDBRANCH   6   7
ENDBRANCH   5   6
ENDBRANCH   4   5
ENDBRANCH   3   4
ENDBRANCH   2   3
ENDBRANCH   1   2
BRANCH   1  10
ATOM     10  C   UNL     1     184.092 181.110 202.125  1.00  0.00     0.000 C 
BRANCH  10  11
ATOM     11  C   UNL     1     183.015 182.190 201.959  1.00  0.00    -0.000 C 
BRANCH  11  12
ATOM     12  C   UNL     1     181.727 181.597 201.372  1.00  0.00    -0.000 C 
BRANCH  12  13
ATOM     13  C   UNL     1     180.850 182.649 200.671  1.00  0.00    -0.000 C 
BRANCH  13  14
ATOM     14  C   UNL     1     180.851 184.023 201.373  1.00  0.00    -0.000 C 
BRANCH  14  15
ATOM     15  C   UNL     1     180.902 185.186 200.372  1.00  0.00    -0.003 C 
ATOM     16  C   UNL     1     181.192 184.685 198.959  1.00  0.00     0.004 C 
ENDBRANCH  14  15
ENDBRANCH  13  14
ENDBRANCH  12  13
ENDBRANCH  11  12
ENDBRANCH  10  11
ENDBRANCH   1  10
TORSDOF 12
ENDMDL
MODEL 9
REMARK VINA RESULT:    -3.444      1.645      2.101
REMARK INTER + INTRA:          -7.566
REMARK INTER:                  -5.916
REMARK INTRA:                  -1.650
REMARK UNBOUND:                -1.705
REMARK SMILES CCCCCCCCCCCCCC(=O)[O-]
REMARK SMILES IDX 8 1 9 2 10 3 11 4 12 5 13 6 14 7 15 8 16 9 7 10 6 11 5 12
REMARK SMILES IDX 4 13 3 14 2 15 1 16
REMARK H PARENT
REMARK Flexibility Score: inf
ROOT
ATOM      1  C   UNL     1     182.624 183.691 200.743  1.00  0.00     0.000 C 
ENDROOT
BRANCH   1   2
ATOM      2  C   UNL     1     183.976 184.351 200.449  1.00  0.00     0.000 C 
BRANCH   2   3
ATOM      3  C   UNL     1     184.564 183.837 199.130  1.00  0.00     0.000 C 
BRANCH   3   4
ATOM      4  C   UNL     1     185.691 184.751 198.636  1.00  0.00     0.000 C 
BRANCH   4   5
ATOM      5  C   UNL     1     185.847 185.976 199.549  1.00  0.00     0.006 C 
BRANCH   5   6
ATOM      6  C   UNL     1     187.317 186.367 199.751  1.00  0.00     0.053 C 
BRANCH   6   7
ATOM      7  C   UNL     1     187.452 187.612 200.573  1.00  0.00     0.041 C 
ATOM      8  O   UNL     1     186.555 188.494 200.540  1.00  0.00    -0.550 OA
ATOM      9  O   UNL     1     188.555 187.782 201.400  1.00  0.00    -0.550 OA
ENDBRANCH   6   7
ENDBRANCH   5   6
ENDBRANCH   4   5
ENDBRANCH   3   4
ENDBRANCH   2   3
ENDBRANCH   1   2
BRANCH   1  10
ATOM     10  C   UNL     1     182.626 183.025 202.125  1.00  0.00     0.000 C 
BRANCH  10  11
ATOM     11  C   UNL     1     182.613 181.497 202.000  1.00  0.00    -0.000 C 
BRANCH  11  12
ATOM     12  C   UNL     1     184.039 180.929 202.040  1.00  0.00    -0.000 C 
BRANCH  12  13
ATOM     13  C   UNL     1     184.513 180.405 200.674  1.00  0.00    -0.000 C 
BRANCH  13  14
ATOM     14  C   UNL     1     186.013 180.648 200.404  1.00  0.00    -0.000 C 
BRANCH  14  15
ATOM     15  C   UNL     1     186.700 181.385 201.563  1.00  0.00    -0.003 C 
ATOM     16  C   UNL     1     187.518 182.569 201.056  1.00  0.00     0.004 C 
ENDBRANCH  14  15
ENDBRANCH  13  14
ENDBRANCH  12  13
ENDBRANCH  11  12
ENDBRANCH  10  11
ENDBRANCH   1  10
TORSDOF 12
ENDMDL
