MODEL 1
REMARK VINA RESULT:    -4.078      0.000      0.000
REMARK INTER + INTRA:         -12.570
REMARK INTER:                  -8.847
REMARK INTRA:                  -3.722
REMARK UNBOUND:                -3.722
REMARK SMILES CCCCCCCCCCCCCCCCCCCCCC(=O)[O-]
REMARK SMILES IDX 12 1 11 2 10 3 9 4 8 5 7 6 6 7 5 8 4 9 3 10 2 11 1 12 13 13
REMARK SMILES IDX 14 14 15 15 16 16 17 17 18 18 19 19 20 20 21 21 22 22 23 23
REMARK SMILES IDX 24 24
REMARK H PARENT
REMARK Flexibility Score: inf
ROOT
ATOM      1  C   UNL     1     -44.255 -52.239  39.733  1.00  0.00     0.000 C 
ENDROOT
BRANCH   1   2
ATOM      2  C   UNL     1     -45.038 -51.922  41.020  1.00  0.00     0.000 C 
BRANCH   2   3
ATOM      3  C   UNL     1     -45.868 -50.628  40.890  1.00  0.00     0.000 C 
BRANCH   3   4
ATOM      4  C   UNL     1     -47.385 -50.853  41.027  1.00  0.00    -0.000 C 
BRANCH   4   5
ATOM      5  C   UNL     1     -47.730 -52.064  41.909  1.00  0.00    -0.000 C 
BRANCH   5   6
ATOM      6  C   UNL     1     -48.862 -52.921  41.321  1.00  0.00    -0.000 C 
BRANCH   6   7
ATOM      7  C   UNL     1     -48.351 -54.000  40.354  1.00  0.00    -0.000 C 
BRANCH   7   8
ATOM      8  C   UNL     1     -47.385 -54.958  41.064  1.00  0.00    -0.000 C 
BRANCH   8   9
ATOM      9  C   UNL     1     -46.754 -55.990  40.111  1.00  0.00    -0.000 C 
BRANCH   9  10
ATOM     10  C   UNL     1     -47.464 -56.141  38.750  1.00  0.00    -0.000 C 
BRANCH  10  11
ATOM     11  C   UNL     1     -48.375 -57.374  38.625  1.00  0.00    -0.003 C 
ATOM     12  C   UNL     1     -47.640 -58.606  38.098  1.00  0.00     0.004 C 
ENDBRANCH  10  11
ENDBRANCH   9  10
ENDBRANCH   8   9
ENDBRANCH   7   8
ENDBRANCH   6   7
ENDBRANCH   5   6
ENDBRANCH   4   5
ENDBRANCH   3   4
ENDBRANCH   2   3
ENDBRANCH   1   2
BRANCH   1  13
ATOM     13  C   UNL     1     -44.971 -53.266  38.843  1.00  0.00     0.000 C 
BRANCH  13  14
ATOM     14  C   UNL     1     -45.391 -52.679  37.484  1.00  0.00     0.000 C 
BRANCH  14  15
ATOM     15  C   UNL     1     -46.840 -52.147  37.498  1.00  0.00     0.000 C 
BRANCH  15  16
ATOM     16  C   UNL     1     -46.935 -50.610  37.422  1.00  0.00     0.000 C 
BRANCH  16  17
ATOM     17  C   UNL     1     -45.757 -49.922  36.705  1.00  0.00     0.000 C 
BRANCH  17  18
ATOM     18  C   UNL     1     -45.146 -48.727  37.460  1.00  0.00     0.000 C 
BRANCH  18  19
ATOM     19  C   UNL     1     -43.640 -48.886  37.716  1.00  0.00     0.000 C 
BRANCH  19  20
ATOM     20  C   UNL     1     -43.300 -48.606  39.184  1.00  0.00     0.006 C 
BRANCH  20  21
ATOM     21  C   UNL     1     -44.185 -47.490  39.750  1.00  0.00     0.053 C 
BRANCH  21  22
ATOM     22  C   UNL     1     -43.344 -46.365  40.265  1.00  0.00     0.041 C 
ATOM     23  O   UNL     1     -43.884 -45.375  40.825  1.00  0.00    -0.550 OA
ATOM     24  O   UNL     1     -41.959 -46.433  40.172  1.00  0.00    -0.550 OA
ENDBRANCH  21  22
ENDBRANCH  20  21
ENDBRANCH  19  20
ENDBRANCH  18  19
ENDBRANCH  17  18
ENDBRANCH  16  17
ENDBRANCH  15  16
ENDBRANCH  14  15
ENDBRANCH  13  14
ENDBRANCH   1  13
TORSDOF 20
ENDMDL
MODEL 2
REMARK VINA RESULT:    -3.828      2.475      4.051
REMARK INTER + INTRA:         -12.027
REMARK INTER:                  -8.370
REMARK INTRA:                  -3.658
REMARK UNBOUND:                -3.722
REMARK SMILES CCCCCCCCCCCCCCCCCCCCCC(=O)[O-]
REMARK SMILES IDX 12 1 11 2 10 3 9 4 8 5 7 6 6 7 5 8 4 9 3 10 2 11 1 12 13 13
REMARK SMILES IDX 14 14 15 15 16 16 17 17 18 18 19 19 20 20 21 21 22 22 23 23
REMARK SMILES IDX 24 24
REMARK H PARENT
REMARK Flexibility Score: inf
ROOT
ATOM      1  C   UNL     1     -43.284 -51.477  40.303  1.00  0.00     0.000 C 
ENDROOT
BRANCH   1   2
ATOM      2  C   UNL     1     -44.722 -52.021  40.376  1.00  0.00     0.000 C 
BRANCH   2   3
ATOM      3  C   UNL     1     -45.575 -51.267  41.418  1.00  0.00     0.000 C 
BRANCH   3   4
ATOM      4  C   UNL     1     -46.861 -50.655  40.835  1.00  0.00    -0.000 C 
BRANCH   4   5
ATOM      5  C   UNL     1     -48.111 -50.994  41.662  1.00  0.00    -0.000 C 
BRANCH   5   6
ATOM      6  C   UNL     1     -48.096 -52.435  42.194  1.00  0.00    -0.000 C 
BRANCH   6   7
ATOM      7  C   UNL     1     -48.723 -53.439  41.215  1.00  0.00    -0.000 C 
BRANCH   7   8
ATOM      8  C   UNL     1     -47.680 -54.455  40.729  1.00  0.00    -0.000 C 
BRANCH   8   9
ATOM      9  C   UNL     1     -47.534 -54.479  39.197  1.00  0.00    -0.000 C 
BRANCH   9  10
ATOM     10  C   UNL     1     -48.002 -53.198  38.477  1.00  0.00    -0.000 C 
BRANCH  10  11
ATOM     11  C   UNL     1     -47.209 -52.839  37.208  1.00  0.00    -0.003 C 
ATOM     12  C   UNL     1     -45.783 -53.389  37.222  1.00  0.00     0.004 C 
ENDBRANCH  10  11
ENDBRANCH   9  10
ENDBRANCH   8   9
ENDBRANCH   7   8
ENDBRANCH   6   7
ENDBRANCH   5   6
ENDBRANCH   4   5
ENDBRANCH   3   4
ENDBRANCH   2   3
ENDBRANCH   1   2
BRANCH   1  13
ATOM     13  C   UNL     1     -43.005 -50.400  41.362  1.00  0.00     0.000 C 
BRANCH  13  14
ATOM     14  C   UNL     1     -41.990 -49.348  40.882  1.00  0.00     0.000 C 
BRANCH  14  15
ATOM     15  C   UNL     1     -42.615 -47.940  40.770  1.00  0.00     0.000 C 
BRANCH  15  16
ATOM     16  C   UNL     1     -43.288 -47.668  39.411  1.00  0.00     0.000 C 
BRANCH  16  17
ATOM     17  C   UNL     1     -44.817 -47.857  39.394  1.00  0.00     0.000 C 
BRANCH  17  18
ATOM     18  C   UNL     1     -45.419 -48.153  38.007  1.00  0.00     0.000 C 
BRANCH  18  19
ATOM     19  C   UNL     1     -45.365 -49.643  37.635  1.00  0.00     0.000 C 
BRANCH  19  20
ATOM     20  C   UNL     1     -44.778 -49.837  36.232  1.00  0.00     0.006 C 
BRANCH  20  21
ATOM     21  C   UNL     1     -43.466 -49.062  36.073  1.00  0.00     0.053 C 
BRANCH  21  22
ATOM     22  C   UNL     1     -43.066 -48.998  34.633  1.00  0.00     0.041 C 
ATOM     23  O   UNL     1     -43.321 -49.959  33.862  1.00  0.00    -0.550 OA
ATOM     24  O   UNL     1     -42.455 -47.855  34.131  1.00  0.00    -0.550 OA
ENDBRANCH  21  22
ENDBRANCH  20  21
ENDBRANCH  19  20
ENDBRANCH  18  19
ENDBRANCH  17  18
ENDBRANCH  16  17
ENDBRANCH  15  16
ENDBRANCH  14  15
ENDBRANCH  13  14
ENDBRANCH   1  13
TORSDOF 20
ENDMDL
MODEL 3
REMARK VINA RESULT:    -3.824      2.990      4.500
REMARK INTER + INTRA:         -12.019
REMARK INTER:                  -8.725
REMARK INTRA:                  -3.294
REMARK UNBOUND:                -3.722
REMARK SMILES CCCCCCCCCCCCCCCCCCCCCC(=O)[O-]
REMARK SMILES IDX 12 1 11 2 10 3 9 4 8 5 7 6 6 7 5 8 4 9 3 10 2 11 1 12 13 13
REMARK SMILES IDX 14 14 15 15 16 16 17 17 18 18 19 19 20 20 21 21 22 22 23 23
REMARK SMILES IDX 24 24
REMARK H PARENT
REMARK Flexibility Score: inf
ROOT
ATOM      1  C   UNL     1     -43.343 -50.224  40.103  1.00  0.00     0.000 C 
ENDROOT
BRANCH   1   2
ATOM      2  C   UNL     1     -44.440 -51.218  40.526  1.00  0.00     0.000 C 
BRANCH   2   3
ATOM      3  C   UNL     1     -45.813 -50.532  40.686  1.00  0.00     0.000 C 
BRANCH   3   4
ATOM      4  C   UNL     1     -46.812 -50.886  39.569  1.00  0.00    -0.000 C 
BRANCH   4   5
ATOM      5  C   UNL     1     -46.275 -51.959  38.608  1.00  0.00    -0.000 C 
BRANCH   5   6
ATOM      6  C   UNL     1     -47.300 -52.357  37.535  1.00  0.00    -0.000 C 
BRANCH   6   7
ATOM      7  C   UNL     1     -48.076 -53.634  37.895  1.00  0.00    -0.000 C 
BRANCH   7   8
ATOM      8  C   UNL     1     -47.181 -54.622  38.656  1.00  0.00    -0.000 C 
BRANCH   8   9
ATOM      9  C   UNL     1     -47.780 -55.056  40.006  1.00  0.00    -0.000 C 
BRANCH   9  10
ATOM     10  C   UNL     1     -47.152 -54.387  41.245  1.00  0.00    -0.000 C 
BRANCH  10  11
ATOM     11  C   UNL     1     -48.086 -53.436  42.014  1.00  0.00    -0.003 C 
ATOM     12  C   UNL     1     -49.323 -53.040  41.211  1.00  0.00     0.004 C 
ENDBRANCH  10  11
ENDBRANCH   9  10
ENDBRANCH   8   9
ENDBRANCH   7   8
ENDBRANCH   6   7
ENDBRANCH   5   6
ENDBRANCH   4   5
ENDBRANCH   3   4
ENDBRANCH   2   3
ENDBRANCH   1   2
BRANCH   1  13
ATOM     13  C   UNL     1     -43.896 -48.819  39.822  1.00  0.00     0.000 C 
BRANCH  13  14
ATOM     14  C   UNL     1     -43.640 -48.363  38.375  1.00  0.00     0.000 C 
BRANCH  14  15
ATOM     15  C   UNL     1     -44.923 -48.396  37.515  1.00  0.00     0.000 C 
BRANCH  15  16
ATOM     16  C   UNL     1     -44.988 -49.593  36.548  1.00  0.00     0.000 C 
BRANCH  16  17
ATOM     17  C   UNL     1     -43.642 -49.983  35.906  1.00  0.00     0.000 C 
BRANCH  17  18
ATOM     18  C   UNL     1     -43.444 -49.487  34.461  1.00  0.00     0.000 C 
BRANCH  18  19
ATOM     19  C   UNL     1     -42.520 -48.263  34.368  1.00  0.00     0.000 C 
BRANCH  19  20
ATOM     20  C   UNL     1     -41.394 -48.346  35.405  1.00  0.00     0.006 C 
BRANCH  20  21
ATOM     21  C   UNL     1     -40.064 -48.720  34.743  1.00  0.00     0.053 C 
BRANCH  21  22
ATOM     22  C   UNL     1     -39.829 -50.194  34.836  1.00  0.00     0.041 C 
ATOM     23  O   UNL     1     -39.876 -50.774  35.953  1.00  0.00    -0.550 OA
ATOM     24  O   UNL     1     -39.605 -50.937  33.683  1.00  0.00    -0.550 OA
ENDBRANCH  21  22
ENDBRANCH  20  21
ENDBRANCH  19  20
ENDBRANCH  18  19
ENDBRANCH  17  18
ENDBRANCH  16  17
ENDBRANCH  15  16
ENDBRANCH  14  15
ENDBRANCH  13  14
ENDBRANCH   1  13
TORSDOF 20
ENDMDL
MODEL 4
REMARK VINA RESULT:    -3.806      2.407      5.951
REMARK INTER + INTRA:         -11.979
REMARK INTER:                  -8.495
REMARK INTRA:                  -3.484
REMARK UNBOUND:                -3.722
REMARK SMILES CCCCCCCCCCCCCCCCCCCCCC(=O)[O-]
REMARK SMILES IDX 12 1 11 2 10 3 9 4 8 5 7 6 6 7 5 8 4 9 3 10 2 11 1 12 13 13
REMARK SMILES IDX 14 14 15 15 16 16 17 17 18 18 19 19 20 20 21 21 22 22 23 23
REMARK SMILES IDX 24 24
REMARK H PARENT
REMARK Flexibility Score: inf
ROOT
ATOM      1  C   UNL     1     -47.896 -54.464  40.468  1.00  0.00     0.000 C 
ENDROOT
BRANCH   1   2
ATOM      2  C   UNL     1     -48.781 -53.276  40.886  1.00  0.00     0.000 C 
BRANCH   2   3
ATOM      3  C   UNL     1     -47.962 -51.981  41.073  1.00  0.00     0.000 C 
BRANCH   3   4
ATOM      4  C   UNL     1     -47.057 -51.999  42.318  1.00  0.00    -0.000 C 
BRANCH   4   5
ATOM      5  C   UNL     1     -45.562 -52.087  41.967  1.00  0.00    -0.000 C 
BRANCH   5   6
ATOM      6  C   UNL     1     -45.106 -50.955  41.034  1.00  0.00    -0.000 C 
BRANCH   6   7
ATOM      7  C   UNL     1     -44.040 -51.408  40.024  1.00  0.00    -0.000 C 
BRANCH   7   8
ATOM      8  C   UNL     1     -42.960 -50.332  39.848  1.00  0.00    -0.000 C 
BRANCH   8   9
ATOM      9  C   UNL     1     -43.291 -49.023  40.588  1.00  0.00    -0.000 C 
BRANCH   9  10
ATOM     10  C   UNL     1     -42.729 -47.744  39.936  1.00  0.00    -0.000 C 
BRANCH  10  11
ATOM     11  C   UNL     1     -43.559 -46.471  40.180  1.00  0.00    -0.003 C 
ATOM     12  C   UNL     1     -43.111 -45.698  41.419  1.00  0.00     0.004 C 
ENDBRANCH  10  11
ENDBRANCH   9  10
ENDBRANCH   8   9
ENDBRANCH   7   8
ENDBRANCH   6   7
ENDBRANCH   5   6
ENDBRANCH   4   5
ENDBRANCH   3   4
ENDBRANCH   2   3
ENDBRANCH   1   2
BRANCH   1  13
ATOM     13  C   UNL     1     -47.618 -54.491  38.957  1.00  0.00     0.000 C 
BRANCH  13  14
ATOM     14  C   UNL     1     -46.145 -54.198  38.622  1.00  0.00     0.000 C 
BRANCH  14  15
ATOM     15  C   UNL     1     -45.995 -53.083  37.565  1.00  0.00     0.000 C 
BRANCH  15  16
ATOM     16  C   UNL     1     -47.232 -52.171  37.448  1.00  0.00     0.000 C 
BRANCH  16  17
ATOM     17  C   UNL     1     -47.023 -50.727  37.943  1.00  0.00     0.000 C 
BRANCH  17  18
ATOM     18  C   UNL     1     -46.469 -49.753  36.886  1.00  0.00     0.000 C 
BRANCH  18  19
ATOM     19  C   UNL     1     -45.427 -48.778  37.456  1.00  0.00     0.000 C 
BRANCH  19  20
ATOM     20  C   UNL     1     -44.134 -48.815  36.635  1.00  0.00     0.006 C 
BRANCH  20  21
ATOM     21  C   UNL     1     -44.233 -49.837  35.499  1.00  0.00     0.053 C 
BRANCH  21  22
ATOM     22  C   UNL     1     -43.345 -49.444  34.361  1.00  0.00     0.041 C 
ATOM     23  O   UNL     1     -42.738 -48.341  34.383  1.00  0.00    -0.550 OA
ATOM     24  O   UNL     1     -43.148 -50.317  33.298  1.00  0.00    -0.550 OA
ENDBRANCH  21  22
ENDBRANCH  20  21
ENDBRANCH  19  20
ENDBRANCH  18  19
ENDBRANCH  17  18
ENDBRANCH  16  17
ENDBRANCH  15  16
ENDBRANCH  14  15
ENDBRANCH  13  14
ENDBRANCH   1  13
TORSDOF 20
ENDMDL
MODEL 5
REMARK VINA RESULT:    -3.774      3.520      7.382
REMARK INTER + INTRA:         -11.910
REMARK INTER:                  -8.481
REMARK INTRA:                  -3.429
REMARK UNBOUND:                -3.722
REMARK SMILES CCCCCCCCCCCCCCCCCCCCCC(=O)[O-]
REMARK SMILES IDX 12 1 11 2 10 3 9 4 8 5 7 6 6 7 5 8 4 9 3 10 2 11 1 12 13 13
REMARK SMILES IDX 14 14 15 15 16 16 17 17 18 18 19 19 20 20 21 21 22 22 23 23
REMARK SMILES IDX 24 24
REMARK H PARENT
REMARK Flexibility Score: inf
ROOT
ATOM      1  C   UNL     1     -42.408 -50.799  39.346  1.00  0.00     0.000 C 
ENDROOT
BRANCH   1   2
ATOM      2  C   UNL     1     -43.011 -50.225  40.641  1.00  0.00     0.000 C 
BRANCH   2   3
ATOM      3  C   UNL     1     -42.932 -48.684  40.684  1.00  0.00     0.000 C 
BRANCH   3   4
ATOM      4  C   UNL     1     -43.331 -48.010  39.358  1.00  0.00    -0.000 C 
BRANCH   4   5
ATOM      5  C   UNL     1     -44.851 -47.993  39.132  1.00  0.00    -0.000 C 
BRANCH   5   6
ATOM      6  C   UNL     1     -45.239 -48.373  37.695  1.00  0.00    -0.000 C 
BRANCH   6   7
ATOM      7  C   UNL     1     -44.019 -48.607  36.790  1.00  0.00    -0.000 C 
BRANCH   7   8
ATOM      8  C   UNL     1     -44.295 -49.730  35.779  1.00  0.00    -0.000 C 
BRANCH   8   9
ATOM      9  C   UNL     1     -43.436 -49.616  34.507  1.00  0.00    -0.000 C 
BRANCH   9  10
ATOM     10  C   UNL     1     -42.570 -48.343  34.416  1.00  0.00    -0.000 C 
BRANCH  10  11
ATOM     11  C   UNL     1     -41.055 -48.577  34.552  1.00  0.00    -0.003 C 
ATOM     12  C   UNL     1     -40.526 -48.248  35.947  1.00  0.00     0.004 C 
ENDBRANCH  10  11
ENDBRANCH   9  10
ENDBRANCH   8   9
ENDBRANCH   7   8
ENDBRANCH   6   7
ENDBRANCH   5   6
ENDBRANCH   4   5
ENDBRANCH   3   4
ENDBRANCH   2   3
ENDBRANCH   1   2
BRANCH   1  13
ATOM     13  C   UNL     1     -43.328 -51.828  38.671  1.00  0.00     0.000 C 
BRANCH  13  14
ATOM     14  C   UNL     1     -44.578 -52.143  39.511  1.00  0.00     0.000 C 
BRANCH  14  15
ATOM     15  C   UNL     1     -45.886 -51.824  38.756  1.00  0.00     0.000 C 
BRANCH  15  16
ATOM     16  C   UNL     1     -46.923 -51.065  39.607  1.00  0.00     0.000 C 
BRANCH  16  17
ATOM     17  C   UNL     1     -46.535 -50.878  41.087  1.00  0.00     0.000 C 
BRANCH  17  18
ATOM     18  C   UNL     1     -47.544 -51.452  42.100  1.00  0.00     0.000 C 
BRANCH  18  19
ATOM     19  C   UNL     1     -48.921 -51.732  41.482  1.00  0.00     0.000 C 
BRANCH  19  20
ATOM     20  C   UNL     1     -49.090 -53.223  41.170  1.00  0.00     0.006 C 
BRANCH  20  21
ATOM     21  C   UNL     1     -47.948 -54.044  41.777  1.00  0.00     0.053 C 
BRANCH  21  22
ATOM     22  C   UNL     1     -47.344 -54.944  40.745  1.00  0.00     0.041 C 
ATOM     23  O   UNL     1     -46.480 -55.798  41.076  1.00  0.00    -0.550 OA
ATOM     24  O   UNL     1     -47.771 -54.872  39.424  1.00  0.00    -0.550 OA
ENDBRANCH  21  22
ENDBRANCH  20  21
ENDBRANCH  19  20
ENDBRANCH  18  19
ENDBRANCH  17  18
ENDBRANCH  16  17
ENDBRANCH  15  16
ENDBRANCH  14  15
ENDBRANCH  13  14
ENDBRANCH   1  13
TORSDOF 20
ENDMDL
MODEL 6
REMARK VINA RESULT:    -3.750      2.693      6.425
REMARK INTER + INTRA:         -11.856
REMARK INTER:                  -7.820
REMARK INTRA:                  -4.036
REMARK UNBOUND:                -3.722
REMARK SMILES CCCCCCCCCCCCCCCCCCCCCC(=O)[O-]
REMARK SMILES IDX 12 1 11 2 10 3 9 4 8 5 7 6 6 7 5 8 4 9 3 10 2 11 1 12 13 13
REMARK SMILES IDX 14 14 15 15 16 16 17 17 18 18 19 19 20 20 21 21 22 22 23 23
REMARK SMILES IDX 24 24
REMARK H PARENT
REMARK Flexibility Score: inf
ROOT
ATOM      1  C   UNL     1     -47.523 -54.739  40.477  1.00  0.00     0.000 C 
ENDROOT
BRANCH   1   2
ATOM      2  C   UNL     1     -47.316 -54.586  38.960  1.00  0.00     0.000 C 
BRANCH   2   3
ATOM      3  C   UNL     1     -48.161 -53.436  38.372  1.00  0.00     0.000 C 
BRANCH   3   4
ATOM      4  C   UNL     1     -47.517 -52.762  37.147  1.00  0.00    -0.000 C 
BRANCH   4   5
ATOM      5  C   UNL     1     -46.025 -52.453  37.353  1.00  0.00    -0.000 C 
BRANCH   5   6
ATOM      6  C   UNL     1     -45.628 -51.071  36.811  1.00  0.00    -0.000 C 
BRANCH   6   7
ATOM      7  C   UNL     1     -46.668 -49.985  37.124  1.00  0.00    -0.000 C 
BRANCH   7   8
ATOM      8  C   UNL     1     -45.984 -48.673  37.532  1.00  0.00    -0.000 C 
BRANCH   8   9
ATOM      9  C   UNL     1     -44.483 -48.649  37.192  1.00  0.00    -0.000 C 
BRANCH   9  10
ATOM     10  C   UNL     1     -43.557 -48.233  38.354  1.00  0.00    -0.000 C 
BRANCH  10  11
ATOM     11  C   UNL     1     -44.259 -47.512  39.518  1.00  0.00    -0.003 C 
ATOM     12  C   UNL     1     -43.278 -46.901  40.518  1.00  0.00     0.004 C 
ENDBRANCH  10  11
ENDBRANCH   9  10
ENDBRANCH   8   9
ENDBRANCH   7   8
ENDBRANCH   6   7
ENDBRANCH   5   6
ENDBRANCH   4   5
ENDBRANCH   3   4
ENDBRANCH   2   3
ENDBRANCH   1   2
BRANCH   1  13
ATOM     13  C   UNL     1     -48.606 -53.796  41.024  1.00  0.00     0.000 C 
BRANCH  13  14
ATOM     14  C   UNL     1     -48.334 -53.363  42.475  1.00  0.00     0.000 C 
BRANCH  14  15
ATOM     15  C   UNL     1     -47.550 -52.035  42.553  1.00  0.00     0.000 C 
BRANCH  15  16
ATOM     16  C   UNL     1     -47.822 -51.087  41.368  1.00  0.00     0.000 C 
BRANCH  16  17
ATOM     17  C   UNL     1     -46.563 -50.605  40.621  1.00  0.00     0.000 C 
BRANCH  17  18
ATOM     18  C   UNL     1     -45.314 -51.484  40.819  1.00  0.00     0.000 C 
BRANCH  18  19
ATOM     19  C   UNL     1     -44.115 -50.705  41.382  1.00  0.00     0.000 C 
BRANCH  19  20
ATOM     20  C   UNL     1     -42.800 -51.207  40.775  1.00  0.00     0.006 C 
BRANCH  20  21
ATOM     21  C   UNL     1     -43.006 -51.681  39.333  1.00  0.00     0.053 C 
BRANCH  21  22
ATOM     22  C   UNL     1     -42.525 -53.088  39.169  1.00  0.00     0.041 C 
ATOM     23  O   UNL     1     -42.567 -53.645  38.041  1.00  0.00    -0.550 OA
ATOM     24  O   UNL     1     -41.982 -53.768  40.253  1.00  0.00    -0.550 OA
ENDBRANCH  21  22
ENDBRANCH  20  21
ENDBRANCH  19  20
ENDBRANCH  18  19
ENDBRANCH  17  18
ENDBRANCH  16  17
ENDBRANCH  15  16
ENDBRANCH  14  15
ENDBRANCH  13  14
ENDBRANCH   1  13
TORSDOF 20
ENDMDL
MODEL 7
REMARK VINA RESULT:    -3.742      2.249      6.467
REMARK INTER + INTRA:         -11.840
REMARK INTER:                  -8.237
REMARK INTRA:                  -3.603
REMARK UNBOUND:                -3.722
REMARK SMILES CCCCCCCCCCCCCCCCCCCCCC(=O)[O-]
REMARK SMILES IDX 12 1 11 2 10 3 9 4 8 5 7 6 6 7 5 8 4 9 3 10 2 11 1 12 13 13
REMARK SMILES IDX 14 14 15 15 16 16 17 17 18 18 19 19 20 20 21 21 22 22 23 23
REMARK SMILES IDX 24 24
REMARK H PARENT
REMARK Flexibility Score: inf
ROOT
ATOM      1  C   UNL     1     -47.976 -53.362  38.250  1.00  0.00     0.000 C 
ENDROOT
BRANCH   1   2
ATOM      2  C   UNL     1     -46.945 -52.701  37.317  1.00  0.00     0.000 C 
BRANCH   2   3
ATOM      3  C   UNL     1     -47.202 -51.188  37.149  1.00  0.00     0.000 C 
BRANCH   3   4
ATOM      4  C   UNL     1     -45.915 -50.359  36.994  1.00  0.00    -0.000 C 
BRANCH   4   5
ATOM      5  C   UNL     1     -46.051 -48.935  37.558  1.00  0.00    -0.000 C 
BRANCH   5   6
ATOM      6  C   UNL     1     -44.773 -48.452  38.261  1.00  0.00    -0.000 C 
BRANCH   6   7
ATOM      7  C   UNL     1     -43.559 -49.349  37.973  1.00  0.00    -0.000 C 
BRANCH   7   8
ATOM      8  C   UNL     1     -42.319 -48.504  37.651  1.00  0.00    -0.000 C 
BRANCH   8   9
ATOM      9  C   UNL     1     -41.342 -49.212  36.695  1.00  0.00    -0.000 C 
BRANCH   9  10
ATOM     10  C   UNL     1     -41.309 -48.649  35.259  1.00  0.00    -0.000 C 
BRANCH  10  11
ATOM     11  C   UNL     1     -42.688 -48.345  34.649  1.00  0.00    -0.003 C 
ATOM     12  C   UNL     1     -43.424 -49.601  34.186  1.00  0.00     0.004 C 
ENDBRANCH  10  11
ENDBRANCH   9  10
ENDBRANCH   8   9
ENDBRANCH   7   8
ENDBRANCH   6   7
ENDBRANCH   5   6
ENDBRANCH   4   5
ENDBRANCH   3   4
ENDBRANCH   2   3
ENDBRANCH   1   2
BRANCH   1  13
ATOM     13  C   UNL     1     -47.363 -54.474  39.114  1.00  0.00     0.000 C 
BRANCH  13  14
ATOM     14  C   UNL     1     -47.981 -54.535  40.522  1.00  0.00     0.000 C 
BRANCH  14  15
ATOM     15  C   UNL     1     -48.906 -53.333  40.809  1.00  0.00     0.000 C 
BRANCH  15  16
ATOM     16  C   UNL     1     -48.452 -52.476  42.006  1.00  0.00     0.000 C 
BRANCH  16  17
ATOM     17  C   UNL     1     -48.227 -50.984  41.689  1.00  0.00     0.000 C 
BRANCH  17  18
ATOM     18  C   UNL     1     -47.047 -50.692  40.744  1.00  0.00     0.000 C 
BRANCH  18  19
ATOM     19  C   UNL     1     -45.703 -51.199  41.289  1.00  0.00     0.000 C 
BRANCH  19  20
ATOM     20  C   UNL     1     -44.903 -51.918  40.196  1.00  0.00     0.006 C 
BRANCH  20  21
ATOM     21  C   UNL     1     -43.690 -52.642  40.789  1.00  0.00     0.053 C 
BRANCH  21  22
ATOM     22  C   UNL     1     -42.422 -51.970  40.368  1.00  0.00     0.041 C 
ATOM     23  O   UNL     1     -41.934 -51.042  41.065  1.00  0.00    -0.550 OA
ATOM     24  O   UNL     1     -41.751 -52.401  39.229  1.00  0.00    -0.550 OA
ENDBRANCH  21  22
ENDBRANCH  20  21
ENDBRANCH  19  20
ENDBRANCH  18  19
ENDBRANCH  17  18
ENDBRANCH  16  17
ENDBRANCH  15  16
ENDBRANCH  14  15
ENDBRANCH  13  14
ENDBRANCH   1  13
TORSDOF 20
ENDMDL
MODEL 8
REMARK VINA RESULT:    -3.737      1.634      4.924
REMARK INTER + INTRA:         -11.829
REMARK INTER:                  -8.264
REMARK INTRA:                  -3.565
REMARK UNBOUND:                -3.722
REMARK SMILES CCCCCCCCCCCCCCCCCCCCCC(=O)[O-]
REMARK SMILES IDX 12 1 11 2 10 3 9 4 8 5 7 6 6 7 5 8 4 9 3 10 2 11 1 12 13 13
REMARK SMILES IDX 14 14 15 15 16 16 17 17 18 18 19 19 20 20 21 21 22 22 23 23
REMARK SMILES IDX 24 24
REMARK H PARENT
REMARK Flexibility Score: inf
ROOT
ATOM      1  C   UNL     1     -47.692 -52.235  42.292  1.00  0.00     0.000 C 
ENDROOT
BRANCH   1   2
ATOM      2  C   UNL     1     -48.747 -53.254  41.826  1.00  0.00     0.000 C 
BRANCH   2   3
ATOM      3  C   UNL     1     -48.749 -53.426  40.292  1.00  0.00     0.000 C 
BRANCH   3   4
ATOM      4  C   UNL     1     -47.785 -54.518  39.794  1.00  0.00    -0.000 C 
BRANCH   4   5
ATOM      5  C   UNL     1     -47.027 -54.108  38.521  1.00  0.00    -0.000 C 
BRANCH   5   6
ATOM      6  C   UNL     1     -47.563 -52.806  37.906  1.00  0.00    -0.000 C 
BRANCH   6   7
ATOM      7  C   UNL     1     -46.466 -51.972  37.227  1.00  0.00    -0.000 C 
BRANCH   7   8
ATOM      8  C   UNL     1     -46.831 -50.480  37.234  1.00  0.00    -0.000 C 
BRANCH   8   9
ATOM      9  C   UNL     1     -45.598 -49.562  37.322  1.00  0.00    -0.000 C 
BRANCH   9  10
ATOM     10  C   UNL     1     -44.648 -49.627  36.109  1.00  0.00    -0.000 C 
BRANCH  10  11
ATOM     11  C   UNL     1     -43.153 -49.733  36.460  1.00  0.00    -0.003 C 
ATOM     12  C   UNL     1     -42.846 -50.889  37.410  1.00  0.00     0.004 C 
ENDBRANCH  10  11
ENDBRANCH   9  10
ENDBRANCH   8   9
ENDBRANCH   7   8
ENDBRANCH   6   7
ENDBRANCH   5   6
ENDBRANCH   4   5
ENDBRANCH   3   4
ENDBRANCH   2   3
ENDBRANCH   1   2
BRANCH   1  13
ATOM     13  C   UNL     1     -47.722 -50.936  41.473  1.00  0.00     0.000 C 
BRANCH  13  14
ATOM     14  C   UNL     1     -46.355 -50.597  40.853  1.00  0.00     0.000 C 
BRANCH  14  15
ATOM     15  C   UNL     1     -45.379 -51.793  40.899  1.00  0.00     0.000 C 
BRANCH  15  16
ATOM     16  C   UNL     1     -43.895 -51.383  40.825  1.00  0.00     0.000 C 
BRANCH  16  17
ATOM     17  C   UNL     1     -43.443 -50.386  41.909  1.00  0.00     0.000 C 
BRANCH  17  18
ATOM     18  C   UNL     1     -42.770 -49.107  41.374  1.00  0.00     0.000 C 
BRANCH  18  19
ATOM     19  C   UNL     1     -43.518 -48.487  40.185  1.00  0.00     0.000 C 
BRANCH  19  20
ATOM     20  C   UNL     1     -42.626 -47.494  39.432  1.00  0.00     0.006 C 
BRANCH  20  21
ATOM     21  C   UNL     1     -41.635 -46.816  40.383  1.00  0.00     0.053 C 
BRANCH  21  22
ATOM     22  C   UNL     1     -42.235 -45.578  40.970  1.00  0.00     0.041 C 
ATOM     23  O   UNL     1     -42.007 -45.271  42.169  1.00  0.00    -0.550 OA
ATOM     24  O   UNL     1     -43.008 -44.736  40.179  1.00  0.00    -0.550 OA
ENDBRANCH  21  22
ENDBRANCH  20  21
ENDBRANCH  19  20
ENDBRANCH  18  19
ENDBRANCH  17  18
ENDBRANCH  16  17
ENDBRANCH  15  16
ENDBRANCH  14  15
ENDBRANCH  13  14
ENDBRANCH   1  13
TORSDOF 20
ENDMDL
MODEL 9
REMARK VINA RESULT:    -3.719      1.711      3.973
REMARK INTER + INTRA:         -11.790
REMARK INTER:                  -8.536
REMARK INTRA:                  -3.254
REMARK UNBOUND:                -3.722
REMARK SMILES CCCCCCCCCCCCCCCCCCCCCC(=O)[O-]
REMARK SMILES IDX 12 1 11 2 10 3 9 4 8 5 7 6 6 7 5 8 4 9 3 10 2 11 1 12 13 13
REMARK SMILES IDX 14 14 15 15 16 16 17 17 18 18 19 19 20 20 21 21 22 22 23 23
REMARK SMILES IDX 24 24
REMARK H PARENT
REMARK Flexibility Score: inf
ROOT
ATOM      1  C   UNL     1     -45.712 -52.768  37.294  1.00  0.00     0.000 C 
ENDROOT
BRANCH   1   2
ATOM      2  C   UNL     1     -47.191 -52.359  37.414  1.00  0.00     0.000 C 
BRANCH   2   3
ATOM      3  C   UNL     1     -48.007 -53.371  38.247  1.00  0.00     0.000 C 
BRANCH   3   4
ATOM      4  C   UNL     1     -47.137 -54.291  39.123  1.00  0.00    -0.000 C 
BRANCH   4   5
ATOM      5  C   UNL     1     -47.473 -54.180  40.619  1.00  0.00    -0.000 C 
BRANCH   5   6
ATOM      6  C   UNL     1     -48.912 -53.703  40.869  1.00  0.00    -0.000 C 
BRANCH   6   7
ATOM      7  C   UNL     1     -48.975 -52.386  41.659  1.00  0.00    -0.000 C 
BRANCH   7   8
ATOM      8  C   UNL     1     -47.564 -51.868  41.971  1.00  0.00    -0.000 C 
BRANCH   8   9
ATOM      9  C   UNL     1     -47.177 -50.638  41.130  1.00  0.00    -0.000 C 
BRANCH   9  10
ATOM     10  C   UNL     1     -45.742 -50.659  40.564  1.00  0.00    -0.000 C 
BRANCH  10  11
ATOM     11  C   UNL     1     -44.745 -51.524  41.355  1.00  0.00    -0.003 C 
ATOM     12  C   UNL     1     -44.018 -52.543  40.479  1.00  0.00     0.004 C 
ENDBRANCH  10  11
ENDBRANCH   9  10
ENDBRANCH   8   9
ENDBRANCH   7   8
ENDBRANCH   6   7
ENDBRANCH   5   6
ENDBRANCH   4   5
ENDBRANCH   3   4
ENDBRANCH   2   3
ENDBRANCH   1   2
BRANCH   1  13
ATOM     13  C   UNL     1     -44.803 -51.592  36.905  1.00  0.00     0.000 C 
BRANCH  13  14
ATOM     14  C   UNL     1     -45.553 -50.249  36.885  1.00  0.00     0.000 C 
BRANCH  14  15
ATOM     15  C   UNL     1     -44.602 -49.050  36.675  1.00  0.00     0.000 C 
BRANCH  15  16
ATOM     16  C   UNL     1     -43.183 -49.284  37.228  1.00  0.00     0.000 C 
BRANCH  16  17
ATOM     17  C   UNL     1     -43.050 -49.145  38.757  1.00  0.00     0.000 C 
BRANCH  17  18
ATOM     18  C   UNL     1     -43.713 -47.890  39.355  1.00  0.00     0.000 C 
BRANCH  18  19
ATOM     19  C   UNL     1     -42.694 -46.838  39.820  1.00  0.00     0.000 C 
BRANCH  19  20
ATOM     20  C   UNL     1     -42.351 -47.024  41.303  1.00  0.00     0.006 C 
BRANCH  20  21
ATOM     21  C   UNL     1     -42.485 -45.704  42.068  1.00  0.00     0.053 C 
BRANCH  21  22
ATOM     22  C   UNL     1     -41.221 -44.909  41.966  1.00  0.00     0.041 C 
ATOM     23  O   UNL     1     -41.225 -43.678  42.226  1.00  0.00    -0.550 OA
ATOM     24  O   UNL     1     -40.028 -45.540  41.632  1.00  0.00    -0.550 OA
ENDBRANCH  21  22
ENDBRANCH  20  21
ENDBRANCH  19  20
ENDBRANCH  18  19
ENDBRANCH  17  18
ENDBRANCH  16  17
ENDBRANCH  15  16
ENDBRANCH  14  15
ENDBRANCH  13  14
ENDBRANCH   1  13
TORSDOF 20
ENDMDL
