MODEL 1
REMARK VINA RESULT:    -4.412      0.000      0.000
REMARK INTER + INTRA:         -12.390
REMARK INTER:                  -9.570
REMARK INTRA:                  -2.820
REMARK UNBOUND:                -2.820
REMARK SMILES CCCCCCCCCCCCCCCCCCCCCC(=O)[O-]
REMARK SMILES IDX 12 1 11 2 10 3 9 4 8 5 7 6 6 7 5 8 4 9 3 10 2 11 1 12 13 13
REMARK SMILES IDX 14 14 15 15 16 16 17 17 18 18 19 19 20 20 21 21 22 22 23 23
REMARK SMILES IDX 24 24
REMARK H PARENT
REMARK Flexibility Score: inf
ROOT
ATOM      1  C   UNL     1      -6.499 -17.512 -13.201  1.00  0.00     0.000 C 
ENDROOT
BRANCH   1   2
ATOM      2  C   UNL     1      -5.847 -16.148 -12.908  1.00  0.00     0.000 C 
BRANCH   2   3
ATOM      3  C   UNL     1      -6.570 -14.940 -13.535  1.00  0.00     0.000 C 
BRANCH   3   4
ATOM      4  C   UNL     1      -5.711 -14.203 -14.576  1.00  0.00    -0.000 C 
BRANCH   4   5
ATOM      5  C   UNL     1      -5.898 -14.763 -15.995  1.00  0.00    -0.000 C 
BRANCH   5   6
ATOM      6  C   UNL     1      -7.357 -15.160 -16.281  1.00  0.00    -0.000 C 
BRANCH   6   7
ATOM      7  C   UNL     1      -7.484 -16.597 -16.813  1.00  0.00    -0.000 C 
BRANCH   7   8
ATOM      8  C   UNL     1      -6.143 -17.166 -17.312  1.00  0.00    -0.000 C 
BRANCH   8   9
ATOM      9  C   UNL     1      -5.967 -18.651 -16.925  1.00  0.00    -0.000 C 
BRANCH   9  10
ATOM     10  C   UNL     1      -4.649 -18.945 -16.188  1.00  0.00    -0.000 C 
BRANCH  10  11
ATOM     11  C   UNL     1      -3.907 -17.672 -15.756  1.00  0.00    -0.003 C 
ATOM     12  C   UNL     1      -2.871 -17.978 -14.677  1.00  0.00     0.004 C 
ENDBRANCH  10  11
ENDBRANCH   9  10
ENDBRANCH   8   9
ENDBRANCH   7   8
ENDBRANCH   6   7
ENDBRANCH   5   6
ENDBRANCH   4   5
ENDBRANCH   3   4
ENDBRANCH   2   3
ENDBRANCH   1   2
BRANCH   1  13
ATOM     13  C   UNL     1      -6.807 -18.315 -11.925  1.00  0.00     0.000 C 
BRANCH  13  14
ATOM     14  C   UNL     1      -7.525 -17.477 -10.856  1.00  0.00     0.000 C 
BRANCH  14  15
ATOM     15  C   UNL     1      -7.890 -18.303  -9.609  1.00  0.00     0.000 C 
BRANCH  15  16
ATOM     16  C   UNL     1      -6.778 -19.287  -9.208  1.00  0.00     0.000 C 
BRANCH  16  17
ATOM     17  C   UNL     1      -6.281 -19.056  -7.770  1.00  0.00     0.000 C 
BRANCH  17  18
ATOM     18  C   UNL     1      -6.960 -17.855  -7.086  1.00  0.00     0.000 C 
BRANCH  18  19
ATOM     19  C   UNL     1      -7.440 -18.111  -5.646  1.00  0.00     0.000 C 
BRANCH  19  20
ATOM     20  C   UNL     1      -8.370 -19.328  -5.530  1.00  0.00     0.006 C 
BRANCH  20  21
ATOM     21  C   UNL     1      -9.650 -19.122  -6.346  1.00  0.00     0.053 C 
BRANCH  21  22
ATOM     22  C   UNL     1     -10.094 -20.412  -6.962  1.00  0.00     0.041 C 
ATOM     23  O   UNL     1      -9.259 -21.155  -7.544  1.00  0.00    -0.550 OA
ATOM     24  O   UNL     1     -11.422 -20.810  -6.862  1.00  0.00    -0.550 OA
ENDBRANCH  21  22
ENDBRANCH  20  21
ENDBRANCH  19  20
ENDBRANCH  18  19
ENDBRANCH  17  18
ENDBRANCH  16  17
ENDBRANCH  15  16
ENDBRANCH  14  15
ENDBRANCH  13  14
ENDBRANCH   1  13
TORSDOF 20
ENDMDL
MODEL 2
REMARK VINA RESULT:    -4.390     12.710     15.744
REMARK INTER + INTRA:         -12.343
REMARK INTER:                  -8.906
REMARK INTRA:                  -3.437
REMARK UNBOUND:                -2.820
REMARK SMILES CCCCCCCCCCCCCCCCCCCCCC(=O)[O-]
REMARK SMILES IDX 12 1 11 2 10 3 9 4 8 5 7 6 6 7 5 8 4 9 3 10 2 11 1 12 13 13
REMARK SMILES IDX 14 14 15 15 16 16 17 17 18 18 19 19 20 20 21 21 22 22 23 23
REMARK SMILES IDX 24 24
REMARK H PARENT
REMARK Flexibility Score: inf
ROOT
ATOM      1  C   UNL     1       2.512 -22.922  -1.880  1.00  0.00     0.000 C 
ENDROOT
BRANCH   1   2
ATOM      2  C   UNL     1       3.914 -22.829  -2.512  1.00  0.00     0.000 C 
BRANCH   2   3
ATOM      3  C   UNL     1       4.406 -24.127  -3.180  1.00  0.00     0.000 C 
BRANCH   3   4
ATOM      4  C   UNL     1       3.306 -24.843  -3.981  1.00  0.00    -0.000 C 
BRANCH   4   5
ATOM      5  C   UNL     1       3.820 -25.402  -5.318  1.00  0.00    -0.000 C 
BRANCH   5   6
ATOM      6  C   UNL     1       3.234 -24.654  -6.529  1.00  0.00    -0.000 C 
BRANCH   6   7
ATOM      7  C   UNL     1       3.862 -23.264  -6.724  1.00  0.00    -0.000 C 
BRANCH   7   8
ATOM      8  C   UNL     1       2.811 -22.164  -6.953  1.00  0.00    -0.000 C 
BRANCH   8   9
ATOM      9  C   UNL     1       2.371 -21.501  -5.630  1.00  0.00    -0.000 C 
BRANCH   9  10
ATOM     10  C   UNL     1       1.029 -22.027  -5.092  1.00  0.00    -0.000 C 
BRANCH  10  11
ATOM     11  C   UNL     1       0.133 -22.616  -6.190  1.00  0.00    -0.003 C 
ATOM     12  C   UNL     1      -1.309 -22.133  -6.043  1.00  0.00     0.004 C 
ENDBRANCH  10  11
ENDBRANCH   9  10
ENDBRANCH   8   9
ENDBRANCH   7   8
ENDBRANCH   6   7
ENDBRANCH   5   6
ENDBRANCH   4   5
ENDBRANCH   3   4
ENDBRANCH   2   3
ENDBRANCH   1   2
BRANCH   1  13
ATOM     13  C   UNL     1       2.514 -23.648  -0.524  1.00  0.00     0.000 C 
BRANCH  13  14
ATOM     14  C   UNL     1       3.626 -23.151   0.413  1.00  0.00     0.000 C 
BRANCH  14  15
ATOM     15  C   UNL     1       4.624 -24.264   0.783  1.00  0.00     0.000 C 
BRANCH  15  16
ATOM     16  C   UNL     1       4.207 -25.637   0.229  1.00  0.00     0.000 C 
BRANCH  16  17
ATOM     17  C   UNL     1       5.371 -26.369  -0.461  1.00  0.00     0.000 C 
BRANCH  17  18
ATOM     18  C   UNL     1       4.903 -27.517  -1.373  1.00  0.00     0.000 C 
BRANCH  18  19
ATOM     19  C   UNL     1       3.411 -27.877  -1.253  1.00  0.00     0.000 C 
BRANCH  19  20
ATOM     20  C   UNL     1       2.790 -28.316  -2.588  1.00  0.00     0.006 C 
BRANCH  20  21
ATOM     21  C   UNL     1       3.650 -29.385  -3.270  1.00  0.00     0.053 C 
BRANCH  21  22
ATOM     22  C   UNL     1       3.639 -29.198  -4.756  1.00  0.00     0.041 C 
ATOM     23  O   UNL     1       2.692 -28.577  -5.308  1.00  0.00    -0.550 OA
ATOM     24  O   UNL     1       4.692 -29.678  -5.525  1.00  0.00    -0.550 OA
ENDBRANCH  21  22
ENDBRANCH  20  21
ENDBRANCH  19  20
ENDBRANCH  18  19
ENDBRANCH  17  18
ENDBRANCH  16  17
ENDBRANCH  15  16
ENDBRANCH  14  15
ENDBRANCH  13  14
ENDBRANCH   1  13
TORSDOF 20
ENDMDL
MODEL 3
REMARK VINA RESULT:    -4.376      7.883     11.274
REMARK INTER + INTRA:         -12.314
REMARK INTER:                  -9.570
REMARK INTRA:                  -2.744
REMARK UNBOUND:                -2.820
REMARK SMILES CCCCCCCCCCCCCCCCCCCCCC(=O)[O-]
REMARK SMILES IDX 12 1 11 2 10 3 9 4 8 5 7 6 6 7 5 8 4 9 3 10 2 11 1 12 13 13
REMARK SMILES IDX 14 14 15 15 16 16 17 17 18 18 19 19 20 20 21 21 22 22 23 23
REMARK SMILES IDX 24 24
REMARK H PARENT
REMARK Flexibility Score: inf
ROOT
ATOM      1  C   UNL     1     -10.618 -28.801 -17.139  1.00  0.00     0.000 C 
ENDROOT
BRANCH   1   2
ATOM      2  C   UNL     1     -10.154 -28.902 -15.674  1.00  0.00     0.000 C 
BRANCH   2   3
ATOM      3  C   UNL     1      -8.777 -28.272 -15.389  1.00  0.00     0.000 C 
BRANCH   3   4
ATOM      4  C   UNL     1      -8.869 -26.980 -14.560  1.00  0.00    -0.000 C 
BRANCH   4   5
ATOM      5  C   UNL     1     -10.248 -26.310 -14.666  1.00  0.00    -0.000 C 
BRANCH   5   6
ATOM      6  C   UNL     1     -10.158 -24.774 -14.619  1.00  0.00    -0.000 C 
BRANCH   6   7
ATOM      7  C   UNL     1      -8.713 -24.272 -14.462  1.00  0.00    -0.000 C 
BRANCH   7   8
ATOM      8  C   UNL     1      -8.492 -22.888 -15.099  1.00  0.00    -0.000 C 
BRANCH   8   9
ATOM      9  C   UNL     1      -7.557 -22.003 -14.247  1.00  0.00    -0.000 C 
BRANCH   9  10
ATOM     10  C   UNL     1      -8.033 -20.545 -14.120  1.00  0.00    -0.000 C 
BRANCH  10  11
ATOM     11  C   UNL     1      -7.877 -19.749 -15.424  1.00  0.00    -0.003 C 
ATOM     12  C   UNL     1      -6.424 -19.742 -15.894  1.00  0.00     0.004 C 
ENDBRANCH  10  11
ENDBRANCH   9  10
ENDBRANCH   8   9
ENDBRANCH   7   8
ENDBRANCH   6   7
ENDBRANCH   5   6
ENDBRANCH   4   5
ENDBRANCH   3   4
ENDBRANCH   2   3
ENDBRANCH   1   2
BRANCH   1  13
ATOM     13  C   UNL     1      -9.451 -28.613 -18.124  1.00  0.00     0.000 C 
BRANCH  13  14
ATOM     14  C   UNL     1      -9.616 -27.367 -19.008  1.00  0.00     0.000 C 
BRANCH  14  15
ATOM     15  C   UNL     1      -9.764 -26.076 -18.182  1.00  0.00     0.000 C 
BRANCH  15  16
ATOM     16  C   UNL     1      -8.527 -25.168 -18.281  1.00  0.00     0.000 C 
BRANCH  16  17
ATOM     17  C   UNL     1      -7.279 -25.929 -18.761  1.00  0.00     0.000 C 
BRANCH  17  18
ATOM     18  C   UNL     1      -5.968 -25.177 -18.471  1.00  0.00     0.000 C 
BRANCH  18  19
ATOM     19  C   UNL     1      -5.894 -24.507 -17.087  1.00  0.00     0.000 C 
BRANCH  19  20
ATOM     20  C   UNL     1      -4.646 -23.627 -16.912  1.00  0.00     0.006 C 
BRANCH  20  21
ATOM     21  C   UNL     1      -3.365 -24.443 -17.111  1.00  0.00     0.053 C 
BRANCH  21  22
ATOM     22  C   UNL     1      -2.656 -24.633 -15.806  1.00  0.00     0.041 C 
ATOM     23  O   UNL     1      -3.312 -24.871 -14.758  1.00  0.00    -0.550 OA
ATOM     24  O   UNL     1      -1.268 -24.581 -15.756  1.00  0.00    -0.550 OA
ENDBRANCH  21  22
ENDBRANCH  20  21
ENDBRANCH  19  20
ENDBRANCH  18  19
ENDBRANCH  17  18
ENDBRANCH  16  17
ENDBRANCH  15  16
ENDBRANCH  14  15
ENDBRANCH  13  14
ENDBRANCH   1  13
TORSDOF 20
ENDMDL
MODEL 4
REMARK VINA RESULT:    -4.348      7.834     10.305
REMARK INTER + INTRA:         -12.253
REMARK INTER:                  -8.337
REMARK INTRA:                  -3.916
REMARK UNBOUND:                -2.820
REMARK SMILES CCCCCCCCCCCCCCCCCCCCCC(=O)[O-]
REMARK SMILES IDX 12 1 11 2 10 3 9 4 8 5 7 6 6 7 5 8 4 9 3 10 2 11 1 12 13 13
REMARK SMILES IDX 14 14 15 15 16 16 17 17 18 18 19 19 20 20 21 21 22 22 23 23
REMARK SMILES IDX 24 24
REMARK H PARENT
REMARK Flexibility Score: inf
ROOT
ATOM      1  C   UNL     1      -3.597 -23.489 -13.529  1.00  0.00     0.000 C 
ENDROOT
BRANCH   1   2
ATOM      2  C   UNL     1      -3.518 -23.054 -15.005  1.00  0.00     0.000 C 
BRANCH   2   3
ATOM      3  C   UNL     1      -3.532 -24.213 -16.020  1.00  0.00     0.000 C 
BRANCH   3   4
ATOM      4  C   UNL     1      -2.187 -24.392 -16.744  1.00  0.00    -0.000 C 
BRANCH   4   5
ATOM      5  C   UNL     1      -1.315 -23.128 -16.687  1.00  0.00    -0.000 C 
BRANCH   5   6
ATOM      6  C   UNL     1       0.048 -23.386 -16.020  1.00  0.00    -0.000 C 
BRANCH   6   7
ATOM      7  C   UNL     1       1.025 -22.213 -16.203  1.00  0.00    -0.000 C 
BRANCH   7   8
ATOM      8  C   UNL     1       1.382 -21.524 -14.874  1.00  0.00    -0.000 C 
BRANCH   8   9
ATOM      9  C   UNL     1       0.511 -20.275 -14.618  1.00  0.00    -0.000 C 
BRANCH   9  10
ATOM     10  C   UNL     1      -0.841 -20.590 -13.956  1.00  0.00    -0.000 C 
BRANCH  10  11
ATOM     11  C   UNL     1      -1.118 -19.724 -12.719  1.00  0.00    -0.003 C 
ATOM     12  C   UNL     1      -2.296 -20.273 -11.915  1.00  0.00     0.004 C 
ENDBRANCH  10  11
ENDBRANCH   9  10
ENDBRANCH   8   9
ENDBRANCH   7   8
ENDBRANCH   6   7
ENDBRANCH   5   6
ENDBRANCH   4   5
ENDBRANCH   3   4
ENDBRANCH   2   3
ENDBRANCH   1   2
BRANCH   1  13
ATOM     13  C   UNL     1      -2.227 -23.876 -12.945  1.00  0.00     0.000 C 
BRANCH  13  14
ATOM     14  C   UNL     1      -2.069 -25.393 -12.760  1.00  0.00     0.000 C 
BRANCH  14  15
ATOM     15  C   UNL     1      -0.735 -25.917 -13.323  1.00  0.00     0.000 C 
BRANCH  15  16
ATOM     16  C   UNL     1       0.429 -24.941 -13.086  1.00  0.00     0.000 C 
BRANCH  16  17
ATOM     17  C   UNL     1       1.144 -25.195 -11.747  1.00  0.00     0.000 C 
BRANCH  17  18
ATOM     18  C   UNL     1       1.772 -23.922 -11.151  1.00  0.00     0.000 C 
BRANCH  18  19
ATOM     19  C   UNL     1       0.974 -22.628 -11.390  1.00  0.00     0.000 C 
BRANCH  19  20
ATOM     20  C   UNL     1       1.509 -21.436 -10.582  1.00  0.00     0.006 C 
BRANCH  20  21
ATOM     21  C   UNL     1       2.484 -20.599 -11.415  1.00  0.00     0.053 C 
BRANCH  21  22
ATOM     22  C   UNL     1       3.893 -20.831 -10.966  1.00  0.00     0.041 C 
ATOM     23  O   UNL     1       4.571 -21.765 -11.471  1.00  0.00    -0.550 OA
ATOM     24  O   UNL     1       4.467 -19.996 -10.016  1.00  0.00    -0.550 OA
ENDBRANCH  21  22
ENDBRANCH  20  21
ENDBRANCH  19  20
ENDBRANCH  18  19
ENDBRANCH  17  18
ENDBRANCH  16  17
ENDBRANCH  15  16
ENDBRANCH  14  15
ENDBRANCH  13  14
ENDBRANCH   1  13
TORSDOF 20
ENDMDL
MODEL 5
REMARK VINA RESULT:    -4.341      7.344     10.620
REMARK INTER + INTRA:         -12.238
REMARK INTER:                  -8.996
REMARK INTRA:                  -3.242
REMARK UNBOUND:                -2.820
REMARK SMILES CCCCCCCCCCCCCCCCCCCCCC(=O)[O-]
REMARK SMILES IDX 12 1 11 2 10 3 9 4 8 5 7 6 6 7 5 8 4 9 3 10 2 11 1 12 13 13
REMARK SMILES IDX 14 14 15 15 16 16 17 17 18 18 19 19 20 20 21 21 22 22 23 23
REMARK SMILES IDX 24 24
REMARK H PARENT
REMARK Flexibility Score: inf
ROOT
ATOM      1  C   UNL     1      -3.548 -23.995 -15.378  1.00  0.00     0.000 C 
ENDROOT
BRANCH   1   2
ATOM      2  C   UNL     1      -4.376 -23.200 -16.405  1.00  0.00     0.000 C 
BRANCH   2   3
ATOM      3  C   UNL     1      -4.707 -21.755 -15.986  1.00  0.00     0.000 C 
BRANCH   3   4
ATOM      4  C   UNL     1      -3.506 -21.021 -15.365  1.00  0.00    -0.000 C 
BRANCH   4   5
ATOM      5  C   UNL     1      -3.899 -20.184 -14.137  1.00  0.00    -0.000 C 
BRANCH   5   6
ATOM      6  C   UNL     1      -2.834 -20.235 -13.028  1.00  0.00    -0.000 C 
BRANCH   6   7
ATOM      7  C   UNL     1      -2.215 -21.634 -12.868  1.00  0.00    -0.000 C 
BRANCH   7   8
ATOM      8  C   UNL     1      -1.302 -21.742 -11.634  1.00  0.00    -0.000 C 
BRANCH   8   9
ATOM      9  C   UNL     1      -0.999 -23.211 -11.267  1.00  0.00    -0.000 C 
BRANCH   9  10
ATOM     10  C   UNL     1       0.449 -23.447 -10.803  1.00  0.00    -0.000 C 
BRANCH  10  11
ATOM     11  C   UNL     1       1.264 -24.292 -11.792  1.00  0.00    -0.003 C 
ATOM     12  C   UNL     1       0.350 -25.111 -12.701  1.00  0.00     0.004 C 
ENDBRANCH  10  11
ENDBRANCH   9  10
ENDBRANCH   8   9
ENDBRANCH   7   8
ENDBRANCH   6   7
ENDBRANCH   5   6
ENDBRANCH   4   5
ENDBRANCH   3   4
ENDBRANCH   2   3
ENDBRANCH   1   2
BRANCH   1  13
ATOM     13  C   UNL     1      -2.314 -24.672 -15.999  1.00  0.00     0.000 C 
BRANCH  13  14
ATOM     14  C   UNL     1      -1.257 -23.660 -16.471  1.00  0.00     0.000 C 
BRANCH  14  15
ATOM     15  C   UNL     1       0.118 -23.900 -15.821  1.00  0.00     0.000 C 
BRANCH  15  16
ATOM     16  C   UNL     1       1.038 -22.673 -15.921  1.00  0.00     0.000 C 
BRANCH  16  17
ATOM     17  C   UNL     1       0.256 -21.348 -15.870  1.00  0.00     0.000 C 
BRANCH  17  18
ATOM     18  C   UNL     1       0.586 -20.503 -14.627  1.00  0.00     0.000 C 
BRANCH  18  19
ATOM     19  C   UNL     1       2.015 -20.678 -14.080  1.00  0.00     0.000 C 
BRANCH  19  20
ATOM     20  C   UNL     1       2.087 -20.583 -12.548  1.00  0.00     0.006 C 
BRANCH  20  21
ATOM     21  C   UNL     1       3.456 -20.071 -12.092  1.00  0.00     0.053 C 
BRANCH  21  22
ATOM     22  C   UNL     1       4.376 -21.217 -11.805  1.00  0.00     0.041 C 
ATOM     23  O   UNL     1       5.438 -21.358 -12.469  1.00  0.00    -0.550 OA
ATOM     24  O   UNL     1       4.079 -22.108 -10.780  1.00  0.00    -0.550 OA
ENDBRANCH  21  22
ENDBRANCH  20  21
ENDBRANCH  19  20
ENDBRANCH  18  19
ENDBRANCH  17  18
ENDBRANCH  16  17
ENDBRANCH  15  16
ENDBRANCH  14  15
ENDBRANCH  13  14
ENDBRANCH   1  13
TORSDOF 20
ENDMDL
MODEL 6
REMARK VINA RESULT:    -4.323     15.131     18.436
REMARK INTER + INTRA:         -12.198
REMARK INTER:                  -8.550
REMARK INTRA:                  -3.647
REMARK UNBOUND:                -2.820
REMARK SMILES CCCCCCCCCCCCCCCCCCCCCC(=O)[O-]
REMARK SMILES IDX 12 1 11 2 10 3 9 4 8 5 7 6 6 7 5 8 4 9 3 10 2 11 1 12 13 13
REMARK SMILES IDX 14 14 15 15 16 16 17 17 18 18 19 19 20 20 21 21 22 22 23 23
REMARK SMILES IDX 24 24
REMARK H PARENT
REMARK Flexibility Score: inf
ROOT
ATOM      1  C   UNL     1       2.773 -27.239  -1.307  1.00  0.00     0.000 C 
ENDROOT
BRANCH   1   2
ATOM      2  C   UNL     1       4.261 -27.594  -1.477  1.00  0.00     0.000 C 
BRANCH   2   3
ATOM      3  C   UNL     1       5.237 -26.640  -0.763  1.00  0.00     0.000 C 
BRANCH   3   4
ATOM      4  C   UNL     1       4.852 -26.376   0.703  1.00  0.00    -0.000 C 
BRANCH   4   5
ATOM      5  C   UNL     1       5.101 -24.919   1.124  1.00  0.00    -0.000 C 
BRANCH   5   6
ATOM      6  C   UNL     1       3.822 -24.065   1.061  1.00  0.00    -0.000 C 
BRANCH   6   7
ATOM      7  C   UNL     1       3.752 -23.201  -0.209  1.00  0.00    -0.000 C 
BRANCH   7   8
ATOM      8  C   UNL     1       2.576 -23.586  -1.125  1.00  0.00    -0.000 C 
BRANCH   8   9
ATOM      9  C   UNL     1       2.919 -23.389  -2.618  1.00  0.00    -0.000 C 
BRANCH   9  10
ATOM     10  C   UNL     1       4.361 -23.786  -2.979  1.00  0.00    -0.000 C 
BRANCH  10  11
ATOM     11  C   UNL     1       4.458 -24.541  -4.312  1.00  0.00    -0.003 C 
ATOM     12  C   UNL     1       3.229 -25.418  -4.539  1.00  0.00     0.004 C 
ENDBRANCH  10  11
ENDBRANCH   9  10
ENDBRANCH   8   9
ENDBRANCH   7   8
ENDBRANCH   6   7
ENDBRANCH   5   6
ENDBRANCH   4   5
ENDBRANCH   3   4
ENDBRANCH   2   3
ENDBRANCH   1   2
BRANCH   1  13
ATOM     13  C   UNL     1       1.928 -28.425  -0.809  1.00  0.00     0.000 C 
BRANCH  13  14
ATOM     14  C   UNL     1       1.995 -28.601   0.716  1.00  0.00     0.000 C 
BRANCH  14  15
ATOM     15  C   UNL     1       2.527 -29.987   1.124  1.00  0.00     0.000 C 
BRANCH  15  16
ATOM     16  C   UNL     1       4.041 -30.128   0.893  1.00  0.00     0.000 C 
BRANCH  16  17
ATOM     17  C   UNL     1       4.450 -31.571   0.548  1.00  0.00     0.000 C 
BRANCH  17  18
ATOM     18  C   UNL     1       3.727 -32.118  -0.696  1.00  0.00     0.000 C 
BRANCH  18  19
ATOM     19  C   UNL     1       4.055 -31.391  -2.013  1.00  0.00     0.000 C 
BRANCH  19  20
ATOM     20  C   UNL     1       2.825 -31.195  -2.913  1.00  0.00     0.006 C 
BRANCH  20  21
ATOM     21  C   UNL     1       1.558 -31.726  -2.236  1.00  0.00     0.053 C 
BRANCH  21  22
ATOM     22  C   UNL     1       0.416 -31.747  -3.204  1.00  0.00     0.041 C 
ATOM     23  O   UNL     1       0.334 -32.663  -4.066  1.00  0.00    -0.550 OA
ATOM     24  O   UNL     1      -0.577 -30.777  -3.131  1.00  0.00    -0.550 OA
ENDBRANCH  21  22
ENDBRANCH  20  21
ENDBRANCH  19  20
ENDBRANCH  18  19
ENDBRANCH  17  18
ENDBRANCH  16  17
ENDBRANCH  15  16
ENDBRANCH  14  15
ENDBRANCH  13  14
ENDBRANCH   1  13
TORSDOF 20
ENDMDL
MODEL 7
REMARK VINA RESULT:    -4.298      9.949     13.869
REMARK INTER + INTRA:         -12.143
REMARK INTER:                 -10.599
REMARK INTRA:                  -1.543
REMARK UNBOUND:                -2.820
REMARK SMILES CCCCCCCCCCCCCCCCCCCCCC(=O)[O-]
REMARK SMILES IDX 12 1 11 2 10 3 9 4 8 5 7 6 6 7 5 8 4 9 3 10 2 11 1 12 13 13
REMARK SMILES IDX 14 14 15 15 16 16 17 17 18 18 19 19 20 20 21 21 22 22 23 23
REMARK SMILES IDX 24 24
REMARK H PARENT
REMARK Flexibility Score: inf
ROOT
ATOM      1  C   UNL     1       0.196 -25.057 -13.835  1.00  0.00     0.000 C 
ENDROOT
BRANCH   1   2
ATOM      2  C   UNL     1       0.384 -25.514 -12.377  1.00  0.00     0.000 C 
BRANCH   2   3
ATOM      3  C   UNL     1      -0.569 -26.638 -11.926  1.00  0.00     0.000 C 
BRANCH   3   4
ATOM      4  C   UNL     1       0.165 -27.813 -11.258  1.00  0.00    -0.000 C 
BRANCH   4   5
ATOM      5  C   UNL     1      -0.403 -28.149  -9.870  1.00  0.00    -0.000 C 
BRANCH   5   6
ATOM      6  C   UNL     1      -1.230 -29.447  -9.873  1.00  0.00    -0.000 C 
BRANCH   6   7
ATOM      7  C   UNL     1      -0.744 -30.458  -8.822  1.00  0.00    -0.000 C 
BRANCH   7   8
ATOM      8  C   UNL     1      -1.342 -31.862  -9.027  1.00  0.00    -0.000 C 
BRANCH   8   9
ATOM      9  C   UNL     1      -2.877 -31.817  -9.193  1.00  0.00    -0.000 C 
BRANCH   9  10
ATOM     10  C   UNL     1      -3.635 -31.594  -7.873  1.00  0.00    -0.000 C 
BRANCH  10  11
ATOM     11  C   UNL     1      -4.855 -30.676  -8.031  1.00  0.00    -0.003 C 
ATOM     12  C   UNL     1      -5.139 -30.386  -9.504  1.00  0.00     0.004 C 
ENDBRANCH  10  11
ENDBRANCH   9  10
ENDBRANCH   8   9
ENDBRANCH   7   8
ENDBRANCH   6   7
ENDBRANCH   5   6
ENDBRANCH   4   5
ENDBRANCH   3   4
ENDBRANCH   2   3
ENDBRANCH   1   2
BRANCH   1  13
ATOM     13  C   UNL     1      -1.247 -25.236 -14.337  1.00  0.00     0.000 C 
BRANCH  13  14
ATOM     14  C   UNL     1      -1.776 -23.997 -15.076  1.00  0.00     0.000 C 
BRANCH  14  15
ATOM     15  C   UNL     1      -1.392 -23.993 -16.567  1.00  0.00     0.000 C 
BRANCH  15  16
ATOM     16  C   UNL     1      -0.405 -22.867 -16.918  1.00  0.00     0.000 C 
BRANCH  16  17
ATOM     17  C   UNL     1      -0.212 -21.875 -15.758  1.00  0.00     0.000 C 
BRANCH  17  18
ATOM     18  C   UNL     1       1.250 -21.778 -15.288  1.00  0.00     0.000 C 
BRANCH  18  19
ATOM     19  C   UNL     1       1.441 -21.250 -13.854  1.00  0.00     0.000 C 
BRANCH  19  20
ATOM     20  C   UNL     1       2.763 -20.490 -13.665  1.00  0.00     0.006 C 
BRANCH  20  21
ATOM     21  C   UNL     1       3.135 -20.394 -12.182  1.00  0.00     0.053 C 
BRANCH  21  22
ATOM     22  C   UNL     1       4.213 -21.376 -11.846  1.00  0.00     0.041 C 
ATOM     23  O   UNL     1       3.994 -22.297 -11.015  1.00  0.00    -0.550 OA
ATOM     24  O   UNL     1       5.449 -21.296 -12.478  1.00  0.00    -0.550 OA
ENDBRANCH  21  22
ENDBRANCH  20  21
ENDBRANCH  19  20
ENDBRANCH  18  19
ENDBRANCH  17  18
ENDBRANCH  16  17
ENDBRANCH  15  16
ENDBRANCH  14  15
ENDBRANCH  13  14
ENDBRANCH   1  13
TORSDOF 20
ENDMDL
MODEL 8
REMARK VINA RESULT:    -4.275      7.349     10.382
REMARK INTER + INTRA:         -12.093
REMARK INTER:                  -8.367
REMARK INTRA:                  -3.726
REMARK UNBOUND:                -2.820
REMARK SMILES CCCCCCCCCCCCCCCCCCCCCC(=O)[O-]
REMARK SMILES IDX 12 1 11 2 10 3 9 4 8 5 7 6 6 7 5 8 4 9 3 10 2 11 1 12 13 13
REMARK SMILES IDX 14 14 15 15 16 16 17 17 18 18 19 19 20 20 21 21 22 22 23 23
REMARK SMILES IDX 24 24
REMARK H PARENT
REMARK Flexibility Score: inf
ROOT
ATOM      1  C   UNL     1       2.746 -20.175 -13.890  1.00  0.00     0.000 C 
ENDROOT
BRANCH   1   2
ATOM      2  C   UNL     1       1.818 -21.355 -14.237  1.00  0.00     0.000 C 
BRANCH   2   3
ATOM      3  C   UNL     1       0.834 -21.083 -15.390  1.00  0.00     0.000 C 
BRANCH   3   4
ATOM      4  C   UNL     1       0.675 -22.285 -16.338  1.00  0.00    -0.000 C 
BRANCH   4   5
ATOM      5  C   UNL     1      -0.761 -22.831 -16.360  1.00  0.00    -0.000 C 
BRANCH   5   6
ATOM      6  C   UNL     1      -0.879 -24.197 -15.661  1.00  0.00    -0.000 C 
BRANCH   6   7
ATOM      7  C   UNL     1       0.469 -24.702 -15.122  1.00  0.00    -0.000 C 
BRANCH   7   8
ATOM      8  C   UNL     1       0.342 -25.383 -13.747  1.00  0.00    -0.000 C 
BRANCH   8   9
ATOM      9  C   UNL     1      -1.076 -25.947 -13.511  1.00  0.00    -0.000 C 
BRANCH   9  10
ATOM     10  C   UNL     1      -1.307 -26.458 -12.078  1.00  0.00    -0.000 C 
BRANCH  10  11
ATOM     11  C   UNL     1      -0.004 -26.617 -11.282  1.00  0.00    -0.003 C 
ATOM     12  C   UNL     1       0.264 -28.083 -10.951  1.00  0.00     0.004 C 
ENDBRANCH  10  11
ENDBRANCH   9  10
ENDBRANCH   8   9
ENDBRANCH   7   8
ENDBRANCH   6   7
ENDBRANCH   5   6
ENDBRANCH   4   5
ENDBRANCH   3   4
ENDBRANCH   2   3
ENDBRANCH   1   2
BRANCH   1  13
ATOM     13  C   UNL     1       3.632 -20.453 -12.663  1.00  0.00     0.000 C 
BRANCH  13  14
ATOM     14  C   UNL     1       2.833 -20.978 -11.460  1.00  0.00     0.000 C 
BRANCH  14  15
ATOM     15  C   UNL     1       3.092 -22.472 -11.190  1.00  0.00     0.000 C 
BRANCH  15  16
ATOM     16  C   UNL     1       1.791 -23.282 -11.066  1.00  0.00     0.000 C 
BRANCH  16  17
ATOM     17  C   UNL     1       0.605 -22.418 -10.601  1.00  0.00     0.000 C 
BRANCH  17  18
ATOM     18  C   UNL     1      -0.749 -22.921 -11.133  1.00  0.00     0.000 C 
BRANCH  18  19
ATOM     19  C   UNL     1      -1.202 -22.291 -12.463  1.00  0.00     0.000 C 
BRANCH  19  20
ATOM     20  C   UNL     1      -1.350 -20.764 -12.384  1.00  0.00     0.006 C 
BRANCH  20  21
ATOM     21  C   UNL     1      -2.177 -20.230 -13.557  1.00  0.00     0.053 C 
BRANCH  21  22
ATOM     22  C   UNL     1      -1.696 -18.872 -13.964  1.00  0.00     0.041 C 
ATOM     23  O   UNL     1      -0.601 -18.430 -13.523  1.00  0.00    -0.550 OA
ATOM     24  O   UNL     1      -2.439 -18.109 -14.857  1.00  0.00    -0.550 OA
ENDBRANCH  21  22
ENDBRANCH  20  21
ENDBRANCH  19  20
ENDBRANCH  18  19
ENDBRANCH  17  18
ENDBRANCH  16  17
ENDBRANCH  15  16
ENDBRANCH  14  15
ENDBRANCH  13  14
ENDBRANCH   1  13
TORSDOF 20
ENDMDL
MODEL 9
REMARK VINA RESULT:    -4.199     15.051     17.756
REMARK INTER + INTRA:         -11.929
REMARK INTER:                  -8.755
REMARK INTRA:                  -3.174
REMARK UNBOUND:                -2.820
REMARK SMILES CCCCCCCCCCCCCCCCCCCCCC(=O)[O-]
REMARK SMILES IDX 12 1 11 2 10 3 9 4 8 5 7 6 6 7 5 8 4 9 3 10 2 11 1 12 13 13
REMARK SMILES IDX 14 14 15 15 16 16 17 17 18 18 19 19 20 20 21 21 22 22 23 23
REMARK SMILES IDX 24 24
REMARK H PARENT
REMARK Flexibility Score: inf
ROOT
ATOM      1  C   UNL     1       4.441 -26.227  -0.788  1.00  0.00     0.000 C 
ENDROOT
BRANCH   1   2
ATOM      2  C   UNL     1       4.610 -25.764   0.671  1.00  0.00     0.000 C 
BRANCH   2   3
ATOM      3  C   UNL     1       3.823 -24.493   1.040  1.00  0.00     0.000 C 
BRANCH   3   4
ATOM      4  C   UNL     1       3.832 -23.438  -0.079  1.00  0.00    -0.000 C 
BRANCH   4   5
ATOM      5  C   UNL     1       2.458 -23.280  -0.750  1.00  0.00    -0.000 C 
BRANCH   5   6
ATOM      6  C   UNL     1       2.572 -22.978  -2.255  1.00  0.00    -0.000 C 
BRANCH   6   7
ATOM      7  C   UNL     1       4.023 -23.044  -2.761  1.00  0.00    -0.000 C 
BRANCH   7   8
ATOM      8  C   UNL     1       4.180 -23.950  -3.995  1.00  0.00    -0.000 C 
BRANCH   8   9
ATOM      9  C   UNL     1       3.180 -25.128  -3.978  1.00  0.00    -0.000 C 
BRANCH   9  10
ATOM     10  C   UNL     1       3.628 -26.330  -4.827  1.00  0.00    -0.000 C 
BRANCH  10  11
ATOM     11  C   UNL     1       2.809 -27.599  -4.547  1.00  0.00    -0.003 C 
ATOM     12  C   UNL     1       3.682 -28.849  -4.640  1.00  0.00     0.004 C 
ENDBRANCH  10  11
ENDBRANCH   9  10
ENDBRANCH   8   9
ENDBRANCH   7   8
ENDBRANCH   6   7
ENDBRANCH   5   6
ENDBRANCH   4   5
ENDBRANCH   3   4
ENDBRANCH   2   3
ENDBRANCH   1   2
BRANCH   1  13
ATOM     13  C   UNL     1       3.664 -27.549  -0.909  1.00  0.00     0.000 C 
BRANCH  13  14
ATOM     14  C   UNL     1       2.561 -27.689   0.152  1.00  0.00     0.000 C 
BRANCH  14  15
ATOM     15  C   UNL     1       2.688 -28.992   0.963  1.00  0.00     0.000 C 
BRANCH  15  16
ATOM     16  C   UNL     1       4.125 -29.541   0.975  1.00  0.00     0.000 C 
BRANCH  16  17
ATOM     17  C   UNL     1       4.196 -31.008   0.515  1.00  0.00     0.000 C 
BRANCH  17  18
ATOM     18  C   UNL     1       3.961 -31.175  -0.997  1.00  0.00     0.000 C 
BRANCH  18  19
ATOM     19  C   UNL     1       3.205 -32.453  -1.401  1.00  0.00     0.000 C 
BRANCH  19  20
ATOM     20  C   UNL     1       1.738 -32.191  -1.774  1.00  0.00     0.006 C 
BRANCH  20  21
ATOM     21  C   UNL     1       1.497 -30.702  -2.045  1.00  0.00     0.053 C 
BRANCH  21  22
ATOM     22  C   UNL     1       0.102 -30.317  -1.659  1.00  0.00     0.041 C 
ATOM     23  O   UNL     1      -0.748 -30.044  -2.548  1.00  0.00    -0.550 OA
ATOM     24  O   UNL     1      -0.268 -30.294  -0.319  1.00  0.00    -0.550 OA
ENDBRANCH  21  22
ENDBRANCH  20  21
ENDBRANCH  19  20
ENDBRANCH  18  19
ENDBRANCH  17  18
ENDBRANCH  16  17
ENDBRANCH  15  16
ENDBRANCH  14  15
ENDBRANCH  13  14
ENDBRANCH   1  13
TORSDOF 20
ENDMDL
