MODEL 1
REMARK VINA RESULT:    -5.592      0.000      0.000
REMARK INTER + INTRA:         -10.534
REMARK INTER:                  -9.515
REMARK INTRA:                  -1.019
REMARK UNBOUND:                -1.019
REMARK SMILES CCCCCCCCCCCCCC(=O)[O-]
REMARK SMILES IDX 8 1 9 2 10 3 11 4 12 5 13 6 14 7 15 8 16 9 7 10 6 11 5 12
REMARK SMILES IDX 4 13 3 14 2 15 1 16
REMARK H PARENT
REMARK Flexibility Score: inf
ROOT
ATOM      1  C   UNL     1       8.968 -46.639  37.588  1.00  0.00     0.000 C 
ENDROOT
BRANCH   1   2
ATOM      2  C   UNL     1       8.825 -47.676  36.463  1.00  0.00     0.000 C 
BRANCH   2   3
ATOM      3  C   UNL     1       9.134 -47.097  35.070  1.00  0.00     0.000 C 
BRANCH   3   4
ATOM      4  C   UNL     1       9.600 -45.630  35.063  1.00  0.00     0.000 C 
BRANCH   4   5
ATOM      5  C   UNL     1      10.080 -45.160  33.679  1.00  0.00     0.006 C 
BRANCH   5   6
ATOM      6  C   UNL     1       9.365 -43.881  33.221  1.00  0.00     0.053 C 
BRANCH   6   7
ATOM      7  C   UNL     1       8.224 -44.179  32.296  1.00  0.00     0.041 C 
ATOM      8  O   UNL     1       7.038 -44.107  32.711  1.00  0.00    -0.550 OA
ATOM      9  O   UNL     1       8.473 -44.565  30.985  1.00  0.00    -0.550 OA
ENDBRANCH   6   7
ENDBRANCH   5   6
ENDBRANCH   4   5
ENDBRANCH   3   4
ENDBRANCH   2   3
ENDBRANCH   1   2
BRANCH   1  10
ATOM     10  C   UNL     1       9.757 -47.216  38.770  1.00  0.00     0.000 C 
BRANCH  10  11
ATOM     11  C   UNL     1      10.962 -46.325  39.114  1.00  0.00    -0.000 C 
BRANCH  11  12
ATOM     12  C   UNL     1      12.259 -46.793  38.437  1.00  0.00    -0.000 C 
BRANCH  12  13
ATOM     13  C   UNL     1      12.635 -45.932  37.219  1.00  0.00    -0.000 C 
BRANCH  13  14
ATOM     14  C   UNL     1      14.150 -45.901  36.962  1.00  0.00    -0.000 C 
BRANCH  14  15
ATOM     15  C   UNL     1      14.912 -46.952  37.785  1.00  0.00    -0.003 C 
ATOM     16  C   UNL     1      15.664 -47.920  36.875  1.00  0.00     0.004 C 
ENDBRANCH  14  15
ENDBRANCH  13  14
ENDBRANCH  12  13
ENDBRANCH  11  12
ENDBRANCH  10  11
ENDBRANCH   1  10
TORSDOF 12
ENDMDL
MODEL 2
REMARK VINA RESULT:    -5.515      3.788      6.314
REMARK INTER + INTRA:         -10.404
REMARK INTER:                  -8.996
REMARK INTRA:                  -1.407
REMARK UNBOUND:                -1.019
REMARK SMILES CCCCCCCCCCCCCC(=O)[O-]
REMARK SMILES IDX 8 1 9 2 10 3 11 4 12 5 13 6 14 7 15 8 16 9 7 10 6 11 5 12
REMARK SMILES IDX 4 13 3 14 2 15 1 16
REMARK H PARENT
REMARK Flexibility Score: inf
ROOT
ATOM      1  C   UNL     1       7.955 -46.496  38.712  1.00  0.00     0.000 C 
ENDROOT
BRANCH   1   2
ATOM      2  C   UNL     1       9.114 -45.571  38.311  1.00  0.00     0.000 C 
BRANCH   2   3
ATOM      3  C   UNL     1      10.451 -46.318  38.149  1.00  0.00     0.000 C 
BRANCH   3   4
ATOM      4  C   UNL     1      11.344 -46.336  39.403  1.00  0.00     0.000 C 
BRANCH   4   5
ATOM      5  C   UNL     1      12.654 -47.115  39.196  1.00  0.00     0.006 C 
BRANCH   5   6
ATOM      6  C   UNL     1      13.346 -46.746  37.877  1.00  0.00     0.053 C 
BRANCH   6   7
ATOM      7  C   UNL     1      14.821 -47.002  37.930  1.00  0.00     0.041 C 
ATOM      8  O   UNL     1      15.417 -47.047  39.038  1.00  0.00    -0.550 OA
ATOM      9  O   UNL     1      15.543 -47.163  36.754  1.00  0.00    -0.550 OA
ENDBRANCH   6   7
ENDBRANCH   5   6
ENDBRANCH   4   5
ENDBRANCH   3   4
ENDBRANCH   2   3
ENDBRANCH   1   2
BRANCH   1  10
ATOM     10  C   UNL     1       8.243 -47.946  38.304  1.00  0.00     0.000 C 
BRANCH  10  11
ATOM     11  C   UNL     1       7.356 -48.370  37.122  1.00  0.00    -0.000 C 
BRANCH  11  12
ATOM     12  C   UNL     1       8.164 -48.954  35.953  1.00  0.00    -0.000 C 
BRANCH  12  13
ATOM     13  C   UNL     1       8.911 -47.873  35.153  1.00  0.00    -0.000 C 
BRANCH  13  14
ATOM     14  C   UNL     1       7.964 -46.817  34.560  1.00  0.00    -0.000 C 
BRANCH  14  15
ATOM     15  C   UNL     1       8.711 -45.591  34.015  1.00  0.00    -0.003 C 
ATOM     16  C   UNL     1      10.135 -45.528  34.561  1.00  0.00     0.004 C 
ENDBRANCH  14  15
ENDBRANCH  13  14
ENDBRANCH  12  13
ENDBRANCH  11  12
ENDBRANCH  10  11
ENDBRANCH   1  10
TORSDOF 12
ENDMDL
MODEL 3
REMARK VINA RESULT:    -5.427      1.524      2.453
REMARK INTER + INTRA:         -10.253
REMARK INTER:                  -8.832
REMARK INTRA:                  -1.421
REMARK UNBOUND:                -1.019
REMARK SMILES CCCCCCCCCCCCCC(=O)[O-]
REMARK SMILES IDX 8 1 9 2 10 3 11 4 12 5 13 6 14 7 15 8 16 9 7 10 6 11 5 12
REMARK SMILES IDX 4 13 3 14 2 15 1 16
REMARK H PARENT
REMARK Flexibility Score: inf
ROOT
ATOM      1  C   UNL     1       7.249 -48.569  36.250  1.00  0.00     0.000 C 
ENDROOT
BRANCH   1   2
ATOM      2  C   UNL     1       8.659 -48.429  35.654  1.00  0.00     0.000 C 
BRANCH   2   3
ATOM      3  C   UNL     1       8.695 -47.541  34.397  1.00  0.00     0.000 C 
BRANCH   3   4
ATOM      4  C   UNL     1       8.778 -46.029  34.669  1.00  0.00     0.000 C 
BRANCH   4   5
ATOM      5  C   UNL     1       9.874 -45.330  33.845  1.00  0.00     0.006 C 
BRANCH   5   6
ATOM      6  C   UNL     1       9.448 -43.931  33.381  1.00  0.00     0.053 C 
BRANCH   6   7
ATOM      7  C   UNL     1       8.251 -43.982  32.481  1.00  0.00     0.041 C 
ATOM      8  O   UNL     1       7.184 -43.403  32.814  1.00  0.00    -0.550 OA
ATOM      9  O   UNL     1       8.305 -44.692  31.289  1.00  0.00    -0.550 OA
ENDBRANCH   6   7
ENDBRANCH   5   6
ENDBRANCH   4   5
ENDBRANCH   3   4
ENDBRANCH   2   3
ENDBRANCH   1   2
BRANCH   1  10
ATOM     10  C   UNL     1       7.302 -48.609  37.782  1.00  0.00     0.000 C 
BRANCH  10  11
ATOM     11  C   UNL     1       8.589 -47.952  38.305  1.00  0.00    -0.000 C 
BRANCH  11  12
ATOM     12  C   UNL     1       8.428 -46.444  38.552  1.00  0.00    -0.000 C 
BRANCH  12  13
ATOM     13  C   UNL     1       9.762 -45.684  38.457  1.00  0.00    -0.000 C 
BRANCH  13  14
ATOM     14  C   UNL     1      10.930 -46.460  39.089  1.00  0.00    -0.000 C 
BRANCH  14  15
ATOM     15  C   UNL     1      12.196 -46.436  38.220  1.00  0.00    -0.003 C 
ATOM     16  C   UNL     1      11.893 -45.902  36.823  1.00  0.00     0.004 C 
ENDBRANCH  14  15
ENDBRANCH  13  14
ENDBRANCH  12  13
ENDBRANCH  11  12
ENDBRANCH  10  11
ENDBRANCH   1  10
TORSDOF 12
ENDMDL
MODEL 4
REMARK VINA RESULT:    -5.367      3.847      7.247
REMARK INTER + INTRA:         -10.151
REMARK INTER:                  -9.090
REMARK INTRA:                  -1.061
REMARK UNBOUND:                -1.019
REMARK SMILES CCCCCCCCCCCCCC(=O)[O-]
REMARK SMILES IDX 8 1 9 2 10 3 11 4 12 5 13 6 14 7 15 8 16 9 7 10 6 11 5 12
REMARK SMILES IDX 4 13 3 14 2 15 1 16
REMARK H PARENT
REMARK Flexibility Score: inf
ROOT
ATOM      1  C   UNL     1       9.501 -46.433  34.578  1.00  0.00     0.000 C 
ENDROOT
BRANCH   1   2
ATOM      2  C   UNL     1       8.849 -46.273  35.960  1.00  0.00     0.000 C 
BRANCH   2   3
ATOM      3  C   UNL     1       9.694 -46.875  37.097  1.00  0.00     0.000 C 
BRANCH   3   4
ATOM      4  C   UNL     1      10.649 -45.888  37.793  1.00  0.00     0.000 C 
BRANCH   4   5
ATOM      5  C   UNL     1      12.115 -46.066  37.362  1.00  0.00     0.006 C 
BRANCH   5   6
ATOM      6  C   UNL     1      12.971 -46.704  38.464  1.00  0.00     0.053 C 
BRANCH   6   7
ATOM      7  C   UNL     1      14.377 -46.950  38.006  1.00  0.00     0.041 C 
ATOM      8  O   UNL     1      15.331 -46.864  38.822  1.00  0.00    -0.550 OA
ATOM      9  O   UNL     1      14.634 -47.246  36.674  1.00  0.00    -0.550 OA
ENDBRANCH   6   7
ENDBRANCH   5   6
ENDBRANCH   4   5
ENDBRANCH   3   4
ENDBRANCH   2   3
ENDBRANCH   1   2
BRANCH   1  10
ATOM     10  C   UNL     1      10.078 -45.100  34.085  1.00  0.00     0.000 C 
BRANCH  10  11
ATOM     11  C   UNL     1       9.006 -44.273  33.357  1.00  0.00    -0.000 C 
BRANCH  11  12
ATOM     12  C   UNL     1       8.710 -44.797  31.944  1.00  0.00    -0.000 C 
BRANCH  12  13
ATOM     13  C   UNL     1       7.251 -45.255  31.776  1.00  0.00    -0.000 C 
BRANCH  13  14
ATOM     14  C   UNL     1       7.129 -46.771  31.555  1.00  0.00    -0.000 C 
BRANCH  14  15
ATOM     15  C   UNL     1       5.870 -47.366  32.203  1.00  0.00    -0.003 C 
ATOM     16  C   UNL     1       6.130 -47.746  33.659  1.00  0.00     0.004 C 
ENDBRANCH  14  15
ENDBRANCH  13  14
ENDBRANCH  12  13
ENDBRANCH  11  12
ENDBRANCH  10  11
ENDBRANCH   1  10
TORSDOF 12
ENDMDL
MODEL 5
REMARK VINA RESULT:    -5.362      3.866      6.513
REMARK INTER + INTRA:         -10.142
REMARK INTER:                  -8.704
REMARK INTRA:                  -1.438
REMARK UNBOUND:                -1.019
REMARK SMILES CCCCCCCCCCCCCC(=O)[O-]
REMARK SMILES IDX 8 1 9 2 10 3 11 4 12 5 13 6 14 7 15 8 16 9 7 10 6 11 5 12
REMARK SMILES IDX 4 13 3 14 2 15 1 16
REMARK H PARENT
REMARK Flexibility Score: inf
ROOT
ATOM      1  C   UNL     1       8.642 -46.212  33.626  1.00  0.00     0.000 C 
ENDROOT
BRANCH   1   2
ATOM      2  C   UNL     1       9.079 -45.455  34.889  1.00  0.00     0.000 C 
BRANCH   2   3
ATOM      3  C   UNL     1      10.516 -45.794  35.326  1.00  0.00     0.000 C 
BRANCH   3   4
ATOM      4  C   UNL     1      10.630 -46.552  36.661  1.00  0.00     0.000 C 
BRANCH   4   5
ATOM      5  C   UNL     1      11.575 -45.866  37.662  1.00  0.00     0.006 C 
BRANCH   5   6
ATOM      6  C   UNL     1      13.052 -46.126  37.338  1.00  0.00     0.053 C 
BRANCH   6   7
ATOM      7  C   UNL     1      13.773 -46.761  38.488  1.00  0.00     0.041 C 
ATOM      8  O   UNL     1      13.124 -47.259  39.444  1.00  0.00    -0.550 OA
ATOM      9  O   UNL     1      15.162 -46.778  38.516  1.00  0.00    -0.550 OA
ENDBRANCH   6   7
ENDBRANCH   5   6
ENDBRANCH   4   5
ENDBRANCH   3   4
ENDBRANCH   2   3
ENDBRANCH   1   2
BRANCH   1  10
ATOM     10  C   UNL     1       7.664 -47.341  33.974  1.00  0.00     0.000 C 
BRANCH  10  11
ATOM     11  C   UNL     1       8.373 -48.705  33.965  1.00  0.00    -0.000 C 
BRANCH  11  12
ATOM     12  C   UNL     1       8.323 -49.409  35.330  1.00  0.00    -0.000 C 
BRANCH  12  13
ATOM     13  C   UNL     1       7.295 -48.777  36.284  1.00  0.00    -0.000 C 
BRANCH  13  14
ATOM     14  C   UNL     1       7.816 -48.673  37.727  1.00  0.00    -0.000 C 
BRANCH  14  15
ATOM     15  C   UNL     1       6.962 -47.742  38.600  1.00  0.00    -0.003 C 
ATOM     16  C   UNL     1       7.689 -46.428  38.875  1.00  0.00     0.004 C 
ENDBRANCH  14  15
ENDBRANCH  13  14
ENDBRANCH  12  13
ENDBRANCH  11  12
ENDBRANCH  10  11
ENDBRANCH   1  10
TORSDOF 12
ENDMDL
MODEL 6
REMARK VINA RESULT:    -5.338      1.471      2.505
REMARK INTER + INTRA:         -10.102
REMARK INTER:                  -8.760
REMARK INTRA:                  -1.342
REMARK UNBOUND:                -1.019
REMARK SMILES CCCCCCCCCCCCCC(=O)[O-]
REMARK SMILES IDX 8 1 9 2 10 3 11 4 12 5 13 6 14 7 15 8 16 9 7 10 6 11 5 12
REMARK SMILES IDX 4 13 3 14 2 15 1 16
REMARK H PARENT
REMARK Flexibility Score: inf
ROOT
ATOM      1  C   UNL     1       7.627 -48.728  38.020  1.00  0.00     0.000 C 
ENDROOT
BRANCH   1   2
ATOM      2  C   UNL     1       7.122 -48.732  36.569  1.00  0.00     0.000 C 
BRANCH   2   3
ATOM      3  C   UNL     1       8.185 -49.213  35.564  1.00  0.00     0.000 C 
BRANCH   3   4
ATOM      4  C   UNL     1       8.699 -48.135  34.593  1.00  0.00     0.000 C 
BRANCH   4   5
ATOM      5  C   UNL     1       8.464 -46.704  35.107  1.00  0.00     0.006 C 
BRANCH   5   6
ATOM      6  C   UNL     1       9.731 -45.842  35.024  1.00  0.00     0.053 C 
BRANCH   6   7
ATOM      7  C   UNL     1       9.681 -44.884  33.873  1.00  0.00     0.041 C 
ATOM      8  O   UNL     1       8.658 -44.178  33.682  1.00  0.00    -0.550 OA
ATOM      9  O   UNL     1      10.754 -44.794  32.995  1.00  0.00    -0.550 OA
ENDBRANCH   6   7
ENDBRANCH   5   6
ENDBRANCH   4   5
ENDBRANCH   3   4
ENDBRANCH   2   3
ENDBRANCH   1   2
BRANCH   1  10
ATOM     10  C   UNL     1       7.256 -47.419  38.727  1.00  0.00     0.000 C 
BRANCH  10  11
ATOM     11  C   UNL     1       8.465 -46.473  38.802  1.00  0.00    -0.000 C 
BRANCH  11  12
ATOM     12  C   UNL     1       9.799 -47.193  38.551  1.00  0.00    -0.000 C 
BRANCH  12  13
ATOM     13  C   UNL     1      10.993 -46.465  39.191  1.00  0.00    -0.000 C 
BRANCH  13  14
ATOM     14  C   UNL     1      12.331 -46.828  38.525  1.00  0.00    -0.000 C 
BRANCH  14  15
ATOM     15  C   UNL     1      12.589 -46.027  37.240  1.00  0.00    -0.003 C 
ATOM     16  C   UNL     1      14.065 -46.077  36.851  1.00  0.00     0.004 C 
ENDBRANCH  14  15
ENDBRANCH  13  14
ENDBRANCH  12  13
ENDBRANCH  11  12
ENDBRANCH  10  11
ENDBRANCH   1  10
TORSDOF 12
ENDMDL
MODEL 7
REMARK VINA RESULT:    -5.337      2.146      3.511
REMARK INTER + INTRA:         -10.100
REMARK INTER:                  -8.489
REMARK INTRA:                  -1.611
REMARK UNBOUND:                -1.019
REMARK SMILES CCCCCCCCCCCCCC(=O)[O-]
REMARK SMILES IDX 8 1 9 2 10 3 11 4 12 5 13 6 14 7 15 8 16 9 7 10 6 11 5 12
REMARK SMILES IDX 4 13 3 14 2 15 1 16
REMARK H PARENT
REMARK Flexibility Score: inf
ROOT
ATOM      1  C   UNL     1       7.860 -49.995  36.163  1.00  0.00     0.000 C 
ENDROOT
BRANCH   1   2
ATOM      2  C   UNL     1       8.043 -49.326  34.792  1.00  0.00     0.000 C 
BRANCH   2   3
ATOM      3  C   UNL     1       7.188 -48.057  34.623  1.00  0.00     0.000 C 
BRANCH   3   4
ATOM      4  C   UNL     1       7.982 -46.738  34.575  1.00  0.00     0.000 C 
BRANCH   4   5
ATOM      5  C   UNL     1       9.453 -46.908  34.990  1.00  0.00     0.006 C 
BRANCH   5   6
ATOM      6  C   UNL     1      10.229 -45.586  34.931  1.00  0.00     0.053 C 
BRANCH   6   7
ATOM      7  C   UNL     1      10.077 -44.908  33.604  1.00  0.00     0.041 C 
ATOM      8  O   UNL     1       9.570 -43.757  33.535  1.00  0.00    -0.550 OA
ATOM      9  O   UNL     1      10.468 -45.558  32.440  1.00  0.00    -0.550 OA
ENDBRANCH   6   7
ENDBRANCH   5   6
ENDBRANCH   4   5
ENDBRANCH   3   4
ENDBRANCH   2   3
ENDBRANCH   1   2
BRANCH   1  10
ATOM     10  C   UNL     1       6.875 -49.204  37.033  1.00  0.00     0.000 C 
BRANCH  10  11
ATOM     11  C   UNL     1       7.560 -48.687  38.308  1.00  0.00    -0.000 C 
BRANCH  11  12
ATOM     12  C   UNL     1       7.278 -47.199  38.571  1.00  0.00    -0.000 C 
BRANCH  12  13
ATOM     13  C   UNL     1       8.565 -46.361  38.667  1.00  0.00    -0.000 C 
BRANCH  13  14
ATOM     14  C   UNL     1       9.817 -47.226  38.886  1.00  0.00    -0.000 C 
BRANCH  14  15
ATOM     15  C   UNL     1      11.112 -46.401  38.904  1.00  0.00    -0.003 C 
ATOM     16  C   UNL     1      12.273 -47.214  39.470  1.00  0.00     0.004 C 
ENDBRANCH  14  15
ENDBRANCH  13  14
ENDBRANCH  12  13
ENDBRANCH  11  12
ENDBRANCH  10  11
ENDBRANCH   1  10
TORSDOF 12
ENDMDL
MODEL 8
REMARK VINA RESULT:    -5.324      3.673      6.787
REMARK INTER + INTRA:         -10.078
REMARK INTER:                  -9.313
REMARK INTRA:                  -0.764
REMARK UNBOUND:                -1.019
REMARK SMILES CCCCCCCCCCCCCC(=O)[O-]
REMARK SMILES IDX 8 1 9 2 10 3 11 4 12 5 13 6 14 7 15 8 16 9 7 10 6 11 5 12
REMARK SMILES IDX 4 13 3 14 2 15 1 16
REMARK H PARENT
REMARK Flexibility Score: inf
ROOT
ATOM      1  C   UNL     1       8.723 -47.457  36.922  1.00  0.00     0.000 C 
ENDROOT
BRANCH   1   2
ATOM      2  C   UNL     1       9.125 -47.138  38.370  1.00  0.00     0.000 C 
BRANCH   2   3
ATOM      3  C   UNL     1      10.370 -46.237  38.464  1.00  0.00     0.000 C 
BRANCH   3   4
ATOM      4  C   UNL     1      11.311 -46.544  39.643  1.00  0.00     0.000 C 
BRANCH   4   5
ATOM      5  C   UNL     1      12.572 -47.317  39.219  1.00  0.00     0.006 C 
BRANCH   5   6
ATOM      6  C   UNL     1      13.261 -46.681  38.004  1.00  0.00     0.053 C 
BRANCH   6   7
ATOM      7  C   UNL     1      14.679 -47.143  37.862  1.00  0.00     0.041 C 
ATOM      8  O   UNL     1      15.486 -47.011  38.819  1.00  0.00    -0.550 OA
ATOM      9  O   UNL     1      15.116 -47.691  36.663  1.00  0.00    -0.550 OA
ENDBRANCH   6   7
ENDBRANCH   5   6
ENDBRANCH   4   5
ENDBRANCH   3   4
ENDBRANCH   2   3
ENDBRANCH   1   2
BRANCH   1  10
ATOM     10  C   UNL     1       9.751 -46.897  35.931  1.00  0.00     0.000 C 
BRANCH  10  11
ATOM     11  C   UNL     1       9.161 -45.722  35.134  1.00  0.00    -0.000 C 
BRANCH  11  12
ATOM     12  C   UNL     1      10.052 -45.298  33.955  1.00  0.00    -0.000 C 
BRANCH  12  13
ATOM     13  C   UNL     1       9.618 -43.957  33.339  1.00  0.00    -0.000 C 
BRANCH  13  14
ATOM     14  C   UNL     1       8.326 -44.077  32.514  1.00  0.00    -0.000 C 
BRANCH  14  15
ATOM     15  C   UNL     1       8.450 -45.087  31.363  1.00  0.00    -0.003 C 
ATOM     16  C   UNL     1       7.611 -46.334  31.636  1.00  0.00     0.004 C 
ENDBRANCH  14  15
ENDBRANCH  13  14
ENDBRANCH  12  13
ENDBRANCH  11  12
ENDBRANCH  10  11
ENDBRANCH   1  10
TORSDOF 12
ENDMDL
MODEL 9
REMARK VINA RESULT:    -5.315      3.898      6.896
REMARK INTER + INTRA:         -10.063
REMARK INTER:                  -9.017
REMARK INTRA:                  -1.046
REMARK UNBOUND:                -1.019
REMARK SMILES CCCCCCCCCCCCCC(=O)[O-]
REMARK SMILES IDX 8 1 9 2 10 3 11 4 12 5 13 6 14 7 15 8 16 9 7 10 6 11 5 12
REMARK SMILES IDX 4 13 3 14 2 15 1 16
REMARK H PARENT
REMARK Flexibility Score: inf
ROOT
ATOM      1  C   UNL     1       7.868 -48.229  38.283  1.00  0.00     0.000 C 
ENDROOT
BRANCH   1   2
ATOM      2  C   UNL     1       7.798 -46.697  38.370  1.00  0.00     0.000 C 
BRANCH   2   3
ATOM      3  C   UNL     1       9.185 -46.037  38.482  1.00  0.00     0.000 C 
BRANCH   3   4
ATOM      4  C   UNL     1      10.359 -47.015  38.669  1.00  0.00     0.000 C 
BRANCH   4   5
ATOM      5  C   UNL     1      11.726 -46.374  38.377  1.00  0.00     0.006 C 
BRANCH   5   6
ATOM      6  C   UNL     1      12.885 -47.175  38.985  1.00  0.00     0.053 C 
BRANCH   6   7
ATOM      7  C   UNL     1      14.158 -46.987  38.216  1.00  0.00     0.041 C 
ATOM      8  O   UNL     1      14.136 -46.939  36.959  1.00  0.00    -0.550 OA
ATOM      9  O   UNL     1      15.370 -46.896  38.888  1.00  0.00    -0.550 OA
ENDBRANCH   6   7
ENDBRANCH   5   6
ENDBRANCH   4   5
ENDBRANCH   3   4
ENDBRANCH   2   3
ENDBRANCH   1   2
BRANCH   1  10
ATOM     10  C   UNL     1       7.109 -48.746  37.054  1.00  0.00     0.000 C 
BRANCH  10  11
ATOM     11  C   UNL     1       7.987 -49.698  36.226  1.00  0.00    -0.000 C 
BRANCH  11  12
ATOM     12  C   UNL     1       8.233 -49.188  34.798  1.00  0.00    -0.000 C 
BRANCH  12  13
ATOM     13  C   UNL     1       8.575 -47.688  34.757  1.00  0.00    -0.000 C 
BRANCH  13  14
ATOM     14  C   UNL     1       7.695 -46.910  33.764  1.00  0.00    -0.000 C 
BRANCH  14  15
ATOM     15  C   UNL     1       6.505 -47.735  33.253  1.00  0.00    -0.003 C 
ATOM     16  C   UNL     1       5.480 -46.845  32.555  1.00  0.00     0.004 C 
ENDBRANCH  14  15
ENDBRANCH  13  14
ENDBRANCH  12  13
ENDBRANCH  11  12
ENDBRANCH  10  11
ENDBRANCH   1  10
TORSDOF 12
ENDMDL
