MODEL 1
REMARK VINA RESULT:     0.272      0.000      0.000
REMARK INTER + INTRA:           0.272
REMARK INTER:                   0.272
REMARK INTRA:                   0.000
REMARK UNBOUND:                 0.000
REMARK SMILES C=C1CC[C@@H]2C[C@H]1C2(C)C
REMARK SMILES IDX 9 1 8 2 5 3 4 4 3 5 2 6 1 7 7 8 6 9 10 10
REMARK H PARENT
REMARK Flexibility Score: inf
ROOT
ATOM      1  C   UNL     1     137.821 138.013 161.117  1.00  0.00     0.012 C 
ATOM      2  C   UNL     1     136.805 137.068 161.813  1.00  0.00    -0.026 C 
ATOM      3  C   UNL     1     135.343 137.037 161.297  1.00  0.00    -0.004 C 
ATOM      4  C   UNL     1     134.875 138.460 160.854  1.00  0.00     0.008 C 
ATOM      5  C   UNL     1     135.133 139.554 161.960  1.00  0.00     0.031 C 
ATOM      6  C   UNL     1     135.937 139.004 163.147  1.00  0.00    -0.074 C 
ATOM      7  C   UNL     1     136.378 139.807 164.121  1.00  0.00     0.008 C 
ATOM      8  C   UNL     1     136.205 137.502 163.170  1.00  0.00     0.021 C 
ATOM      9  C   UNL     1     134.875 136.855 162.750  1.00  0.00     0.012 C 
ATOM     10  C   UNL     1     137.425 135.649 161.878  1.00  0.00     0.012 C 
ENDROOT
TORSDOF 0
ENDMDL
MODEL 2
REMARK VINA RESULT:     0.814      1.068      3.330
REMARK INTER + INTRA:           0.814
REMARK INTER:                   0.814
REMARK INTRA:                   0.000
REMARK UNBOUND:                 0.000
REMARK SMILES C=C1CC[C@@H]2C[C@H]1C2(C)C
REMARK SMILES IDX 9 1 8 2 5 3 4 4 3 5 2 6 1 7 7 8 6 9 10 10
REMARK H PARENT
REMARK Flexibility Score: inf
ROOT
ATOM      1  C   UNL     1     136.325 137.702 163.950  1.00  0.00     0.012 C 
ATOM      2  C   UNL     1     136.374 138.135 162.460  1.00  0.00    -0.026 C 
ATOM      3  C   UNL     1     135.277 137.613 161.497  1.00  0.00    -0.004 C 
ATOM      4  C   UNL     1     134.875 136.145 161.849  1.00  0.00     0.008 C 
ATOM      5  C   UNL     1     136.122 135.187 161.965  1.00  0.00     0.031 C 
ATOM      6  C   UNL     1     137.453 135.950 161.874  1.00  0.00    -0.074 C 
ATOM      7  C   UNL     1     138.622 135.337 162.090  1.00  0.00     0.008 C 
ATOM      8  C   UNL     1     137.383 137.432 161.521  1.00  0.00     0.021 C 
ATOM      9  C   UNL     1     136.343 137.523 160.393  1.00  0.00     0.012 C 
ATOM     10  C   UNL     1     136.506 139.678 162.404  1.00  0.00     0.012 C 
ENDROOT
TORSDOF 0
ENDMDL
MODEL 3
REMARK VINA RESULT:     1.009      1.403      2.642
REMARK INTER + INTRA:           1.009
REMARK INTER:                   1.009
REMARK INTRA:                   0.000
REMARK UNBOUND:                 0.000
REMARK SMILES C=C1CC[C@@H]2C[C@H]1C2(C)C
REMARK SMILES IDX 9 1 8 2 5 3 4 4 3 5 2 6 1 7 7 8 6 9 10 10
REMARK H PARENT
REMARK Flexibility Score: inf
ROOT
ATOM      1  C   UNL     1     134.879 138.121 161.588  1.00  0.00     0.012 C 
ATOM      2  C   UNL     1     136.191 138.186 162.418  1.00  0.00    -0.026 C 
ATOM      3  C   UNL     1     136.091 138.295 163.961  1.00  0.00    -0.004 C 
ATOM      4  C   UNL     1     134.882 139.190 164.382  1.00  0.00     0.008 C 
ATOM      5  C   UNL     1     134.876 140.585 163.647  1.00  0.00     0.031 C 
ATOM      6  C   UNL     1     135.961 140.677 162.564  1.00  0.00    -0.074 C 
ATOM      7  C   UNL     1     136.030 141.724 161.734  1.00  0.00     0.008 C 
ATOM      8  C   UNL     1     136.959 139.526 162.478  1.00  0.00     0.021 C 
ATOM      9  C   UNL     1     137.326 139.210 163.937  1.00  0.00     0.012 C 
ATOM     10  C   UNL     1     137.103 137.012 161.979  1.00  0.00     0.012 C 
ENDROOT
TORSDOF 0
ENDMDL
MODEL 4
REMARK VINA RESULT:     2.382     13.868     15.329
REMARK INTER + INTRA:           2.382
REMARK INTER:                   2.382
REMARK INTRA:                   0.000
REMARK UNBOUND:                 0.000
REMARK SMILES C=C1CC[C@@H]2C[C@H]1C2(C)C
REMARK SMILES IDX 9 1 8 2 5 3 4 4 3 5 2 6 1 7 7 8 6 9 10 10
REMARK H PARENT
REMARK Flexibility Score: inf
ROOT
ATOM      1  C   UNL     1     152.691 134.875 162.219  1.00  0.00     0.012 C 
ATOM      2  C   UNL     1     152.125 136.297 162.480  1.00  0.00    -0.026 C 
ATOM      3  C   UNL     1     151.103 136.492 163.629  1.00  0.00    -0.004 C 
ATOM      4  C   UNL     1     150.147 135.262 163.744  1.00  0.00     0.008 C 
ATOM      5  C   UNL     1     149.484 134.880 162.365  1.00  0.00     0.031 C 
ATOM      6  C   UNL     1     150.057 135.696 161.197  1.00  0.00    -0.074 C 
ATOM      7  C   UNL     1     149.727 135.424 159.930  1.00  0.00     0.008 C 
ATOM      8  C   UNL     1     151.015 136.831 161.545  1.00  0.00     0.021 C 
ATOM      9  C   UNL     1     150.378 137.530 162.757  1.00  0.00     0.012 C 
ATOM     10  C   UNL     1     153.315 137.283 162.591  1.00  0.00     0.012 C 
ENDROOT
TORSDOF 0
ENDMDL
MODEL 5
REMARK VINA RESULT:     2.713      1.252      2.544
REMARK INTER + INTRA:           2.713
REMARK INTER:                   2.713
REMARK INTRA:                   0.000
REMARK UNBOUND:                 0.000
REMARK SMILES C=C1CC[C@@H]2C[C@H]1C2(C)C
REMARK SMILES IDX 9 1 8 2 5 3 4 4 3 5 2 6 1 7 7 8 6 9 10 10
REMARK H PARENT
REMARK Flexibility Score: inf
ROOT
ATOM      1  C   UNL     1     137.252 137.357 162.565  1.00  0.00     0.012 C 
ATOM      2  C   UNL     1     135.924 138.163 162.518  1.00  0.00    -0.026 C 
ATOM      3  C   UNL     1     135.965 139.636 162.039  1.00  0.00    -0.004 C 
ATOM      4  C   UNL     1     137.268 140.348 162.525  1.00  0.00     0.008 C 
ATOM      5  C   UNL     1     137.508 140.180 164.075  1.00  0.00     0.031 C 
ATOM      6  C   UNL     1     136.501 139.215 164.719  1.00  0.00    -0.074 C 
ATOM      7  C   UNL     1     136.623 138.831 165.994  1.00  0.00     0.008 C 
ATOM      8  C   UNL     1     135.354 138.719 163.844  1.00  0.00     0.021 C 
ATOM      9  C   UNL     1     134.876 139.962 163.075  1.00  0.00     0.012 C 
ATOM     10  C   UNL     1     134.876 137.330 161.738  1.00  0.00     0.012 C 
ENDROOT
TORSDOF 0
ENDMDL
MODEL 6
REMARK VINA RESULT:     3.125      1.352      3.609
REMARK INTER + INTRA:           3.125
REMARK INTER:                   3.125
REMARK INTRA:                   0.000
REMARK UNBOUND:                 0.000
REMARK SMILES C=C1CC[C@@H]2C[C@H]1C2(C)C
REMARK SMILES IDX 9 1 8 2 5 3 4 4 3 5 2 6 1 7 7 8 6 9 10 10
REMARK H PARENT
REMARK Flexibility Score: inf
ROOT
ATOM      1  C   UNL     1     137.135 140.298 162.038  1.00  0.00     0.012 C 
ATOM      2  C   UNL     1     136.029 140.150 163.118  1.00  0.00    -0.026 C 
ATOM      3  C   UNL     1     136.333 139.307 164.383  1.00  0.00    -0.004 C 
ATOM      4  C   UNL     1     137.222 138.071 164.033  1.00  0.00     0.008 C 
ATOM      5  C   UNL     1     136.641 137.227 162.835  1.00  0.00     0.031 C 
ATOM      6  C   UNL     1     135.429 137.905 162.178  1.00  0.00    -0.074 C 
ATOM      7  C   UNL     1     134.881 137.419 161.060  1.00  0.00     0.008 C 
ATOM      8  C   UNL     1     134.876 139.153 162.860  1.00  0.00     0.021 C 
ATOM      9  C   UNL     1     134.875 138.818 164.360  1.00  0.00     0.012 C 
ATOM     10  C   UNL     1     135.506 141.563 163.478  1.00  0.00     0.012 C 
ENDROOT
TORSDOF 0
ENDMDL
