MODEL 1
REMARK VINA RESULT:     1.576      0.000      0.000
REMARK INTER + INTRA:           9.918
REMARK INTER:                   2.590
REMARK INTRA:                   7.328
REMARK UNBOUND:                 7.328
REMARK SMILES C[C@H]1O[C@H](OC[C@H]2O[C@@H](Oc3c(-c4ccc(O)c(O)c4)oc4cc(O)cc(O)c4c3=O)[C@@H](O)[C@@H](O)[C@@H]2O)[C@@H](O)[C@@H](O)[C@H]1O
REMARK SMILES IDX 7 1 36 2 34 3 32 4 9 5 8 6 6 7 5 8 4 9 1 10 2 11 42 12 3 13
REMARK SMILES IDX 40 14 38 15 43 16 41 18 39 20 37 22 35 24 10 26 11 27 12 28
REMARK SMILES IDX 30 29 21 30 29 31 31 32 22 33 27 34 23 35 26 36 24 37 13 38
REMARK SMILES IDX 20 39 14 40 18 41 15 42 16 43 19 44 17 46 28 48 25 50 33 52
REMARK H PARENT 43 17 41 19 39 21 37 23 35 25 19 45 17 47 28 49 25 51 33 53
REMARK Flexibility Score: inf
ROOT
ATOM      1  C   UNL     1      -0.016  13.071  14.262  1.00  0.00     0.180 C 
ATOM      2  C   UNL     1       0.126  11.576  14.690  1.00  0.00     0.177 C 
ATOM      3  C   UNL     1      -1.026  10.745  14.110  1.00  0.00     0.180 C 
ATOM      4  C   UNL     1      -1.125  10.927  12.566  1.00  0.00     0.214 C 
ATOM      5  C   UNL     1      -0.346  12.174  12.084  1.00  0.00     0.339 C 
ATOM      6  O   UNL     1      -0.556  13.268  12.950  1.00  0.00    -0.332 OA
ENDROOT
BRANCH   1   7
ATOM      7  C   UNL     1       1.279  13.899  14.431  1.00  0.00     0.198 C 
BRANCH   7   8
ATOM      8  O   UNL     1       1.908  13.600  15.662  1.00  0.00    -0.347 OA
BRANCH   8   9
ATOM      9  C   UNL     1       2.279  14.759  16.387  1.00  0.00     0.281 C 
ATOM     10  C   UNL     1      -0.599  17.046  16.042  1.00  0.00     0.041 C 
ATOM     11  C   UNL     1       0.088  15.681  16.250  1.00  0.00     0.150 C 
ATOM     12  C   UNL     1      -0.287  15.099  17.651  1.00  0.00     0.174 C 
ATOM     13  O   UNL     1       1.481  15.884  16.052  1.00  0.00    -0.344 OA
ATOM     14  C   UNL     1       0.691  14.016  18.149  1.00  0.00     0.179 C 
ATOM     15  C   UNL     1       2.148  14.441  17.887  1.00  0.00     0.202 C 
BRANCH  12  16
ATOM     16  O   UNL     1      -0.378  16.120  18.624  1.00  0.00    -0.388 OA
ATOM     17  H   UNL     1      -1.106  15.864  19.266  1.00  0.00     0.211 HD
ENDBRANCH  12  16
BRANCH  14  18
ATOM     18  O   UNL     1       0.484  13.776  19.517  1.00  0.00    -0.387 OA
ATOM     19  H   UNL     1      -0.223  14.401  19.814  1.00  0.00     0.211 HD
ENDBRANCH  14  18
BRANCH  15  20
ATOM     20  O   UNL     1       2.444  15.570  18.667  1.00  0.00    -0.385 OA
ATOM     21  H   UNL     1       1.685  15.654  19.324  1.00  0.00     0.211 HD
ENDBRANCH  15  20
ENDBRANCH   8   9
ENDBRANCH   7   8
ENDBRANCH   1   7
BRANCH   2  22
ATOM     22  O   UNL     1       0.141  11.463  16.092  1.00  0.00    -0.387 OA
ATOM     23  H   UNL     1       0.814  10.767  16.334  1.00  0.00     0.211 HD
ENDBRANCH   2  22
BRANCH   3  24
ATOM     24  O   UNL     1      -0.873   9.387  14.455  1.00  0.00    -0.387 OA
ATOM     25  H   UNL     1      -0.010   9.294  14.938  1.00  0.00     0.211 HD
ENDBRANCH   3  24
BRANCH   5  26
ATOM     26  O   UNL     1       1.048  11.892  11.941  1.00  0.00    -0.454 OA
BRANCH  26  27
ATOM     27  C   UNL     1       2.043  12.863  12.097  1.00  0.00     0.214 A 
ATOM     28  C   UNL     1       3.388  12.491  12.245  1.00  0.00     0.180 A 
ATOM     29  C   UNL     1       1.718  14.236  12.031  1.00  0.00     0.239 A 
ATOM     30  O   UNL     1       4.337  13.420  12.222  1.00  0.00    -0.452 OA
ATOM     31  C   UNL     1       2.742  15.208  12.105  1.00  0.00     0.111 A 
ATOM     32  O   UNL     1       0.512  14.560  11.881  1.00  0.00    -0.285 OA
ATOM     33  C   UNL     1       4.084  14.718  12.127  1.00  0.00     0.146 A 
ATOM     34  C   UNL     1       2.529  16.624  12.129  1.00  0.00     0.134 A 
ATOM     35  C   UNL     1       5.157  15.597  12.048  1.00  0.00     0.094 A 
ATOM     36  C   UNL     1       3.629  17.474  12.037  1.00  0.00     0.093 A 
ATOM     37  C   UNL     1       4.927  16.976  11.972  1.00  0.00     0.123 A 
BRANCH  28  38
ATOM     38  C   UNL     1       3.824  11.073  12.388  1.00  0.00     0.025 A 
ATOM     39  C   UNL     1       5.157  10.721  12.138  1.00  0.00     0.062 A 
ATOM     40  C   UNL     1       2.910  10.088  12.778  1.00  0.00     0.016 A 
ATOM     41  C   UNL     1       5.559   9.375  12.212  1.00  0.00     0.158 A 
ATOM     42  C   UNL     1       3.297   8.745  12.843  1.00  0.00     0.051 A 
ATOM     43  C   UNL     1       4.619   8.388  12.579  1.00  0.00     0.157 A 
BRANCH  41  44
ATOM     44  O   UNL     1       6.880   9.022  11.925  1.00  0.00    -0.504 OA
ATOM     45  H   UNL     1       7.490   9.612  11.375  1.00  0.00     0.293 HD
ENDBRANCH  41  44
BRANCH  43  46
ATOM     46  O   UNL     1       4.990   7.045  12.670  1.00  0.00    -0.504 OA
ATOM     47  H   UNL     1       5.692   6.638  12.054  1.00  0.00     0.293 HD
ENDBRANCH  43  46
ENDBRANCH  28  38
BRANCH  34  48
ATOM     48  O   UNL     1       1.273  17.213  12.290  1.00  0.00    -0.507 OA
ATOM     49  H   UNL     1       0.829  17.370  13.181  1.00  0.00     0.293 HD
ENDBRANCH  34  48
BRANCH  37  50
ATOM     50  O   UNL     1       6.001  17.851  11.875  1.00  0.00    -0.508 OA
ATOM     51  H   UNL     1       6.867  17.715  12.410  1.00  0.00     0.293 HD
ENDBRANCH  37  50
ENDBRANCH  26  27
ENDBRANCH   5  26
BRANCH   4  52
ATOM     52  O   UNL     1      -0.674   9.784  11.875  1.00  0.00    -0.384 OA
ATOM     53  H   UNL     1      -1.424   9.525  11.258  1.00  0.00     0.211 HD
ENDBRANCH   4  52
TORSDOF 16
ENDMDL
MODEL 2
REMARK VINA RESULT:     3.395      2.011      7.023
REMARK INTER + INTRA:          12.906
REMARK INTER:                  12.307
REMARK INTRA:                   0.599
REMARK UNBOUND:                 7.328
REMARK SMILES C[C@H]1O[C@H](OC[C@H]2O[C@@H](Oc3c(-c4ccc(O)c(O)c4)oc4cc(O)cc(O)c4c3=O)[C@@H](O)[C@@H](O)[C@@H]2O)[C@@H](O)[C@@H](O)[C@H]1O
REMARK SMILES IDX 7 1 36 2 34 3 32 4 9 5 8 6 6 7 5 8 4 9 1 10 2 11 42 12 3 13
REMARK SMILES IDX 40 14 38 15 43 16 41 18 39 20 37 22 35 24 10 26 11 27 12 28
REMARK SMILES IDX 30 29 21 30 29 31 31 32 22 33 27 34 23 35 26 36 24 37 13 38
REMARK SMILES IDX 20 39 14 40 18 41 15 42 16 43 19 44 17 46 28 48 25 50 33 52
REMARK H PARENT 43 17 41 19 39 21 37 23 35 25 19 45 17 47 28 49 25 51 33 53
REMARK Flexibility Score: inf
ROOT
ATOM      1  C   UNL     1       1.659  10.276  14.225  1.00  0.00     0.180 C 
ATOM      2  C   UNL     1       0.963  10.898  12.974  1.00  0.00     0.177 C 
ATOM      3  C   UNL     1      -0.507  11.210  13.283  1.00  0.00     0.180 C 
ATOM      4  C   UNL     1      -0.634  12.103  14.553  1.00  0.00     0.214 C 
ATOM      5  C   UNL     1       0.666  12.095  15.393  1.00  0.00     0.339 C 
ATOM      6  O   UNL     1       1.204  10.793  15.481  1.00  0.00    -0.332 OA
ENDROOT
BRANCH   1   7
ATOM      7  C   UNL     1       3.203  10.310  14.167  1.00  0.00     0.198 C 
BRANCH   7   8
ATOM      8  O   UNL     1       3.698   9.263  13.356  1.00  0.00    -0.347 OA
BRANCH   8   9
ATOM      9  C   UNL     1       4.291   8.217  14.105  1.00  0.00     0.281 C 
ATOM     10  C   UNL     1       3.981   5.230  11.958  1.00  0.00     0.041 C 
ATOM     11  C   UNL     1       4.250   6.718  12.255  1.00  0.00     0.150 C 
ATOM     12  C   UNL     1       5.720   7.086  11.876  1.00  0.00     0.174 C 
ATOM     13  O   UNL     1       3.925   6.933  13.622  1.00  0.00    -0.344 OA
ATOM     14  C   UNL     1       6.229   8.371  12.558  1.00  0.00     0.179 C 
ATOM     15  C   UNL     1       5.817   8.395  14.042  1.00  0.00     0.202 C 
BRANCH  12  16
ATOM     16  O   UNL     1       6.606   6.025  12.171  1.00  0.00    -0.388 OA
ATOM     17  H   UNL     1       6.116   5.164  12.007  1.00  0.00     0.211 HD
ENDBRANCH  12  16
BRANCH  14  18
ATOM     18  O   UNL     1       7.626   8.460  12.431  1.00  0.00    -0.387 OA
ATOM     19  H   UNL     1       7.845   8.203  11.501  1.00  0.00     0.211 HD
ENDBRANCH  14  18
BRANCH  15  20
ATOM     20  O   UNL     1       6.473   7.353  14.718  1.00  0.00    -0.385 OA
ATOM     21  H   UNL     1       5.959   6.517  14.493  1.00  0.00     0.211 HD
ENDBRANCH  15  20
ENDBRANCH   8   9
ENDBRANCH   7   8
ENDBRANCH   1   7
BRANCH   2  22
ATOM     22  O   UNL     1       1.046  10.022  11.876  1.00  0.00    -0.387 OA
ATOM     23  H   UNL     1       0.868   9.098  12.210  1.00  0.00     0.211 HD
ENDBRANCH   2  22
BRANCH   3  24
ATOM     24  O   UNL     1      -1.125  11.816  12.170  1.00  0.00    -0.387 OA
ATOM     25  H   UNL     1      -2.038  11.435  12.088  1.00  0.00     0.211 HD
ENDBRANCH   3  24
BRANCH   5  26
ATOM     26  O   UNL     1       1.627  13.013  14.868  1.00  0.00    -0.454 OA
BRANCH  26  27
ATOM     27  C   UNL     1       1.533  14.398  15.043  1.00  0.00     0.214 A 
ATOM     28  C   UNL     1       1.114  14.938  16.269  1.00  0.00     0.180 A 
ATOM     29  C   UNL     1       1.931  15.277  14.011  1.00  0.00     0.239 A 
ATOM     30  O   UNL     1       1.191  16.248  16.475  1.00  0.00    -0.452 OA
ATOM     31  C   UNL     1       1.912  16.674  14.228  1.00  0.00     0.111 A 
ATOM     32  O   UNL     1       2.321  14.785  12.921  1.00  0.00    -0.285 OA
ATOM     33  C   UNL     1       1.591  17.109  15.550  1.00  0.00     0.146 A 
ATOM     34  C   UNL     1       2.215  17.662  13.237  1.00  0.00     0.134 A 
ATOM     35  C   UNL     1       1.693  18.451  15.896  1.00  0.00     0.094 A 
ATOM     36  C   UNL     1       2.321  18.997  13.623  1.00  0.00     0.093 A 
ATOM     37  C   UNL     1       2.089  19.392  14.937  1.00  0.00     0.123 A 
BRANCH  28  38
ATOM     38  C   UNL     1       0.615  14.098  17.394  1.00  0.00     0.025 A 
ATOM     39  C   UNL     1       1.387  13.027  17.864  1.00  0.00     0.062 A 
ATOM     40  C   UNL     1      -0.620  14.374  17.991  1.00  0.00     0.016 A 
ATOM     41  C   UNL     1       0.894  12.193  18.884  1.00  0.00     0.158 A 
ATOM     42  C   UNL     1      -1.125  13.544  18.997  1.00  0.00     0.051 A 
ATOM     43  C   UNL     1      -0.366  12.468  19.457  1.00  0.00     0.157 A 
BRANCH  41  44
ATOM     44  O   UNL     1       1.649  11.103  19.324  1.00  0.00    -0.504 OA
ATOM     45  H   UNL     1       1.555  10.721  20.255  1.00  0.00     0.293 HD
ENDBRANCH  41  44
BRANCH  43  46
ATOM     46  O   UNL     1      -0.879  11.663  20.477  1.00  0.00    -0.504 OA
ATOM     47  H   UNL     1      -0.865  11.958  21.452  1.00  0.00     0.293 HD
ENDBRANCH  43  46
ENDBRANCH  28  38
BRANCH  34  48
ATOM     48  O   UNL     1       2.368  17.373  11.879  1.00  0.00    -0.507 OA
ATOM     49  H   UNL     1       2.955  17.897  11.249  1.00  0.00     0.293 HD
ENDBRANCH  34  48
BRANCH  37  50
ATOM     50  O   UNL     1       2.207  20.729  15.290  1.00  0.00    -0.508 OA
ATOM     51  H   UNL     1       2.680  21.414  14.690  1.00  0.00     0.293 HD
ENDBRANCH  37  50
ENDBRANCH  26  27
ENDBRANCH   5  26
BRANCH   4  52
ATOM     52  O   UNL     1      -0.986  13.429  14.228  1.00  0.00    -0.384 OA
ATOM     53  H   UNL     1      -0.325  14.012  14.710  1.00  0.00     0.211 HD
ENDBRANCH   4  52
TORSDOF 16
ENDMDL
