MODEL 1
REMARK VINA RESULT:    -4.786      0.000      0.000
REMARK INTER + INTRA:          -9.810
REMARK INTER:                  -8.144
REMARK INTRA:                  -1.665
REMARK UNBOUND:                -1.665
REMARK SMILES CCCCCCCCCCCCCC(=O)[O-]
REMARK SMILES IDX 8 1 9 2 10 3 11 4 12 5 13 6 14 7 15 8 16 9 7 10 6 11 5 12
REMARK SMILES IDX 4 13 3 14 2 15 1 16
REMARK H PARENT
REMARK Flexibility Score: inf
ROOT
ATOM      1  C   UNL     1    -105.030 -87.019  37.843  1.00  0.00     0.000 C 
ENDROOT
BRANCH   1   2
ATOM      2  C   UNL     1    -103.744 -86.821  38.665  1.00  0.00     0.000 C 
BRANCH   2   3
ATOM      3  C   UNL     1    -103.721 -85.559  39.546  1.00  0.00     0.000 C 
BRANCH   3   4
ATOM      4  C   UNL     1    -105.122 -84.974  39.791  1.00  0.00     0.000 C 
BRANCH   4   5
ATOM      5  C   UNL     1    -105.173 -83.449  39.556  1.00  0.00     0.006 C 
BRANCH   5   6
ATOM      6  C   UNL     1    -103.810 -82.759  39.720  1.00  0.00     0.053 C 
BRANCH   6   7
ATOM      7  C   UNL     1    -103.944 -81.302  40.037  1.00  0.00     0.041 C 
ATOM      8  O   UNL     1    -104.666 -80.562  39.321  1.00  0.00    -0.550 OA
ATOM      9  O   UNL     1    -103.250 -80.757  41.110  1.00  0.00    -0.550 OA
ENDBRANCH   6   7
ENDBRANCH   5   6
ENDBRANCH   4   5
ENDBRANCH   3   4
ENDBRANCH   2   3
ENDBRANCH   1   2
BRANCH   1  10
ATOM     10  C   UNL     1    -104.780 -87.701  36.492  1.00  0.00     0.000 C 
BRANCH  10  11
ATOM     11  C   UNL     1    -105.770 -87.204  35.433  1.00  0.00    -0.000 C 
BRANCH  11  12
ATOM     12  C   UNL     1    -105.060 -86.362  34.363  1.00  0.00    -0.000 C 
BRANCH  12  13
ATOM     13  C   UNL     1    -105.606 -84.920  34.294  1.00  0.00    -0.000 C 
BRANCH  13  14
ATOM     14  C   UNL     1    -104.568 -83.846  34.670  1.00  0.00    -0.000 C 
BRANCH  14  15
ATOM     15  C   UNL     1    -104.077 -83.908  36.125  1.00  0.00    -0.003 C 
ATOM     16  C   UNL     1    -102.582 -84.216  36.234  1.00  0.00     0.004 C 
ENDBRANCH  14  15
ENDBRANCH  13  14
ENDBRANCH  12  13
ENDBRANCH  11  12
ENDBRANCH  10  11
ENDBRANCH   1  10
TORSDOF 12
ENDMDL
MODEL 2
REMARK VINA RESULT:    -4.780      2.465      4.878
REMARK INTER + INTRA:          -9.799
REMARK INTER:                  -8.159
REMARK INTRA:                  -1.640
REMARK UNBOUND:                -1.665
REMARK SMILES CCCCCCCCCCCCCC(=O)[O-]
REMARK SMILES IDX 8 1 9 2 10 3 11 4 12 5 13 6 14 7 15 8 16 9 7 10 6 11 5 12
REMARK SMILES IDX 4 13 3 14 2 15 1 16
REMARK H PARENT
REMARK Flexibility Score: inf
ROOT
ATOM      1  C   UNL     1    -104.972 -87.747  36.361  1.00  0.00     0.000 C 
ENDROOT
BRANCH   1   2
ATOM      2  C   UNL     1    -105.656 -87.088  35.149  1.00  0.00     0.000 C 
BRANCH   2   3
ATOM      3  C   UNL     1    -104.800 -86.048  34.404  1.00  0.00     0.000 C 
BRANCH   3   4
ATOM      4  C   UNL     1    -105.173 -84.599  34.760  1.00  0.00     0.000 C 
BRANCH   4   5
ATOM      5  C   UNL     1    -104.255 -84.006  35.851  1.00  0.00     0.006 C 
BRANCH   5   6
ATOM      6  C   UNL     1    -102.819 -84.551  35.806  1.00  0.00     0.053 C 
BRANCH   6   7
ATOM      7  C   UNL     1    -102.016 -83.948  34.696  1.00  0.00     0.041 C 
ATOM      8  O   UNL     1    -101.218 -84.659  34.033  1.00  0.00    -0.550 OA
ATOM      9  O   UNL     1    -102.132 -82.593  34.411  1.00  0.00    -0.550 OA
ENDBRANCH   6   7
ENDBRANCH   5   6
ENDBRANCH   4   5
ENDBRANCH   3   4
ENDBRANCH   2   3
ENDBRANCH   1   2
BRANCH   1  10
ATOM     10  C   UNL     1    -105.185 -86.968  37.666  1.00  0.00     0.000 C 
BRANCH  10  11
ATOM     11  C   UNL     1    -103.931 -87.018  38.546  1.00  0.00    -0.000 C 
BRANCH  11  12
ATOM     12  C   UNL     1    -103.948 -85.898  39.597  1.00  0.00    -0.000 C 
BRANCH  12  13
ATOM     13  C   UNL     1    -105.193 -84.994  39.470  1.00  0.00    -0.000 C 
BRANCH  13  14
ATOM     14  C   UNL     1    -104.868 -83.488  39.467  1.00  0.00    -0.000 C 
BRANCH  14  15
ATOM     15  C   UNL     1    -103.369 -83.155  39.548  1.00  0.00    -0.003 C 
ATOM     16  C   UNL     1    -103.099 -81.794  40.192  1.00  0.00     0.004 C 
ENDBRANCH  14  15
ENDBRANCH  13  14
ENDBRANCH  12  13
ENDBRANCH  11  12
ENDBRANCH  10  11
ENDBRANCH   1  10
TORSDOF 12
ENDMDL
MODEL 3
REMARK VINA RESULT:    -4.717      1.831      4.898
REMARK INTER + INTRA:          -9.691
REMARK INTER:                  -8.334
REMARK INTRA:                  -1.357
REMARK UNBOUND:                -1.665
REMARK SMILES CCCCCCCCCCCCCC(=O)[O-]
REMARK SMILES IDX 8 1 9 2 10 3 11 4 12 5 13 6 14 7 15 8 16 9 7 10 6 11 5 12
REMARK SMILES IDX 4 13 3 14 2 15 1 16
REMARK H PARENT
REMARK Flexibility Score: inf
ROOT
ATOM      1  C   UNL     1    -103.896 -87.188  38.384  1.00  0.00     0.000 C 
ENDROOT
BRANCH   1   2
ATOM      2  C   UNL     1    -105.154 -86.941  37.531  1.00  0.00     0.000 C 
BRANCH   2   3
ATOM      3  C   UNL     1    -105.135 -87.596  36.138  1.00  0.00     0.000 C 
BRANCH   3   4
ATOM      4  C   UNL     1    -105.621 -86.652  35.025  1.00  0.00     0.000 C 
BRANCH   4   5
ATOM      5  C   UNL     1    -104.506 -85.708  34.525  1.00  0.00     0.006 C 
BRANCH   5   6
ATOM      6  C   UNL     1    -104.699 -84.247  34.961  1.00  0.00     0.053 C 
BRANCH   6   7
ATOM      7  C   UNL     1    -103.616 -83.779  35.882  1.00  0.00     0.041 C 
ATOM      8  O   UNL     1    -103.589 -82.584  36.274  1.00  0.00    -0.550 OA
ATOM      9  O   UNL     1    -102.620 -84.659  36.287  1.00  0.00    -0.550 OA
ENDBRANCH   6   7
ENDBRANCH   5   6
ENDBRANCH   4   5
ENDBRANCH   3   4
ENDBRANCH   2   3
ENDBRANCH   1   2
BRANCH   1  10
ATOM     10  C   UNL     1    -103.769 -86.211  39.561  1.00  0.00     0.000 C 
BRANCH  10  11
ATOM     11  C   UNL     1    -104.971 -85.262  39.620  1.00  0.00    -0.000 C 
BRANCH  11  12
ATOM     12  C   UNL     1    -104.530 -83.800  39.469  1.00  0.00    -0.000 C 
BRANCH  12  13
ATOM     13  C   UNL     1    -103.010 -83.622  39.678  1.00  0.00    -0.000 C 
BRANCH  13  14
ATOM     14  C   UNL     1    -102.609 -82.204  40.129  1.00  0.00    -0.000 C 
BRANCH  14  15
ATOM     15  C   UNL     1    -103.592 -81.096  39.717  1.00  0.00    -0.003 C 
ATOM     16  C   UNL     1    -104.099 -80.280  40.906  1.00  0.00     0.004 C 
ENDBRANCH  14  15
ENDBRANCH  13  14
ENDBRANCH  12  13
ENDBRANCH  11  12
ENDBRANCH  10  11
ENDBRANCH   1  10
TORSDOF 12
ENDMDL
MODEL 4
REMARK VINA RESULT:    -4.594      2.359      4.632
REMARK INTER + INTRA:          -9.482
REMARK INTER:                  -7.819
REMARK INTRA:                  -1.663
REMARK UNBOUND:                -1.665
REMARK SMILES CCCCCCCCCCCCCC(=O)[O-]
REMARK SMILES IDX 8 1 9 2 10 3 11 4 12 5 13 6 14 7 15 8 16 9 7 10 6 11 5 12
REMARK SMILES IDX 4 13 3 14 2 15 1 16
REMARK H PARENT
REMARK Flexibility Score: inf
ROOT
ATOM      1  C   UNL     1    -105.189 -83.190  39.676  1.00  0.00     0.000 C 
ENDROOT
BRANCH   1   2
ATOM      2  C   UNL     1    -103.741 -82.696  39.854  1.00  0.00     0.000 C 
BRANCH   2   3
ATOM      3  C   UNL     1    -103.254 -81.710  38.777  1.00  0.00     0.000 C 
BRANCH   3   4
ATOM      4  C   UNL     1    -104.205 -81.621  37.571  1.00  0.00     0.000 C 
BRANCH   4   5
ATOM      5  C   UNL     1    -103.543 -82.105  36.263  1.00  0.00     0.006 C 
BRANCH   5   6
ATOM      6  C   UNL     1    -103.744 -83.605  35.993  1.00  0.00     0.053 C 
BRANCH   6   7
ATOM      7  C   UNL     1    -102.447 -84.351  35.935  1.00  0.00     0.041 C 
ATOM      8  O   UNL     1    -101.776 -84.536  36.983  1.00  0.00    -0.550 OA
ATOM      9  O   UNL     1    -101.968 -84.819  34.719  1.00  0.00    -0.550 OA
ENDBRANCH   6   7
ENDBRANCH   5   6
ENDBRANCH   4   5
ENDBRANCH   3   4
ENDBRANCH   2   3
ENDBRANCH   1   2
BRANCH   1  10
ATOM     10  C   UNL     1    -105.294 -84.719  39.601  1.00  0.00     0.000 C 
BRANCH  10  11
ATOM     11  C   UNL     1    -103.916 -85.373  39.743  1.00  0.00    -0.000 C 
BRANCH  11  12
ATOM     12  C   UNL     1    -103.727 -86.496  38.713  1.00  0.00    -0.000 C 
BRANCH  12  13
ATOM     13  C   UNL     1    -104.999 -86.738  37.871  1.00  0.00    -0.000 C 
BRANCH  13  14
ATOM     14  C   UNL     1    -104.731 -87.471  36.542  1.00  0.00    -0.000 C 
BRANCH  14  15
ATOM     15  C   UNL     1    -105.734 -87.156  35.421  1.00  0.00    -0.003 C 
ATOM     16  C   UNL     1    -105.081 -86.486  34.212  1.00  0.00     0.004 C 
ENDBRANCH  14  15
ENDBRANCH  13  14
ENDBRANCH  12  13
ENDBRANCH  11  12
ENDBRANCH  10  11
ENDBRANCH   1  10
TORSDOF 12
ENDMDL
MODEL 5
REMARK VINA RESULT:    -4.568      3.067      5.463
REMARK INTER + INTRA:          -9.438
REMARK INTER:                  -7.791
REMARK INTRA:                  -1.646
REMARK UNBOUND:                -1.665
REMARK SMILES CCCCCCCCCCCCCC(=O)[O-]
REMARK SMILES IDX 8 1 9 2 10 3 11 4 12 5 13 6 14 7 15 8 16 9 7 10 6 11 5 12
REMARK SMILES IDX 4 13 3 14 2 15 1 16
REMARK H PARENT
REMARK Flexibility Score: inf
ROOT
ATOM      1  C   UNL     1    -102.609 -84.365  39.246  1.00  0.00     0.000 C 
ENDROOT
BRANCH   1   2
ATOM      2  C   UNL     1    -103.612 -85.417  39.753  1.00  0.00     0.000 C 
BRANCH   2   3
ATOM      3  C   UNL     1    -104.647 -85.883  38.713  1.00  0.00     0.000 C 
BRANCH   3   4
ATOM      4  C   UNL     1    -104.417 -87.331  38.246  1.00  0.00     0.000 C 
BRANCH   4   5
ATOM      5  C   UNL     1    -104.862 -87.556  36.785  1.00  0.00     0.006 C 
BRANCH   5   6
ATOM      6  C   UNL     1    -104.794 -86.286  35.922  1.00  0.00     0.053 C 
BRANCH   6   7
ATOM      7  C   UNL     1    -105.814 -86.289  34.825  1.00  0.00     0.041 C 
ATOM      8  O   UNL     1    -106.049 -85.237  34.177  1.00  0.00    -0.550 OA
ATOM      9  O   UNL     1    -106.522 -87.449  34.537  1.00  0.00    -0.550 OA
ENDBRANCH   6   7
ENDBRANCH   5   6
ENDBRANCH   4   5
ENDBRANCH   3   4
ENDBRANCH   2   3
ENDBRANCH   1   2
BRANCH   1  10
ATOM     10  C   UNL     1    -102.355 -83.241  40.261  1.00  0.00     0.000 C 
BRANCH  10  11
ATOM     11  C   UNL     1    -102.850 -81.894  39.724  1.00  0.00    -0.000 C 
BRANCH  11  12
ATOM     12  C   UNL     1    -104.362 -81.734  39.938  1.00  0.00    -0.000 C 
BRANCH  12  13
ATOM     13  C   UNL     1    -105.151 -81.791  38.612  1.00  0.00    -0.000 C 
BRANCH  13  14
ATOM     14  C   UNL     1    -104.275 -81.582  37.361  1.00  0.00    -0.000 C 
BRANCH  14  15
ATOM     15  C   UNL     1    -104.341 -82.723  36.333  1.00  0.00    -0.003 C 
ATOM     16  C   UNL     1    -102.969 -83.088  35.764  1.00  0.00     0.004 C 
ENDBRANCH  14  15
ENDBRANCH  13  14
ENDBRANCH  12  13
ENDBRANCH  11  12
ENDBRANCH  10  11
ENDBRANCH   1  10
TORSDOF 12
ENDMDL
MODEL 6
REMARK VINA RESULT:    -4.567      3.246      6.056
REMARK INTER + INTRA:          -9.437
REMARK INTER:                  -7.690
REMARK INTRA:                  -1.747
REMARK UNBOUND:                -1.665
REMARK SMILES CCCCCCCCCCCCCC(=O)[O-]
REMARK SMILES IDX 8 1 9 2 10 3 11 4 12 5 13 6 14 7 15 8 16 9 7 10 6 11 5 12
REMARK SMILES IDX 4 13 3 14 2 15 1 16
REMARK H PARENT
REMARK Flexibility Score: inf
ROOT
ATOM      1  C   UNL     1    -104.206 -81.546  36.704  1.00  0.00     0.000 C 
ENDROOT
BRANCH   1   2
ATOM      2  C   UNL     1    -103.320 -82.404  35.783  1.00  0.00     0.000 C 
BRANCH   2   3
ATOM      3  C   UNL     1    -102.886 -83.758  36.374  1.00  0.00     0.000 C 
BRANCH   3   4
ATOM      4  C   UNL     1    -103.404 -84.959  35.564  1.00  0.00     0.000 C 
BRANCH   4   5
ATOM      5  C   UNL     1    -104.944 -85.054  35.572  1.00  0.00     0.006 C 
BRANCH   5   6
ATOM      6  C   UNL     1    -105.506 -85.997  34.496  1.00  0.00     0.053 C 
BRANCH   6   7
ATOM      7  C   UNL     1    -105.879 -87.337  35.052  1.00  0.00     0.041 C 
ATOM      8  O   UNL     1    -106.637 -88.102  34.402  1.00  0.00    -0.550 OA
ATOM      9  O   UNL     1    -105.410 -87.727  36.299  1.00  0.00    -0.550 OA
ENDBRANCH   6   7
ENDBRANCH   5   6
ENDBRANCH   4   5
ENDBRANCH   3   4
ENDBRANCH   2   3
ENDBRANCH   1   2
BRANCH   1  10
ATOM     10  C   UNL     1    -103.712 -81.520  38.157  1.00  0.00     0.000 C 
BRANCH  10  11
ATOM     11  C   UNL     1    -104.867 -81.763  39.134  1.00  0.00    -0.000 C 
BRANCH  11  12
ATOM     12  C   UNL     1    -104.707 -83.107  39.857  1.00  0.00    -0.000 C 
BRANCH  12  13
ATOM     13  C   UNL     1    -105.596 -84.211  39.245  1.00  0.00    -0.000 C 
BRANCH  13  14
ATOM     14  C   UNL     1    -104.898 -85.581  39.140  1.00  0.00    -0.000 C 
BRANCH  14  15
ATOM     15  C   UNL     1    -103.423 -85.585  39.571  1.00  0.00    -0.003 C 
ATOM     16  C   UNL     1    -102.712 -86.898  39.239  1.00  0.00     0.004 C 
ENDBRANCH  14  15
ENDBRANCH  13  14
ENDBRANCH  12  13
ENDBRANCH  11  12
ENDBRANCH  10  11
ENDBRANCH   1  10
TORSDOF 12
ENDMDL
MODEL 7
REMARK VINA RESULT:    -4.538      2.942      5.265
REMARK INTER + INTRA:          -9.387
REMARK INTER:                  -8.244
REMARK INTRA:                  -1.143
REMARK UNBOUND:                -1.665
REMARK SMILES CCCCCCCCCCCCCC(=O)[O-]
REMARK SMILES IDX 8 1 9 2 10 3 11 4 12 5 13 6 14 7 15 8 16 9 7 10 6 11 5 12
REMARK SMILES IDX 4 13 3 14 2 15 1 16
REMARK H PARENT
REMARK Flexibility Score: inf
ROOT
ATOM      1  C   UNL     1    -103.260 -87.027  38.939  1.00  0.00     0.000 C 
ENDROOT
BRANCH   1   2
ATOM      2  C   UNL     1    -104.371 -87.428  37.952  1.00  0.00     0.000 C 
BRANCH   2   3
ATOM      3  C   UNL     1    -104.497 -86.524  36.712  1.00  0.00     0.000 C 
BRANCH   3   4
ATOM      4  C   UNL     1    -105.257 -87.196  35.556  1.00  0.00     0.000 C 
BRANCH   4   5
ATOM      5  C   UNL     1    -105.862 -86.169  34.574  1.00  0.00     0.006 C 
BRANCH   5   6
ATOM      6  C   UNL     1    -105.215 -84.778  34.666  1.00  0.00     0.053 C 
BRANCH   6   7
ATOM      7  C   UNL     1    -104.124 -84.591  33.658  1.00  0.00     0.041 C 
ATOM      8  O   UNL     1    -104.403 -84.248  32.480  1.00  0.00    -0.550 OA
ATOM      9  O   UNL     1    -102.801 -84.821  34.014  1.00  0.00    -0.550 OA
ENDBRANCH   6   7
ENDBRANCH   5   6
ENDBRANCH   4   5
ENDBRANCH   3   4
ENDBRANCH   2   3
ENDBRANCH   1   2
BRANCH   1  10
ATOM     10  C   UNL     1    -103.432 -85.604  39.490  1.00  0.00     0.000 C 
BRANCH  10  11
ATOM     11  C   UNL     1    -104.817 -85.423  40.120  1.00  0.00    -0.000 C 
BRANCH  11  12
ATOM     12  C   UNL     1    -105.620 -84.338  39.388  1.00  0.00    -0.000 C 
BRANCH  12  13
ATOM     13  C   UNL     1    -104.709 -83.285  38.721  1.00  0.00    -0.000 C 
BRANCH  13  14
ATOM     14  C   UNL     1    -104.957 -81.848  39.219  1.00  0.00    -0.000 C 
BRANCH  14  15
ATOM     15  C   UNL     1    -103.877 -81.301  40.166  1.00  0.00    -0.003 C 
ATOM     16  C   UNL     1    -102.643 -82.201  40.242  1.00  0.00     0.004 C 
ENDBRANCH  14  15
ENDBRANCH  13  14
ENDBRANCH  12  13
ENDBRANCH  11  12
ENDBRANCH  10  11
ENDBRANCH   1  10
TORSDOF 12
ENDMDL
MODEL 8
REMARK VINA RESULT:    -4.491      2.774      4.311
REMARK INTER + INTRA:          -9.307
REMARK INTER:                  -7.534
REMARK INTRA:                  -1.773
REMARK UNBOUND:                -1.665
REMARK SMILES CCCCCCCCCCCCCC(=O)[O-]
REMARK SMILES IDX 8 1 9 2 10 3 11 4 12 5 13 6 14 7 15 8 16 9 7 10 6 11 5 12
REMARK SMILES IDX 4 13 3 14 2 15 1 16
REMARK H PARENT
REMARK Flexibility Score: inf
ROOT
ATOM      1  C   UNL     1    -104.498 -81.904  37.458  1.00  0.00     0.000 C 
ENDROOT
BRANCH   1   2
ATOM      2  C   UNL     1    -103.653 -81.859  38.745  1.00  0.00     0.000 C 
BRANCH   2   3
ATOM      3  C   UNL     1    -104.075 -82.860  39.835  1.00  0.00     0.000 C 
BRANCH   3   4
ATOM      4  C   UNL     1    -105.317 -83.681  39.448  1.00  0.00     0.000 C 
BRANCH   4   5
ATOM      5  C   UNL     1    -105.041 -85.199  39.440  1.00  0.00     0.006 C 
BRANCH   5   6
ATOM      6  C   UNL     1    -103.568 -85.555  39.695  1.00  0.00     0.053 C 
BRANCH   6   7
ATOM      7  C   UNL     1    -103.188 -86.873  39.096  1.00  0.00     0.041 C 
ATOM      8  O   UNL     1    -103.985 -87.472  38.328  1.00  0.00    -0.550 OA
ATOM      9  O   UNL     1    -101.965 -87.453  39.408  1.00  0.00    -0.550 OA
ENDBRANCH   6   7
ENDBRANCH   5   6
ENDBRANCH   4   5
ENDBRANCH   3   4
ENDBRANCH   2   3
ENDBRANCH   1   2
BRANCH   1  10
ATOM     10  C   UNL     1    -103.720 -82.439  36.249  1.00  0.00     0.000 C 
BRANCH  10  11
ATOM     11  C   UNL     1    -103.015 -83.757  36.588  1.00  0.00    -0.000 C 
BRANCH  11  12
ATOM     12  C   UNL     1    -103.393 -84.860  35.588  1.00  0.00    -0.000 C 
BRANCH  12  13
ATOM     13  C   UNL     1    -104.870 -85.291  35.722  1.00  0.00    -0.000 C 
BRANCH  13  14
ATOM     14  C   UNL     1    -105.625 -85.337  34.380  1.00  0.00    -0.000 C 
BRANCH  14  15
ATOM     15  C   UNL     1    -105.293 -84.186  33.416  1.00  0.00    -0.003 C 
ATOM     16  C   UNL     1    -106.356 -83.087  33.417  1.00  0.00     0.004 C 
ENDBRANCH  14  15
ENDBRANCH  13  14
ENDBRANCH  12  13
ENDBRANCH  11  12
ENDBRANCH  10  11
ENDBRANCH   1  10
TORSDOF 12
ENDMDL
MODEL 9
REMARK VINA RESULT:    -4.461      3.561      5.816
REMARK INTER + INTRA:          -9.256
REMARK INTER:                  -8.044
REMARK INTRA:                  -1.213
REMARK UNBOUND:                -1.665
REMARK SMILES CCCCCCCCCCCCCC(=O)[O-]
REMARK SMILES IDX 8 1 9 2 10 3 11 4 12 5 13 6 14 7 15 8 16 9 7 10 6 11 5 12
REMARK SMILES IDX 4 13 3 14 2 15 1 16
REMARK H PARENT
REMARK Flexibility Score: inf
ROOT
ATOM      1  C   UNL     1    -105.405 -87.487  36.206  1.00  0.00     0.000 C 
ENDROOT
BRANCH   1   2
ATOM      2  C   UNL     1    -105.567 -86.926  34.781  1.00  0.00     0.000 C 
BRANCH   2   3
ATOM      3  C   UNL     1    -105.633 -85.391  34.690  1.00  0.00     0.000 C 
BRANCH   3   4
ATOM      4  C   UNL     1    -104.644 -84.808  33.665  1.00  0.00     0.000 C 
BRANCH   4   5
ATOM      5  C   UNL     1    -105.247 -83.632  32.868  1.00  0.00     0.006 C 
BRANCH   5   6
ATOM      6  C   UNL     1    -106.556 -83.094  33.467  1.00  0.00     0.053 C 
BRANCH   6   7
ATOM      7  C   UNL     1    -107.720 -83.268  32.540  1.00  0.00     0.041 C 
ATOM      8  O   UNL     1    -107.844 -82.523  31.534  1.00  0.00    -0.550 OA
ATOM      9  O   UNL     1    -108.680 -84.235  32.804  1.00  0.00    -0.550 OA
ENDBRANCH   6   7
ENDBRANCH   5   6
ENDBRANCH   4   5
ENDBRANCH   3   4
ENDBRANCH   2   3
ENDBRANCH   1   2
BRANCH   1  10
ATOM     10  C   UNL     1    -105.118 -86.399  37.250  1.00  0.00     0.000 C 
BRANCH  10  11
ATOM     11  C   UNL     1    -104.165 -86.914  38.334  1.00  0.00    -0.000 C 
BRANCH  11  12
ATOM     12  C   UNL     1    -103.984 -85.877  39.451  1.00  0.00    -0.000 C 
BRANCH  12  13
ATOM     13  C   UNL     1    -105.217 -84.959  39.603  1.00  0.00    -0.000 C 
BRANCH  13  14
ATOM     14  C   UNL     1    -104.895 -83.460  39.452  1.00  0.00    -0.000 C 
BRANCH  14  15
ATOM     15  C   UNL     1    -103.744 -83.144  38.484  1.00  0.00    -0.003 C 
ATOM     16  C   UNL     1    -104.226 -82.854  37.062  1.00  0.00     0.004 C 
ENDBRANCH  14  15
ENDBRANCH  13  14
ENDBRANCH  12  13
ENDBRANCH  11  12
ENDBRANCH  10  11
ENDBRANCH   1  10
TORSDOF 12
ENDMDL
