MODEL 1
REMARK VINA RESULT:    -0.427      0.000      0.000
REMARK INTER + INTRA:          -0.838
REMARK INTER:                  -0.515
REMARK INTRA:                  -0.323
REMARK UNBOUND:                -0.323
REMARK SMILES O=c1c(O)c(-c2ccc(O)c(O)c2)oc2cc(O)cc(O)c12
REMARK SMILES IDX 5 1 3 2 2 3 1 4 22 5 20 6 19 7 17 8 16 9 15 10 14 11 6 12
REMARK SMILES IDX 7 13 8 14 9 15 13 16 11 17 10 18 12 20 4 22 21 24 18 26
REMARK H PARENT 10 19 12 21 4 23 21 25 18 27
REMARK Flexibility Score: inf
ROOT
ATOM      1  C   UNL     1      30.664  38.312  42.838  1.00  0.00     0.180 A 
ATOM      2  C   UNL     1      31.951  38.815  43.094  1.00  0.00     0.208 A 
ATOM      3  C   UNL     1      32.093  40.159  43.476  1.00  0.00     0.238 A 
ATOM      4  O   UNL     1      33.242  40.589  43.757  1.00  0.00    -0.285 OA
ATOM      5  C   UNL     1      30.948  40.986  43.581  1.00  0.00     0.111 A 
ATOM      6  C   UNL     1      30.978  42.371  43.922  1.00  0.00     0.134 A 
ATOM      7  C   UNL     1      29.775  43.060  44.124  1.00  0.00     0.093 A 
ATOM      8  C   UNL     1      28.544  42.428  43.934  1.00  0.00     0.123 A 
ATOM      9  C   UNL     1      28.505  41.092  43.544  1.00  0.00     0.094 A 
ATOM     10  C   UNL     1      29.688  40.369  43.370  1.00  0.00     0.146 A 
ATOM     11  O   UNL     1      29.604  39.094  43.008  1.00  0.00    -0.452 OA
ENDROOT
BRANCH   1  12
ATOM     12  C   UNL     1      30.437  36.914  42.406  1.00  0.00     0.025 A 
ATOM     13  C   UNL     1      30.251  35.880  43.341  1.00  0.00     0.016 A 
ATOM     14  C   UNL     1      30.062  34.564  42.912  1.00  0.00     0.051 A 
ATOM     15  C   UNL     1      30.071  34.259  41.545  1.00  0.00     0.157 A 
ATOM     16  C   UNL     1      30.465  36.598  41.038  1.00  0.00     0.062 A 
ATOM     17  C   UNL     1      30.276  35.278  40.606  1.00  0.00     0.158 A 
BRANCH  15  18
ATOM     18  O   UNL     1      29.881  32.947  41.111  1.00  0.00    -0.504 OA
ATOM     19  H   UNL     1      29.016  32.451  41.290  1.00  0.00     0.293 HD
ENDBRANCH  15  18
BRANCH  17  20
ATOM     20  O   UNL     1      30.291  34.971  39.246  1.00  0.00    -0.504 OA
ATOM     21  H   UNL     1      29.682  35.445  38.589  1.00  0.00     0.293 HD
ENDBRANCH  17  20
ENDBRANCH   1  12
BRANCH   2  22
ATOM     22  O   UNL     1      33.064  37.976  43.006  1.00  0.00    -0.502 OA
ATOM     23  H   UNL     1      33.892  38.108  43.575  1.00  0.00     0.293 HD
ENDBRANCH   2  22
BRANCH   6  24
ATOM     24  O   UNL     1      32.154  43.120  44.044  1.00  0.00    -0.507 OA
ATOM     25  H   UNL     1      32.817  43.273  43.300  1.00  0.00     0.293 HD
ENDBRANCH   6  24
BRANCH   8  26
ATOM     26  O   UNL     1      27.352  43.124  44.122  1.00  0.00    -0.508 OA
ATOM     27  H   UNL     1      26.559  42.996  43.503  1.00  0.00     0.293 HD
ENDBRANCH   8  26
TORSDOF 6
ENDMDL
MODEL 2
REMARK VINA RESULT:    -0.367      1.581      3.226
REMARK INTER + INTRA:          -0.765
REMARK INTER:                  -0.430
REMARK INTRA:                  -0.335
REMARK UNBOUND:                -0.323
REMARK SMILES O=c1c(O)c(-c2ccc(O)c(O)c2)oc2cc(O)cc(O)c12
REMARK SMILES IDX 5 1 3 2 2 3 1 4 22 5 20 6 19 7 17 8 16 9 15 10 14 11 6 12
REMARK SMILES IDX 7 13 8 14 9 15 13 16 11 17 10 18 12 20 4 22 21 24 18 26
REMARK H PARENT 10 19 12 21 4 23 21 25 18 27
REMARK Flexibility Score: inf
ROOT
ATOM      1  C   UNL     1      28.790  38.097  43.135  1.00  0.00     0.180 A 
ATOM      2  C   UNL     1      27.591  38.776  43.416  1.00  0.00     0.208 A 
ATOM      3  C   UNL     1      27.621  40.171  43.577  1.00  0.00     0.238 A 
ATOM      4  O   UNL     1      26.537  40.779  43.774  1.00  0.00    -0.285 OA
ATOM      5  C   UNL     1      28.849  40.866  43.470  1.00  0.00     0.111 A 
ATOM      6  C   UNL     1      29.002  42.273  43.654  1.00  0.00     0.134 A 
ATOM      7  C   UNL     1      30.242  42.873  43.397  1.00  0.00     0.093 A 
ATOM      8  C   UNL     1      31.349  42.106  43.026  1.00  0.00     0.123 A 
ATOM      9  C   UNL     1      31.224  40.725  42.902  1.00  0.00     0.094 A 
ATOM     10  C   UNL     1      29.992  40.103  43.117  1.00  0.00     0.146 A 
ATOM     11  O   UNL     1      29.915  38.784  42.977  1.00  0.00    -0.452 OA
ENDROOT
BRANCH   1  12
ATOM     12  C   UNL     1      28.843  36.626  42.978  1.00  0.00     0.025 A 
ATOM     13  C   UNL     1      29.050  35.778  44.081  1.00  0.00     0.016 A 
ATOM     14  C   UNL     1      29.120  34.394  43.905  1.00  0.00     0.051 A 
ATOM     15  C   UNL     1      29.000  33.837  42.625  1.00  0.00     0.157 A 
ATOM     16  C   UNL     1      28.743  36.063  41.695  1.00  0.00     0.062 A 
ATOM     17  C   UNL     1      28.814  34.674  41.518  1.00  0.00     0.158 A 
BRANCH  15  18
ATOM     18  O   UNL     1      29.068  32.456  42.445  1.00  0.00    -0.504 OA
ATOM     19  H   UNL     1      29.732  31.888  42.957  1.00  0.00     0.293 HD
ENDBRANCH  15  18
BRANCH  17  20
ATOM     20  O   UNL     1      28.700  34.118  40.244  1.00  0.00    -0.504 OA
ATOM     21  H   UNL     1      29.515  33.939  39.669  1.00  0.00     0.293 HD
ENDBRANCH  17  20
ENDBRANCH   1  12
BRANCH   2  22
ATOM     22  O   UNL     1      26.387  38.073  43.494  1.00  0.00    -0.502 OA
ATOM     23  H   UNL     1      26.099  37.405  42.789  1.00  0.00     0.293 HD
ENDBRANCH   2  22
BRANCH   6  24
ATOM     24  O   UNL     1      27.984  43.116  44.112  1.00  0.00    -0.507 OA
ATOM     25  H   UNL     1      27.800  44.041  43.754  1.00  0.00     0.293 HD
ENDBRANCH   6  24
BRANCH   8  26
ATOM     26  O   UNL     1      32.582  42.709  42.788  1.00  0.00    -0.508 OA
ATOM     27  H   UNL     1      32.810  43.112  41.887  1.00  0.00     0.293 HD
ENDBRANCH   8  26
TORSDOF 6
ENDMDL
MODEL 3
REMARK VINA RESULT:    -0.360      1.516      1.934
REMARK INTER + INTRA:          -0.757
REMARK INTER:                  -0.434
REMARK INTRA:                  -0.323
REMARK UNBOUND:                -0.323
REMARK SMILES O=c1c(O)c(-c2ccc(O)c(O)c2)oc2cc(O)cc(O)c12
REMARK SMILES IDX 5 1 3 2 2 3 1 4 22 5 20 6 19 7 17 8 16 9 15 10 14 11 6 12
REMARK SMILES IDX 7 13 8 14 9 15 13 16 11 17 10 18 12 20 4 22 21 24 18 26
REMARK H PARENT 10 19 12 21 4 23 21 25 18 27
REMARK Flexibility Score: inf
ROOT
ATOM      1  C   UNL     1      30.563  38.998  41.279  1.00  0.00     0.180 A 
ATOM      2  C   UNL     1      31.855  39.381  41.679  1.00  0.00     0.208 A 
ATOM      3  C   UNL     1      32.008  40.521  42.486  1.00  0.00     0.238 A 
ATOM      4  O   UNL     1      33.162  40.827  42.885  1.00  0.00    -0.285 OA
ATOM      5  C   UNL     1      30.870  41.270  42.870  1.00  0.00     0.111 A 
ATOM      6  C   UNL     1      30.911  42.462  43.652  1.00  0.00     0.134 A 
ATOM      7  C   UNL     1      29.714  43.049  44.082  1.00  0.00     0.093 A 
ATOM      8  C   UNL     1      28.477  42.522  43.701  1.00  0.00     0.123 A 
ATOM      9  C   UNL     1      28.427  41.393  42.889  1.00  0.00     0.094 A 
ATOM     10  C   UNL     1      29.604  40.765  42.475  1.00  0.00     0.146 A 
ATOM     11  O   UNL     1      29.510  39.683  41.709  1.00  0.00    -0.452 OA
ENDROOT
BRANCH   1  12
ATOM     12  C   UNL     1      30.324  37.825  40.408  1.00  0.00     0.025 A 
ATOM     13  C   UNL     1      30.123  36.541  40.946  1.00  0.00     0.016 A 
ATOM     14  C   UNL     1      29.923  35.444  40.104  1.00  0.00     0.051 A 
ATOM     15  C   UNL     1      29.936  35.610  38.713  1.00  0.00     0.157 A 
ATOM     16  C   UNL     1      30.356  37.981  39.012  1.00  0.00     0.062 A 
ATOM     17  C   UNL     1      30.156  36.881  38.167  1.00  0.00     0.158 A 
BRANCH  15  18
ATOM     18  O   UNL     1      29.735  34.519  37.869  1.00  0.00    -0.504 OA
ATOM     19  H   UNL     1      29.902  33.570  38.183  1.00  0.00     0.293 HD
ENDBRANCH  15  18
BRANCH  17  20
ATOM     20  O   UNL     1      30.174  37.042  36.782  1.00  0.00    -0.504 OA
ATOM     21  H   UNL     1      29.571  36.497  36.177  1.00  0.00     0.293 HD
ENDBRANCH  17  20
ENDBRANCH   1  12
BRANCH   2  22
ATOM     22  O   UNL     1      32.962  38.615  41.307  1.00  0.00    -0.502 OA
ATOM     23  H   UNL     1      32.993  37.609  41.425  1.00  0.00     0.293 HD
ENDBRANCH   2  22
BRANCH   6  24
ATOM     24  O   UNL     1      32.093  43.122  44.008  1.00  0.00    -0.507 OA
ATOM     25  H   UNL     1      32.453  43.187  44.947  1.00  0.00     0.293 HD
ENDBRANCH   6  24
BRANCH   8  26
ATOM     26  O   UNL     1      27.292  43.121  44.120  1.00  0.00    -0.508 OA
ATOM     27  H   UNL     1      26.478  42.571  44.368  1.00  0.00     0.293 HD
ENDBRANCH   8  26
TORSDOF 6
ENDMDL
MODEL 4
REMARK VINA RESULT:    -0.358      4.560      5.368
REMARK INTER + INTRA:          -0.754
REMARK INTER:                  -0.431
REMARK INTRA:                  -0.323
REMARK UNBOUND:                -0.323
REMARK SMILES O=c1c(O)c(-c2ccc(O)c(O)c2)oc2cc(O)cc(O)c12
REMARK SMILES IDX 5 1 3 2 2 3 1 4 22 5 20 6 19 7 17 8 16 9 15 10 14 11 6 12
REMARK SMILES IDX 7 13 8 14 9 15 13 16 11 17 10 18 12 20 4 22 21 24 18 26
REMARK H PARENT 10 19 12 21 4 23 21 25 18 27
REMARK Flexibility Score: inf
ROOT
ATOM      1  C   UNL     1      32.874  41.001  39.451  1.00  0.00     0.180 A 
ATOM      2  C   UNL     1      34.141  41.110  40.050  1.00  0.00     0.208 A 
ATOM      3  C   UNL     1      34.242  41.673  41.333  1.00  0.00     0.238 A 
ATOM      4  O   UNL     1      35.371  41.718  41.885  1.00  0.00    -0.285 OA
ATOM      5  C   UNL     1      33.077  42.133  41.994  1.00  0.00     0.111 A 
ATOM      6  C   UNL     1      33.066  42.755  43.278  1.00  0.00     0.134 A 
ATOM      7  C   UNL     1      31.843  43.053  43.892  1.00  0.00     0.093 A 
ATOM      8  C   UNL     1      30.632  42.809  43.239  1.00  0.00     0.123 A 
ATOM      9  C   UNL     1      30.634  42.257  41.960  1.00  0.00     0.094 A 
ATOM     10  C   UNL     1      31.838  41.916  41.338  1.00  0.00     0.146 A 
ATOM     11  O   UNL     1      31.793  41.382  40.122  1.00  0.00    -0.452 OA
ENDROOT
BRANCH   1  12
ATOM     12  C   UNL     1      32.690  40.443  38.092  1.00  0.00     0.025 A 
ATOM     13  C   UNL     1      32.487  39.067  37.886  1.00  0.00     0.016 A 
ATOM     14  C   UNL     1      32.341  38.559  36.593  1.00  0.00     0.051 A 
ATOM     15  C   UNL     1      32.409  39.415  35.486  1.00  0.00     0.157 A 
ATOM     16  C   UNL     1      32.779  41.293  36.977  1.00  0.00     0.062 A 
ATOM     17  C   UNL     1      32.632  40.784  35.679  1.00  0.00     0.158 A 
BRANCH  15  18
ATOM     18  O   UNL     1      32.262  38.914  34.194  1.00  0.00    -0.504 OA
ATOM     19  H   UNL     1      32.832  38.147  33.855  1.00  0.00     0.293 HD
ENDBRANCH  15  18
BRANCH  17  20
ATOM     20  O   UNL     1      32.706  41.634  34.575  1.00  0.00    -0.504 OA
ATOM     21  H   UNL     1      32.451  41.319  33.647  1.00  0.00     0.293 HD
ENDBRANCH  17  20
ENDBRANCH   1  12
BRANCH   2  22
ATOM     22  O   UNL     1      35.274  40.629  39.389  1.00  0.00    -0.502 OA
ATOM     23  H   UNL     1      36.212  40.770  39.745  1.00  0.00     0.293 HD
ENDBRANCH   2  22
BRANCH   6  24
ATOM     24  O   UNL     1      34.221  43.125  43.975  1.00  0.00    -0.507 OA
ATOM     25  H   UNL     1      35.069  42.580  44.013  1.00  0.00     0.293 HD
ENDBRANCH   6  24
BRANCH   8  26
ATOM     26  O   UNL     1      29.421  43.123  43.850  1.00  0.00    -0.508 OA
ATOM     27  H   UNL     1      28.632  43.470  43.317  1.00  0.00     0.293 HD
ENDBRANCH   8  26
TORSDOF 6
ENDMDL
MODEL 5
REMARK VINA RESULT:    -0.345      2.543      3.118
REMARK INTER + INTRA:          -0.738
REMARK INTER:                  -0.414
REMARK INTRA:                  -0.324
REMARK UNBOUND:                -0.323
REMARK SMILES O=c1c(O)c(-c2ccc(O)c(O)c2)oc2cc(O)cc(O)c12
REMARK SMILES IDX 5 1 3 2 2 3 1 4 22 5 20 6 19 7 17 8 16 9 15 10 14 11 6 12
REMARK SMILES IDX 7 13 8 14 9 15 13 16 11 17 10 18 12 20 4 22 21 24 18 26
REMARK H PARENT 10 19 12 21 4 23 21 25 18 27
REMARK Flexibility Score: inf
ROOT
ATOM      1  C   UNL     1      33.248  38.814  41.389  1.00  0.00     0.180 A 
ATOM      2  C   UNL     1      34.529  39.223  41.799  1.00  0.00     0.208 A 
ATOM      3  C   UNL     1      34.657  40.385  42.577  1.00  0.00     0.238 A 
ATOM      4  O   UNL     1      35.800  40.715  42.987  1.00  0.00    -0.285 OA
ATOM      5  C   UNL     1      33.504  41.132  42.923  1.00  0.00     0.111 A 
ATOM      6  C   UNL     1      33.520  42.345  43.673  1.00  0.00     0.134 A 
ATOM      7  C   UNL     1      32.310  42.931  44.067  1.00  0.00     0.093 A 
ATOM      8  C   UNL     1      31.085  42.379  43.681  1.00  0.00     0.123 A 
ATOM      9  C   UNL     1      31.060  41.228  42.899  1.00  0.00     0.094 A 
ATOM     10  C   UNL     1      32.251  40.602  42.521  1.00  0.00     0.146 A 
ATOM     11  O   UNL     1      32.180  39.500  41.783  1.00  0.00    -0.452 OA
ENDROOT
BRANCH   1  12
ATOM     12  C   UNL     1      33.035  37.616  40.547  1.00  0.00     0.025 A 
ATOM     13  C   UNL     1      32.843  36.344  41.117  1.00  0.00     0.016 A 
ATOM     14  C   UNL     1      32.669  35.223  40.302  1.00  0.00     0.051 A 
ATOM     15  C   UNL     1      32.698  35.352  38.907  1.00  0.00     0.157 A 
ATOM     16  C   UNL     1      33.085  37.735  39.148  1.00  0.00     0.062 A 
ATOM     17  C   UNL     1      32.910  36.611  38.330  1.00  0.00     0.158 A 
BRANCH  15  18
ATOM     18  O   UNL     1      32.523  34.237  38.090  1.00  0.00    -0.504 OA
ATOM     19  H   UNL     1      32.339  33.319  38.479  1.00  0.00     0.293 HD
ENDBRANCH  15  18
BRANCH  17  20
ATOM     20  O   UNL     1      32.945  36.736  36.941  1.00  0.00    -0.504 OA
ATOM     21  H   UNL     1      33.332  37.558  36.493  1.00  0.00     0.293 HD
ENDBRANCH  17  20
ENDBRANCH   1  12
BRANCH   2  22
ATOM     22  O   UNL     1      35.650  38.459  41.467  1.00  0.00    -0.502 OA
ATOM     23  H   UNL     1      36.532  38.876  41.195  1.00  0.00     0.293 HD
ENDBRANCH   2  22
BRANCH   6  24
ATOM     24  O   UNL     1      34.688  43.028  44.030  1.00  0.00    -0.507 OA
ATOM     25  H   UNL     1      35.576  42.928  43.563  1.00  0.00     0.293 HD
ENDBRANCH   6  24
BRANCH   8  26
ATOM     26  O   UNL     1      29.886  42.976  44.064  1.00  0.00    -0.508 OA
ATOM     27  H   UNL     1      29.397  43.623  43.456  1.00  0.00     0.293 HD
ENDBRANCH   8  26
TORSDOF 6
ENDMDL
MODEL 6
REMARK VINA RESULT:    -0.336      4.466      6.288
REMARK INTER + INTRA:          -0.727
REMARK INTER:                  -0.404
REMARK INTRA:                  -0.323
REMARK UNBOUND:                -0.323
REMARK SMILES O=c1c(O)c(-c2ccc(O)c(O)c2)oc2cc(O)cc(O)c12
REMARK SMILES IDX 5 1 3 2 2 3 1 4 22 5 20 6 19 7 17 8 16 9 15 10 14 11 6 12
REMARK SMILES IDX 7 13 8 14 9 15 13 16 11 17 10 18 12 20 4 22 21 24 18 26
REMARK H PARENT 10 19 12 21 4 23 21 25 18 27
REMARK Flexibility Score: inf
ROOT
ATOM      1  C   UNL     1      27.557  41.316  39.281  1.00  0.00     0.180 A 
ATOM      2  C   UNL     1      26.254  41.665  39.676  1.00  0.00     0.208 A 
ATOM      3  C   UNL     1      26.051  42.205  40.956  1.00  0.00     0.238 A 
ATOM      4  O   UNL     1      24.891  42.566  41.282  1.00  0.00    -0.285 OA
ATOM      5  C   UNL     1      27.151  42.376  41.831  1.00  0.00     0.111 A 
ATOM      6  C   UNL     1      27.057  42.876  43.163  1.00  0.00     0.134 A 
ATOM      7  C   UNL     1      28.226  43.125  43.894  1.00  0.00     0.093 A 
ATOM      8  C   UNL     1      29.483  42.829  43.361  1.00  0.00     0.123 A 
ATOM      9  C   UNL     1      29.582  42.284  42.083  1.00  0.00     0.094 A 
ATOM     10  C   UNL     1      28.436  42.059  41.318  1.00  0.00     0.146 A 
ATOM     11  O   UNL     1      28.577  41.548  40.100  1.00  0.00    -0.452 OA
ENDROOT
BRANCH   1  12
ATOM     12  C   UNL     1      27.847  40.718  37.958  1.00  0.00     0.025 A 
ATOM     13  C   UNL     1      28.147  41.519  36.842  1.00  0.00     0.016 A 
ATOM     14  C   UNL     1      28.393  40.934  35.597  1.00  0.00     0.051 A 
ATOM     15  C   UNL     1      28.328  39.543  35.446  1.00  0.00     0.157 A 
ATOM     16  C   UNL     1      27.763  39.326  37.795  1.00  0.00     0.062 A 
ATOM     17  C   UNL     1      28.009  38.738  36.546  1.00  0.00     0.158 A 
BRANCH  15  18
ATOM     18  O   UNL     1      28.574  38.955  34.206  1.00  0.00    -0.504 OA
ATOM     19  H   UNL     1      28.732  39.514  33.377  1.00  0.00     0.293 HD
ENDBRANCH  15  18
BRANCH  17  20
ATOM     20  O   UNL     1      27.939  37.353  36.392  1.00  0.00    -0.504 OA
ATOM     21  H   UNL     1      27.051  36.874  36.310  1.00  0.00     0.293 HD
ENDBRANCH  17  20
ENDBRANCH   1  12
BRANCH   2  22
ATOM     22  O   UNL     1      25.186  41.510  38.788  1.00  0.00    -0.502 OA
ATOM     23  H   UNL     1      24.231  41.390  39.102  1.00  0.00     0.293 HD
ENDBRANCH   2  22
BRANCH   6  24
ATOM     24  O   UNL     1      25.846  43.118  43.823  1.00  0.00    -0.507 OA
ATOM     25  H   UNL     1      25.539  44.022  44.146  1.00  0.00     0.293 HD
ENDBRANCH   6  24
BRANCH   8  26
ATOM     26  O   UNL     1      30.640  43.064  44.100  1.00  0.00    -0.508 OA
ATOM     27  H   UNL     1      31.545  43.155  43.654  1.00  0.00     0.293 HD
ENDBRANCH   8  26
TORSDOF 6
ENDMDL
MODEL 7
REMARK VINA RESULT:    -0.313     11.712     14.512
REMARK INTER + INTRA:          -0.700
REMARK INTER:                  -0.384
REMARK INTRA:                  -0.316
REMARK UNBOUND:                -0.323
REMARK SMILES O=c1c(O)c(-c2ccc(O)c(O)c2)oc2cc(O)cc(O)c12
REMARK SMILES IDX 5 1 3 2 2 3 1 4 22 5 20 6 19 7 17 8 16 9 15 10 14 11 6 12
REMARK SMILES IDX 7 13 8 14 9 15 13 16 11 17 10 18 12 20 4 22 21 24 18 26
REMARK H PARENT 10 19 12 21 4 23 21 25 18 27
REMARK Flexibility Score: inf
ROOT
ATOM      1  C   UNL     1      29.868  25.873  40.158  1.00  0.00     0.180 A 
ATOM      2  C   UNL     1      31.148  25.417  40.518  1.00  0.00     0.208 A 
ATOM      3  C   UNL     1      31.278  24.545  41.611  1.00  0.00     0.238 A 
ATOM      4  O   UNL     1      32.420  24.098  41.894  1.00  0.00    -0.285 OA
ATOM      5  C   UNL     1      30.129  24.151  42.338  1.00  0.00     0.111 A 
ATOM      6  C   UNL     1      30.148  23.304  43.486  1.00  0.00     0.134 A 
ATOM      7  C   UNL     1      28.939  22.875  44.049  1.00  0.00     0.093 A 
ATOM      8  C   UNL     1      27.714  23.317  43.544  1.00  0.00     0.123 A 
ATOM      9  C   UNL     1      27.687  24.192  42.461  1.00  0.00     0.094 A 
ATOM     10  C   UNL     1      28.875  24.608  41.856  1.00  0.00     0.146 A 
ATOM     11  O   UNL     1      28.803  25.435  40.819  1.00  0.00    -0.452 OA
ENDROOT
BRANCH   1  12
ATOM     12  C   UNL     1      29.654  26.813  39.035  1.00  0.00     0.025 A 
ATOM     13  C   UNL     1      29.535  28.198  39.251  1.00  0.00     0.016 A 
ATOM     14  C   UNL     1      29.310  29.064  38.179  1.00  0.00     0.051 A 
ATOM     15  C   UNL     1      29.184  28.560  36.878  1.00  0.00     0.157 A 
ATOM     16  C   UNL     1      29.506  26.312  37.731  1.00  0.00     0.062 A 
ATOM     17  C   UNL     1      29.279  27.181  36.654  1.00  0.00     0.158 A 
BRANCH  15  18
ATOM     18  O   UNL     1      28.960  29.421  35.804  1.00  0.00    -0.504 OA
ATOM     19  H   UNL     1      28.498  29.106  34.960  1.00  0.00     0.293 HD
ENDBRANCH  15  18
BRANCH  17  20
ATOM     20  O   UNL     1      29.148  26.681  35.359  1.00  0.00    -0.504 OA
ATOM     21  H   UNL     1      28.446  25.988  35.127  1.00  0.00     0.293 HD
ENDBRANCH  17  20
ENDBRANCH   1  12
BRANCH   2  22
ATOM     22  O   UNL     1      32.266  25.800  39.772  1.00  0.00    -0.502 OA
ATOM     23  H   UNL     1      32.253  26.591  39.140  1.00  0.00     0.293 HD
ENDBRANCH   2  22
BRANCH   6  24
ATOM     24  O   UNL     1      31.319  22.880  44.125  1.00  0.00    -0.507 OA
ATOM     25  H   UNL     1      31.580  21.916  44.264  1.00  0.00     0.293 HD
ENDBRANCH   6  24
BRANCH   8  26
ATOM     26  O   UNL     1      26.517  22.898  44.120  1.00  0.00    -0.508 OA
ATOM     27  H   UNL     1      25.686  22.739  43.561  1.00  0.00     0.293 HD
ENDBRANCH   8  26
TORSDOF 6
ENDMDL
MODEL 8
REMARK VINA RESULT:    -0.277     11.123     14.386
REMARK INTER + INTRA:          -0.656
REMARK INTER:                  -0.334
REMARK INTRA:                  -0.323
REMARK UNBOUND:                -0.323
REMARK SMILES O=c1c(O)c(-c2ccc(O)c(O)c2)oc2cc(O)cc(O)c12
REMARK SMILES IDX 5 1 3 2 2 3 1 4 22 5 20 6 19 7 17 8 16 9 15 10 14 11 6 12
REMARK SMILES IDX 7 13 8 14 9 15 13 16 11 17 10 18 12 20 4 22 21 24 18 26
REMARK H PARENT 10 19 12 21 4 23 21 25 18 27
REMARK Flexibility Score: inf
ROOT
ATOM      1  C   UNL     1      30.746  26.337  40.419  1.00  0.00     0.180 A 
ATOM      2  C   UNL     1      29.476  26.012  40.926  1.00  0.00     0.208 A 
ATOM      3  C   UNL     1      29.378  25.079  41.971  1.00  0.00     0.238 A 
ATOM      4  O   UNL     1      28.244  24.833  42.457  1.00  0.00    -0.285 OA
ATOM      5  C   UNL     1      30.550  24.473  42.486  1.00  0.00     0.111 A 
ATOM      6  C   UNL     1      30.565  23.487  43.517  1.00  0.00     0.134 A 
ATOM      7  C   UNL     1      31.790  23.050  44.038  1.00  0.00     0.093 A 
ATOM      8  C   UNL     1      33.000  23.519  43.520  1.00  0.00     0.123 A 
ATOM      9  C   UNL     1      32.995  24.437  42.473  1.00  0.00     0.094 A 
ATOM     10  C   UNL     1      31.789  24.917  41.957  1.00  0.00     0.146 A 
ATOM     11  O   UNL     1      31.831  25.801  40.966  1.00  0.00    -0.452 OA
ENDROOT
BRANCH   1  12
ATOM     12  C   UNL     1      30.928  27.291  39.301  1.00  0.00     0.025 A 
ATOM     13  C   UNL     1      31.070  28.671  39.532  1.00  0.00     0.016 A 
ATOM     14  C   UNL     1      31.216  29.556  38.461  1.00  0.00     0.051 A 
ATOM     15  C   UNL     1      31.207  29.078  37.144  1.00  0.00     0.157 A 
ATOM     16  C   UNL     1      30.898  26.821  37.978  1.00  0.00     0.062 A 
ATOM     17  C   UNL     1      31.045  27.708  36.903  1.00  0.00     0.158 A 
BRANCH  15  18
ATOM     18  O   UNL     1      31.354  29.957  36.072  1.00  0.00    -0.504 OA
ATOM     19  H   UNL     1      30.992  29.735  35.152  1.00  0.00     0.293 HD
ENDBRANCH  15  18
BRANCH  17  20
ATOM     20  O   UNL     1      31.029  27.235  35.590  1.00  0.00    -0.504 OA
ATOM     21  H   UNL     1      31.473  26.360  35.338  1.00  0.00     0.293 HD
ENDBRANCH  17  20
ENDBRANCH   1  12
BRANCH   2  22
ATOM     22  O   UNL     1      28.335  26.639  40.418  1.00  0.00    -0.502 OA
ATOM     23  H   UNL     1      28.383  27.456  39.823  1.00  0.00     0.293 HD
ENDBRANCH   2  22
BRANCH   6  24
ATOM     24  O   UNL     1      29.415  22.886  44.040  1.00  0.00    -0.507 OA
ATOM     25  H   UNL     1      28.638  22.556  43.489  1.00  0.00     0.293 HD
ENDBRANCH   6  24
BRANCH   8  26
ATOM     26  O   UNL     1      34.214  23.068  44.033  1.00  0.00    -0.508 OA
ATOM     27  H   UNL     1      34.726  22.309  43.598  1.00  0.00     0.293 HD
ENDBRANCH   8  26
TORSDOF 6
ENDMDL
