MODEL 1
REMARK VINA RESULT:    -6.367      0.000      0.000
REMARK INTER + INTRA:          -7.993
REMARK INTER:                  -7.670
REMARK INTRA:                  -0.323
REMARK UNBOUND:                -0.323
REMARK SMILES O=c1c(O)c(-c2ccc(O)c(O)c2)oc2cc(O)cc(O)c12
REMARK SMILES IDX 5 1 3 2 2 3 1 4 22 5 20 6 19 7 17 8 16 9 15 10 14 11 6 12
REMARK SMILES IDX 7 13 8 14 9 15 13 16 11 17 10 18 12 20 4 22 21 24 18 26
REMARK H PARENT 10 19 12 21 4 23 21 25 18 27
REMARK Flexibility Score: inf
ROOT
ATOM      1  C   UNL     1       1.015  28.141 134.192  1.00  0.00     0.180 A 
ATOM      2  C   UNL     1       2.222  28.298 134.901  1.00  0.00     0.208 A 
ATOM      3  C   UNL     1       2.176  28.756 136.227  1.00  0.00     0.238 A 
ATOM      4  O   UNL     1       3.251  28.911 136.868  1.00  0.00    -0.285 OA
ATOM      5  C   UNL     1       0.929  29.028 136.827  1.00  0.00     0.111 A 
ATOM      6  C   UNL     1       0.795  29.488 138.159  1.00  0.00     0.134 A 
ATOM      7  C   UNL     1      -0.483  29.727 138.687  1.00  0.00     0.093 A 
ATOM      8  C   UNL     1      -1.625  29.515 137.912  1.00  0.00     0.123 A 
ATOM      9  C   UNL     1      -1.499  29.061 136.595  1.00  0.00     0.094 A 
ATOM     10  C   UNL     1      -0.235  28.819 136.050  1.00  0.00     0.146 A 
ATOM     11  O   UNL     1      -0.143  28.393 134.795  1.00  0.00    -0.452 OA
ENDROOT
BRANCH   1  12
ATOM     12  C   UNL     1       0.983  27.682 132.785  1.00  0.00     0.025 A 
ATOM     13  C   UNL     1       0.964  26.313 132.462  1.00  0.00     0.016 A 
ATOM     14  C   UNL     1       0.958  25.903 131.127  1.00  0.00     0.051 A 
ATOM     15  C   UNL     1       0.986  26.847 130.096  1.00  0.00     0.157 A 
ATOM     16  C   UNL     1       1.032  28.627 131.747  1.00  0.00     0.062 A 
ATOM     17  C   UNL     1       1.026  28.217 130.406  1.00  0.00     0.158 A 
BRANCH  15  18
ATOM     18  O   UNL     1       0.977  26.407 128.773  1.00  0.00    -0.504 OA
ATOM     19  H   UNL     1       0.333  26.781 128.085  1.00  0.00     0.293 HD
ENDBRANCH  15  18
BRANCH  17  20
ATOM     20  O   UNL     1       1.061  29.164 129.385  1.00  0.00    -0.504 OA
ATOM     21  H   UNL     1       1.213  30.147 129.576  1.00  0.00     0.293 HD
ENDBRANCH  17  20
ENDBRANCH   1  12
BRANCH   2  22
ATOM     22  O   UNL     1       3.442  27.975 134.299  1.00  0.00    -0.502 OA
ATOM     23  H   UNL     1       3.737  28.382 133.419  1.00  0.00     0.293 HD
ENDBRANCH   2  22
BRANCH   6  24
ATOM     24  O   UNL     1       1.916  29.708 138.959  1.00  0.00    -0.507 OA
ATOM     25  H   UNL     1       2.770  29.175 138.840  1.00  0.00     0.293 HD
ENDBRANCH   6  24
BRANCH   8  26
ATOM     26  O   UNL     1      -2.883  29.760 138.461  1.00  0.00    -0.508 OA
ATOM     27  H   UNL     1      -3.276  30.693 138.488  1.00  0.00     0.293 HD
ENDBRANCH   8  26
TORSDOF 6
ENDMDL
MODEL 2
REMARK VINA RESULT:    -6.182     11.936     14.142
REMARK INTER + INTRA:          -7.770
REMARK INTER:                  -7.502
REMARK INTRA:                  -0.268
REMARK UNBOUND:                -0.323
REMARK SMILES O=c1c(O)c(-c2ccc(O)c(O)c2)oc2cc(O)cc(O)c12
REMARK SMILES IDX 5 1 3 2 2 3 1 4 22 5 20 6 19 7 17 8 16 9 15 10 14 11 6 12
REMARK SMILES IDX 7 13 8 14 9 15 13 16 11 17 10 18 12 20 4 22 21 24 18 26
REMARK H PARENT 10 19 12 21 4 23 21 25 18 27
REMARK Flexibility Score: inf
ROOT
ATOM      1  C   UNL     1      -6.393  18.484 137.139  1.00  0.00     0.180 A 
ATOM      2  C   UNL     1      -7.544  17.681 137.261  1.00  0.00     0.208 A 
ATOM      3  C   UNL     1      -7.505  16.362 136.785  1.00  0.00     0.238 A 
ATOM      4  O   UNL     1      -8.533  15.638 136.879  1.00  0.00    -0.285 OA
ATOM      5  C   UNL     1      -6.315  15.862 136.215  1.00  0.00     0.111 A 
ATOM      6  C   UNL     1      -6.192  14.543 135.716  1.00  0.00     0.134 A 
ATOM      7  C   UNL     1      -4.971  14.117 135.172  1.00  0.00     0.093 A 
ATOM      8  C   UNL     1      -3.874  14.980 135.119  1.00  0.00     0.123 A 
ATOM      9  C   UNL     1      -3.991  16.284 135.611  1.00  0.00     0.094 A 
ATOM     10  C   UNL     1      -5.199  16.729 136.155  1.00  0.00     0.146 A 
ATOM     11  O   UNL     1      -5.285  17.974 136.610  1.00  0.00    -0.452 OA
ENDROOT
BRANCH   1  12
ATOM     12  C   UNL     1      -6.362  19.890 137.600  1.00  0.00     0.025 A 
ATOM     13  C   UNL     1      -6.278  20.211 138.966  1.00  0.00     0.016 A 
ATOM     14  C   UNL     1      -6.274  21.546 139.380  1.00  0.00     0.051 A 
ATOM     15  C   UNL     1      -6.368  22.578 138.440  1.00  0.00     0.157 A 
ATOM     16  C   UNL     1      -6.476  20.929 136.661  1.00  0.00     0.062 A 
ATOM     17  C   UNL     1      -6.472  22.269 137.074  1.00  0.00     0.158 A 
BRANCH  15  18
ATOM     18  O   UNL     1      -6.359  23.900 138.884  1.00  0.00    -0.504 OA
ATOM     19  H   UNL     1      -6.458  24.140 139.864  1.00  0.00     0.293 HD
ENDBRANCH  15  18
BRANCH  17  20
ATOM     20  O   UNL     1      -6.572  23.292 136.133  1.00  0.00    -0.504 OA
ATOM     21  H   UNL     1      -6.663  24.262 136.410  1.00  0.00     0.293 HD
ENDBRANCH  17  20
ENDBRANCH   1  12
BRANCH   2  22
ATOM     22  O   UNL     1      -8.694  18.186 137.873  1.00  0.00    -0.502 OA
ATOM     23  H   UNL     1      -9.119  17.742 138.679  1.00  0.00     0.293 HD
ENDBRANCH   2  22
BRANCH   6  24
ATOM     24  O   UNL     1      -7.268  13.656 135.755  1.00  0.00    -0.507 OA
ATOM     25  H   UNL     1      -7.812  13.514 136.598  1.00  0.00     0.293 HD
ENDBRANCH   6  24
BRANCH   8  26
ATOM     26  O   UNL     1      -2.672  14.531 134.575  1.00  0.00    -0.508 OA
ATOM     27  H   UNL     1      -2.379  14.802 133.644  1.00  0.00     0.293 HD
ENDBRANCH   8  26
TORSDOF 6
ENDMDL
MODEL 3
REMARK VINA RESULT:    -6.106      8.158     10.000
REMARK INTER + INTRA:          -7.678
REMARK INTER:                  -7.353
REMARK INTRA:                  -0.325
REMARK UNBOUND:                -0.323
REMARK SMILES O=c1c(O)c(-c2ccc(O)c(O)c2)oc2cc(O)cc(O)c12
REMARK SMILES IDX 5 1 3 2 2 3 1 4 22 5 20 6 19 7 17 8 16 9 15 10 14 11 6 12
REMARK SMILES IDX 7 13 8 14 9 15 13 16 11 17 10 18 12 20 4 22 21 24 18 26
REMARK H PARENT 10 19 12 21 4 23 21 25 18 27
REMARK Flexibility Score: inf
ROOT
ATOM      1  C   UNL     1       5.640  20.998 135.802  1.00  0.00     0.180 A 
ATOM      2  C   UNL     1       4.532  21.421 136.562  1.00  0.00     0.208 A 
ATOM      3  C   UNL     1       4.228  22.790 136.616  1.00  0.00     0.238 A 
ATOM      4  O   UNL     1       3.245  23.181 137.302  1.00  0.00    -0.285 OA
ATOM      5  C   UNL     1       5.020  23.708 135.896  1.00  0.00     0.111 A 
ATOM      6  C   UNL     1       4.778  25.103 135.895  1.00  0.00     0.134 A 
ATOM      7  C   UNL     1       5.608  25.951 135.145  1.00  0.00     0.093 A 
ATOM      8  C   UNL     1       6.669  25.433 134.398  1.00  0.00     0.123 A 
ATOM      9  C   UNL     1       6.912  24.056 134.397  1.00  0.00     0.094 A 
ATOM     10  C   UNL     1       6.099  23.195 135.139  1.00  0.00     0.146 A 
ATOM     11  O   UNL     1       6.355  21.891 135.124  1.00  0.00    -0.452 OA
ENDROOT
BRANCH   1  12
ATOM     12  C   UNL     1       6.035  19.575 135.711  1.00  0.00     0.025 A 
ATOM     13  C   UNL     1       5.504  18.729 134.721  1.00  0.00     0.016 A 
ATOM     14  C   UNL     1       5.873  17.382 134.670  1.00  0.00     0.051 A 
ATOM     15  C   UNL     1       6.765  16.857 135.610  1.00  0.00     0.157 A 
ATOM     16  C   UNL     1       6.915  19.038 136.666  1.00  0.00     0.062 A 
ATOM     17  C   UNL     1       7.287  17.687 136.616  1.00  0.00     0.158 A 
BRANCH  15  18
ATOM     18  O   UNL     1       7.116  15.510 135.532  1.00  0.00    -0.504 OA
ATOM     19  H   UNL     1       6.798  14.914 134.776  1.00  0.00     0.293 HD
ENDBRANCH  15  18
BRANCH  17  20
ATOM     20  O   UNL     1       8.171  17.169 137.561  1.00  0.00    -0.504 OA
ATOM     21  H   UNL     1       8.861  17.752 138.019  1.00  0.00     0.293 HD
ENDBRANCH  17  20
ENDBRANCH   1  12
BRANCH   2  22
ATOM     22  O   UNL     1       3.734  20.485 137.226  1.00  0.00    -0.502 OA
ATOM     23  H   UNL     1       4.122  19.785 137.848  1.00  0.00     0.293 HD
ENDBRANCH   2  22
BRANCH   6  24
ATOM     24  O   UNL     1       3.727  25.651 136.628  1.00  0.00    -0.507 OA
ATOM     25  H   UNL     1       2.763  25.381 136.464  1.00  0.00     0.293 HD
ENDBRANCH   6  24
BRANCH   8  26
ATOM     26  O   UNL     1       7.476  26.298 133.661  1.00  0.00    -0.508 OA
ATOM     27  H   UNL     1       7.617  27.261 133.944  1.00  0.00     0.293 HD
ENDBRANCH   8  26
TORSDOF 6
ENDMDL
MODEL 4
REMARK VINA RESULT:    -6.054      9.496     11.320
REMARK INTER + INTRA:          -7.616
REMARK INTER:                  -7.305
REMARK INTRA:                  -0.310
REMARK UNBOUND:                -0.323
REMARK SMILES O=c1c(O)c(-c2ccc(O)c(O)c2)oc2cc(O)cc(O)c12
REMARK SMILES IDX 5 1 3 2 2 3 1 4 22 5 20 6 19 7 17 8 16 9 15 10 14 11 6 12
REMARK SMILES IDX 7 13 8 14 9 15 13 16 11 17 10 18 12 20 4 22 21 24 18 26
REMARK H PARENT 10 19 12 21 4 23 21 25 18 27
REMARK Flexibility Score: inf
ROOT
ATOM      1  C   UNL     1       7.594  21.892 137.310  1.00  0.00     0.180 A 
ATOM      2  C   UNL     1       7.563  21.856 138.718  1.00  0.00     0.208 A 
ATOM      3  C   UNL     1       7.477  20.613 139.363  1.00  0.00     0.238 A 
ATOM      4  O   UNL     1       7.437  20.568 140.623  1.00  0.00    -0.285 OA
ATOM      5  C   UNL     1       7.446  19.430 138.595  1.00  0.00     0.111 A 
ATOM      6  C   UNL     1       7.365  18.138 139.169  1.00  0.00     0.134 A 
ATOM      7  C   UNL     1       7.348  17.008 138.336  1.00  0.00     0.093 A 
ATOM      8  C   UNL     1       7.411  17.145 136.947  1.00  0.00     0.123 A 
ATOM      9  C   UNL     1       7.491  18.419 136.376  1.00  0.00     0.094 A 
ATOM     10  C   UNL     1       7.507  19.557 137.188  1.00  0.00     0.146 A 
ATOM     11  O   UNL     1       7.578  20.756 136.620  1.00  0.00    -0.452 OA
ENDROOT
BRANCH   1  12
ATOM     12  C   UNL     1       7.664  23.165 136.557  1.00  0.00     0.025 A 
ATOM     13  C   UNL     1       6.519  23.953 136.343  1.00  0.00     0.016 A 
ATOM     14  C   UNL     1       6.605  25.138 135.608  1.00  0.00     0.051 A 
ATOM     15  C   UNL     1       7.827  25.547 135.066  1.00  0.00     0.157 A 
ATOM     16  C   UNL     1       8.886  23.568 135.994  1.00  0.00     0.062 A 
ATOM     17  C   UNL     1       8.974  24.758 135.256  1.00  0.00     0.158 A 
BRANCH  15  18
ATOM     18  O   UNL     1       7.882  26.736 134.339  1.00  0.00    -0.504 OA
ATOM     19  H   UNL     1       8.440  27.527 134.642  1.00  0.00     0.293 HD
ENDBRANCH  15  18
BRANCH  17  20
ATOM     20  O   UNL     1      10.194  25.156 134.713  1.00  0.00    -0.504 OA
ATOM     21  H   UNL     1      10.675  24.595 134.020  1.00  0.00     0.293 HD
ENDBRANCH  17  20
ENDBRANCH   1  12
BRANCH   2  22
ATOM     22  O   UNL     1       7.644  23.039 139.457  1.00  0.00    -0.502 OA
ATOM     23  H   UNL     1       7.541  23.059 140.465  1.00  0.00     0.293 HD
ENDBRANCH   2  22
BRANCH   6  24
ATOM     24  O   UNL     1       7.302  17.967 140.551  1.00  0.00    -0.507 OA
ATOM     25  H   UNL     1       7.100  18.740 141.176  1.00  0.00     0.293 HD
ENDBRANCH   6  24
BRANCH   8  26
ATOM     26  O   UNL     1       7.394  16.007 136.144  1.00  0.00    -0.508 OA
ATOM     27  H   UNL     1       6.528  15.531 135.918  1.00  0.00     0.293 HD
ENDBRANCH   8  26
TORSDOF 6
ENDMDL
MODEL 5
REMARK VINA RESULT:    -6.053      9.666     10.270
REMARK INTER + INTRA:          -7.615
REMARK INTER:                  -7.314
REMARK INTRA:                  -0.301
REMARK UNBOUND:                -0.323
REMARK SMILES O=c1c(O)c(-c2ccc(O)c(O)c2)oc2cc(O)cc(O)c12
REMARK SMILES IDX 5 1 3 2 2 3 1 4 22 5 20 6 19 7 17 8 16 9 15 10 14 11 6 12
REMARK SMILES IDX 7 13 8 14 9 15 13 16 11 17 10 18 12 20 4 22 21 24 18 26
REMARK H PARENT 10 19 12 21 4 23 21 25 18 27
REMARK Flexibility Score: inf
ROOT
ATOM      1  C   UNL     1      10.051  25.161 131.951  1.00  0.00     0.180 A 
ATOM      2  C   UNL     1       9.719  23.957 132.604  1.00  0.00     0.208 A 
ATOM      3  C   UNL     1       9.753  23.913 134.006  1.00  0.00     0.238 A 
ATOM      4  O   UNL     1       9.469  22.838 134.601  1.00  0.00    -0.285 OA
ATOM      5  C   UNL     1      10.096  25.074 134.731  1.00  0.00     0.111 A 
ATOM      6  C   UNL     1      10.149  25.115 136.146  1.00  0.00     0.134 A 
ATOM      7  C   UNL     1      10.490  26.311 136.794  1.00  0.00     0.093 A 
ATOM      8  C   UNL     1      10.776  27.464 136.059  1.00  0.00     0.123 A 
ATOM      9  C   UNL     1      10.726  27.429 134.662  1.00  0.00     0.094 A 
ATOM     10  C   UNL     1      10.390  26.246 133.996  1.00  0.00     0.146 A 
ATOM     11  O   UNL     1      10.354  26.239 132.669  1.00  0.00    -0.452 OA
ENDROOT
BRANCH   1  12
ATOM     12  C   UNL     1      10.057  25.280 130.476  1.00  0.00     0.025 A 
ATOM     13  C   UNL     1      11.125  24.788 129.706  1.00  0.00     0.016 A 
ATOM     14  C   UNL     1      11.120  24.934 128.316  1.00  0.00     0.051 A 
ATOM     15  C   UNL     1      10.059  25.583 127.677  1.00  0.00     0.157 A 
ATOM     16  C   UNL     1       9.003  25.950 129.832  1.00  0.00     0.062 A 
ATOM     17  C   UNL     1       8.996  26.097 128.438  1.00  0.00     0.158 A 
BRANCH  15  18
ATOM     18  O   UNL     1      10.082  25.711 126.288  1.00  0.00    -0.504 OA
ATOM     19  H   UNL     1      10.147  26.614 125.832  1.00  0.00     0.293 HD
ENDBRANCH  15  18
BRANCH  17  20
ATOM     20  O   UNL     1       7.939  26.752 127.808  1.00  0.00    -0.504 OA
ATOM     21  H   UNL     1       7.799  27.750 127.905  1.00  0.00     0.293 HD
ENDBRANCH  17  20
ENDBRANCH   1  12
BRANCH   2  22
ATOM     22  O   UNL     1       9.336  22.835 131.864  1.00  0.00    -0.502 OA
ATOM     23  H   UNL     1       8.584  22.222 132.157  1.00  0.00     0.293 HD
ENDBRANCH   2  22
BRANCH   6  24
ATOM     24  O   UNL     1       9.867  23.981 136.908  1.00  0.00    -0.507 OA
ATOM     25  H   UNL     1      10.168  23.899 137.873  1.00  0.00     0.293 HD
ENDBRANCH   6  24
BRANCH   8  26
ATOM     26  O   UNL     1      11.111  28.640 136.728  1.00  0.00    -0.508 OA
ATOM     27  H   UNL     1      10.480  29.431 136.756  1.00  0.00     0.293 HD
ENDBRANCH   8  26
TORSDOF 6
ENDMDL
MODEL 6
REMARK VINA RESULT:    -6.046      9.346     11.030
REMARK INTER + INTRA:          -7.606
REMARK INTER:                  -7.288
REMARK INTRA:                  -0.318
REMARK UNBOUND:                -0.323
REMARK SMILES O=c1c(O)c(-c2ccc(O)c(O)c2)oc2cc(O)cc(O)c12
REMARK SMILES IDX 5 1 3 2 2 3 1 4 22 5 20 6 19 7 17 8 16 9 15 10 14 11 6 12
REMARK SMILES IDX 7 13 8 14 9 15 13 16 11 17 10 18 12 20 4 22 21 24 18 26
REMARK H PARENT 10 19 12 21 4 23 21 25 18 27
REMARK Flexibility Score: inf
ROOT
ATOM      1  C   UNL     1       6.964  20.900 137.920  1.00  0.00     0.180 A 
ATOM      2  C   UNL     1       8.100  21.726 138.032  1.00  0.00     0.208 A 
ATOM      3  C   UNL     1       8.054  23.021 137.494  1.00  0.00     0.238 A 
ATOM      4  O   UNL     1       9.068  23.765 137.578  1.00  0.00    -0.285 OA
ATOM      5  C   UNL     1       6.871  23.476 136.874  1.00  0.00     0.111 A 
ATOM      6  C   UNL     1       6.741  24.769 136.312  1.00  0.00     0.134 A 
ATOM      7  C   UNL     1       5.526  25.150 135.720  1.00  0.00     0.093 A 
ATOM      8  C   UNL     1       4.444  24.268 135.682  1.00  0.00     0.123 A 
ATOM      9  C   UNL     1       4.568  22.990 136.236  1.00  0.00     0.094 A 
ATOM     10  C   UNL     1       5.769  22.590 136.828  1.00  0.00     0.146 A 
ATOM     11  O   UNL     1       5.862  21.369 137.343  1.00  0.00    -0.452 OA
ENDROOT
BRANCH   1  12
ATOM     12  C   UNL     1       6.942  19.516 138.445  1.00  0.00     0.025 A 
ATOM     13  C   UNL     1       6.638  19.248 139.791  1.00  0.00     0.016 A 
ATOM     14  C   UNL     1       6.647  17.936 140.270  1.00  0.00     0.051 A 
ATOM     15  C   UNL     1       6.972  16.875 139.419  1.00  0.00     0.157 A 
ATOM     16  C   UNL     1       7.288  18.450 137.598  1.00  0.00     0.062 A 
ATOM     17  C   UNL     1       7.297  17.132 138.077  1.00  0.00     0.158 A 
BRANCH  15  18
ATOM     18  O   UNL     1       6.970  15.575 139.926  1.00  0.00    -0.504 OA
ATOM     19  H   UNL     1       6.538  14.805 139.429  1.00  0.00     0.293 HD
ENDBRANCH  15  18
BRANCH  17  20
ATOM     20  O   UNL     1       7.629  16.080 137.225  1.00  0.00    -0.504 OA
ATOM     21  H   UNL     1       8.154  16.232 136.372  1.00  0.00     0.293 HD
ENDBRANCH  17  20
ENDBRANCH   1  12
BRANCH   2  22
ATOM     22  O   UNL     1       9.243  21.268 138.693  1.00  0.00    -0.502 OA
ATOM     23  H   UNL     1       9.699  21.803 139.422  1.00  0.00     0.293 HD
ENDBRANCH   2  22
BRANCH   6  24
ATOM     24  O   UNL     1       7.802  25.673 136.335  1.00  0.00    -0.507 OA
ATOM     25  H   UNL     1       7.680  26.632 136.641  1.00  0.00     0.293 HD
ENDBRANCH   6  24
BRANCH   8  26
ATOM     26  O   UNL     1       3.249  24.673 135.090  1.00  0.00    -0.508 OA
ATOM     27  H   UNL     1       2.382  24.701 135.613  1.00  0.00     0.293 HD
ENDBRANCH   8  26
TORSDOF 6
ENDMDL
MODEL 7
REMARK VINA RESULT:    -5.971     12.017     13.235
REMARK INTER + INTRA:          -7.516
REMARK INTER:                  -7.199
REMARK INTRA:                  -0.316
REMARK UNBOUND:                -0.323
REMARK SMILES O=c1c(O)c(-c2ccc(O)c(O)c2)oc2cc(O)cc(O)c12
REMARK SMILES IDX 5 1 3 2 2 3 1 4 22 5 20 6 19 7 17 8 16 9 15 10 14 11 6 12
REMARK SMILES IDX 7 13 8 14 9 15 13 16 11 17 10 18 12 20 4 22 21 24 18 26
REMARK H PARENT 10 19 12 21 4 23 21 25 18 27
REMARK Flexibility Score: inf
ROOT
ATOM      1  C   UNL     1      -6.644  17.997 137.155  1.00  0.00     0.180 A 
ATOM      2  C   UNL     1      -6.739  18.184 138.548  1.00  0.00     0.208 A 
ATOM      3  C   UNL     1      -6.678  19.488 139.064  1.00  0.00     0.238 A 
ATOM      4  O   UNL     1      -6.751  19.666 140.310  1.00  0.00    -0.285 OA
ATOM      5  C   UNL     1      -6.545  20.580 138.182  1.00  0.00     0.111 A 
ATOM      6  C   UNL     1      -6.481  21.925 138.621  1.00  0.00     0.134 A 
ATOM      7  C   UNL     1      -6.358  22.958 137.679  1.00  0.00     0.093 A 
ATOM      8  C   UNL     1      -6.299  22.674 136.313  1.00  0.00     0.123 A 
ATOM      9  C   UNL     1      -6.362  21.348 135.874  1.00  0.00     0.094 A 
ATOM     10  C   UNL     1      -6.482  20.304 136.796  1.00  0.00     0.146 A 
ATOM     11  O   UNL     1      -6.535  19.053 136.353  1.00  0.00    -0.452 OA
ENDROOT
BRANCH   1  12
ATOM     12  C   UNL     1      -6.681  16.653 136.536  1.00  0.00     0.025 A 
ATOM     13  C   UNL     1      -5.536  15.837 136.489  1.00  0.00     0.016 A 
ATOM     14  C   UNL     1      -5.589  14.582 135.878  1.00  0.00     0.051 A 
ATOM     15  C   UNL     1      -6.776  14.127 135.296  1.00  0.00     0.157 A 
ATOM     16  C   UNL     1      -7.866  16.202 135.932  1.00  0.00     0.062 A 
ATOM     17  C   UNL     1      -7.920  14.942 135.319  1.00  0.00     0.158 A 
BRANCH  15  18
ATOM     18  O   UNL     1      -6.798  12.869 134.696  1.00  0.00    -0.504 OA
ATOM     19  H   UNL     1      -6.478  12.720 133.745  1.00  0.00     0.293 HD
ENDBRANCH  15  18
BRANCH  17  20
ATOM     20  O   UNL     1      -9.105  14.498 134.735  1.00  0.00    -0.504 OA
ATOM     21  H   UNL     1      -9.845  14.079 135.285  1.00  0.00     0.293 HD
ENDBRANCH  17  20
ENDBRANCH   1  12
BRANCH   2  22
ATOM     22  O   UNL     1      -6.919  17.088 139.396  1.00  0.00    -0.502 OA
ATOM     23  H   UNL     1      -7.666  17.047 140.079  1.00  0.00     0.293 HD
ENDBRANCH   2  22
BRANCH   6  24
ATOM     24  O   UNL     1      -6.538  22.242 139.978  1.00  0.00    -0.507 OA
ATOM     25  H   UNL     1      -7.415  22.250 140.488  1.00  0.00     0.293 HD
ENDBRANCH   6  24
BRANCH   8  26
ATOM     26  O   UNL     1      -6.178  23.719 135.399  1.00  0.00    -0.508 OA
ATOM     27  H   UNL     1      -6.103  24.683 135.704  1.00  0.00     0.293 HD
ENDBRANCH   8  26
TORSDOF 6
ENDMDL
MODEL 8
REMARK VINA RESULT:    -5.960      9.388     11.196
REMARK INTER + INTRA:          -7.502
REMARK INTER:                  -7.212
REMARK INTRA:                  -0.290
REMARK UNBOUND:                -0.323
REMARK SMILES O=c1c(O)c(-c2ccc(O)c(O)c2)oc2cc(O)cc(O)c12
REMARK SMILES IDX 5 1 3 2 2 3 1 4 22 5 20 6 19 7 17 8 16 9 15 10 14 11 6 12
REMARK SMILES IDX 7 13 8 14 9 15 13 16 11 17 10 18 12 20 4 22 21 24 18 26
REMARK H PARENT 10 19 12 21 4 23 21 25 18 27
REMARK Flexibility Score: inf
ROOT
ATOM      1  C   UNL     1       7.652  21.866 137.161  1.00  0.00     0.180 A 
ATOM      2  C   UNL     1       7.698  21.834 138.568  1.00  0.00     0.208 A 
ATOM      3  C   UNL     1       7.625  20.595 139.223  1.00  0.00     0.238 A 
ATOM      4  O   UNL     1       7.653  20.555 140.482  1.00  0.00    -0.285 OA
ATOM      5  C   UNL     1       7.530  19.411 138.462  1.00  0.00     0.111 A 
ATOM      6  C   UNL     1       7.457  18.122 139.044  1.00  0.00     0.134 A 
ATOM      7  C   UNL     1       7.374  16.991 138.218  1.00  0.00     0.093 A 
ATOM      8  C   UNL     1       7.363  17.122 136.828  1.00  0.00     0.123 A 
ATOM      9  C   UNL     1       7.435  18.392 136.248  1.00  0.00     0.094 A 
ATOM     10  C   UNL     1       7.516  19.532 137.053  1.00  0.00     0.146 A 
ATOM     11  O   UNL     1       7.578  20.728 136.477  1.00  0.00    -0.452 OA
ENDROOT
BRANCH   1  12
ATOM     12  C   UNL     1       7.704  23.134 136.400  1.00  0.00     0.025 A 
ATOM     13  C   UNL     1       8.902  23.593 135.823  1.00  0.00     0.016 A 
ATOM     14  C   UNL     1       8.932  24.806 135.129  1.00  0.00     0.051 A 
ATOM     15  C   UNL     1       7.776  25.584 135.013  1.00  0.00     0.157 A 
ATOM     16  C   UNL     1       6.550  23.928 136.298  1.00  0.00     0.062 A 
ATOM     17  C   UNL     1       6.579  25.145 135.603  1.00  0.00     0.158 A 
BRANCH  15  18
ATOM     18  O   UNL     1       7.838  26.788 134.313  1.00  0.00    -0.504 OA
ATOM     19  H   UNL     1       8.325  26.872 133.428  1.00  0.00     0.293 HD
ENDBRANCH  15  18
BRANCH  17  20
ATOM     20  O   UNL     1       5.424  25.918 135.497  1.00  0.00    -0.504 OA
ATOM     21  H   UNL     1       5.463  26.901 135.256  1.00  0.00     0.293 HD
ENDBRANCH  17  20
ENDBRANCH   1  12
BRANCH   2  22
ATOM     22  O   UNL     1       7.841  23.018 139.296  1.00  0.00    -0.502 OA
ATOM     23  H   UNL     1       8.439  23.776 138.989  1.00  0.00     0.293 HD
ENDBRANCH   2  22
BRANCH   6  24
ATOM     24  O   UNL     1       7.467  17.957 140.429  1.00  0.00    -0.507 OA
ATOM     25  H   UNL     1       6.847  17.303 140.893  1.00  0.00     0.293 HD
ENDBRANCH   6  24
BRANCH   8  26
ATOM     26  O   UNL     1       7.281  15.981 136.031  1.00  0.00    -0.508 OA
ATOM     27  H   UNL     1       7.284  16.041 135.020  1.00  0.00     0.293 HD
ENDBRANCH   8  26
TORSDOF 6
ENDMDL
MODEL 9
REMARK VINA RESULT:    -5.952     11.425     12.608
REMARK INTER + INTRA:          -7.493
REMARK INTER:                  -7.168
REMARK INTRA:                  -0.325
REMARK UNBOUND:                -0.323
REMARK SMILES O=c1c(O)c(-c2ccc(O)c(O)c2)oc2cc(O)cc(O)c12
REMARK SMILES IDX 5 1 3 2 2 3 1 4 22 5 20 6 19 7 17 8 16 9 15 10 14 11 6 12
REMARK SMILES IDX 7 13 8 14 9 15 13 16 11 17 10 18 12 20 4 22 21 24 18 26
REMARK H PARENT 10 19 12 21 4 23 21 25 18 27
REMARK Flexibility Score: inf
ROOT
ATOM      1  C   UNL     1      -6.278  18.508 135.692  1.00  0.00     0.180 A 
ATOM      2  C   UNL     1      -6.087  19.466 134.677  1.00  0.00     0.208 A 
ATOM      3  C   UNL     1      -6.133  20.828 135.012  1.00  0.00     0.238 A 
ATOM      4  O   UNL     1      -5.975  21.694 134.109  1.00  0.00    -0.285 OA
ATOM      5  C   UNL     1      -6.346  21.209 136.353  1.00  0.00     0.111 A 
ATOM      6  C   UNL     1      -6.400  22.560 136.774  1.00  0.00     0.134 A 
ATOM      7  C   UNL     1      -6.607  22.857 138.129  1.00  0.00     0.093 A 
ATOM      8  C   UNL     1      -6.757  21.835 139.069  1.00  0.00     0.123 A 
ATOM      9  C   UNL     1      -6.705  20.499 138.659  1.00  0.00     0.094 A 
ATOM     10  C   UNL     1      -6.502  20.181 137.313  1.00  0.00     0.146 A 
ATOM     11  O   UNL     1      -6.461  18.905 136.949  1.00  0.00    -0.452 OA
ENDROOT
BRANCH   1  12
ATOM     12  C   UNL     1      -6.263  17.054 135.416  1.00  0.00     0.025 A 
ATOM     13  C   UNL     1      -5.071  16.310 135.473  1.00  0.00     0.016 A 
ATOM     14  C   UNL     1      -5.078  14.943 135.184  1.00  0.00     0.051 A 
ATOM     15  C   UNL     1      -6.266  14.302 134.821  1.00  0.00     0.157 A 
ATOM     16  C   UNL     1      -7.452  16.411 135.031  1.00  0.00     0.062 A 
ATOM     17  C   UNL     1      -7.460  15.039 134.741  1.00  0.00     0.158 A 
BRANCH  15  18
ATOM     18  O   UNL     1      -6.241  12.936 134.540  1.00  0.00    -0.504 OA
ATOM     19  H   UNL     1      -5.746  12.275 135.128  1.00  0.00     0.293 HD
ENDBRANCH  15  18
BRANCH  17  20
ATOM     20  O   UNL     1      -8.647  14.409 134.373  1.00  0.00    -0.504 OA
ATOM     21  H   UNL     1      -9.543  14.873 134.457  1.00  0.00     0.293 HD
ENDBRANCH  17  20
ENDBRANCH   1  12
BRANCH   2  22
ATOM     22  O   UNL     1      -5.830  19.061 133.365  1.00  0.00    -0.502 OA
ATOM     23  H   UNL     1      -5.116  19.497 132.792  1.00  0.00     0.293 HD
ENDBRANCH   2  22
BRANCH   6  24
ATOM     24  O   UNL     1      -6.252  23.604 135.861  1.00  0.00    -0.507 OA
ATOM     25  H   UNL     1      -7.012  24.240 135.650  1.00  0.00     0.293 HD
ENDBRANCH   6  24
BRANCH   8  26
ATOM     26  O   UNL     1      -6.960  22.159 140.409  1.00  0.00    -0.508 OA
ATOM     27  H   UNL     1      -6.207  22.507 140.990  1.00  0.00     0.293 HD
ENDBRANCH   8  26
TORSDOF 6
ENDMDL
