MODEL 1
REMARK VINA RESULT:    -3.244      0.000      0.000
REMARK INTER + INTRA:          -8.860
REMARK INTER:                  -6.278
REMARK INTRA:                  -2.581
REMARK UNBOUND:                -2.581
REMARK SMILES CCCCCCCCCCCCCCCCCC(=O)[O-]
REMARK SMILES IDX 10 1 11 2 12 3 13 4 14 5 15 6 16 7 17 8 18 9 19 10 20 11
REMARK SMILES IDX 9 12 8 13 7 14 6 15 5 16 4 17 3 18 2 19 1 20
REMARK H PARENT
REMARK Flexibility Score: inf
ROOT
ATOM      1  C   UNL     1      52.976  47.515  13.459  1.00  0.00     0.000 C 
ENDROOT
BRANCH   1   2
ATOM      2  C   UNL     1      52.969  48.465  14.667  1.00  0.00     0.000 C 
BRANCH   2   3
ATOM      3  C   UNL     1      54.223  49.349  14.730  1.00  0.00     0.000 C 
BRANCH   3   4
ATOM      4  C   UNL     1      55.166  49.045  13.557  1.00  0.00     0.000 C 
BRANCH   4   5
ATOM      5  C   UNL     1      56.547  48.546  14.014  1.00  0.00     0.000 C 
BRANCH   5   6
ATOM      6  C   UNL     1      56.879  47.096  13.612  1.00  0.00     0.000 C 
BRANCH   6   7
ATOM      7  C   UNL     1      56.987  46.126  14.808  1.00  0.00     0.006 C 
BRANCH   7   8
ATOM      8  C   UNL     1      55.625  45.549  15.218  1.00  0.00     0.053 C 
BRANCH   8   9
ATOM      9  C   UNL     1      55.745  44.088  15.516  1.00  0.00     0.041 C 
ATOM     10  O   UNL     1      54.730  43.424  15.854  1.00  0.00    -0.550 OA
ATOM     11  O   UNL     1      56.988  43.469  15.468  1.00  0.00    -0.550 OA
ENDBRANCH   8   9
ENDBRANCH   7   8
ENDBRANCH   6   7
ENDBRANCH   5   6
ENDBRANCH   4   5
ENDBRANCH   3   4
ENDBRANCH   2   3
ENDBRANCH   1   2
BRANCH   1  12
ATOM     12  C   UNL     1      51.791  47.760  12.508  1.00  0.00     0.000 C 
BRANCH  12  13
ATOM     13  C   UNL     1      51.840  49.151  11.854  1.00  0.00    -0.000 C 
BRANCH  13  14
ATOM     14  C   UNL     1      50.535  49.942  12.053  1.00  0.00    -0.000 C 
BRANCH  14  15
ATOM     15  C   UNL     1      49.564  49.246  13.019  1.00  0.00    -0.000 C 
BRANCH  15  16
ATOM     16  C   UNL     1      49.548  49.898  14.413  1.00  0.00    -0.000 C 
BRANCH  16  17
ATOM     17  C   UNL     1      49.494  48.850  15.546  1.00  0.00    -0.000 C 
BRANCH  17  18
ATOM     18  C   UNL     1      49.005  47.465  15.083  1.00  0.00    -0.000 C 
BRANCH  18  19
ATOM     19  C   UNL     1      49.943  46.301  15.445  1.00  0.00    -0.003 C 
ATOM     20  C   UNL     1      50.029  45.245  14.342  1.00  0.00     0.004 C 
ENDBRANCH  18  19
ENDBRANCH  17  18
ENDBRANCH  16  17
ENDBRANCH  15  16
ENDBRANCH  14  15
ENDBRANCH  13  14
ENDBRANCH  12  13
ENDBRANCH   1  12
TORSDOF 16
ENDMDL
MODEL 2
REMARK VINA RESULT:    -3.081      6.206     10.168
REMARK INTER + INTRA:          -8.544
REMARK INTER:                  -6.589
REMARK INTRA:                  -1.955
REMARK UNBOUND:                -2.581
REMARK SMILES CCCCCCCCCCCCCCCCCC(=O)[O-]
REMARK SMILES IDX 10 1 11 2 12 3 13 4 14 5 15 6 16 7 17 8 18 9 19 10 20 11
REMARK SMILES IDX 9 12 8 13 7 14 6 15 5 16 4 17 3 18 2 19 1 20
REMARK H PARENT
REMARK Flexibility Score: inf
ROOT
ATOM      1  C   UNL     1      63.596  44.125  15.160  1.00  0.00     0.000 C 
ENDROOT
BRANCH   1   2
ATOM      2  C   UNL     1      64.752  43.113  15.203  1.00  0.00     0.000 C 
BRANCH   2   3
ATOM      3  C   UNL     1      64.262  41.658  15.240  1.00  0.00     0.000 C 
BRANCH   3   4
ATOM      4  C   UNL     1      64.635  40.989  16.572  1.00  0.00     0.000 C 
BRANCH   4   5
ATOM      5  C   UNL     1      63.492  41.027  17.599  1.00  0.00     0.000 C 
BRANCH   5   6
ATOM      6  C   UNL     1      63.653  42.081  18.712  1.00  0.00     0.000 C 
BRANCH   6   7
ATOM      7  C   UNL     1      62.333  42.437  19.429  1.00  0.00     0.006 C 
BRANCH   7   8
ATOM      8  C   UNL     1      61.216  41.427  19.133  1.00  0.00     0.053 C 
BRANCH   8   9
ATOM      9  C   UNL     1      59.874  42.059  19.330  1.00  0.00     0.041 C 
ATOM     10  O   UNL     1      58.864  41.600  18.735  1.00  0.00    -0.550 OA
ATOM     11  O   UNL     1      59.748  43.186  20.133  1.00  0.00    -0.550 OA
ENDBRANCH   8   9
ENDBRANCH   7   8
ENDBRANCH   6   7
ENDBRANCH   5   6
ENDBRANCH   4   5
ENDBRANCH   3   4
ENDBRANCH   2   3
ENDBRANCH   1   2
BRANCH   1  12
ATOM     12  C   UNL     1      63.847  45.347  16.061  1.00  0.00     0.000 C 
BRANCH  12  13
ATOM     13  C   UNL     1      62.703  45.587  17.058  1.00  0.00    -0.000 C 
BRANCH  13  14
ATOM     14  C   UNL     1      61.485  44.686  16.785  1.00  0.00    -0.000 C 
BRANCH  14  15
ATOM     15  C   UNL     1      60.172  45.297  17.298  1.00  0.00    -0.000 C 
BRANCH  15  16
ATOM     16  C   UNL     1      58.930  44.567  16.758  1.00  0.00    -0.000 C 
BRANCH  16  17
ATOM     17  C   UNL     1      57.714  45.509  16.619  1.00  0.00    -0.000 C 
BRANCH  17  18
ATOM     18  C   UNL     1      56.951  45.339  15.292  1.00  0.00    -0.000 C 
BRANCH  18  19
ATOM     19  C   UNL     1      56.998  46.565  14.364  1.00  0.00    -0.003 C 
ATOM     20  C   UNL     1      56.914  47.888  15.125  1.00  0.00     0.004 C 
ENDBRANCH  18  19
ENDBRANCH  17  18
ENDBRANCH  16  17
ENDBRANCH  15  16
ENDBRANCH  14  15
ENDBRANCH  13  14
ENDBRANCH  12  13
ENDBRANCH   1  12
TORSDOF 16
ENDMDL
MODEL 3
REMARK VINA RESULT:    -3.021      7.555     11.461
REMARK INTER + INTRA:          -8.428
REMARK INTER:                  -6.207
REMARK INTRA:                  -2.221
REMARK UNBOUND:                -2.581
REMARK SMILES CCCCCCCCCCCCCCCCCC(=O)[O-]
REMARK SMILES IDX 10 1 11 2 12 3 13 4 14 5 15 6 16 7 17 8 18 9 19 10 20 11
REMARK SMILES IDX 9 12 8 13 7 14 6 15 5 16 4 17 3 18 2 19 1 20
REMARK H PARENT
REMARK Flexibility Score: inf
ROOT
ATOM      1  C   UNL     1      64.037  40.799  16.052  1.00  0.00     0.000 C 
ENDROOT
BRANCH   1   2
ATOM      2  C   UNL     1      64.896  41.734  15.184  1.00  0.00     0.000 C 
BRANCH   2   3
ATOM      3  C   UNL     1      64.815  43.199  15.637  1.00  0.00     0.000 C 
BRANCH   3   4
ATOM      4  C   UNL     1      63.645  43.920  14.951  1.00  0.00     0.000 C 
BRANCH   4   5
ATOM      5  C   UNL     1      62.746  44.676  15.943  1.00  0.00     0.000 C 
BRANCH   5   6
ATOM      6  C   UNL     1      63.437  45.102  17.252  1.00  0.00     0.000 C 
BRANCH   6   7
ATOM      7  C   UNL     1      63.420  46.626  17.499  1.00  0.00     0.006 C 
BRANCH   7   8
ATOM      8  C   UNL     1      64.070  47.411  16.352  1.00  0.00     0.053 C 
BRANCH   8   9
ATOM      9  C   UNL     1      63.558  48.817  16.325  1.00  0.00     0.041 C 
ATOM     10  O   UNL     1      62.582  49.150  17.046  1.00  0.00    -0.550 OA
ATOM     11  O   UNL     1      64.130  49.747  15.465  1.00  0.00    -0.550 OA
ENDBRANCH   8   9
ENDBRANCH   7   8
ENDBRANCH   6   7
ENDBRANCH   5   6
ENDBRANCH   4   5
ENDBRANCH   3   4
ENDBRANCH   2   3
ENDBRANCH   1   2
BRANCH   1  12
ATOM     12  C   UNL     1      64.137  41.128  17.552  1.00  0.00     0.000 C 
BRANCH  12  13
ATOM     13  C   UNL     1      62.760  41.356  18.196  1.00  0.00    -0.000 C 
BRANCH  13  14
ATOM     14  C   UNL     1      62.830  42.281  19.424  1.00  0.00    -0.000 C 
BRANCH  14  15
ATOM     15  C   UNL     1      61.492  42.978  19.715  1.00  0.00    -0.000 C 
BRANCH  15  16
ATOM     16  C   UNL     1      60.550  42.981  18.498  1.00  0.00    -0.000 C 
BRANCH  16  17
ATOM     17  C   UNL     1      59.667  44.247  18.447  1.00  0.00    -0.000 C 
BRANCH  17  18
ATOM     18  C   UNL     1      59.401  44.757  17.018  1.00  0.00    -0.000 C 
BRANCH  18  19
ATOM     19  C   UNL     1      57.933  44.670  16.569  1.00  0.00    -0.003 C 
ATOM     20  C   UNL     1      57.548  43.279  16.065  1.00  0.00     0.004 C 
ENDBRANCH  18  19
ENDBRANCH  17  18
ENDBRANCH  16  17
ENDBRANCH  15  16
ENDBRANCH  14  15
ENDBRANCH  13  14
ENDBRANCH  12  13
ENDBRANCH   1  12
TORSDOF 16
ENDMDL
MODEL 4
REMARK VINA RESULT:    -3.007      4.829      7.827
REMARK INTER + INTRA:          -8.402
REMARK INTER:                  -6.253
REMARK INTRA:                  -2.149
REMARK UNBOUND:                -2.581
REMARK SMILES CCCCCCCCCCCCCCCCCC(=O)[O-]
REMARK SMILES IDX 10 1 11 2 12 3 13 4 14 5 15 6 16 7 17 8 18 9 19 10 20 11
REMARK SMILES IDX 9 12 8 13 7 14 6 15 5 16 4 17 3 18 2 19 1 20
REMARK H PARENT
REMARK Flexibility Score: inf
ROOT
ATOM      1  C   UNL     1      47.147  42.483  14.206  1.00  0.00     0.000 C 
ENDROOT
BRANCH   1   2
ATOM      2  C   UNL     1      48.328  43.301  14.756  1.00  0.00     0.000 C 
BRANCH   2   3
ATOM      3  C   UNL     1      47.890  44.650  15.344  1.00  0.00     0.000 C 
BRANCH   3   4
ATOM      4  C   UNL     1      48.687  45.804  14.718  1.00  0.00     0.000 C 
BRANCH   4   5
ATOM      5  C   UNL     1      50.141  45.421  14.399  1.00  0.00     0.000 C 
BRANCH   5   6
ATOM      6  C   UNL     1      51.155  46.576  14.504  1.00  0.00     0.000 C 
BRANCH   6   7
ATOM      7  C   UNL     1      50.655  47.902  13.892  1.00  0.00     0.006 C 
BRANCH   7   8
ATOM      8  C   UNL     1      51.495  48.343  12.686  1.00  0.00     0.053 C 
BRANCH   8   9
ATOM      9  C   UNL     1      52.862  48.765  13.126  1.00  0.00     0.041 C 
ATOM     10  O   UNL     1      53.865  48.059  12.845  1.00  0.00    -0.550 OA
ATOM     11  O   UNL     1      53.021  49.915  13.889  1.00  0.00    -0.550 OA
ENDBRANCH   8   9
ENDBRANCH   7   8
ENDBRANCH   6   7
ENDBRANCH   5   6
ENDBRANCH   4   5
ENDBRANCH   3   4
ENDBRANCH   2   3
ENDBRANCH   1   2
BRANCH   1  12
ATOM     12  C   UNL     1      45.796  42.934  14.788  1.00  0.00     0.000 C 
BRANCH  12  13
ATOM     13  C   UNL     1      44.923  41.750  15.234  1.00  0.00    -0.000 C 
BRANCH  13  14
ATOM     14  C   UNL     1      45.696  40.419  15.240  1.00  0.00    -0.000 C 
BRANCH  14  15
ATOM     15  C   UNL     1      45.609  39.692  16.591  1.00  0.00    -0.000 C 
BRANCH  15  16
ATOM     16  C   UNL     1      45.686  40.657  17.788  1.00  0.00    -0.000 C 
BRANCH  16  17
ATOM     17  C   UNL     1      47.121  41.174  18.029  1.00  0.00    -0.000 C 
BRANCH  17  18
ATOM     18  C   UNL     1      47.194  42.690  18.290  1.00  0.00    -0.000 C 
BRANCH  18  19
ATOM     19  C   UNL     1      45.903  43.307  18.854  1.00  0.00    -0.003 C 
ATOM     20  C   UNL     1      45.393  44.480  18.019  1.00  0.00     0.004 C 
ENDBRANCH  18  19
ENDBRANCH  17  18
ENDBRANCH  16  17
ENDBRANCH  15  16
ENDBRANCH  14  15
ENDBRANCH  13  14
ENDBRANCH  12  13
ENDBRANCH   1  12
TORSDOF 16
ENDMDL
MODEL 5
REMARK VINA RESULT:    -2.971      4.635      8.248
REMARK INTER + INTRA:          -8.332
REMARK INTER:                  -5.853
REMARK INTRA:                  -2.479
REMARK UNBOUND:                -2.581
REMARK SMILES CCCCCCCCCCCCCCCCCC(=O)[O-]
REMARK SMILES IDX 10 1 11 2 12 3 13 4 14 5 15 6 16 7 17 8 18 9 19 10 20 11
REMARK SMILES IDX 9 12 8 13 7 14 6 15 5 16 4 17 3 18 2 19 1 20
REMARK H PARENT
REMARK Flexibility Score: inf
ROOT
ATOM      1  C   UNL     1      44.972  42.381  15.257  1.00  0.00     0.000 C 
ENDROOT
BRANCH   1   2
ATOM      2  C   UNL     1      46.022  43.380  14.744  1.00  0.00     0.000 C 
BRANCH   2   3
ATOM      3  C   UNL     1      47.304  42.690  14.253  1.00  0.00     0.000 C 
BRANCH   3   4
ATOM      4  C   UNL     1      48.549  43.349  14.866  1.00  0.00     0.000 C 
BRANCH   4   5
ATOM      5  C   UNL     1      48.232  44.672  15.583  1.00  0.00     0.000 C 
BRANCH   5   6
ATOM      6  C   UNL     1      48.791  45.933  14.897  1.00  0.00     0.000 C 
BRANCH   6   7
ATOM      7  C   UNL     1      50.125  45.699  14.155  1.00  0.00     0.006 C 
BRANCH   7   8
ATOM      8  C   UNL     1      51.184  46.751  14.512  1.00  0.00     0.053 C 
BRANCH   8   9
ATOM      9  C   UNL     1      51.394  47.691  13.367  1.00  0.00     0.041 C 
ATOM     10  O   UNL     1      50.497  48.515  13.051  1.00  0.00    -0.550 OA
ATOM     11  O   UNL     1      52.563  47.625  12.619  1.00  0.00    -0.550 OA
ENDBRANCH   8   9
ENDBRANCH   7   8
ENDBRANCH   6   7
ENDBRANCH   5   6
ENDBRANCH   4   5
ENDBRANCH   3   4
ENDBRANCH   2   3
ENDBRANCH   1   2
BRANCH   1  12
ATOM     12  C   UNL     1      45.487  40.930  15.253  1.00  0.00     0.000 C 
BRANCH  12  13
ATOM     13  C   UNL     1      45.609  40.347  16.670  1.00  0.00    -0.000 C 
BRANCH  13  14
ATOM     14  C   UNL     1      46.615  41.121  17.541  1.00  0.00    -0.000 C 
BRANCH  14  15
ATOM     15  C   UNL     1      48.037  40.546  17.453  1.00  0.00    -0.000 C 
BRANCH  15  16
ATOM     16  C   UNL     1      49.104  41.523  17.978  1.00  0.00    -0.000 C 
BRANCH  16  17
ATOM     17  C   UNL     1      50.488  41.272  17.342  1.00  0.00    -0.000 C 
BRANCH  17  18
ATOM     18  C   UNL     1      51.555  42.303  17.758  1.00  0.00    -0.000 C 
BRANCH  18  19
ATOM     19  C   UNL     1      51.584  43.577  16.898  1.00  0.00    -0.003 C 
ATOM     20  C   UNL     1      51.345  44.848  17.714  1.00  0.00     0.004 C 
ENDBRANCH  18  19
ENDBRANCH  17  18
ENDBRANCH  16  17
ENDBRANCH  15  16
ENDBRANCH  14  15
ENDBRANCH  13  14
ENDBRANCH  12  13
ENDBRANCH   1  12
TORSDOF 16
ENDMDL
MODEL 6
REMARK VINA RESULT:    -2.954      3.017      6.426
REMARK INTER + INTRA:          -8.299
REMARK INTER:                  -6.180
REMARK INTRA:                  -2.120
REMARK UNBOUND:                -2.581
REMARK SMILES CCCCCCCCCCCCCCCCCC(=O)[O-]
REMARK SMILES IDX 10 1 11 2 12 3 13 4 14 5 15 6 16 7 17 8 18 9 19 10 20 11
REMARK SMILES IDX 9 12 8 13 7 14 6 15 5 16 4 17 3 18 2 19 1 20
REMARK H PARENT
REMARK Flexibility Score: inf
ROOT
ATOM      1  C   UNL     1      53.045  49.035  12.767  1.00  0.00     0.000 C 
ENDROOT
BRANCH   1   2
ATOM      2  C   UNL     1      51.897  48.148  12.257  1.00  0.00     0.000 C 
BRANCH   2   3
ATOM      3  C   UNL     1      51.445  47.112  13.297  1.00  0.00     0.000 C 
BRANCH   3   4
ATOM      4  C   UNL     1      50.227  47.621  14.083  1.00  0.00     0.000 C 
BRANCH   4   5
ATOM      5  C   UNL     1      49.536  46.514  14.895  1.00  0.00     0.000 C 
BRANCH   5   6
ATOM      6  C   UNL     1      49.807  45.080  14.400  1.00  0.00     0.000 C 
BRANCH   6   7
ATOM      7  C   UNL     1      49.679  44.006  15.502  1.00  0.00     0.006 C 
BRANCH   7   8
ATOM      8  C   UNL     1      48.242  43.873  16.025  1.00  0.00     0.053 C 
BRANCH   8   9
ATOM      9  C   UNL     1      47.314  43.493  14.913  1.00  0.00     0.041 C 
ATOM     10  O   UNL     1      46.389  44.272  14.565  1.00  0.00    -0.550 OA
ATOM     11  O   UNL     1      47.442  42.255  14.295  1.00  0.00    -0.550 OA
ENDBRANCH   8   9
ENDBRANCH   7   8
ENDBRANCH   6   7
ENDBRANCH   5   6
ENDBRANCH   4   5
ENDBRANCH   3   4
ENDBRANCH   2   3
ENDBRANCH   1   2
BRANCH   1  12
ATOM     12  C   UNL     1      54.170  48.220  13.431  1.00  0.00     0.000 C 
BRANCH  12  13
ATOM     13  C   UNL     1      55.310  49.110  13.951  1.00  0.00    -0.000 C 
BRANCH  13  14
ATOM     14  C   UNL     1      56.696  48.471  13.745  1.00  0.00    -0.000 C 
BRANCH  14  15
ATOM     15  C   UNL     1      56.621  46.949  13.555  1.00  0.00    -0.000 C 
BRANCH  15  16
ATOM     16  C   UNL     1      56.846  46.176  14.867  1.00  0.00    -0.000 C 
BRANCH  16  17
ATOM     17  C   UNL     1      55.704  45.179  15.159  1.00  0.00    -0.000 C 
BRANCH  17  18
ATOM     18  C   UNL     1      54.900  45.516  16.429  1.00  0.00    -0.000 C 
BRANCH  18  19
ATOM     19  C   UNL     1      53.399  45.750  16.194  1.00  0.00    -0.003 C 
ATOM     20  C   UNL     1      52.921  47.104  16.718  1.00  0.00     0.004 C 
ENDBRANCH  18  19
ENDBRANCH  17  18
ENDBRANCH  16  17
ENDBRANCH  15  16
ENDBRANCH  14  15
ENDBRANCH  13  14
ENDBRANCH  12  13
ENDBRANCH   1  12
TORSDOF 16
ENDMDL
MODEL 7
REMARK VINA RESULT:    -2.944      1.254      2.333
REMARK INTER + INTRA:          -8.279
REMARK INTER:                  -5.749
REMARK INTRA:                  -2.530
REMARK UNBOUND:                -2.581
REMARK SMILES CCCCCCCCCCCCCCCCCC(=O)[O-]
REMARK SMILES IDX 10 1 11 2 12 3 13 4 14 5 15 6 16 7 17 8 18 9 19 10 20 11
REMARK SMILES IDX 9 12 8 13 7 14 6 15 5 16 4 17 3 18 2 19 1 20
REMARK H PARENT
REMARK Flexibility Score: inf
ROOT
ATOM      1  C   UNL     1      51.538  47.554  12.829  1.00  0.00     0.000 C 
ENDROOT
BRANCH   1   2
ATOM      2  C   UNL     1      53.042  47.857  12.929  1.00  0.00     0.000 C 
BRANCH   2   3
ATOM      3  C   UNL     1      53.365  48.885  14.024  1.00  0.00     0.000 C 
BRANCH   3   4
ATOM      4  C   UNL     1      54.526  49.794  13.594  1.00  0.00     0.000 C 
BRANCH   4   5
ATOM      5  C   UNL     1      55.831  49.493  14.350  1.00  0.00     0.000 C 
BRANCH   5   6
ATOM      6  C   UNL     1      56.880  48.703  13.544  1.00  0.00     0.000 C 
BRANCH   6   7
ATOM      7  C   UNL     1      56.878  47.187  13.836  1.00  0.00     0.006 C 
BRANCH   7   8
ATOM      8  C   UNL     1      56.620  46.876  15.316  1.00  0.00     0.053 C 
BRANCH   8   9
ATOM      9  C   UNL     1      55.567  45.821  15.453  1.00  0.00     0.041 C 
ATOM     10  O   UNL     1      55.788  44.649  15.051  1.00  0.00    -0.550 OA
ATOM     11  O   UNL     1      54.324  46.146  15.981  1.00  0.00    -0.550 OA
ENDBRANCH   8   9
ENDBRANCH   7   8
ENDBRANCH   6   7
ENDBRANCH   5   6
ENDBRANCH   4   5
ENDBRANCH   3   4
ENDBRANCH   2   3
ENDBRANCH   1   2
BRANCH   1  12
ATOM     12  C   UNL     1      50.677  48.830  12.841  1.00  0.00     0.000 C 
BRANCH  12  13
ATOM     13  C   UNL     1      49.490  48.729  13.813  1.00  0.00    -0.000 C 
BRANCH  13  14
ATOM     14  C   UNL     1      49.775  49.411  15.163  1.00  0.00    -0.000 C 
BRANCH  14  15
ATOM     15  C   UNL     1      49.675  48.439  16.348  1.00  0.00    -0.000 C 
BRANCH  15  16
ATOM     16  C   UNL     1      50.966  47.629  16.560  1.00  0.00    -0.000 C 
BRANCH  16  17
ATOM     17  C   UNL     1      50.695  46.111  16.647  1.00  0.00    -0.000 C 
BRANCH  17  18
ATOM     18  C   UNL     1      50.817  45.384  15.295  1.00  0.00    -0.000 C 
BRANCH  18  19
ATOM     19  C   UNL     1      49.594  44.534  14.912  1.00  0.00    -0.003 C 
ATOM     20  C   UNL     1      48.292  45.334  14.918  1.00  0.00     0.004 C 
ENDBRANCH  18  19
ENDBRANCH  17  18
ENDBRANCH  16  17
ENDBRANCH  15  16
ENDBRANCH  14  15
ENDBRANCH  13  14
ENDBRANCH  12  13
ENDBRANCH   1  12
TORSDOF 16
ENDMDL
MODEL 8
REMARK VINA RESULT:    -2.854      3.433      6.511
REMARK INTER + INTRA:          -8.105
REMARK INTER:                  -5.723
REMARK INTRA:                  -2.381
REMARK UNBOUND:                -2.581
REMARK SMILES CCCCCCCCCCCCCCCCCC(=O)[O-]
REMARK SMILES IDX 10 1 11 2 12 3 13 4 14 5 15 6 16 7 17 8 18 9 19 10 20 11
REMARK SMILES IDX 9 12 8 13 7 14 6 15 5 16 4 17 3 18 2 19 1 20
REMARK H PARENT
REMARK Flexibility Score: inf
ROOT
ATOM      1  C   UNL     1      49.009  48.263  14.122  1.00  0.00     0.000 C 
ENDROOT
BRANCH   1   2
ATOM      2  C   UNL     1      49.978  47.358  14.900  1.00  0.00     0.000 C 
BRANCH   2   3
ATOM      3  C   UNL     1      50.507  46.193  14.051  1.00  0.00     0.000 C 
BRANCH   3   4
ATOM      4  C   UNL     1      49.770  44.889  14.391  1.00  0.00     0.000 C 
BRANCH   4   5
ATOM      5  C   UNL     1      49.504  44.729  15.897  1.00  0.00     0.000 C 
BRANCH   5   6
ATOM      6  C   UNL     1      48.042  44.417  16.269  1.00  0.00     0.000 C 
BRANCH   6   7
ATOM      7  C   UNL     1      47.025  44.795  15.171  1.00  0.00     0.006 C 
BRANCH   7   8
ATOM      8  C   UNL     1      45.853  43.806  15.095  1.00  0.00     0.053 C 
BRANCH   8   9
ATOM      9  C   UNL     1      46.350  42.430  14.781  1.00  0.00     0.041 C 
ATOM     10  O   UNL     1      46.123  41.479  15.574  1.00  0.00    -0.550 OA
ATOM     11  O   UNL     1      47.105  42.208  13.636  1.00  0.00    -0.550 OA
ENDBRANCH   8   9
ENDBRANCH   7   8
ENDBRANCH   6   7
ENDBRANCH   5   6
ENDBRANCH   4   5
ENDBRANCH   3   4
ENDBRANCH   2   3
ENDBRANCH   1   2
BRANCH   1  12
ATOM     12  C   UNL     1      49.653  49.598  13.706  1.00  0.00     0.000 C 
BRANCH  12  13
ATOM     13  C   UNL     1      50.167  49.576  12.258  1.00  0.00    -0.000 C 
BRANCH  13  14
ATOM     14  C   UNL     1      51.641  50.007  12.149  1.00  0.00    -0.000 C 
BRANCH  14  15
ATOM     15  C   UNL     1      52.396  49.866  13.479  1.00  0.00    -0.000 C 
BRANCH  15  16
ATOM     16  C   UNL     1      53.335  48.646  13.500  1.00  0.00    -0.000 C 
BRANCH  16  17
ATOM     17  C   UNL     1      53.877  48.351  14.916  1.00  0.00    -0.000 C 
BRANCH  17  18
ATOM     18  C   UNL     1      53.937  46.849  15.253  1.00  0.00    -0.000 C 
BRANCH  18  19
ATOM     19  C   UNL     1      53.245  46.460  16.569  1.00  0.00    -0.003 C 
ATOM     20  C   UNL     1      52.686  47.666  17.325  1.00  0.00     0.004 C 
ENDBRANCH  18  19
ENDBRANCH  17  18
ENDBRANCH  16  17
ENDBRANCH  15  16
ENDBRANCH  14  15
ENDBRANCH  13  14
ENDBRANCH  12  13
ENDBRANCH   1  12
TORSDOF 16
ENDMDL
MODEL 9
REMARK VINA RESULT:    -2.832      3.435      6.050
REMARK INTER + INTRA:          -8.063
REMARK INTER:                  -5.014
REMARK INTRA:                  -3.049
REMARK UNBOUND:                -2.581
REMARK SMILES CCCCCCCCCCCCCCCCCC(=O)[O-]
REMARK SMILES IDX 10 1 11 2 12 3 13 4 14 5 15 6 16 7 17 8 18 9 19 10 20 11
REMARK SMILES IDX 9 12 8 13 7 14 6 15 5 16 4 17 3 18 2 19 1 20
REMARK H PARENT
REMARK Flexibility Score: inf
ROOT
ATOM      1  C   UNL     1      51.483  46.574  18.144  1.00  0.00     0.000 C 
ENDROOT
BRANCH   1   2
ATOM      2  C   UNL     1      50.953  45.131  18.101  1.00  0.00     0.000 C 
BRANCH   2   3
ATOM      3  C   UNL     1      51.299  44.414  16.789  1.00  0.00     0.000 C 
BRANCH   3   4
ATOM      4  C   UNL     1      50.058  44.280  15.894  1.00  0.00     0.000 C 
BRANCH   4   5
ATOM      5  C   UNL     1      50.205  45.019  14.554  1.00  0.00     0.000 C 
BRANCH   5   6
ATOM      6  C   UNL     1      49.447  46.357  14.463  1.00  0.00     0.000 C 
BRANCH   6   7
ATOM      7  C   UNL     1      50.339  47.554  14.070  1.00  0.00     0.006 C 
BRANCH   7   8
ATOM      8  C   UNL     1      51.835  47.225  14.165  1.00  0.00     0.053 C 
BRANCH   8   9
ATOM      9  C   UNL     1      52.580  47.846  13.025  1.00  0.00     0.041 C 
ATOM     10  O   UNL     1      53.838  47.807  12.994  1.00  0.00    -0.550 OA
ATOM     11  O   UNL     1      51.886  48.511  12.022  1.00  0.00    -0.550 OA
ENDBRANCH   8   9
ENDBRANCH   7   8
ENDBRANCH   6   7
ENDBRANCH   5   6
ENDBRANCH   4   5
ENDBRANCH   3   4
ENDBRANCH   2   3
ENDBRANCH   1   2
BRANCH   1  12
ATOM     12  C   UNL     1      50.389  47.614  17.840  1.00  0.00     0.000 C 
BRANCH  12  13
ATOM     13  C   UNL     1      49.112  47.380  18.662  1.00  0.00    -0.000 C 
BRANCH  13  14
ATOM     14  C   UNL     1      47.839  47.798  17.904  1.00  0.00    -0.000 C 
BRANCH  14  15
ATOM     15  C   UNL     1      47.200  46.631  17.136  1.00  0.00    -0.000 C 
BRANCH  15  16
ATOM     16  C   UNL     1      47.070  45.359  17.992  1.00  0.00    -0.000 C 
BRANCH  16  17
ATOM     17  C   UNL     1      46.626  44.137  17.159  1.00  0.00    -0.000 C 
BRANCH  17  18
ATOM     18  C   UNL     1      46.352  44.466  15.679  1.00  0.00    -0.000 C 
BRANCH  18  19
ATOM     19  C   UNL     1      45.976  43.254  14.812  1.00  0.00    -0.003 C 
ATOM     20  C   UNL     1      47.179  42.640  14.097  1.00  0.00     0.004 C 
ENDBRANCH  18  19
ENDBRANCH  17  18
ENDBRANCH  16  17
ENDBRANCH  15  16
ENDBRANCH  14  15
ENDBRANCH  13  14
ENDBRANCH  12  13
ENDBRANCH   1  12
TORSDOF 16
ENDMDL
