MODEL 1
REMARK VINA RESULT:    -4.648      0.000      0.000
REMARK INTER + INTRA:          -9.422
REMARK INTER:                  -8.452
REMARK INTRA:                  -0.970
REMARK UNBOUND:                -0.970
REMARK SMILES CCCCCCCCCCCCCCCC(=O)[O-]
REMARK SMILES IDX 9 1 10 2 11 3 12 4 13 5 14 6 15 7 16 8 17 9 18 10 8 11 7 12
REMARK SMILES IDX 6 13 5 14 4 15 3 16 2 17 1 18
REMARK H PARENT
REMARK Flexibility Score: inf
ROOT
ATOM      1  C   UNL     1      39.036  -6.631  10.479  1.00  0.00     0.000 C 
ENDROOT
BRANCH   1   2
ATOM      2  C   UNL     1      38.428  -7.845   9.754  1.00  0.00     0.000 C 
BRANCH   2   3
ATOM      3  C   UNL     1      37.292  -8.559  10.514  1.00  0.00     0.000 C 
BRANCH   3   4
ATOM      4  C   UNL     1      36.685  -7.763  11.688  1.00  0.00     0.000 C 
BRANCH   4   5
ATOM      5  C   UNL     1      35.487  -6.872  11.316  1.00  0.00     0.000 C 
BRANCH   5   6
ATOM      6  C   UNL     1      35.471  -5.542  12.088  1.00  0.00     0.006 C 
BRANCH   6   7
ATOM      7  C   UNL     1      34.274  -5.441  13.042  1.00  0.00     0.053 C 
BRANCH   7   8
ATOM      8  C   UNL     1      34.552  -6.108  14.355  1.00  0.00     0.041 C 
ATOM      9  O   UNL     1      35.720  -6.115  14.826  1.00  0.00    -0.550 OA
ATOM     10  O   UNL     1      33.530  -6.754  15.037  1.00  0.00    -0.550 OA
ENDBRANCH   7   8
ENDBRANCH   6   7
ENDBRANCH   5   6
ENDBRANCH   4   5
ENDBRANCH   3   4
ENDBRANCH   2   3
ENDBRANCH   1   2
BRANCH   1  11
ATOM     11  C   UNL     1      40.568  -6.715  10.601  1.00  0.00     0.000 C 
BRANCH  11  12
ATOM     12  C   UNL     1      41.156  -7.914   9.839  1.00  0.00    -0.000 C 
BRANCH  12  13
ATOM     13  C   UNL     1      42.492  -8.393  10.426  1.00  0.00    -0.000 C 
BRANCH  13  14
ATOM     14  C   UNL     1      43.673  -7.667   9.764  1.00  0.00    -0.000 C 
BRANCH  14  15
ATOM     15  C   UNL     1      44.469  -6.803  10.755  1.00  0.00    -0.000 C 
BRANCH  15  16
ATOM     16  C   UNL     1      44.087  -5.316  10.684  1.00  0.00    -0.000 C 
BRANCH  16  17
ATOM     17  C   UNL     1      44.973  -4.570   9.681  1.00  0.00    -0.003 C 
ATOM     18  C   UNL     1      45.081  -3.089  10.034  1.00  0.00     0.004 C 
ENDBRANCH  16  17
ENDBRANCH  15  16
ENDBRANCH  14  15
ENDBRANCH  13  14
ENDBRANCH  12  13
ENDBRANCH  11  12
ENDBRANCH   1  11
TORSDOF 14
ENDMDL
MODEL 2
REMARK VINA RESULT:    -4.643      4.067      8.377
REMARK INTER + INTRA:          -9.414
REMARK INTER:                  -8.336
REMARK INTRA:                  -1.079
REMARK UNBOUND:                -0.970
REMARK SMILES CCCCCCCCCCCCCCCC(=O)[O-]
REMARK SMILES IDX 9 1 10 2 11 3 12 4 13 5 14 6 15 7 16 8 17 9 18 10 8 11 7 12
REMARK SMILES IDX 6 13 5 14 4 15 3 16 2 17 1 18
REMARK H PARENT
REMARK Flexibility Score: inf
ROOT
ATOM      1  C   UNL     1      39.364  -9.257   9.728  1.00  0.00     0.000 C 
ENDROOT
BRANCH   1   2
ATOM      2  C   UNL     1      39.855  -8.119   8.815  1.00  0.00     0.000 C 
BRANCH   2   3
ATOM      3  C   UNL     1      40.332  -6.850   9.551  1.00  0.00     0.000 C 
BRANCH   3   4
ATOM      4  C   UNL     1      41.350  -7.090  10.684  1.00  0.00     0.000 C 
BRANCH   4   5
ATOM      5  C   UNL     1      42.822  -6.877  10.288  1.00  0.00     0.000 C 
BRANCH   5   6
ATOM      6  C   UNL     1      43.427  -5.605  10.905  1.00  0.00     0.006 C 
BRANCH   6   7
ATOM      7  C   UNL     1      44.854  -5.343  10.407  1.00  0.00     0.053 C 
BRANCH   7   8
ATOM      8  C   UNL     1      44.960  -4.028   9.695  1.00  0.00     0.041 C 
ATOM      9  O   UNL     1      44.760  -2.953  10.319  1.00  0.00    -0.550 OA
ATOM     10  O   UNL     1      45.243  -3.994   8.336  1.00  0.00    -0.550 OA
ENDBRANCH   7   8
ENDBRANCH   6   7
ENDBRANCH   5   6
ENDBRANCH   4   5
ENDBRANCH   3   4
ENDBRANCH   2   3
ENDBRANCH   1   2
BRANCH   1  11
ATOM     11  C   UNL     1      37.830  -9.361   9.778  1.00  0.00     0.000 C 
BRANCH  11  12
ATOM     12  C   UNL     1      37.284  -9.331  11.215  1.00  0.00    -0.000 C 
BRANCH  12  13
ATOM     13  C   UNL     1      36.302  -8.173  11.454  1.00  0.00    -0.000 C 
BRANCH  13  14
ATOM     14  C   UNL     1      36.803  -6.884  10.784  1.00  0.00    -0.000 C 
BRANCH  14  15
ATOM     15  C   UNL     1      36.434  -5.620  11.576  1.00  0.00    -0.000 C 
BRANCH  15  16
ATOM     16  C   UNL     1      35.735  -5.938  12.907  1.00  0.00    -0.000 C 
BRANCH  16  17
ATOM     17  C   UNL     1      34.369  -5.247  12.987  1.00  0.00    -0.003 C 
ATOM     18  C   UNL     1      33.276  -6.112  12.366  1.00  0.00     0.004 C 
ENDBRANCH  16  17
ENDBRANCH  15  16
ENDBRANCH  14  15
ENDBRANCH  13  14
ENDBRANCH  12  13
ENDBRANCH  11  12
ENDBRANCH   1  11
TORSDOF 14
ENDMDL
MODEL 3
REMARK VINA RESULT:    -4.574      4.145      8.836
REMARK INTER + INTRA:          -9.288
REMARK INTER:                  -8.417
REMARK INTRA:                  -0.871
REMARK UNBOUND:                -0.970
REMARK SMILES CCCCCCCCCCCCCCCC(=O)[O-]
REMARK SMILES IDX 9 1 10 2 11 3 12 4 13 5 14 6 15 7 16 8 17 9 18 10 8 11 7 12
REMARK SMILES IDX 6 13 5 14 4 15 3 16 2 17 1 18
REMARK H PARENT
REMARK Flexibility Score: inf
ROOT
ATOM      1  C   UNL     1      40.050  -8.258  10.931  1.00  0.00     0.000 C 
ENDROOT
BRANCH   1   2
ATOM      2  C   UNL     1      41.253  -7.899  10.040  1.00  0.00     0.000 C 
BRANCH   2   3
ATOM      3  C   UNL     1      41.818  -6.478  10.247  1.00  0.00     0.000 C 
BRANCH   3   4
ATOM      4  C   UNL     1      43.352  -6.395  10.380  1.00  0.00     0.000 C 
BRANCH   4   5
ATOM      5  C   UNL     1      44.117  -6.348   9.045  1.00  0.00     0.000 C 
BRANCH   5   6
ATOM      6  C   UNL     1      45.053  -5.133   8.937  1.00  0.00     0.006 C 
BRANCH   6   7
ATOM      7  C   UNL     1      44.907  -4.181  10.131  1.00  0.00     0.053 C 
BRANCH   7   8
ATOM      8  C   UNL     1      45.013  -2.746   9.713  1.00  0.00     0.041 C 
ATOM      9  O   UNL     1      45.340  -2.452   8.534  1.00  0.00    -0.550 OA
ATOM     10  O   UNL     1      44.787  -1.734  10.638  1.00  0.00    -0.550 OA
ENDBRANCH   7   8
ENDBRANCH   6   7
ENDBRANCH   5   6
ENDBRANCH   4   5
ENDBRANCH   3   4
ENDBRANCH   2   3
ENDBRANCH   1   2
BRANCH   1  11
ATOM     11  C   UNL     1      38.821  -8.707  10.121  1.00  0.00     0.000 C 
BRANCH  11  12
ATOM     12  C   UNL     1      37.808  -7.571   9.908  1.00  0.00    -0.000 C 
BRANCH  12  13
ATOM     13  C   UNL     1      37.965  -6.435  10.930  1.00  0.00    -0.000 C 
BRANCH  13  14
ATOM     14  C   UNL     1      36.596  -5.973  11.450  1.00  0.00    -0.000 C 
BRANCH  14  15
ATOM     15  C   UNL     1      35.430  -6.773  10.848  1.00  0.00    -0.000 C 
BRANCH  15  16
ATOM     16  C   UNL     1      34.141  -6.658  11.677  1.00  0.00    -0.000 C 
BRANCH  16  17
ATOM     17  C   UNL     1      34.280  -5.579  12.757  1.00  0.00    -0.003 C 
ATOM     18  C   UNL     1      33.988  -6.146  14.143  1.00  0.00     0.004 C 
ENDBRANCH  16  17
ENDBRANCH  15  16
ENDBRANCH  14  15
ENDBRANCH  13  14
ENDBRANCH  12  13
ENDBRANCH  11  12
ENDBRANCH   1  11
TORSDOF 14
ENDMDL
MODEL 4
REMARK VINA RESULT:    -4.479     13.777     17.260
REMARK INTER + INTRA:          -9.114
REMARK INTER:                  -7.410
REMARK INTRA:                  -1.705
REMARK UNBOUND:                -0.970
REMARK SMILES CCCCCCCCCCCCCCCC(=O)[O-]
REMARK SMILES IDX 9 1 10 2 11 3 12 4 13 5 14 6 15 7 16 8 17 9 18 10 8 11 7 12
REMARK SMILES IDX 6 13 5 14 4 15 3 16 2 17 1 18
REMARK H PARENT
REMARK Flexibility Score: inf
ROOT
ATOM      1  C   UNL     1      49.027   7.124  19.264  1.00  0.00     0.000 C 
ENDROOT
BRANCH   1   2
ATOM      2  C   UNL     1      47.642   6.456  19.334  1.00  0.00     0.000 C 
BRANCH   2   3
ATOM      3  C   UNL     1      47.532   5.284  20.331  1.00  0.00     0.000 C 
BRANCH   3   4
ATOM      4  C   UNL     1      46.423   5.427  21.393  1.00  0.00     0.000 C 
BRANCH   4   5
ATOM      5  C   UNL     1      45.869   4.098  21.934  1.00  0.00     0.000 C 
BRANCH   5   6
ATOM      6  C   UNL     1      45.372   3.161  20.821  1.00  0.00     0.006 C 
BRANCH   6   7
ATOM      7  C   UNL     1      43.849   2.984  20.850  1.00  0.00     0.053 C 
BRANCH   7   8
ATOM      8  C   UNL     1      43.431   1.669  20.265  1.00  0.00     0.041 C 
ATOM      9  O   UNL     1      43.330   1.535  19.017  1.00  0.00    -0.550 OA
ATOM     10  O   UNL     1      43.116   0.606  21.101  1.00  0.00    -0.550 OA
ENDBRANCH   7   8
ENDBRANCH   6   7
ENDBRANCH   5   6
ENDBRANCH   4   5
ENDBRANCH   3   4
ENDBRANCH   2   3
ENDBRANCH   1   2
BRANCH   1  11
ATOM     11  C   UNL     1      49.064   8.320  18.295  1.00  0.00     0.000 C 
BRANCH  11  12
ATOM     12  C   UNL     1      47.672   8.686  17.756  1.00  0.00    -0.000 C 
BRANCH  12  13
ATOM     13  C   UNL     1      47.225  10.095  18.172  1.00  0.00    -0.000 C 
BRANCH  13  14
ATOM     14  C   UNL     1      45.865  10.051  18.885  1.00  0.00    -0.000 C 
BRANCH  14  15
ATOM     15  C   UNL     1      45.022   8.831  18.481  1.00  0.00    -0.000 C 
BRANCH  15  16
ATOM     16  C   UNL     1      44.389   8.122  19.688  1.00  0.00    -0.000 C 
BRANCH  16  17
ATOM     17  C   UNL     1      43.729   6.805  19.266  1.00  0.00    -0.003 C 
ATOM     18  C   UNL     1      42.589   6.431  20.209  1.00  0.00     0.004 C 
ENDBRANCH  16  17
ENDBRANCH  15  16
ENDBRANCH  14  15
ENDBRANCH  13  14
ENDBRANCH  12  13
ENDBRANCH  11  12
ENDBRANCH   1  11
TORSDOF 14
ENDMDL
MODEL 5
REMARK VINA RESULT:    -4.439     14.145     17.385
REMARK INTER + INTRA:          -9.043
REMARK INTER:                  -7.179
REMARK INTRA:                  -1.864
REMARK UNBOUND:                -0.970
REMARK SMILES CCCCCCCCCCCCCCCC(=O)[O-]
REMARK SMILES IDX 9 1 10 2 11 3 12 4 13 5 14 6 15 7 16 8 17 9 18 10 8 11 7 12
REMARK SMILES IDX 6 13 5 14 4 15 3 16 2 17 1 18
REMARK H PARENT
REMARK Flexibility Score: inf
ROOT
ATOM      1  C   UNL     1      45.996   9.003  18.039  1.00  0.00     0.000 C 
ENDROOT
BRANCH   1   2
ATOM      2  C   UNL     1      44.905   9.591  18.952  1.00  0.00     0.000 C 
BRANCH   2   3
ATOM      3  C   UNL     1      44.223   8.577  19.893  1.00  0.00     0.000 C 
BRANCH   3   4
ATOM      4  C   UNL     1      43.898   7.209  19.260  1.00  0.00     0.000 C 
BRANCH   4   5
ATOM      5  C   UNL     1      43.904   6.023  20.240  1.00  0.00     0.000 C 
BRANCH   5   6
ATOM      6  C   UNL     1      42.979   4.877  19.796  1.00  0.00     0.006 C 
BRANCH   6   7
ATOM      7  C   UNL     1      43.454   3.515  20.317  1.00  0.00     0.053 C 
BRANCH   7   8
ATOM      8  C   UNL     1      42.900   2.385  19.502  1.00  0.00     0.041 C 
ATOM      9  O   UNL     1      42.157   2.622  18.514  1.00  0.00    -0.550 OA
ATOM     10  O   UNL     1      43.175   1.071  19.858  1.00  0.00    -0.550 OA
ENDBRANCH   7   8
ENDBRANCH   6   7
ENDBRANCH   5   6
ENDBRANCH   4   5
ENDBRANCH   3   4
ENDBRANCH   2   3
ENDBRANCH   1   2
BRANCH   1  11
ATOM     11  C   UNL     1      47.276   9.856  18.014  1.00  0.00     0.000 C 
BRANCH  11  12
ATOM     12  C   UNL     1      48.349   9.282  17.074  1.00  0.00    -0.000 C 
BRANCH  12  13
ATOM     13  C   UNL     1      49.540   8.675  17.831  1.00  0.00    -0.000 C 
BRANCH  13  14
ATOM     14  C   UNL     1      49.558   9.148  19.292  1.00  0.00    -0.000 C 
BRANCH  14  15
ATOM     15  C   UNL     1      49.423   7.990  20.294  1.00  0.00    -0.000 C 
BRANCH  15  16
ATOM     16  C   UNL     1      48.124   8.062  21.111  1.00  0.00    -0.000 C 
BRANCH  16  17
ATOM     17  C   UNL     1      47.317   6.767  20.972  1.00  0.00    -0.003 C 
ATOM     18  C   UNL     1      47.593   6.085  19.635  1.00  0.00     0.004 C 
ENDBRANCH  16  17
ENDBRANCH  15  16
ENDBRANCH  14  15
ENDBRANCH  13  14
ENDBRANCH  12  13
ENDBRANCH  11  12
ENDBRANCH   1  11
TORSDOF 14
ENDMDL
MODEL 6
REMARK VINA RESULT:    -4.407      1.190      2.050
REMARK INTER + INTRA:          -8.985
REMARK INTER:                  -8.293
REMARK INTRA:                  -0.691
REMARK UNBOUND:                -0.970
REMARK SMILES CCCCCCCCCCCCCCCC(=O)[O-]
REMARK SMILES IDX 9 1 10 2 11 3 12 4 13 5 14 6 15 7 16 8 17 9 18 10 8 11 7 12
REMARK SMILES IDX 6 13 5 14 4 15 3 16 2 17 1 18
REMARK H PARENT
REMARK Flexibility Score: inf
ROOT
ATOM      1  C   UNL     1      40.921  -7.673  10.653  1.00  0.00     0.000 C 
ENDROOT
BRANCH   1   2
ATOM      2  C   UNL     1      39.798  -6.670  10.336  1.00  0.00     0.000 C 
BRANCH   2   3
ATOM      3  C   UNL     1      38.419  -7.301  10.052  1.00  0.00     0.000 C 
BRANCH   3   4
ATOM      4  C   UNL     1      37.246  -6.705  10.856  1.00  0.00     0.000 C 
BRANCH   4   5
ATOM      5  C   UNL     1      36.123  -7.699  11.199  1.00  0.00     0.000 C 
BRANCH   5   6
ATOM      6  C   UNL     1      34.845  -7.006  11.702  1.00  0.00     0.006 C 
BRANCH   6   7
ATOM      7  C   UNL     1      35.155  -5.792  12.586  1.00  0.00     0.053 C 
BRANCH   7   8
ATOM      8  C   UNL     1      34.805  -6.045  14.021  1.00  0.00     0.041 C 
ATOM      9  O   UNL     1      33.603  -6.204  14.360  1.00  0.00    -0.550 OA
ATOM     10  O   UNL     1      35.803  -6.069  14.986  1.00  0.00    -0.550 OA
ENDBRANCH   7   8
ENDBRANCH   6   7
ENDBRANCH   5   6
ENDBRANCH   4   5
ENDBRANCH   3   4
ENDBRANCH   2   3
ENDBRANCH   1   2
BRANCH   1  11
ATOM     11  C   UNL     1      41.813  -7.975   9.436  1.00  0.00     0.000 C 
BRANCH  11  12
ATOM     12  C   UNL     1      42.871  -6.886   9.195  1.00  0.00    -0.000 C 
BRANCH  12  13
ATOM     13  C   UNL     1      43.321  -6.196  10.491  1.00  0.00    -0.000 C 
BRANCH  13  14
ATOM     14  C   UNL     1      44.486  -5.232  10.223  1.00  0.00    -0.000 C 
BRANCH  14  15
ATOM     15  C   UNL     1      45.426  -5.730   9.113  1.00  0.00    -0.000 C 
BRANCH  15  16
ATOM     16  C   UNL     1      45.653  -4.681   8.014  1.00  0.00    -0.000 C 
BRANCH  16  17
ATOM     17  C   UNL     1      45.347  -3.271   8.531  1.00  0.00    -0.003 C 
ATOM     18  C   UNL     1      45.685  -2.213   7.485  1.00  0.00     0.004 C 
ENDBRANCH  16  17
ENDBRANCH  15  16
ENDBRANCH  14  15
ENDBRANCH  13  14
ENDBRANCH  12  13
ENDBRANCH  11  12
ENDBRANCH   1  11
TORSDOF 14
ENDMDL
MODEL 7
REMARK VINA RESULT:    -4.379     13.536     16.725
REMARK INTER + INTRA:          -8.933
REMARK INTER:                  -7.212
REMARK INTRA:                  -1.721
REMARK UNBOUND:                -0.970
REMARK SMILES CCCCCCCCCCCCCCCC(=O)[O-]
REMARK SMILES IDX 9 1 10 2 11 3 12 4 13 5 14 6 15 7 16 8 17 9 18 10 8 11 7 12
REMARK SMILES IDX 6 13 5 14 4 15 3 16 2 17 1 18
REMARK H PARENT
REMARK Flexibility Score: inf
ROOT
ATOM      1  C   UNL     1      47.231   5.720  19.763  1.00  0.00     0.000 C 
ENDROOT
BRANCH   1   2
ATOM      2  C   UNL     1      46.674   6.011  21.168  1.00  0.00     0.000 C 
BRANCH   2   3
ATOM      3  C   UNL     1      45.811   4.885  21.774  1.00  0.00     0.000 C 
BRANCH   3   4
ATOM      4  C   UNL     1      46.325   3.454  21.520  1.00  0.00     0.000 C 
BRANCH   4   5
ATOM      5  C   UNL     1      45.274   2.345  21.705  1.00  0.00     0.000 C 
BRANCH   5   6
ATOM      6  C   UNL     1      43.907   2.712  21.101  1.00  0.00     0.006 C 
BRANCH   6   7
ATOM      7  C   UNL     1      43.298   1.554  20.302  1.00  0.00     0.053 C 
BRANCH   7   8
ATOM      8  C   UNL     1      42.779   2.010  18.972  1.00  0.00     0.041 C 
ATOM      9  O   UNL     1      42.845   1.248  17.971  1.00  0.00    -0.550 OA
ATOM     10  O   UNL     1      42.257   3.289  18.830  1.00  0.00    -0.550 OA
ENDBRANCH   7   8
ENDBRANCH   6   7
ENDBRANCH   5   6
ENDBRANCH   4   5
ENDBRANCH   3   4
ENDBRANCH   2   3
ENDBRANCH   1   2
BRANCH   1  11
ATOM     11  C   UNL     1      48.212   6.800  19.275  1.00  0.00     0.000 C 
BRANCH  11  12
ATOM     12  C   UNL     1      47.659   8.224  19.454  1.00  0.00    -0.000 C 
BRANCH  12  13
ATOM     13  C   UNL     1      47.335   8.908  18.117  1.00  0.00    -0.000 C 
BRANCH  13  14
ATOM     14  C   UNL     1      45.824   9.143  17.974  1.00  0.00    -0.000 C 
BRANCH  14  15
ATOM     15  C   UNL     1      45.145   9.475  19.312  1.00  0.00    -0.000 C 
BRANCH  15  16
ATOM     16  C   UNL     1      43.782   8.783  19.473  1.00  0.00    -0.000 C 
BRANCH  16  17
ATOM     17  C   UNL     1      43.884   7.290  19.145  1.00  0.00    -0.003 C 
ATOM     18  C   UNL     1      42.935   6.468  20.012  1.00  0.00     0.004 C 
ENDBRANCH  16  17
ENDBRANCH  15  16
ENDBRANCH  14  15
ENDBRANCH  13  14
ENDBRANCH  12  13
ENDBRANCH  11  12
ENDBRANCH   1  11
TORSDOF 14
ENDMDL
MODEL 8
REMARK VINA RESULT:    -4.346      3.709      8.149
REMARK INTER + INTRA:          -8.873
REMARK INTER:                  -7.352
REMARK INTRA:                  -1.520
REMARK UNBOUND:                -0.970
REMARK SMILES CCCCCCCCCCCCCCCC(=O)[O-]
REMARK SMILES IDX 9 1 10 2 11 3 12 4 13 5 14 6 15 7 16 8 17 9 18 10 8 11 7 12
REMARK SMILES IDX 6 13 5 14 4 15 3 16 2 17 1 18
REMARK H PARENT
REMARK Flexibility Score: inf
ROOT
ATOM      1  C   UNL     1      34.670  -5.589  12.644  1.00  0.00     0.000 C 
ENDROOT
BRANCH   1   2
ATOM      2  C   UNL     1      35.913  -6.434  12.314  1.00  0.00     0.000 C 
BRANCH   2   3
ATOM      3  C   UNL     1      36.748  -5.929  11.120  1.00  0.00     0.000 C 
BRANCH   3   4
ATOM      4  C   UNL     1      38.067  -5.222  11.492  1.00  0.00     0.000 C 
BRANCH   4   5
ATOM      5  C   UNL     1      39.323  -5.789  10.806  1.00  0.00     0.000 C 
BRANCH   5   6
ATOM      6  C   UNL     1      39.143  -7.244  10.342  1.00  0.00     0.006 C 
BRANCH   6   7
ATOM      7  C   UNL     1      40.160  -7.637   9.263  1.00  0.00     0.053 C 
BRANCH   7   8
ATOM      8  C   UNL     1      41.568  -7.550   9.770  1.00  0.00     0.041 C 
ATOM      9  O   UNL     1      41.930  -8.242  10.757  1.00  0.00    -0.550 OA
ATOM     10  O   UNL     1      42.468  -6.676   9.174  1.00  0.00    -0.550 OA
ENDBRANCH   7   8
ENDBRANCH   6   7
ENDBRANCH   5   6
ENDBRANCH   4   5
ENDBRANCH   3   4
ENDBRANCH   2   3
ENDBRANCH   1   2
BRANCH   1  11
ATOM     11  C   UNL     1      33.355  -6.284  12.252  1.00  0.00     0.000 C 
BRANCH  11  12
ATOM     12  C   UNL     1      33.487  -7.113  10.963  1.00  0.00    -0.000 C 
BRANCH  12  13
ATOM     13  C   UNL     1      32.175  -7.186  10.167  1.00  0.00    -0.000 C 
BRANCH  13  14
ATOM     14  C   UNL     1      32.388  -7.909   8.828  1.00  0.00    -0.000 C 
BRANCH  14  15
ATOM     15  C   UNL     1      33.551  -8.913   8.872  1.00  0.00    -0.000 C 
BRANCH  15  16
ATOM     16  C   UNL     1      34.623  -8.624   7.811  1.00  0.00    -0.000 C 
BRANCH  16  17
ATOM     17  C   UNL     1      36.004  -8.463   8.457  1.00  0.00    -0.003 C 
ATOM     18  C   UNL     1      36.143  -9.348   9.692  1.00  0.00     0.004 C 
ENDBRANCH  16  17
ENDBRANCH  15  16
ENDBRANCH  14  15
ENDBRANCH  13  14
ENDBRANCH  12  13
ENDBRANCH  11  12
ENDBRANCH   1  11
TORSDOF 14
ENDMDL
MODEL 9
REMARK VINA RESULT:    -4.333      3.202      8.049
REMARK INTER + INTRA:          -8.849
REMARK INTER:                  -7.564
REMARK INTRA:                  -1.285
REMARK UNBOUND:                -0.970
REMARK SMILES CCCCCCCCCCCCCCCC(=O)[O-]
REMARK SMILES IDX 9 1 10 2 11 3 12 4 13 5 14 6 15 7 16 8 17 9 18 10 8 11 7 12
REMARK SMILES IDX 6 13 5 14 4 15 3 16 2 17 1 18
REMARK H PARENT
REMARK Flexibility Score: inf
ROOT
ATOM      1  C   UNL     1      36.832  -7.059  10.983  1.00  0.00     0.000 C 
ENDROOT
BRANCH   1   2
ATOM      2  C   UNL     1      38.214  -7.252  10.333  1.00  0.00     0.000 C 
BRANCH   2   3
ATOM      3  C   UNL     1      38.935  -8.563  10.709  1.00  0.00     0.000 C 
BRANCH   3   4
ATOM      4  C   UNL     1      39.511  -9.360   9.521  1.00  0.00     0.000 C 
BRANCH   4   5
ATOM      5  C   UNL     1      41.021  -9.175   9.287  1.00  0.00     0.000 C 
BRANCH   5   6
ATOM      6  C   UNL     1      41.797  -8.904  10.587  1.00  0.00     0.006 C 
BRANCH   6   7
ATOM      7  C   UNL     1      43.056  -8.062  10.344  1.00  0.00     0.053 C 
BRANCH   7   8
ATOM      8  C   UNL     1      42.747  -6.596  10.316  1.00  0.00     0.041 C 
ATOM      9  O   UNL     1      43.586  -5.781   9.850  1.00  0.00    -0.550 OA
ATOM     10  O   UNL     1      41.549  -6.128  10.839  1.00  0.00    -0.550 OA
ENDBRANCH   7   8
ENDBRANCH   6   7
ENDBRANCH   5   6
ENDBRANCH   4   5
ENDBRANCH   3   4
ENDBRANCH   2   3
ENDBRANCH   1   2
BRANCH   1  11
ATOM     11  C   UNL     1      36.025  -8.366  11.069  1.00  0.00     0.000 C 
BRANCH  11  12
ATOM     12  C   UNL     1      34.548  -8.174  10.691  1.00  0.00    -0.000 C 
BRANCH  12  13
ATOM     13  C   UNL     1      34.089  -6.713  10.811  1.00  0.00    -0.000 C 
BRANCH  13  14
ATOM     14  C   UNL     1      33.264  -6.502  12.090  1.00  0.00    -0.000 C 
BRANCH  14  15
ATOM     15  C   UNL     1      33.939  -5.539  13.080  1.00  0.00    -0.000 C 
BRANCH  15  16
ATOM     16  C   UNL     1      34.476  -6.255  14.329  1.00  0.00    -0.000 C 
BRANCH  16  17
ATOM     17  C   UNL     1      35.995  -6.089  14.444  1.00  0.00    -0.003 C 
ATOM     18  C   UNL     1      36.435  -6.033  15.904  1.00  0.00     0.004 C 
ENDBRANCH  16  17
ENDBRANCH  15  16
ENDBRANCH  14  15
ENDBRANCH  13  14
ENDBRANCH  12  13
ENDBRANCH  11  12
ENDBRANCH   1  11
TORSDOF 14
ENDMDL
