MODEL 1
REMARK VINA RESULT:    -5.672      0.000      0.000
REMARK INTER + INTRA:          -5.838
REMARK INTER:                  -5.838
REMARK INTRA:                   0.000
REMARK UNBOUND:                 0.000
REMARK SMILES O=c1ccc2ccc(O)cc2o1
REMARK SMILES IDX 6 1 7 2 8 3 10 4 11 5 5 6 4 7 3 8 2 9 1 10 12 11 9 12
REMARK H PARENT 9 13
REMARK Flexibility Score: inf
ROOT
ATOM      1  C   UNL     1       2.232   0.021  24.496  1.00  0.00     0.016 A 
ATOM      2  C   UNL     1       2.580   1.343  24.201  1.00  0.00     0.047 A 
ATOM      3  C   UNL     1       1.625   2.229  23.687  1.00  0.00     0.119 A 
ATOM      4  C   UNL     1       0.312   1.790  23.466  1.00  0.00     0.094 A 
ATOM      5  C   UNL     1      -0.047   0.470  23.757  1.00  0.00     0.142 A 
ATOM      6  C   UNL     1       0.920  -0.421  24.276  1.00  0.00     0.018 A 
ATOM      7  C   UNL     1       0.532  -1.735  24.557  1.00  0.00     0.019 A 
ATOM      8  C   UNL     1      -0.785  -2.125  24.321  1.00  0.00     0.094 A 
ATOM      9  C   UNL     1      -1.688  -1.189  23.806  1.00  0.00     0.336 A 
ATOM     10  O   UNL     1      -2.882  -1.522  23.586  1.00  0.00    -0.246 OA
ATOM     11  O   UNL     1      -1.294   0.056  23.547  1.00  0.00    -0.423 OA
ENDROOT
BRANCH   3  12
ATOM     12  O   UNL     1       1.992   3.542  23.400  1.00  0.00    -0.508 OA
ATOM     13  H   UNL     1       2.398   3.794  22.506  1.00  0.00     0.293 HD
ENDBRANCH   3  12
TORSDOF 1
ENDMDL
MODEL 2
REMARK VINA RESULT:    -5.664     12.106     13.863
REMARK INTER + INTRA:          -5.829
REMARK INTER:                  -5.829
REMARK INTRA:                   0.000
REMARK UNBOUND:                 0.000
REMARK SMILES O=c1ccc2ccc(O)cc2o1
REMARK SMILES IDX 6 1 7 2 8 3 10 4 11 5 5 6 4 7 3 8 2 9 1 10 12 11 9 12
REMARK H PARENT 9 13
REMARK Flexibility Score: inf
ROOT
ATOM      1  C   UNL     1     -12.998   5.326  18.719  1.00  0.00     0.016 A 
ATOM      2  C   UNL     1     -13.192   4.943  17.388  1.00  0.00     0.047 A 
ATOM      3  C   UNL     1     -12.432   3.907  16.831  1.00  0.00     0.119 A 
ATOM      4  C   UNL     1     -11.470   3.250  17.610  1.00  0.00     0.094 A 
ATOM      5  C   UNL     1     -11.268   3.625  18.943  1.00  0.00     0.142 A 
ATOM      6  C   UNL     1     -12.038   4.670  19.501  1.00  0.00     0.018 A 
ATOM      7  C   UNL     1     -11.813   5.024  20.835  1.00  0.00     0.019 A 
ATOM      8  C   UNL     1     -10.845   4.340  21.570  1.00  0.00     0.094 A 
ATOM      9  C   UNL     1     -10.122   3.315  20.952  1.00  0.00     0.336 A 
ATOM     10  O   UNL     1      -9.244   2.687  21.599  1.00  0.00    -0.246 OA
ATOM     11  O   UNL     1     -10.355   2.998  19.680  1.00  0.00    -0.423 OA
ENDROOT
BRANCH   3  12
ATOM     12  O   UNL     1     -12.640   3.541  15.503  1.00  0.00    -0.508 OA
ATOM     13  H   UNL     1     -13.503   3.102  15.204  1.00  0.00     0.293 HD
ENDBRANCH   3  12
TORSDOF 1
ENDMDL
MODEL 3
REMARK VINA RESULT:    -5.531      0.840      4.225
REMARK INTER + INTRA:          -5.693
REMARK INTER:                  -5.693
REMARK INTRA:                   0.000
REMARK UNBOUND:                 0.000
REMARK SMILES O=c1ccc2ccc(O)cc2o1
REMARK SMILES IDX 6 1 7 2 8 3 10 4 11 5 5 6 4 7 3 8 2 9 1 10 12 11 9 12
REMARK H PARENT 9 13
REMARK Flexibility Score: inf
ROOT
ATOM      1  C   UNL     1       0.429  -1.849  24.191  1.00  0.00     0.016 A 
ATOM      2  C   UNL     1      -0.930  -2.125  24.012  1.00  0.00     0.047 A 
ATOM      3  C   UNL     1      -1.833  -1.090  23.740  1.00  0.00     0.119 A 
ATOM      4  C   UNL     1      -1.373   0.232  23.646  1.00  0.00     0.094 A 
ATOM      5  C   UNL     1      -0.016   0.518  23.823  1.00  0.00     0.142 A 
ATOM      6  C   UNL     1       0.892  -0.529  24.098  1.00  0.00     0.018 A 
ATOM      7  C   UNL     1       2.243  -0.212  24.271  1.00  0.00     0.019 A 
ATOM      8  C   UNL     1       2.652   1.116  24.168  1.00  0.00     0.094 A 
ATOM      9  C   UNL     1       1.698   2.101  23.893  1.00  0.00     0.336 A 
ATOM     10  O   UNL     1       2.048   3.306  23.797  1.00  0.00    -0.246 OA
ATOM     11  O   UNL     1       0.418   1.773  23.733  1.00  0.00    -0.423 OA
ENDROOT
BRANCH   3  12
ATOM     12  O   UNL     1      -3.183  -1.385  23.565  1.00  0.00    -0.508 OA
ATOM     13  H   UNL     1      -3.803  -0.755  23.070  1.00  0.00     0.293 HD
ENDBRANCH   3  12
TORSDOF 1
ENDMDL
MODEL 4
REMARK VINA RESULT:    -5.025     10.419     11.370
REMARK INTER + INTRA:          -5.172
REMARK INTER:                  -5.172
REMARK INTRA:                   0.000
REMARK UNBOUND:                 0.000
REMARK SMILES O=c1ccc2ccc(O)cc2o1
REMARK SMILES IDX 6 1 7 2 8 3 10 4 11 5 5 6 4 7 3 8 2 9 1 10 12 11 9 12
REMARK H PARENT 9 13
REMARK Flexibility Score: inf
ROOT
ATOM      1  C   UNL     1      -4.317   3.118  15.263  1.00  0.00     0.016 A 
ATOM      2  C   UNL     1      -5.552   2.735  15.796  1.00  0.00     0.047 A 
ATOM      3  C   UNL     1      -6.349   3.665  16.475  1.00  0.00     0.119 A 
ATOM      4  C   UNL     1      -5.908   4.987  16.623  1.00  0.00     0.094 A 
ATOM      5  C   UNL     1      -4.675   5.381  16.093  1.00  0.00     0.142 A 
ATOM      6  C   UNL     1      -3.874   4.440  15.408  1.00  0.00     0.018 A 
ATOM      7  C   UNL     1      -2.645   4.862  14.890  1.00  0.00     0.019 A 
ATOM      8  C   UNL     1      -2.250   6.188  15.061  1.00  0.00     0.094 A 
ATOM      9  C   UNL     1      -3.096   7.065  15.749  1.00  0.00     0.336 A 
ATOM     10  O   UNL     1      -2.757   8.266  15.914  1.00  0.00    -0.246 OA
ATOM     11  O   UNL     1      -4.260   6.637  16.233  1.00  0.00    -0.423 OA
ENDROOT
BRANCH   3  12
ATOM     12  O   UNL     1      -7.576   3.263  17.000  1.00  0.00    -0.508 OA
ATOM     13  H   UNL     1      -7.702   2.343  17.406  1.00  0.00     0.293 HD
ENDBRANCH   3  12
TORSDOF 1
ENDMDL
MODEL 5
REMARK VINA RESULT:    -4.981     10.376     10.749
REMARK INTER + INTRA:          -5.127
REMARK INTER:                  -5.127
REMARK INTRA:                   0.000
REMARK UNBOUND:                 0.000
REMARK SMILES O=c1ccc2ccc(O)cc2o1
REMARK SMILES IDX 6 1 7 2 8 3 10 4 11 5 5 6 4 7 3 8 2 9 1 10 12 11 9 12
REMARK H PARENT 9 13
REMARK Flexibility Score: inf
ROOT
ATOM      1  C   UNL     1      -5.344   2.755  15.975  1.00  0.00     0.016 A 
ATOM      2  C   UNL     1      -5.839   3.967  16.466  1.00  0.00     0.047 A 
ATOM      3  C   UNL     1      -5.127   5.156  16.269  1.00  0.00     0.119 A 
ATOM      4  C   UNL     1      -3.908   5.133  15.576  1.00  0.00     0.094 A 
ATOM      5  C   UNL     1      -3.403   3.927  15.081  1.00  0.00     0.142 A 
ATOM      6  C   UNL     1      -4.126   2.729  15.281  1.00  0.00     0.018 A 
ATOM      7  C   UNL     1      -3.595   1.538  14.775  1.00  0.00     0.019 A 
ATOM      8  C   UNL     1      -2.381   1.566  14.092  1.00  0.00     0.094 A 
ATOM      9  C   UNL     1      -1.721   2.789  13.930  1.00  0.00     0.336 A 
ATOM     10  O   UNL     1      -0.623   2.835  13.317  1.00  0.00    -0.246 OA
ATOM     11  O   UNL     1      -2.247   3.909  14.422  1.00  0.00    -0.423 OA
ENDROOT
BRANCH   3  12
ATOM     12  O   UNL     1      -5.638   6.353  16.767  1.00  0.00    -0.508 OA
ATOM     13  H   UNL     1      -6.344   6.365  17.493  1.00  0.00     0.293 HD
ENDBRANCH   3  12
TORSDOF 1
ENDMDL
MODEL 6
REMARK VINA RESULT:    -4.903     14.305     15.716
REMARK INTER + INTRA:          -5.047
REMARK INTER:                  -5.047
REMARK INTRA:                   0.000
REMARK UNBOUND:                 0.000
REMARK SMILES O=c1ccc2ccc(O)cc2o1
REMARK SMILES IDX 6 1 7 2 8 3 10 4 11 5 5 6 4 7 3 8 2 9 1 10 12 11 9 12
REMARK H PARENT 9 13
REMARK Flexibility Score: inf
ROOT
ATOM      1  C   UNL     1      -2.817   5.890   8.181  1.00  0.00     0.016 A 
ATOM      2  C   UNL     1      -3.176   4.547   8.034  1.00  0.00     0.047 A 
ATOM      3  C   UNL     1      -3.191   3.692   9.143  1.00  0.00     0.119 A 
ATOM      4  C   UNL     1      -2.844   4.184  10.409  1.00  0.00     0.094 A 
ATOM      5  C   UNL     1      -2.483   5.526  10.567  1.00  0.00     0.142 A 
ATOM      6  C   UNL     1      -2.470   6.385   9.446  1.00  0.00     0.018 A 
ATOM      7  C   UNL     1      -2.104   7.722   9.635  1.00  0.00     0.019 A 
ATOM      8  C   UNL     1      -1.768   8.165  10.913  1.00  0.00     0.094 A 
ATOM      9  C   UNL     1      -1.804   7.257  11.977  1.00  0.00     0.336 A 
ATOM     10  O   UNL     1      -1.504   7.638  13.139  1.00  0.00    -0.246 OA
ATOM     11  O   UNL     1      -2.155   5.990  11.771  1.00  0.00    -0.423 OA
ENDROOT
BRANCH   3  12
ATOM     12  O   UNL     1      -3.551   2.356   8.974  1.00  0.00    -0.508 OA
ATOM     13  H   UNL     1      -4.081   1.858   9.680  1.00  0.00     0.293 HD
ENDBRANCH   3  12
TORSDOF 1
ENDMDL
MODEL 7
REMARK VINA RESULT:    -4.755     10.339     10.621
REMARK INTER + INTRA:          -4.893
REMARK INTER:                  -4.893
REMARK INTRA:                   0.000
REMARK UNBOUND:                 0.000
REMARK SMILES O=c1ccc2ccc(O)cc2o1
REMARK SMILES IDX 6 1 7 2 8 3 10 4 11 5 5 6 4 7 3 8 2 9 1 10 12 11 9 12
REMARK H PARENT 9 13
REMARK Flexibility Score: inf
ROOT
ATOM      1  C   UNL     1      -2.706   4.579  14.976  1.00  0.00     0.016 A 
ATOM      2  C   UNL     1      -1.998   3.538  14.368  1.00  0.00     0.047 A 
ATOM      3  C   UNL     1      -2.553   2.255  14.287  1.00  0.00     0.119 A 
ATOM      4  C   UNL     1      -3.828   2.011  14.819  1.00  0.00     0.094 A 
ATOM      5  C   UNL     1      -4.545   3.045  15.430  1.00  0.00     0.142 A 
ATOM      6  C   UNL     1      -3.981   4.338  15.508  1.00  0.00     0.018 A 
ATOM      7  C   UNL     1      -4.721   5.352  16.125  1.00  0.00     0.019 A 
ATOM      8  C   UNL     1      -5.984   5.061  16.639  1.00  0.00     0.094 A 
ATOM      9  C   UNL     1      -6.479   3.758  16.524  1.00  0.00     0.336 A 
ATOM     10  O   UNL     1      -7.617   3.475  16.981  1.00  0.00    -0.246 OA
ATOM     11  O   UNL     1      -5.754   2.810  15.933  1.00  0.00    -0.423 OA
ENDROOT
BRANCH   3  12
ATOM     12  O   UNL     1      -1.831   1.232  13.678  1.00  0.00    -0.508 OA
ATOM     13  H   UNL     1      -2.203   0.292  13.604  1.00  0.00     0.293 HD
ENDBRANCH   3  12
TORSDOF 1
ENDMDL
MODEL 8
REMARK VINA RESULT:    -4.722     13.616     14.836
REMARK INTER + INTRA:          -4.860
REMARK INTER:                  -4.860
REMARK INTRA:                   0.000
REMARK UNBOUND:                 0.000
REMARK SMILES O=c1ccc2ccc(O)cc2o1
REMARK SMILES IDX 6 1 7 2 8 3 10 4 11 5 5 6 4 7 3 8 2 9 1 10 12 11 9 12
REMARK H PARENT 9 13
REMARK Flexibility Score: inf
ROOT
ATOM      1  C   UNL     1      -1.618  10.138  12.454  1.00  0.00     0.016 A 
ATOM      2  C   UNL     1      -1.458  10.643  11.160  1.00  0.00     0.047 A 
ATOM      3  C   UNL     1      -1.596   9.801  10.050  1.00  0.00     0.119 A 
ATOM      4  C   UNL     1      -1.896   8.444  10.235  1.00  0.00     0.094 A 
ATOM      5  C   UNL     1      -2.058   7.929  11.525  1.00  0.00     0.142 A 
ATOM      6  C   UNL     1      -1.919   8.782  12.643  1.00  0.00     0.018 A 
ATOM      7  C   UNL     1      -2.086   8.238  13.921  1.00  0.00     0.019 A 
ATOM      8  C   UNL     1      -2.384   6.883  14.054  1.00  0.00     0.094 A 
ATOM      9  C   UNL     1      -2.509   6.099  12.902  1.00  0.00     0.336 A 
ATOM     10  O   UNL     1      -2.777   4.874  13.002  1.00  0.00    -0.246 OA
ATOM     11  O   UNL     1      -2.344   6.641  11.697  1.00  0.00    -0.423 OA
ENDROOT
BRANCH   3  12
ATOM     12  O   UNL     1      -1.432  10.323   8.769  1.00  0.00    -0.508 OA
ATOM     13  H   UNL     1      -1.936  11.148   8.465  1.00  0.00     0.293 HD
ENDBRANCH   3  12
TORSDOF 1
ENDMDL
MODEL 9
REMARK VINA RESULT:    -4.676     14.632     15.578
REMARK INTER + INTRA:          -4.813
REMARK INTER:                  -4.813
REMARK INTRA:                   0.000
REMARK UNBOUND:                 0.000
REMARK SMILES O=c1ccc2ccc(O)cc2o1
REMARK SMILES IDX 6 1 7 2 8 3 10 4 11 5 5 6 4 7 3 8 2 9 1 10 12 11 9 12
REMARK H PARENT 9 13
REMARK Flexibility Score: inf
ROOT
ATOM      1  C   UNL     1     -10.292   8.707  23.748  1.00  0.00     0.016 A 
ATOM      2  C   UNL     1      -9.580   9.377  22.748  1.00  0.00     0.047 A 
ATOM      3  C   UNL     1      -9.759  10.752  22.551  1.00  0.00     0.119 A 
ATOM      4  C   UNL     1     -10.658  11.462  23.360  1.00  0.00     0.094 A 
ATOM      5  C   UNL     1     -11.376  10.802  24.362  1.00  0.00     0.142 A 
ATOM      6  C   UNL     1     -11.192   9.414  24.558  1.00  0.00     0.018 A 
ATOM      7  C   UNL     1     -11.923   8.781  25.568  1.00  0.00     0.019 A 
ATOM      8  C   UNL     1     -12.805   9.530  26.346  1.00  0.00     0.094 A 
ATOM      9  C   UNL     1     -12.935  10.900  26.096  1.00  0.00     0.336 A 
ATOM     10  O   UNL     1     -13.726  11.592  26.788  1.00  0.00    -0.246 OA
ATOM     11  O   UNL     1     -12.227  11.479  25.128  1.00  0.00    -0.423 OA
ENDROOT
BRANCH   3  12
ATOM     12  O   UNL     1      -9.040  11.401  21.550  1.00  0.00    -0.508 OA
ATOM     13  H   UNL     1      -9.302  11.322  20.574  1.00  0.00     0.293 HD
ENDBRANCH   3  12
TORSDOF 1
ENDMDL
