MODEL 1
REMARK VINA RESULT:    -3.263      0.000      0.000
REMARK INTER + INTRA:          -6.914
REMARK INTER:                  -5.552
REMARK INTRA:                  -1.361
REMARK UNBOUND:                -1.361
REMARK SMILES CCCCCCCCCCCCCC(=O)[O-]
REMARK SMILES IDX 8 1 9 2 10 3 11 4 12 5 13 6 14 7 15 8 16 9 7 10 6 11 5 12
REMARK SMILES IDX 4 13 3 14 2 15 1 16
REMARK H PARENT
REMARK Flexibility Score: inf
ROOT
ATOM      1  C   UNL     1       9.351  -2.144  19.296  1.00  0.00     0.000 C 
ENDROOT
BRANCH   1   2
ATOM      2  C   UNL     1       8.826  -3.061  18.180  1.00  0.00     0.000 C 
BRANCH   2   3
ATOM      3  C   UNL     1       7.384  -3.532  18.427  1.00  0.00     0.000 C 
BRANCH   3   4
ATOM      4  C   UNL     1       6.572  -2.532  19.268  1.00  0.00     0.000 C 
BRANCH   4   5
ATOM      5  C   UNL     1       5.439  -1.872  18.465  1.00  0.00     0.006 C 
BRANCH   5   6
ATOM      6  C   UNL     1       5.949  -0.805  17.488  1.00  0.00     0.053 C 
BRANCH   6   7
ATOM      7  C   UNL     1       6.006  -1.357  16.098  1.00  0.00     0.041 C 
ATOM      8  O   UNL     1       4.975  -1.850  15.569  1.00  0.00    -0.550 OA
ATOM      9  O   UNL     1       7.184  -1.280  15.367  1.00  0.00    -0.550 OA
ENDBRANCH   6   7
ENDBRANCH   5   6
ENDBRANCH   4   5
ENDBRANCH   3   4
ENDBRANCH   2   3
ENDBRANCH   1   2
BRANCH   1  10
ATOM     10  C   UNL     1      10.183  -2.936  20.311  1.00  0.00     0.000 C 
BRANCH  10  11
ATOM     11  C   UNL     1      10.908  -4.109  19.634  1.00  0.00    -0.000 C 
BRANCH  11  12
ATOM     12  C   UNL     1      10.819  -5.417  20.442  1.00  0.00    -0.000 C 
BRANCH  12  13
ATOM     13  C   UNL     1       9.833  -6.459  19.883  1.00  0.00    -0.000 C 
BRANCH  13  14
ATOM     14  C   UNL     1       9.857  -6.539  18.347  1.00  0.00    -0.000 C 
BRANCH  14  15
ATOM     15  C   UNL     1       8.487  -6.907  17.755  1.00  0.00    -0.003 C 
ATOM     16  C   UNL     1       8.384  -8.388  17.388  1.00  0.00     0.004 C 
ENDBRANCH  14  15
ENDBRANCH  13  14
ENDBRANCH  12  13
ENDBRANCH  11  12
ENDBRANCH  10  11
ENDBRANCH   1  10
TORSDOF 12
ENDMDL
MODEL 2
REMARK VINA RESULT:    -3.200      1.286      2.358
REMARK INTER + INTRA:          -6.807
REMARK INTER:                  -4.830
REMARK INTRA:                  -1.977
REMARK UNBOUND:                -1.361
REMARK SMILES CCCCCCCCCCCCCC(=O)[O-]
REMARK SMILES IDX 8 1 9 2 10 3 11 4 12 5 13 6 14 7 15 8 16 9 7 10 6 11 5 12
REMARK SMILES IDX 4 13 3 14 2 15 1 16
REMARK H PARENT
REMARK Flexibility Score: inf
ROOT
ATOM      1  C   UNL     1       9.727  -2.687  20.852  1.00  0.00     0.000 C 
ENDROOT
BRANCH   1   2
ATOM      2  C   UNL     1       9.609  -1.516  19.865  1.00  0.00     0.000 C 
BRANCH   2   3
ATOM      3  C   UNL     1       8.154  -1.076  19.637  1.00  0.00     0.000 C 
BRANCH   3   4
ATOM      4  C   UNL     1       7.147  -2.213  19.887  1.00  0.00     0.000 C 
BRANCH   4   5
ATOM      5  C   UNL     1       6.493  -2.717  18.591  1.00  0.00     0.006 C 
BRANCH   5   6
ATOM      6  C   UNL     1       5.380  -1.787  18.089  1.00  0.00     0.053 C 
BRANCH   6   7
ATOM      7  C   UNL     1       5.692  -1.299  16.709  1.00  0.00     0.041 C 
ATOM      8  O   UNL     1       6.574  -0.419  16.532  1.00  0.00    -0.550 OA
ATOM      9  O   UNL     1       5.044  -1.853  15.612  1.00  0.00    -0.550 OA
ENDBRANCH   6   7
ENDBRANCH   5   6
ENDBRANCH   4   5
ENDBRANCH   3   4
ENDBRANCH   2   3
ENDBRANCH   1   2
BRANCH   1  10
ATOM     10  C   UNL     1      11.124  -3.317  20.792  1.00  0.00     0.000 C 
BRANCH  10  11
ATOM     11  C   UNL     1      11.044  -4.799  20.397  1.00  0.00    -0.000 C 
BRANCH  11  12
ATOM     12  C   UNL     1       9.638  -5.222  19.935  1.00  0.00    -0.000 C 
BRANCH  12  13
ATOM     13  C   UNL     1       9.585  -5.893  18.550  1.00  0.00    -0.000 C 
BRANCH  13  14
ATOM     14  C   UNL     1       9.046  -4.957  17.454  1.00  0.00    -0.000 C 
BRANCH  14  15
ATOM     15  C   UNL     1      10.078  -3.905  17.020  1.00  0.00    -0.003 C 
ATOM     16  C   UNL     1       9.434  -2.691  16.349  1.00  0.00     0.004 C 
ENDBRANCH  14  15
ENDBRANCH  13  14
ENDBRANCH  12  13
ENDBRANCH  11  12
ENDBRANCH  10  11
ENDBRANCH   1  10
TORSDOF 12
ENDMDL
MODEL 3
REMARK VINA RESULT:    -3.196      1.469      1.986
REMARK INTER + INTRA:          -6.800
REMARK INTER:                  -5.141
REMARK INTRA:                  -1.659
REMARK UNBOUND:                -1.361
REMARK SMILES CCCCCCCCCCCCCC(=O)[O-]
REMARK SMILES IDX 8 1 9 2 10 3 11 4 12 5 13 6 14 7 15 8 16 9 7 10 6 11 5 12
REMARK SMILES IDX 4 13 3 14 2 15 1 16
REMARK H PARENT
REMARK Flexibility Score: inf
ROOT
ATOM      1  C   UNL     1       8.386  -1.391  19.495  1.00  0.00     0.000 C 
ENDROOT
BRANCH   1   2
ATOM      2  C   UNL     1       7.399  -2.416  20.073  1.00  0.00     0.000 C 
BRANCH   2   3
ATOM      3  C   UNL     1       6.423  -2.962  19.018  1.00  0.00     0.000 C 
BRANCH   3   4
ATOM      4  C   UNL     1       6.633  -2.325  17.633  1.00  0.00     0.000 C 
BRANCH   4   5
ATOM      5  C   UNL     1       5.373  -1.613  17.115  1.00  0.00     0.006 C 
BRANCH   5   6
ATOM      6  C   UNL     1       5.695  -0.346  16.313  1.00  0.00     0.053 C 
BRANCH   6   7
ATOM      7  C   UNL     1       4.871  -0.295  15.065  1.00  0.00     0.041 C 
ATOM      8  O   UNL     1       4.520   0.814  14.582  1.00  0.00    -0.550 OA
ATOM      9  O   UNL     1       4.533  -1.469  14.406  1.00  0.00    -0.550 OA
ENDBRANCH   6   7
ENDBRANCH   5   6
ENDBRANCH   4   5
ENDBRANCH   3   4
ENDBRANCH   2   3
ENDBRANCH   1   2
BRANCH   1  10
ATOM     10  C   UNL     1       9.835  -1.856  19.687  1.00  0.00     0.000 C 
BRANCH  10  11
ATOM     11  C   UNL     1       9.958  -2.788  20.901  1.00  0.00    -0.000 C 
BRANCH  11  12
ATOM     12  C   UNL     1      11.006  -3.899  20.703  1.00  0.00    -0.000 C 
BRANCH  12  13
ATOM     13  C   UNL     1      10.769  -4.804  19.480  1.00  0.00    -0.000 C 
BRANCH  13  14
ATOM     14  C   UNL     1       9.621  -5.806  19.694  1.00  0.00    -0.000 C 
BRANCH  14  15
ATOM     15  C   UNL     1       8.687  -5.898  18.478  1.00  0.00    -0.003 C 
ATOM     16  C   UNL     1       9.162  -5.042  17.303  1.00  0.00     0.004 C 
ENDBRANCH  14  15
ENDBRANCH  13  14
ENDBRANCH  12  13
ENDBRANCH  11  12
ENDBRANCH  10  11
ENDBRANCH   1  10
TORSDOF 12
ENDMDL
MODEL 4
REMARK VINA RESULT:    -3.141      1.241      2.310
REMARK INTER + INTRA:          -6.706
REMARK INTER:                  -6.091
REMARK INTRA:                  -0.615
REMARK UNBOUND:                -1.361
REMARK SMILES CCCCCCCCCCCCCC(=O)[O-]
REMARK SMILES IDX 8 1 9 2 10 3 11 4 12 5 13 6 14 7 15 8 16 9 7 10 6 11 5 12
REMARK SMILES IDX 4 13 3 14 2 15 1 16
REMARK H PARENT
REMARK Flexibility Score: inf
ROOT
ATOM      1  C   UNL     1       9.618  -4.036  19.267  1.00  0.00     0.000 C 
ENDROOT
BRANCH   1   2
ATOM      2  C   UNL     1       8.507  -3.198  19.918  1.00  0.00     0.000 C 
BRANCH   2   3
ATOM      3  C   UNL     1       7.237  -3.122  19.055  1.00  0.00     0.000 C 
BRANCH   3   4
ATOM      4  C   UNL     1       6.461  -1.809  19.261  1.00  0.00     0.000 C 
BRANCH   4   5
ATOM      5  C   UNL     1       5.203  -1.724  18.382  1.00  0.00     0.006 C 
BRANCH   5   6
ATOM      6  C   UNL     1       5.381  -0.786  17.181  1.00  0.00     0.053 C 
BRANCH   6   7
ATOM      7  C   UNL     1       5.620  -1.575  15.933  1.00  0.00     0.041 C 
ATOM      8  O   UNL     1       4.754  -1.592  15.018  1.00  0.00    -0.550 OA
ATOM      9  O   UNL     1       6.820  -2.252  15.756  1.00  0.00    -0.550 OA
ENDBRANCH   6   7
ENDBRANCH   5   6
ENDBRANCH   4   5
ENDBRANCH   3   4
ENDBRANCH   2   3
ENDBRANCH   1   2
BRANCH   1  10
ATOM     10  C   UNL     1       9.640  -5.458  19.841  1.00  0.00     0.000 C 
BRANCH  10  11
ATOM     11  C   UNL     1       9.799  -6.500  18.724  1.00  0.00    -0.000 C 
BRANCH  11  12
ATOM     12  C   UNL     1       8.475  -6.818  18.005  1.00  0.00    -0.000 C 
BRANCH  12  13
ATOM     13  C   UNL     1       8.393  -8.227  17.389  1.00  0.00    -0.000 C 
BRANCH  13  14
ATOM     14  C   UNL     1       7.194  -8.396  16.441  1.00  0.00    -0.000 C 
BRANCH  14  15
ATOM     15  C   UNL     1       6.876  -9.871  16.151  1.00  0.00    -0.003 C 
ATOM     16  C   UNL     1       6.999 -10.755  17.393  1.00  0.00     0.004 C 
ENDBRANCH  14  15
ENDBRANCH  13  14
ENDBRANCH  12  13
ENDBRANCH  11  12
ENDBRANCH  10  11
ENDBRANCH   1  10
TORSDOF 12
ENDMDL
MODEL 5
REMARK VINA RESULT:    -3.120      9.758     11.911
REMARK INTER + INTRA:          -6.670
REMARK INTER:                  -5.849
REMARK INTRA:                  -0.821
REMARK UNBOUND:                -1.361
REMARK SMILES CCCCCCCCCCCCCC(=O)[O-]
REMARK SMILES IDX 8 1 9 2 10 3 11 4 12 5 13 6 14 7 15 8 16 9 7 10 6 11 5 12
REMARK SMILES IDX 4 13 3 14 2 15 1 16
REMARK H PARENT
REMARK Flexibility Score: inf
ROOT
ATOM      1  C   UNL     1       0.564  -4.465  24.313  1.00  0.00     0.000 C 
ENDROOT
BRANCH   1   2
ATOM      2  C   UNL     1       0.921  -5.841  23.731  1.00  0.00     0.000 C 
BRANCH   2   3
ATOM      3  C   UNL     1       0.289  -7.001  24.517  1.00  0.00     0.000 C 
BRANCH   3   4
ATOM      4  C   UNL     1      -0.075  -6.607  25.960  1.00  0.00     0.000 C 
BRANCH   4   5
ATOM      5  C   UNL     1       0.050  -7.785  26.940  1.00  0.00     0.006 C 
BRANCH   5   6
ATOM      6  C   UNL     1       0.942  -8.911  26.403  1.00  0.00     0.053 C 
BRANCH   6   7
ATOM      7  C   UNL     1       1.975  -9.287  27.419  1.00  0.00     0.041 C 
ATOM      8  O   UNL     1       1.986  -8.729  28.548  1.00  0.00    -0.550 OA
ATOM      9  O   UNL     1       2.894 -10.290  27.138  1.00  0.00    -0.550 OA
ENDBRANCH   6   7
ENDBRANCH   5   6
ENDBRANCH   4   5
ENDBRANCH   3   4
ENDBRANCH   2   3
ENDBRANCH   1   2
BRANCH   1  10
ATOM     10  C   UNL     1       1.821  -3.608  24.506  1.00  0.00     0.000 C 
BRANCH  10  11
ATOM     11  C   UNL     1       1.452  -2.169  24.896  1.00  0.00    -0.000 C 
BRANCH  11  12
ATOM     12  C   UNL     1       0.107  -1.711  24.302  1.00  0.00    -0.000 C 
BRANCH  12  13
ATOM     13  C   UNL     1       0.213  -0.956  22.964  1.00  0.00    -0.000 C 
BRANCH  13  14
ATOM     14  C   UNL     1      -0.238  -1.803  21.763  1.00  0.00    -0.000 C 
BRANCH  14  15
ATOM     15  C   UNL     1      -0.270  -0.999  20.454  1.00  0.00    -0.003 C 
ATOM     16  C   UNL     1       0.743   0.146  20.442  1.00  0.00     0.004 C 
ENDBRANCH  14  15
ENDBRANCH  13  14
ENDBRANCH  12  13
ENDBRANCH  11  12
ENDBRANCH  10  11
ENDBRANCH   1  10
TORSDOF 12
ENDMDL
MODEL 6
REMARK VINA RESULT:    -3.120      4.070      5.960
REMARK INTER + INTRA:          -6.670
REMARK INTER:                  -5.101
REMARK INTRA:                  -1.569
REMARK UNBOUND:                -1.361
REMARK SMILES CCCCCCCCCCCCCC(=O)[O-]
REMARK SMILES IDX 8 1 9 2 10 3 11 4 12 5 13 6 14 7 15 8 16 9 7 10 6 11 5 12
REMARK SMILES IDX 4 13 3 14 2 15 1 16
REMARK H PARENT
REMARK Flexibility Score: inf
ROOT
ATOM      1  C   UNL     1       8.158  -2.057  20.593  1.00  0.00     0.000 C 
ENDROOT
BRANCH   1   2
ATOM      2  C   UNL     1       9.501  -1.816  19.887  1.00  0.00     0.000 C 
BRANCH   2   3
ATOM      3  C   UNL     1      10.650  -1.544  20.872  1.00  0.00     0.000 C 
BRANCH   3   4
ATOM      4  C   UNL     1      10.995  -2.773  21.731  1.00  0.00     0.000 C 
BRANCH   4   5
ATOM      5  C   UNL     1      11.045  -2.447  23.233  1.00  0.00     0.006 C 
BRANCH   5   6
ATOM      6  C   UNL     1      10.559  -1.026  23.547  1.00  0.00     0.053 C 
BRANCH   6   7
ATOM      7  C   UNL     1       9.496  -1.059  24.600  1.00  0.00     0.041 C 
ATOM      8  O   UNL     1       8.436  -1.712  24.410  1.00  0.00    -0.550 OA
ATOM      9  O   UNL     1       9.697  -0.412  25.812  1.00  0.00    -0.550 OA
ENDBRANCH   6   7
ENDBRANCH   5   6
ENDBRANCH   4   5
ENDBRANCH   3   4
ENDBRANCH   2   3
ENDBRANCH   1   2
BRANCH   1  10
ATOM     10  C   UNL     1       6.987  -1.591  19.719  1.00  0.00     0.000 C 
BRANCH  10  11
ATOM     11  C   UNL     1       6.444  -2.745  18.864  1.00  0.00    -0.000 C 
BRANCH  11  12
ATOM     12  C   UNL     1       6.939  -2.700  17.407  1.00  0.00    -0.000 C 
BRANCH  12  13
ATOM     13  C   UNL     1       8.058  -3.703  17.071  1.00  0.00    -0.000 C 
BRANCH  13  14
ATOM     14  C   UNL     1       8.105  -4.893  18.045  1.00  0.00    -0.000 C 
BRANCH  14  15
ATOM     15  C   UNL     1       9.542  -5.301  18.406  1.00  0.00    -0.003 C 
ATOM     16  C   UNL     1       9.705  -5.636  19.888  1.00  0.00     0.004 C 
ENDBRANCH  14  15
ENDBRANCH  13  14
ENDBRANCH  12  13
ENDBRANCH  11  12
ENDBRANCH  10  11
ENDBRANCH   1  10
TORSDOF 12
ENDMDL
MODEL 7
REMARK VINA RESULT:    -3.061      3.191      5.562
REMARK INTER + INTRA:          -6.570
REMARK INTER:                  -4.889
REMARK INTRA:                  -1.681
REMARK UNBOUND:                -1.361
REMARK SMILES CCCCCCCCCCCCCC(=O)[O-]
REMARK SMILES IDX 8 1 9 2 10 3 11 4 12 5 13 6 14 7 15 8 16 9 7 10 6 11 5 12
REMARK SMILES IDX 4 13 3 14 2 15 1 16
REMARK H PARENT
REMARK Flexibility Score: inf
ROOT
ATOM      1  C   UNL     1       9.153  -2.975  20.503  1.00  0.00     0.000 C 
ENDROOT
BRANCH   1   2
ATOM      2  C   UNL     1       9.340  -4.013  19.385  1.00  0.00     0.000 C 
BRANCH   2   3
ATOM      3  C   UNL     1       9.679  -5.412  19.924  1.00  0.00     0.000 C 
BRANCH   3   4
ATOM      4  C   UNL     1       9.599  -6.498  18.837  1.00  0.00     0.000 C 
BRANCH   4   5
ATOM      5  C   UNL     1       8.269  -6.463  18.065  1.00  0.00     0.006 C 
BRANCH   5   6
ATOM      6  C   UNL     1       8.377  -7.088  16.669  1.00  0.00     0.053 C 
BRANCH   6   7
ATOM      7  C   UNL     1       8.666  -8.553  16.775  1.00  0.00     0.041 C 
ATOM      8  O   UNL     1       9.753  -9.018  16.340  1.00  0.00    -0.550 OA
ATOM      9  O   UNL     1       7.757  -9.398  17.398  1.00  0.00    -0.550 OA
ENDBRANCH   6   7
ENDBRANCH   5   6
ENDBRANCH   4   5
ENDBRANCH   3   4
ENDBRANCH   2   3
ENDBRANCH   1   2
BRANCH   1  10
ATOM     10  C   UNL     1       7.749  -2.361  20.452  1.00  0.00     0.000 C 
BRANCH  10  11
ATOM     11  C   UNL     1       6.888  -3.041  19.377  1.00  0.00    -0.000 C 
BRANCH  11  12
ATOM     12  C   UNL     1       6.010  -2.048  18.593  1.00  0.00    -0.000 C 
BRANCH  12  13
ATOM     13  C   UNL     1       6.399  -1.866  17.115  1.00  0.00    -0.000 C 
BRANCH  13  14
ATOM     14  C   UNL     1       7.315  -2.987  16.596  1.00  0.00    -0.000 C 
BRANCH  14  15
ATOM     15  C   UNL     1       8.676  -2.460  16.115  1.00  0.00    -0.003 C 
ATOM     16  C   UNL     1       9.629  -3.581  15.700  1.00  0.00     0.004 C 
ENDBRANCH  14  15
ENDBRANCH  13  14
ENDBRANCH  12  13
ENDBRANCH  11  12
ENDBRANCH  10  11
ENDBRANCH   1  10
TORSDOF 12
ENDMDL
MODEL 8
REMARK VINA RESULT:    -3.045      9.961     12.081
REMARK INTER + INTRA:          -6.543
REMARK INTER:                  -4.767
REMARK INTRA:                  -1.776
REMARK UNBOUND:                -1.361
REMARK SMILES CCCCCCCCCCCCCC(=O)[O-]
REMARK SMILES IDX 8 1 9 2 10 3 11 4 12 5 13 6 14 7 15 8 16 9 7 10 6 11 5 12
REMARK SMILES IDX 4 13 3 14 2 15 1 16
REMARK H PARENT
REMARK Flexibility Score: inf
ROOT
ATOM      1  C   UNL     1      -0.071  -1.748  24.789  1.00  0.00     0.000 C 
ENDROOT
BRANCH   1   2
ATOM      2  C   UNL     1       0.748  -2.588  23.796  1.00  0.00     0.000 C 
BRANCH   2   3
ATOM      3  C   UNL     1       1.384  -3.826  24.449  1.00  0.00     0.000 C 
BRANCH   3   4
ATOM      4  C   UNL     1       0.743  -5.140  23.970  1.00  0.00     0.000 C 
BRANCH   4   5
ATOM      5  C   UNL     1       0.069  -5.917  25.112  1.00  0.00     0.006 C 
BRANCH   5   6
ATOM      6  C   UNL     1      -1.276  -5.309  25.529  1.00  0.00     0.053 C 
BRANCH   6   7
ATOM      7  C   UNL     1      -1.284  -5.017  26.997  1.00  0.00     0.041 C 
ATOM      8  O   UNL     1      -1.312  -5.961  27.830  1.00  0.00    -0.550 OA
ATOM      9  O   UNL     1      -1.209  -3.705  27.446  1.00  0.00    -0.550 OA
ENDBRANCH   6   7
ENDBRANCH   5   6
ENDBRANCH   4   5
ENDBRANCH   3   4
ENDBRANCH   2   3
ENDBRANCH   1   2
BRANCH   1  10
ATOM     10  C   UNL     1      -1.556  -1.740  24.407  1.00  0.00     0.000 C 
BRANCH  10  11
ATOM     11  C   UNL     1      -1.764  -2.298  22.991  1.00  0.00    -0.000 C 
BRANCH  11  12
ATOM     12  C   UNL     1      -2.705  -1.431  22.135  1.00  0.00    -0.000 C 
BRANCH  12  13
ATOM     13  C   UNL     1      -2.076  -0.868  20.848  1.00  0.00    -0.000 C 
BRANCH  13  14
ATOM     14  C   UNL     1      -0.560  -1.115  20.767  1.00  0.00    -0.000 C 
BRANCH  14  15
ATOM     15  C   UNL     1       0.245   0.190  20.666  1.00  0.00    -0.003 C 
ATOM     16  C   UNL     1       0.620   0.758  22.034  1.00  0.00     0.004 C 
ENDBRANCH  14  15
ENDBRANCH  13  14
ENDBRANCH  12  13
ENDBRANCH  11  12
ENDBRANCH  10  11
ENDBRANCH   1  10
TORSDOF 12
ENDMDL
MODEL 9
REMARK VINA RESULT:    -3.044      2.946      5.561
REMARK INTER + INTRA:          -6.541
REMARK INTER:                  -5.327
REMARK INTRA:                  -1.215
REMARK UNBOUND:                -1.361
REMARK SMILES CCCCCCCCCCCCCC(=O)[O-]
REMARK SMILES IDX 8 1 9 2 10 3 11 4 12 5 13 6 14 7 15 8 16 9 7 10 6 11 5 12
REMARK SMILES IDX 4 13 3 14 2 15 1 16
REMARK H PARENT
REMARK Flexibility Score: inf
ROOT
ATOM      1  C   UNL     1      10.773  -3.952  20.669  1.00  0.00     0.000 C 
ENDROOT
BRANCH   1   2
ATOM      2  C   UNL     1      10.935  -5.406  20.200  1.00  0.00     0.000 C 
BRANCH   2   3
ATOM      3  C   UNL     1       9.606  -6.039  19.758  1.00  0.00     0.000 C 
BRANCH   3   4
ATOM      4  C   UNL     1       9.371  -5.922  18.242  1.00  0.00     0.000 C 
BRANCH   4   5
ATOM      5  C   UNL     1       8.205  -6.798  17.757  1.00  0.00     0.006 C 
BRANCH   5   6
ATOM      6  C   UNL     1       8.657  -8.199  17.323  1.00  0.00     0.053 C 
BRANCH   6   7
ATOM      7  C   UNL     1       7.475  -9.031  16.935  1.00  0.00     0.041 C 
ATOM      8  O   UNL     1       6.599  -8.565  16.159  1.00  0.00    -0.550 OA
ATOM      9  O   UNL     1       7.366 -10.339  17.388  1.00  0.00    -0.550 OA
ENDBRANCH   6   7
ENDBRANCH   5   6
ENDBRANCH   4   5
ENDBRANCH   3   4
ENDBRANCH   2   3
ENDBRANCH   1   2
BRANCH   1  10
ATOM     10  C   UNL     1      10.952  -2.975  19.501  1.00  0.00     0.000 C 
BRANCH  10  11
ATOM     11  C   UNL     1       9.637  -2.246  19.187  1.00  0.00    -0.000 C 
BRANCH  11  12
ATOM     12  C   UNL     1       8.724  -2.096  20.417  1.00  0.00    -0.000 C 
BRANCH  12  13
ATOM     13  C   UNL     1       7.311  -2.686  20.251  1.00  0.00    -0.000 C 
BRANCH  13  14
ATOM     14  C   UNL     1       6.905  -2.857  18.777  1.00  0.00    -0.000 C 
BRANCH  14  15
ATOM     15  C   UNL     1       5.668  -2.025  18.407  1.00  0.00    -0.003 C 
ATOM     16  C   UNL     1       5.589  -1.721  16.911  1.00  0.00     0.004 C 
ENDBRANCH  14  15
ENDBRANCH  13  14
ENDBRANCH  12  13
ENDBRANCH  11  12
ENDBRANCH  10  11
ENDBRANCH   1  10
TORSDOF 12
ENDMDL
