MODEL 1
REMARK VINA RESULT:    -7.103      0.000      0.000
REMARK INTER + INTRA:          -8.839
REMARK INTER:                  -8.556
REMARK INTRA:                  -0.282
REMARK UNBOUND:                -0.282
REMARK SMILES O=c1c(O)c(-c2ccc(O)c(O)c2)oc2cc(O)cc(O)c12
REMARK SMILES IDX 5 1 3 2 2 3 1 4 22 5 20 6 19 7 17 8 16 9 15 10 14 11 6 12
REMARK SMILES IDX 7 13 8 14 9 15 13 16 11 17 10 18 12 20 4 22 21 24 18 26
REMARK H PARENT 10 19 12 21 4 23 21 25 18 27
REMARK Flexibility Score: inf
ROOT
ATOM      1  C   UNL     1      28.036  43.569  15.475  1.00  0.00     0.180 A 
ATOM      2  C   UNL     1      29.078  44.511  15.370  1.00  0.00     0.208 A 
ATOM      3  C   UNL     1      28.818  45.745  14.754  1.00  0.00     0.238 A 
ATOM      4  O   UNL     1      29.741  46.600  14.665  1.00  0.00    -0.285 OA
ATOM      5  C   UNL     1      27.534  46.008  14.235  1.00  0.00     0.111 A 
ATOM      6  C   UNL     1      27.192  47.224  13.596  1.00  0.00     0.134 A 
ATOM      7  C   UNL     1      25.893  47.406  13.098  1.00  0.00     0.093 A 
ATOM      8  C   UNL     1      24.934  46.400  13.224  1.00  0.00     0.123 A 
ATOM      9  C   UNL     1      25.265  45.196  13.856  1.00  0.00     0.094 A 
ATOM     10  C   UNL     1      26.553  44.996  14.360  1.00  0.00     0.146 A 
ATOM     11  O   UNL     1      26.841  43.846  14.960  1.00  0.00    -0.452 OA
ENDROOT
BRANCH   1  12
ATOM     12  C   UNL     1      28.226  42.254  16.127  1.00  0.00     0.025 A 
ATOM     13  C   UNL     1      28.864  41.220  15.424  1.00  0.00     0.016 A 
ATOM     14  C   UNL     1      29.036  39.964  16.013  1.00  0.00     0.051 A 
ATOM     15  C   UNL     1      28.559  39.719  17.307  1.00  0.00     0.157 A 
ATOM     16  C   UNL     1      27.731  41.998  17.418  1.00  0.00     0.062 A 
ATOM     17  C   UNL     1      27.899  40.741  18.010  1.00  0.00     0.158 A 
BRANCH  15  18
ATOM     18  O   UNL     1      28.733  38.466  17.893  1.00  0.00    -0.504 OA
ATOM     19  H   UNL     1      28.158  37.674  17.634  1.00  0.00     0.293 HD
ENDBRANCH  15  18
BRANCH  17  20
ATOM     20  O   UNL     1      27.399  40.525  19.295  1.00  0.00    -0.504 OA
ATOM     21  H   UNL     1      27.264  39.593  19.670  1.00  0.00     0.293 HD
ENDBRANCH  17  20
ENDBRANCH   1  12
BRANCH   2  22
ATOM     22  O   UNL     1      30.355  44.206  15.848  1.00  0.00    -0.502 OA
ATOM     23  H   UNL     1      30.681  44.509  16.758  1.00  0.00     0.293 HD
ENDBRANCH   2  22
BRANCH   6  24
ATOM     24  O   UNL     1      28.128  48.249  13.452  1.00  0.00    -0.507 OA
ATOM     25  H   UNL     1      29.123  48.062  13.419  1.00  0.00     0.293 HD
ENDBRANCH   6  24
BRANCH   8  26
ATOM     26  O   UNL     1      23.651  46.606  12.720  1.00  0.00    -0.508 OA
ATOM     27  H   UNL     1      22.933  47.064  13.268  1.00  0.00     0.293 HD
ENDBRANCH   8  26
TORSDOF 6
ENDMDL
MODEL 2
REMARK VINA RESULT:    -6.924      3.412      6.172
REMARK INTER + INTRA:          -8.623
REMARK INTER:                  -8.597
REMARK INTRA:                  -0.026
REMARK UNBOUND:                -0.282
REMARK SMILES O=c1c(O)c(-c2ccc(O)c(O)c2)oc2cc(O)cc(O)c12
REMARK SMILES IDX 5 1 3 2 2 3 1 4 22 5 20 6 19 7 17 8 16 9 15 10 14 11 6 12
REMARK SMILES IDX 7 13 8 14 9 15 13 16 11 17 10 18 12 20 4 22 21 24 18 26
REMARK H PARENT 10 19 12 21 4 23 21 25 18 27
REMARK Flexibility Score: inf
ROOT
ATOM      1  C   UNL     1      25.660  44.971  14.663  1.00  0.00     0.180 A 
ATOM      2  C   UNL     1      24.716  45.297  13.671  1.00  0.00     0.208 A 
ATOM      3  C   UNL     1      23.469  44.652  13.683  1.00  0.00     0.238 A 
ATOM      4  O   UNL     1      22.612  44.946  12.806  1.00  0.00    -0.285 OA
ATOM      5  C   UNL     1      23.196  43.682  14.668  1.00  0.00     0.111 A 
ATOM      6  C   UNL     1      21.967  42.984  14.746  1.00  0.00     0.134 A 
ATOM      7  C   UNL     1      21.774  42.024  15.752  1.00  0.00     0.093 A 
ATOM      8  C   UNL     1      22.784  41.750  16.676  1.00  0.00     0.123 A 
ATOM      9  C   UNL     1      24.000  42.437  16.605  1.00  0.00     0.094 A 
ATOM     10  C   UNL     1      24.210  43.397  15.611  1.00  0.00     0.146 A 
ATOM     11  O   UNL     1      25.373  44.039  15.568  1.00  0.00    -0.452 OA
ENDROOT
BRANCH   1  12
ATOM     12  C   UNL     1      26.989  45.620  14.729  1.00  0.00     0.025 A 
ATOM     13  C   UNL     1      27.829  45.588  13.605  1.00  0.00     0.016 A 
ATOM     14  C   UNL     1      29.096  46.177  13.651  1.00  0.00     0.051 A 
ATOM     15  C   UNL     1      29.547  46.792  14.826  1.00  0.00     0.157 A 
ATOM     16  C   UNL     1      27.453  46.221  15.913  1.00  0.00     0.062 A 
ATOM     17  C   UNL     1      28.722  46.809  15.963  1.00  0.00     0.158 A 
BRANCH  15  18
ATOM     18  O   UNL     1      30.810  47.381  14.869  1.00  0.00    -0.504 OA
ATOM     19  H   UNL     1      31.142  47.867  15.693  1.00  0.00     0.293 HD
ENDBRANCH  15  18
BRANCH  17  20
ATOM     20  O   UNL     1      29.147  47.401  17.153  1.00  0.00    -0.504 OA
ATOM     21  H   UNL     1      28.563  48.046  17.672  1.00  0.00     0.293 HD
ENDBRANCH  17  20
ENDBRANCH   1  12
BRANCH   2  22
ATOM     22  O   UNL     1      25.030  46.227  12.676  1.00  0.00    -0.502 OA
ATOM     23  H   UNL     1      25.690  46.025  11.934  1.00  0.00     0.293 HD
ENDBRANCH   2  22
BRANCH   6  24
ATOM     24  O   UNL     1      20.938  43.234  13.837  1.00  0.00    -0.507 OA
ATOM     25  H   UNL     1      20.171  43.858  14.058  1.00  0.00     0.293 HD
ENDBRANCH   6  24
BRANCH   8  26
ATOM     26  O   UNL     1      22.568  40.792  17.665  1.00  0.00    -0.508 OA
ATOM     27  H   UNL     1      21.950  40.004  17.514  1.00  0.00     0.293 HD
ENDBRANCH   8  26
TORSDOF 6
ENDMDL
MODEL 3
REMARK VINA RESULT:    -6.828      3.069      5.620
REMARK INTER + INTRA:          -8.508
REMARK INTER:                  -8.213
REMARK INTRA:                  -0.295
REMARK UNBOUND:                -0.282
REMARK SMILES O=c1c(O)c(-c2ccc(O)c(O)c2)oc2cc(O)cc(O)c12
REMARK SMILES IDX 5 1 3 2 2 3 1 4 22 5 20 6 19 7 17 8 16 9 15 10 14 11 6 12
REMARK SMILES IDX 7 13 8 14 9 15 13 16 11 17 10 18 12 20 4 22 21 24 18 26
REMARK H PARENT 10 19 12 21 4 23 21 25 18 27
REMARK Flexibility Score: inf
ROOT
ATOM      1  C   UNL     1      24.739  44.785  14.009  1.00  0.00     0.180 A 
ATOM      2  C   UNL     1      24.687  46.028  13.349  1.00  0.00     0.208 A 
ATOM      3  C   UNL     1      25.819  46.859  13.377  1.00  0.00     0.238 A 
ATOM      4  O   UNL     1      25.787  47.969  12.779  1.00  0.00    -0.285 OA
ATOM      5  C   UNL     1      26.970  46.444  14.077  1.00  0.00     0.111 A 
ATOM      6  C   UNL     1      28.149  47.224  14.156  1.00  0.00     0.134 A 
ATOM      7  C   UNL     1      29.252  46.746  14.881  1.00  0.00     0.093 A 
ATOM      8  C   UNL     1      29.198  45.509  15.526  1.00  0.00     0.123 A 
ATOM      9  C   UNL     1      28.035  44.734  15.451  1.00  0.00     0.094 A 
ATOM     10  C   UNL     1      26.927  45.193  14.733  1.00  0.00     0.146 A 
ATOM     11  O   UNL     1      25.838  44.435  14.673  1.00  0.00    -0.452 OA
ENDROOT
BRANCH   1  12
ATOM     12  C   UNL     1      23.595  43.847  14.010  1.00  0.00     0.025 A 
ATOM     13  C   UNL     1      23.568  42.790  13.085  1.00  0.00     0.016 A 
ATOM     14  C   UNL     1      22.487  41.904  13.054  1.00  0.00     0.051 A 
ATOM     15  C   UNL     1      21.411  42.071  13.936  1.00  0.00     0.157 A 
ATOM     16  C   UNL     1      22.503  44.022  14.879  1.00  0.00     0.062 A 
ATOM     17  C   UNL     1      21.418  43.138  14.849  1.00  0.00     0.158 A 
BRANCH  15  18
ATOM     18  O   UNL     1      20.335  41.185  13.904  1.00  0.00    -0.504 OA
ATOM     19  H   UNL     1      19.393  41.500  13.706  1.00  0.00     0.293 HD
ENDBRANCH  15  18
BRANCH  17  20
ATOM     20  O   UNL     1      20.355  43.341  15.730  1.00  0.00    -0.504 OA
ATOM     21  H   UNL     1      19.575  43.945  15.501  1.00  0.00     0.293 HD
ENDBRANCH  17  20
ENDBRANCH   1  12
BRANCH   2  22
ATOM     22  O   UNL     1      23.517  46.437  12.705  1.00  0.00    -0.502 OA
ATOM     23  H   UNL     1      23.033  45.850  12.036  1.00  0.00     0.293 HD
ENDBRANCH   2  22
BRANCH   6  24
ATOM     24  O   UNL     1      28.236  48.465  13.523  1.00  0.00    -0.507 OA
ATOM     25  H   UNL     1      29.118  48.832  13.188  1.00  0.00     0.293 HD
ENDBRANCH   6  24
BRANCH   8  26
ATOM     26  O   UNL     1      30.305  45.058  16.240  1.00  0.00    -0.508 OA
ATOM     27  H   UNL     1      30.869  44.283  15.910  1.00  0.00     0.293 HD
ENDBRANCH   8  26
TORSDOF 6
ENDMDL
MODEL 4
REMARK VINA RESULT:    -6.818      9.235     10.617
REMARK INTER + INTRA:          -8.496
REMARK INTER:                  -8.232
REMARK INTRA:                  -0.264
REMARK UNBOUND:                -0.282
REMARK SMILES O=c1c(O)c(-c2ccc(O)c(O)c2)oc2cc(O)cc(O)c12
REMARK SMILES IDX 5 1 3 2 2 3 1 4 22 5 20 6 19 7 17 8 16 9 15 10 14 11 6 12
REMARK SMILES IDX 7 13 8 14 9 15 13 16 11 17 10 18 12 20 4 22 21 24 18 26
REMARK H PARENT 10 19 12 21 4 23 21 25 18 27
REMARK Flexibility Score: inf
ROOT
ATOM      1  C   UNL     1      18.020  42.092  17.981  1.00  0.00     0.180 A 
ATOM      2  C   UNL     1      18.790  43.229  17.668  1.00  0.00     0.208 A 
ATOM      3  C   UNL     1      18.137  44.392  17.231  1.00  0.00     0.238 A 
ATOM      4  O   UNL     1      18.816  45.420  16.960  1.00  0.00    -0.285 OA
ATOM      5  C   UNL     1      16.734  44.394  17.096  1.00  0.00     0.111 A 
ATOM      6  C   UNL     1      16.000  45.523  16.658  1.00  0.00     0.134 A 
ATOM      7  C   UNL     1      14.604  45.442  16.540  1.00  0.00     0.093 A 
ATOM      8  C   UNL     1      13.930  44.259  16.848  1.00  0.00     0.123 A 
ATOM      9  C   UNL     1      14.650  43.140  17.282  1.00  0.00     0.094 A 
ATOM     10  C   UNL     1      16.041  43.201  17.407  1.00  0.00     0.146 A 
ATOM     11  O   UNL     1      16.699  42.126  17.826  1.00  0.00    -0.452 OA
ENDROOT
BRANCH   1  12
ATOM     12  C   UNL     1      18.634  40.835  18.464  1.00  0.00     0.025 A 
ATOM     13  C   UNL     1      19.279  39.986  17.551  1.00  0.00     0.016 A 
ATOM     14  C   UNL     1      19.847  38.784  17.982  1.00  0.00     0.051 A 
ATOM     15  C   UNL     1      19.765  38.406  19.329  1.00  0.00     0.157 A 
ATOM     16  C   UNL     1      18.536  40.443  19.811  1.00  0.00     0.062 A 
ATOM     17  C   UNL     1      19.102  39.239  20.246  1.00  0.00     0.158 A 
BRANCH  15  18
ATOM     18  O   UNL     1      20.335  37.208  19.757  1.00  0.00    -0.504 OA
ATOM     19  H   UNL     1      20.510  36.445  19.114  1.00  0.00     0.293 HD
ENDBRANCH  15  18
BRANCH  17  20
ATOM     20  O   UNL     1      18.990  38.885  21.591  1.00  0.00    -0.504 OA
ATOM     21  H   UNL     1      19.478  39.388  22.322  1.00  0.00     0.293 HD
ENDBRANCH  17  20
ENDBRANCH   1  12
BRANCH   2  22
ATOM     22  O   UNL     1      20.184  43.186  17.763  1.00  0.00    -0.502 OA
ATOM     23  H   UNL     1      20.694  43.686  18.481  1.00  0.00     0.293 HD
ENDBRANCH   2  22
BRANCH   6  24
ATOM     24  O   UNL     1      16.643  46.721  16.341  1.00  0.00    -0.507 OA
ATOM     25  H   UNL     1      17.386  46.761  15.654  1.00  0.00     0.293 HD
ENDBRANCH   6  24
BRANCH   8  26
ATOM     26  O   UNL     1      12.544  44.204  16.721  1.00  0.00    -0.508 OA
ATOM     27  H   UNL     1      12.018  44.969  16.315  1.00  0.00     0.293 HD
ENDBRANCH   8  26
TORSDOF 6
ENDMDL
MODEL 5
REMARK VINA RESULT:    -6.573     10.175     13.490
REMARK INTER + INTRA:          -8.200
REMARK INTER:                  -7.876
REMARK INTRA:                  -0.324
REMARK UNBOUND:                -0.282
REMARK SMILES O=c1c(O)c(-c2ccc(O)c(O)c2)oc2cc(O)cc(O)c12
REMARK SMILES IDX 5 1 3 2 2 3 1 4 22 5 20 6 19 7 17 8 16 9 15 10 14 11 6 12
REMARK SMILES IDX 7 13 8 14 9 15 13 16 11 17 10 18 12 20 4 22 21 24 18 26
REMARK H PARENT 10 19 12 21 4 23 21 25 18 27
REMARK Flexibility Score: inf
ROOT
ATOM      1  C   UNL     1      15.854  45.844  18.009  1.00  0.00     0.180 A 
ATOM      2  C   UNL     1      15.302  44.551  17.914  1.00  0.00     0.208 A 
ATOM      3  C   UNL     1      16.074  43.524  17.349  1.00  0.00     0.238 A 
ATOM      4  O   UNL     1      15.593  42.361  17.270  1.00  0.00    -0.285 OA
ATOM      5  C   UNL     1      17.370  43.807  16.873  1.00  0.00     0.111 A 
ATOM      6  C   UNL     1      18.210  42.830  16.288  1.00  0.00     0.134 A 
ATOM      7  C   UNL     1      19.485  43.193  15.829  1.00  0.00     0.093 A 
ATOM      8  C   UNL     1      19.935  44.509  15.943  1.00  0.00     0.123 A 
ATOM      9  C   UNL     1      19.110  45.480  16.521  1.00  0.00     0.094 A 
ATOM     10  C   UNL     1      17.837  45.137  16.985  1.00  0.00     0.146 A 
ATOM     11  O   UNL     1      17.075  46.077  17.535  1.00  0.00    -0.452 OA
ENDROOT
BRANCH   1  12
ATOM     12  C   UNL     1      15.110  46.975  18.608  1.00  0.00     0.025 A 
ATOM     13  C   UNL     1      15.181  47.190  19.994  1.00  0.00     0.016 A 
ATOM     14  C   UNL     1      14.470  48.239  20.584  1.00  0.00     0.051 A 
ATOM     15  C   UNL     1      13.667  49.078  19.800  1.00  0.00     0.157 A 
ATOM     16  C   UNL     1      14.287  47.806  17.828  1.00  0.00     0.062 A 
ATOM     17  C   UNL     1      13.573  48.856  18.416  1.00  0.00     0.158 A 
BRANCH  15  18
ATOM     18  O   UNL     1      12.961  50.125  20.391  1.00  0.00    -0.504 OA
ATOM     19  H   UNL     1      11.996  50.018  20.681  1.00  0.00     0.293 HD
ENDBRANCH  15  18
BRANCH  17  20
ATOM     20  O   UNL     1      12.770  49.664  17.610  1.00  0.00    -0.504 OA
ATOM     21  H   UNL     1      12.119  49.276  16.938  1.00  0.00     0.293 HD
ENDBRANCH  17  20
ENDBRANCH   1  12
BRANCH   2  22
ATOM     22  O   UNL     1      13.996  44.308  18.348  1.00  0.00    -0.502 OA
ATOM     23  H   UNL     1      13.394  43.627  17.901  1.00  0.00     0.293 HD
ENDBRANCH   2  22
BRANCH   6  24
ATOM     24  O   UNL     1      17.790  41.504  16.158  1.00  0.00    -0.507 OA
ATOM     25  H   UNL     1      18.270  40.745  16.625  1.00  0.00     0.293 HD
ENDBRANCH   6  24
BRANCH   8  26
ATOM     26  O   UNL     1      21.205  44.844  15.479  1.00  0.00    -0.508 OA
ATOM     27  H   UNL     1      21.421  45.778  15.151  1.00  0.00     0.293 HD
ENDBRANCH   8  26
TORSDOF 6
ENDMDL
MODEL 6
REMARK VINA RESULT:    -6.512      8.441     11.760
REMARK INTER + INTRA:          -8.127
REMARK INTER:                  -7.814
REMARK INTRA:                  -0.312
REMARK UNBOUND:                -0.282
REMARK SMILES O=c1c(O)c(-c2ccc(O)c(O)c2)oc2cc(O)cc(O)c12
REMARK SMILES IDX 5 1 3 2 2 3 1 4 22 5 20 6 19 7 17 8 16 9 15 10 14 11 6 12
REMARK SMILES IDX 7 13 8 14 9 15 13 16 11 17 10 18 12 20 4 22 21 24 18 26
REMARK H PARENT 10 19 12 21 4 23 21 25 18 27
REMARK Flexibility Score: inf
ROOT
ATOM      1  C   UNL     1      18.812  40.771  16.839  1.00  0.00     0.180 A 
ATOM      2  C   UNL     1      17.654  41.120  17.561  1.00  0.00     0.208 A 
ATOM      3  C   UNL     1      17.477  40.600  18.853  1.00  0.00     0.238 A 
ATOM      4  O   UNL     1      16.450  40.916  19.513  1.00  0.00    -0.285 OA
ATOM      5  C   UNL     1      18.446  39.729  19.392  1.00  0.00     0.111 A 
ATOM      6  C   UNL     1      18.341  39.159  20.684  1.00  0.00     0.134 A 
ATOM      7  C   UNL     1      19.343  38.293  21.146  1.00  0.00     0.093 A 
ATOM      8  C   UNL     1      20.443  37.984  20.343  1.00  0.00     0.123 A 
ATOM      9  C   UNL     1      20.553  38.545  19.066  1.00  0.00     0.094 A 
ATOM     10  C   UNL     1      19.565  39.411  18.589  1.00  0.00     0.146 A 
ATOM     11  O   UNL     1      19.697  39.934  17.374  1.00  0.00    -0.452 OA
ENDROOT
BRANCH   1  12
ATOM     12  C   UNL     1      19.079  41.293  15.480  1.00  0.00     0.025 A 
ATOM     13  C   UNL     1      19.649  42.567  15.329  1.00  0.00     0.016 A 
ATOM     14  C   UNL     1      19.890  43.088  14.055  1.00  0.00     0.051 A 
ATOM     15  C   UNL     1      19.551  42.349  12.913  1.00  0.00     0.157 A 
ATOM     16  C   UNL     1      18.721  40.563  14.332  1.00  0.00     0.062 A 
ATOM     17  C   UNL     1      18.959  41.083  13.055  1.00  0.00     0.158 A 
BRANCH  15  18
ATOM     18  O   UNL     1      19.794  42.871  11.644  1.00  0.00    -0.504 OA
ATOM     19  H   UNL     1      20.205  43.788  11.516  1.00  0.00     0.293 HD
ENDBRANCH  15  18
BRANCH  17  20
ATOM     20  O   UNL     1      18.596  40.329  11.938  1.00  0.00    -0.504 OA
ATOM     21  H   UNL     1      19.136  40.344  11.081  1.00  0.00     0.293 HD
ENDBRANCH  17  20
ENDBRANCH   1  12
BRANCH   2  22
ATOM     22  O   UNL     1      16.685  41.946  16.985  1.00  0.00    -0.502 OA
ATOM     23  H   UNL     1      16.213  42.675  17.507  1.00  0.00     0.293 HD
ENDBRANCH   2  22
BRANCH   6  24
ATOM     24  O   UNL     1      17.253  39.447  21.510  1.00  0.00    -0.507 OA
ATOM     25  H   UNL     1      16.379  39.798  21.138  1.00  0.00     0.293 HD
ENDBRANCH   6  24
BRANCH   8  26
ATOM     26  O   UNL     1      21.423  37.120  20.825  1.00  0.00    -0.508 OA
ATOM     27  H   UNL     1      21.688  37.110  21.803  1.00  0.00     0.293 HD
ENDBRANCH   8  26
TORSDOF 6
ENDMDL
MODEL 7
REMARK VINA RESULT:    -6.467      1.733      3.573
REMARK INTER + INTRA:          -8.073
REMARK INTER:                  -7.878
REMARK INTRA:                  -0.194
REMARK UNBOUND:                -0.282
REMARK SMILES O=c1c(O)c(-c2ccc(O)c(O)c2)oc2cc(O)cc(O)c12
REMARK SMILES IDX 5 1 3 2 2 3 1 4 22 5 20 6 19 7 17 8 16 9 15 10 14 11 6 12
REMARK SMILES IDX 7 13 8 14 9 15 13 16 11 17 10 18 12 20 4 22 21 24 18 26
REMARK H PARENT 10 19 12 21 4 23 21 25 18 27
REMARK Flexibility Score: inf
ROOT
ATOM      1  C   UNL     1      26.661  43.265  15.515  1.00  0.00     0.180 A 
ATOM      2  C   UNL     1      25.630  43.896  14.793  1.00  0.00     0.208 A 
ATOM      3  C   UNL     1      25.876  45.152  14.217  1.00  0.00     0.238 A 
ATOM      4  O   UNL     1      24.963  45.722  13.559  1.00  0.00    -0.285 OA
ATOM      5  C   UNL     1      27.135  45.763  14.387  1.00  0.00     0.111 A 
ATOM      6  C   UNL     1      27.462  47.028  13.843  1.00  0.00     0.134 A 
ATOM      7  C   UNL     1      28.736  47.573  14.065  1.00  0.00     0.093 A 
ATOM      8  C   UNL     1      29.685  46.881  14.820  1.00  0.00     0.123 A 
ATOM      9  C   UNL     1      29.368  45.630  15.360  1.00  0.00     0.094 A 
ATOM     10  C   UNL     1      28.105  45.070  15.148  1.00  0.00     0.146 A 
ATOM     11  O   UNL     1      27.832  43.878  15.668  1.00  0.00    -0.452 OA
ENDROOT
BRANCH   1  12
ATOM     12  C   UNL     1      26.485  41.933  16.136  1.00  0.00     0.025 A 
ATOM     13  C   UNL     1      25.634  41.795  17.244  1.00  0.00     0.016 A 
ATOM     14  C   UNL     1      25.469  40.550  17.859  1.00  0.00     0.051 A 
ATOM     15  C   UNL     1      26.164  39.430  17.385  1.00  0.00     0.157 A 
ATOM     16  C   UNL     1      27.197  40.810  15.676  1.00  0.00     0.062 A 
ATOM     17  C   UNL     1      27.035  39.563  16.291  1.00  0.00     0.158 A 
BRANCH  15  18
ATOM     18  O   UNL     1      25.996  38.190  17.999  1.00  0.00    -0.504 OA
ATOM     19  H   UNL     1      26.527  37.928  18.821  1.00  0.00     0.293 HD
ENDBRANCH  15  18
BRANCH  17  20
ATOM     20  O   UNL     1      27.753  38.470  15.804  1.00  0.00    -0.504 OA
ATOM     21  H   UNL     1      28.703  38.559  15.465  1.00  0.00     0.293 HD
ENDBRANCH  17  20
ENDBRANCH   1  12
BRANCH   2  22
ATOM     22  O   UNL     1      24.375  43.292  14.681  1.00  0.00    -0.502 OA
ATOM     23  H   UNL     1      23.558  43.642  15.168  1.00  0.00     0.293 HD
ENDBRANCH   2  22
BRANCH   6  24
ATOM     24  O   UNL     1      26.535  47.746  13.085  1.00  0.00    -0.507 OA
ATOM     25  H   UNL     1      26.553  47.736  12.073  1.00  0.00     0.293 HD
ENDBRANCH   6  24
BRANCH   8  26
ATOM     26  O   UNL     1      30.942  47.445  15.027  1.00  0.00    -0.508 OA
ATOM     27  H   UNL     1      31.059  48.441  15.171  1.00  0.00     0.293 HD
ENDBRANCH   8  26
TORSDOF 6
ENDMDL
MODEL 8
REMARK VINA RESULT:    -6.428      9.493     11.962
REMARK INTER + INTRA:          -8.025
REMARK INTER:                  -7.707
REMARK INTRA:                  -0.319
REMARK UNBOUND:                -0.282
REMARK SMILES O=c1c(O)c(-c2ccc(O)c(O)c2)oc2cc(O)cc(O)c12
REMARK SMILES IDX 5 1 3 2 2 3 1 4 22 5 20 6 19 7 17 8 16 9 15 10 14 11 6 12
REMARK SMILES IDX 7 13 8 14 9 15 13 16 11 17 10 18 12 20 4 22 21 24 18 26
REMARK H PARENT 10 19 12 21 4 23 21 25 18 27
REMARK Flexibility Score: inf
ROOT
ATOM      1  C   UNL     1      18.356  40.735  17.402  1.00  0.00     0.180 A 
ATOM      2  C   UNL     1      18.766  40.261  16.140  1.00  0.00     0.208 A 
ATOM      3  C   UNL     1      19.654  39.176  16.079  1.00  0.00     0.238 A 
ATOM      4  O   UNL     1      20.019  38.736  14.955  1.00  0.00    -0.285 OA
ATOM      5  C   UNL     1      20.131  38.598  17.273  1.00  0.00     0.111 A 
ATOM      6  C   UNL     1      21.031  37.506  17.299  1.00  0.00     0.134 A 
ATOM      7  C   UNL     1      21.468  36.992  18.529  1.00  0.00     0.093 A 
ATOM      8  C   UNL     1      21.026  37.549  19.731  1.00  0.00     0.123 A 
ATOM      9  C   UNL     1      20.136  38.629  19.712  1.00  0.00     0.094 A 
ATOM     10  C   UNL     1      19.688  39.153  18.497  1.00  0.00     0.146 A 
ATOM     11  O   UNL     1      18.840  40.175  18.507  1.00  0.00    -0.452 OA
ENDROOT
BRANCH   1  12
ATOM     12  C   UNL     1      17.408  41.863  17.548  1.00  0.00     0.025 A 
ATOM     13  C   UNL     1      16.033  41.599  17.650  1.00  0.00     0.016 A 
ATOM     14  C   UNL     1      15.118  42.649  17.768  1.00  0.00     0.051 A 
ATOM     15  C   UNL     1      15.563  43.978  17.770  1.00  0.00     0.157 A 
ATOM     16  C   UNL     1      17.848  43.198  17.530  1.00  0.00     0.062 A 
ATOM     17  C   UNL     1      16.934  44.252  17.646  1.00  0.00     0.158 A 
BRANCH  15  18
ATOM     18  O   UNL     1      14.648  45.023  17.890  1.00  0.00    -0.504 OA
ATOM     19  H   UNL     1      13.650  44.866  17.814  1.00  0.00     0.293 HD
ENDBRANCH  15  18
BRANCH  17  20
ATOM     20  O   UNL     1      17.409  45.564  17.630  1.00  0.00    -0.504 OA
ATOM     21  H   UNL     1      17.093  46.241  16.946  1.00  0.00     0.293 HD
ENDBRANCH  17  20
ENDBRANCH   1  12
BRANCH   2  22
ATOM     22  O   UNL     1      18.317  40.883  14.972  1.00  0.00    -0.502 OA
ATOM     23  H   UNL     1      18.245  40.392  14.089  1.00  0.00     0.293 HD
ENDBRANCH   2  22
BRANCH   6  24
ATOM     24  O   UNL     1      21.494  36.927  16.115  1.00  0.00    -0.507 OA
ATOM     25  H   UNL     1      21.959  37.473  15.401  1.00  0.00     0.293 HD
ENDBRANCH   6  24
BRANCH   8  26
ATOM     26  O   UNL     1      21.475  37.022  20.939  1.00  0.00    -0.508 OA
ATOM     27  H   UNL     1      21.798  37.619  21.691  1.00  0.00     0.293 HD
ENDBRANCH   8  26
TORSDOF 6
ENDMDL
MODEL 9
REMARK VINA RESULT:    -6.350      9.577     12.035
REMARK INTER + INTRA:          -7.932
REMARK INTER:                  -7.837
REMARK INTRA:                  -0.094
REMARK UNBOUND:                -0.282
REMARK SMILES O=c1c(O)c(-c2ccc(O)c(O)c2)oc2cc(O)cc(O)c12
REMARK SMILES IDX 5 1 3 2 2 3 1 4 22 5 20 6 19 7 17 8 16 9 15 10 14 11 6 12
REMARK SMILES IDX 7 13 8 14 9 15 13 16 11 17 10 18 12 20 4 22 21 24 18 26
REMARK H PARENT 10 19 12 21 4 23 21 25 18 27
REMARK Flexibility Score: inf
ROOT
ATOM      1  C   UNL     1      17.238  44.057  16.930  1.00  0.00     0.180 A 
ATOM      2  C   UNL     1      16.468  45.186  16.590  1.00  0.00     0.208 A 
ATOM      3  C   UNL     1      15.294  45.450  17.313  1.00  0.00     0.238 A 
ATOM      4  O   UNL     1      14.603  46.465  17.024  1.00  0.00    -0.285 OA
ATOM      5  C   UNL     1      14.901  44.574  18.346  1.00  0.00     0.111 A 
ATOM      6  C   UNL     1      13.730  44.766  19.119  1.00  0.00     0.134 A 
ATOM      7  C   UNL     1      13.401  43.844  20.124  1.00  0.00     0.093 A 
ATOM      8  C   UNL     1      14.216  42.737  20.369  1.00  0.00     0.123 A 
ATOM      9  C   UNL     1      15.374  42.542  19.608  1.00  0.00     0.094 A 
ATOM     10  C   UNL     1      15.719  43.451  18.604  1.00  0.00     0.146 A 
ATOM     11  O   UNL     1      16.827  43.245  17.900  1.00  0.00    -0.452 OA
ENDROOT
BRANCH   1  12
ATOM     12  C   UNL     1      18.497  43.723  16.227  1.00  0.00     0.025 A 
ATOM     13  C   UNL     1      18.664  42.439  15.684  1.00  0.00     0.016 A 
ATOM     14  C   UNL     1      19.853  42.095  15.034  1.00  0.00     0.051 A 
ATOM     15  C   UNL     1      20.897  43.023  14.932  1.00  0.00     0.157 A 
ATOM     16  C   UNL     1      19.556  44.645  16.140  1.00  0.00     0.062 A 
ATOM     17  C   UNL     1      20.748  44.303  15.492  1.00  0.00     0.158 A 
BRANCH  15  18
ATOM     18  O   UNL     1      22.081  42.678  14.281  1.00  0.00    -0.504 OA
ATOM     19  H   UNL     1      22.907  42.396  14.796  1.00  0.00     0.293 HD
ENDBRANCH  15  18
BRANCH  17  20
ATOM     20  O   UNL     1      21.774  45.245  15.420  1.00  0.00    -0.504 OA
ATOM     21  H   UNL     1      21.594  46.241  15.474  1.00  0.00     0.293 HD
ENDBRANCH  17  20
ENDBRANCH   1  12
BRANCH   2  22
ATOM     22  O   UNL     1      16.854  46.011  15.529  1.00  0.00    -0.502 OA
ATOM     23  H   UNL     1      16.391  45.989  14.628  1.00  0.00     0.293 HD
ENDBRANCH   2  22
BRANCH   6  24
ATOM     24  O   UNL     1      12.894  45.862  18.898  1.00  0.00    -0.507 OA
ATOM     25  H   UNL     1      13.094  46.773  19.292  1.00  0.00     0.293 HD
ENDBRANCH   6  24
BRANCH   8  26
ATOM     26  O   UNL     1      13.866  41.836  21.372  1.00  0.00    -0.508 OA
ATOM     27  H   UNL     1      13.910  40.834  21.224  1.00  0.00     0.293 HD
ENDBRANCH   8  26
TORSDOF 6
ENDMDL
