MODEL 1
REMARK VINA RESULT:    -4.927      0.000      0.000
REMARK INTER + INTRA:          -6.055
REMARK INTER:                  -5.791
REMARK INTRA:                  -0.265
REMARK UNBOUND:                -0.265
REMARK SMILES O=c1cc(-c2ccc(O)c(O)c2)oc2cc(O)cc(O)c12
REMARK SMILES IDX 4 1 3 2 2 3 1 4 21 5 19 6 18 7 16 8 15 9 14 10 13 11 5 12
REMARK SMILES IDX 6 13 7 14 8 15 12 16 10 17 9 18 11 20 20 22 17 24
REMARK H PARENT 9 19 11 21 20 23 17 25
REMARK Flexibility Score: inf
ROOT
ATOM      1  C   UNL     1       7.630 176.140  46.008  1.00  0.00     0.138 A 
ATOM      2  C   UNL     1       7.005 174.952  46.419  1.00  0.00     0.100 A 
ATOM      3  C   UNL     1       5.768 174.602  45.875  1.00  0.00     0.197 A 
ATOM      4  O   UNL     1       5.214 173.534  46.251  1.00  0.00    -0.289 OA
ATOM      5  C   UNL     1       5.164 175.448  44.923  1.00  0.00     0.107 A 
ATOM      6  C   UNL     1       3.914 175.168  44.322  1.00  0.00     0.134 A 
ATOM      7  C   UNL     1       3.377 176.064  43.386  1.00  0.00     0.093 A 
ATOM      8  C   UNL     1       4.066 177.234  43.042  1.00  0.00     0.123 A 
ATOM      9  C   UNL     1       5.298 177.514  43.634  1.00  0.00     0.094 A 
ATOM     10  C   UNL     1       5.851 176.633  44.568  1.00  0.00     0.146 A 
ATOM     11  O   UNL     1       7.028 176.922  45.115  1.00  0.00    -0.456 OA
ENDROOT
BRANCH   1  12
ATOM     12  C   UNL     1       8.945 176.563  46.555  1.00  0.00     0.021 A 
ATOM     13  C   UNL     1       9.017 177.702  47.375  1.00  0.00     0.016 A 
ATOM     14  C   UNL     1      10.243 178.125  47.896  1.00  0.00     0.051 A 
ATOM     15  C   UNL     1      11.417 177.427  47.600  1.00  0.00     0.157 A 
ATOM     16  C   UNL     1      10.131 175.871  46.248  1.00  0.00     0.062 A 
ATOM     17  C   UNL     1      11.363 176.296  46.769  1.00  0.00     0.158 A 
BRANCH  15  18
ATOM     18  O   UNL     1      12.624 177.872  48.136  1.00  0.00    -0.504 OA
ATOM     19  H   UNL     1      12.840 178.858  48.230  1.00  0.00     0.293 HD
ENDBRANCH  15  18
BRANCH  17  20
ATOM     20  O   UNL     1      12.532 175.602  46.460  1.00  0.00    -0.504 OA
ATOM     21  H   UNL     1      13.447 175.976  46.683  1.00  0.00     0.293 HD
ENDBRANCH  17  20
ENDBRANCH   1  12
BRANCH   6  22
ATOM     22  O   UNL     1       3.205 174.011  44.645  1.00  0.00    -0.507 OA
ATOM     23  H   UNL     1       2.504 173.624  44.024  1.00  0.00     0.293 HD
ENDBRANCH   6  22
BRANCH   8  24
ATOM     24  O   UNL     1       3.531 178.125  42.114  1.00  0.00    -0.508 OA
ATOM     25  H   UNL     1       2.889 178.858  42.391  1.00  0.00     0.293 HD
ENDBRANCH   8  24
TORSDOF 5
ENDMDL
MODEL 2
REMARK VINA RESULT:    -2.626     21.222     23.530
REMARK INTER + INTRA:          -3.352
REMARK INTER:                  -3.069
REMARK INTRA:                  -0.283
REMARK UNBOUND:                -0.265
REMARK SMILES O=c1cc(-c2ccc(O)c(O)c2)oc2cc(O)cc(O)c12
REMARK SMILES IDX 4 1 3 2 2 3 1 4 21 5 19 6 18 7 16 8 15 9 14 10 13 11 5 12
REMARK SMILES IDX 6 13 7 14 8 15 12 16 10 17 9 18 11 20 20 22 17 24
REMARK H PARENT 9 19 11 21 20 23 17 25
REMARK Flexibility Score: inf
ROOT
ATOM      1  C   UNL     1      17.983 159.251  35.118  1.00  0.00     0.138 A 
ATOM      2  C   UNL     1      18.880 158.552  34.293  1.00  0.00     0.100 A 
ATOM      3  C   UNL     1      20.232 158.503  34.634  1.00  0.00     0.197 A 
ATOM      4  O   UNL     1      21.030 157.875  33.887  1.00  0.00    -0.289 OA
ATOM      5  C   UNL     1      20.679 159.158  35.799  1.00  0.00     0.107 A 
ATOM      6  C   UNL     1      22.030 159.158  36.218  1.00  0.00     0.134 A 
ATOM      7  C   UNL     1      22.396 159.839  37.388  1.00  0.00     0.093 A 
ATOM      8  C   UNL     1      21.435 160.521  38.146  1.00  0.00     0.123 A 
ATOM      9  C   UNL     1      20.101 160.525  37.736  1.00  0.00     0.094 A 
ATOM     10  C   UNL     1      19.717 159.851  36.573  1.00  0.00     0.146 A 
ATOM     11  O   UNL     1      18.440 159.867  36.206  1.00  0.00    -0.456 OA
ENDROOT
BRANCH   1  12
ATOM     12  C   UNL     1      16.534 159.337  34.803  1.00  0.00     0.021 A 
ATOM     13  C   UNL     1      15.800 158.156  34.603  1.00  0.00     0.016 A 
ATOM     14  C   UNL     1      14.437 158.211  34.299  1.00  0.00     0.051 A 
ATOM     15  C   UNL     1      13.787 159.442  34.178  1.00  0.00     0.157 A 
ATOM     16  C   UNL     1      15.879 160.576  34.667  1.00  0.00     0.062 A 
ATOM     17  C   UNL     1      14.511 160.631  34.359  1.00  0.00     0.158 A 
BRANCH  15  18
ATOM     18  O   UNL     1      12.427 159.463  33.875  1.00  0.00    -0.504 OA
ATOM     19  H   UNL     1      11.889 160.322  33.874  1.00  0.00     0.293 HD
ENDBRANCH  15  18
BRANCH  17  20
ATOM     20  O   UNL     1      13.872 161.863  34.229  1.00  0.00    -0.504 OA
ATOM     21  H   UNL     1      12.898 161.930  33.953  1.00  0.00     0.293 HD
ENDBRANCH  17  20
ENDBRANCH   1  12
BRANCH   6  22
ATOM     22  O   UNL     1      23.010 158.488  35.483  1.00  0.00    -0.507 OA
ATOM     23  H   UNL     1      22.873 158.247  34.508  1.00  0.00     0.293 HD
ENDBRANCH   6  22
BRANCH   8  24
ATOM     24  O   UNL     1      21.799 161.199  39.308  1.00  0.00    -0.508 OA
ATOM     25  H   UNL     1      22.238 160.720  40.085  1.00  0.00     0.293 HD
ENDBRANCH   8  24
TORSDOF 5
ENDMDL
MODEL 3
REMARK VINA RESULT:    -2.331      1.276      2.994
REMARK INTER + INTRA:          -3.004
REMARK INTER:                  -2.737
REMARK INTRA:                  -0.267
REMARK UNBOUND:                -0.265
REMARK SMILES O=c1cc(-c2ccc(O)c(O)c2)oc2cc(O)cc(O)c12
REMARK SMILES IDX 4 1 3 2 2 3 1 4 21 5 19 6 18 7 16 8 15 9 14 10 13 11 5 12
REMARK SMILES IDX 6 13 7 14 8 15 12 16 10 17 9 18 11 20 20 22 17 24
REMARK H PARENT 9 19 11 21 20 23 17 25
REMARK Flexibility Score: inf
ROOT
ATOM      1  C   UNL     1       7.761 176.571  45.790  1.00  0.00     0.138 A 
ATOM      2  C   UNL     1       7.376 177.395  44.720  1.00  0.00     0.100 A 
ATOM      3  C   UNL     1       6.148 177.180  44.094  1.00  0.00     0.197 A 
ATOM      4  O   UNL     1       5.811 177.924  43.134  1.00  0.00    -0.289 OA
ATOM      5  C   UNL     1       5.313 176.137  44.542  1.00  0.00     0.107 A 
ATOM      6  C   UNL     1       4.053 175.851  43.966  1.00  0.00     0.134 A 
ATOM      7  C   UNL     1       3.283 174.791  44.466  1.00  0.00     0.093 A 
ATOM      8  C   UNL     1       3.751 174.011  45.531  1.00  0.00     0.123 A 
ATOM      9  C   UNL     1       4.993 174.289  46.103  1.00  0.00     0.094 A 
ATOM     10  C   UNL     1       5.775 175.342  45.619  1.00  0.00     0.146 A 
ATOM     11  O   UNL     1       6.954 175.588  46.182  1.00  0.00    -0.456 OA
ENDROOT
BRANCH   1  12
ATOM     12  C   UNL     1       9.057 176.753  46.492  1.00  0.00     0.021 A 
ATOM     13  C   UNL     1      10.238 176.275  45.896  1.00  0.00     0.016 A 
ATOM     14  C   UNL     1      11.469 176.428  46.539  1.00  0.00     0.051 A 
ATOM     15  C   UNL     1      11.543 177.047  47.790  1.00  0.00     0.157 A 
ATOM     16  C   UNL     1       9.135 177.364  47.757  1.00  0.00     0.062 A 
ATOM     17  C   UNL     1      10.371 177.515  48.404  1.00  0.00     0.158 A 
BRANCH  15  18
ATOM     18  O   UNL     1      12.786 177.185  48.405  1.00  0.00    -0.504 OA
ATOM     19  H   UNL     1      13.084 176.577  49.158  1.00  0.00     0.293 HD
ENDBRANCH  15  18
BRANCH  17  20
ATOM     20  O   UNL     1      10.436 178.124  49.657  1.00  0.00    -0.504 OA
ATOM     21  H   UNL     1       9.602 178.442  50.137  1.00  0.00     0.293 HD
ENDBRANCH  17  20
ENDBRANCH   1  12
BRANCH   6  22
ATOM     22  O   UNL     1       3.561 176.610  42.903  1.00  0.00    -0.507 OA
ATOM     23  H   UNL     1       4.108 176.774  42.066  1.00  0.00     0.293 HD
ENDBRANCH   6  22
BRANCH   8  24
ATOM     24  O   UNL     1       2.987 172.957  46.028  1.00  0.00    -0.508 OA
ATOM     25  H   UNL     1       3.369 172.292  46.690  1.00  0.00     0.293 HD
ENDBRANCH   8  24
TORSDOF 5
ENDMDL
