MODEL 1
REMARK VINA RESULT:    -2.381      0.000      0.000
REMARK INTER + INTRA:          -8.319
REMARK INTER:                  -5.165
REMARK INTRA:                  -3.154
REMARK UNBOUND:                -3.154
REMARK SMILES CCCCCCCCCCCCCCCCCCCCCC(=O)[O-]
REMARK SMILES IDX 12 1 11 2 10 3 9 4 8 5 7 6 6 7 5 8 4 9 3 10 2 11 1 12 13 13
REMARK SMILES IDX 14 14 15 15 16 16 17 17 18 18 19 19 20 20 21 21 22 22 23 23
REMARK SMILES IDX 24 24
REMARK H PARENT
REMARK Flexibility Score: inf
ROOT
ATOM      1  C   UNL     1      89.951  91.094  81.852  1.00  0.00     0.000 C 
ENDROOT
BRANCH   1   2
ATOM      2  C   UNL     1      89.903  89.557  81.914  1.00  0.00     0.000 C 
BRANCH   2   3
ATOM      3  C   UNL     1      91.231  88.882  81.513  1.00  0.00     0.000 C 
BRANCH   3   4
ATOM      4  C   UNL     1      91.034  87.828  80.408  1.00  0.00    -0.000 C 
BRANCH   4   5
ATOM      5  C   UNL     1      91.456  88.332  79.019  1.00  0.00    -0.000 C 
BRANCH   5   6
ATOM      6  C   UNL     1      90.262  88.808  78.174  1.00  0.00    -0.000 C 
BRANCH   6   7
ATOM      7  C   UNL     1      89.414  87.643  77.628  1.00  0.00    -0.000 C 
BRANCH   7   8
ATOM      8  C   UNL     1      87.940  87.642  78.073  1.00  0.00    -0.000 C 
BRANCH   8   9
ATOM      9  C   UNL     1      87.689  86.782  79.321  1.00  0.00    -0.000 C 
BRANCH   9  10
ATOM     10  C   UNL     1      86.928  87.576  80.393  1.00  0.00    -0.000 C 
BRANCH  10  11
ATOM     11  C   UNL     1      85.541  88.033  79.916  1.00  0.00    -0.003 C 
ATOM     12  C   UNL     1      84.752  88.770  80.998  1.00  0.00     0.004 C 
ENDBRANCH  10  11
ENDBRANCH   9  10
ENDBRANCH   8   9
ENDBRANCH   7   8
ENDBRANCH   6   7
ENDBRANCH   5   6
ENDBRANCH   4   5
ENDBRANCH   3   4
ENDBRANCH   2   3
ENDBRANCH   1   2
BRANCH   1  13
ATOM     13  C   UNL     1      89.321  91.659  80.567  1.00  0.00     0.000 C 
BRANCH  13  14
ATOM     14  C   UNL     1      88.023  90.935  80.175  1.00  0.00     0.000 C 
BRANCH  14  15
ATOM     15  C   UNL     1      87.478  91.392  78.810  1.00  0.00     0.000 C 
BRANCH  15  16
ATOM     16  C   UNL     1      85.944  91.528  78.803  1.00  0.00     0.000 C 
BRANCH  16  17
ATOM     17  C   UNL     1      85.255  90.892  77.582  1.00  0.00     0.000 C 
BRANCH  17  18
ATOM     18  C   UNL     1      83.779  91.306  77.455  1.00  0.00     0.000 C 
BRANCH  18  19
ATOM     19  C   UNL     1      83.310  91.387  75.993  1.00  0.00     0.000 C 
BRANCH  19  20
ATOM     20  C   UNL     1      84.472  91.310  74.991  1.00  0.00     0.006 C 
BRANCH  20  21
ATOM     21  C   UNL     1      83.953  91.250  73.551  1.00  0.00     0.053 C 
BRANCH  21  22
ATOM     22  C   UNL     1      83.429  89.884  73.241  1.00  0.00     0.041 C 
ATOM     23  O   UNL     1      84.226  88.930  73.037  1.00  0.00    -0.550 OA
ATOM     24  O   UNL     1      82.060  89.649  73.238  1.00  0.00    -0.550 OA
ENDBRANCH  21  22
ENDBRANCH  20  21
ENDBRANCH  19  20
ENDBRANCH  18  19
ENDBRANCH  17  18
ENDBRANCH  16  17
ENDBRANCH  15  16
ENDBRANCH  14  15
ENDBRANCH  13  14
ENDBRANCH   1  13
TORSDOF 20
ENDMDL
MODEL 2
REMARK VINA RESULT:    -2.367      3.319      7.591
REMARK INTER + INTRA:          -8.289
REMARK INTER:                  -4.643
REMARK INTRA:                  -3.646
REMARK UNBOUND:                -3.154
REMARK SMILES CCCCCCCCCCCCCCCCCCCCCC(=O)[O-]
REMARK SMILES IDX 12 1 11 2 10 3 9 4 8 5 7 6 6 7 5 8 4 9 3 10 2 11 1 12 13 13
REMARK SMILES IDX 14 14 15 15 16 16 17 17 18 18 19 19 20 20 21 21 22 22 23 23
REMARK SMILES IDX 24 24
REMARK H PARENT
REMARK Flexibility Score: inf
ROOT
ATOM      1  C   UNL     1      84.776  90.475  76.770  1.00  0.00     0.000 C 
ENDROOT
BRANCH   1   2
ATOM      2  C   UNL     1      83.407  91.169  76.656  1.00  0.00     0.000 C 
BRANCH   2   3
ATOM      3  C   UNL     1      83.101  91.700  75.240  1.00  0.00     0.000 C 
BRANCH   3   4
ATOM      4  C   UNL     1      84.203  91.329  74.231  1.00  0.00    -0.000 C 
BRANCH   4   5
ATOM      5  C   UNL     1      83.660  90.583  73.001  1.00  0.00    -0.000 C 
BRANCH   5   6
ATOM      6  C   UNL     1      84.196  89.145  72.896  1.00  0.00    -0.000 C 
BRANCH   6   7
ATOM      7  C   UNL     1      83.087  88.083  73.016  1.00  0.00    -0.000 C 
BRANCH   7   8
ATOM      8  C   UNL     1      81.793  88.560  73.700  1.00  0.00    -0.000 C 
BRANCH   8   9
ATOM      9  C   UNL     1      81.527  87.859  75.041  1.00  0.00    -0.000 C 
BRANCH   9  10
ATOM     10  C   UNL     1      80.856  88.815  76.038  1.00  0.00    -0.000 C 
BRANCH  10  11
ATOM     11  C   UNL     1      80.922  88.300  77.484  1.00  0.00    -0.003 C 
ATOM     12  C   UNL     1      81.671  86.974  77.611  1.00  0.00     0.004 C 
ENDBRANCH  10  11
ENDBRANCH   9  10
ENDBRANCH   8   9
ENDBRANCH   7   8
ENDBRANCH   6   7
ENDBRANCH   5   6
ENDBRANCH   4   5
ENDBRANCH   3   4
ENDBRANCH   2   3
ENDBRANCH   1   2
BRANCH   1  13
ATOM     13  C   UNL     1      84.668  89.019  77.254  1.00  0.00     0.000 C 
BRANCH  13  14
ATOM     14  C   UNL     1      85.189  88.009  76.220  1.00  0.00     0.000 C 
BRANCH  14  15
ATOM     15  C   UNL     1      85.226  86.569  76.762  1.00  0.00     0.000 C 
BRANCH  15  16
ATOM     16  C   UNL     1      86.585  85.884  76.527  1.00  0.00     0.000 C 
BRANCH  16  17
ATOM     17  C   UNL     1      87.760  86.858  76.325  1.00  0.00     0.000 C 
BRANCH  17  18
ATOM     18  C   UNL     1      88.801  86.768  77.455  1.00  0.00     0.000 C 
BRANCH  18  19
ATOM     19  C   UNL     1      88.246  87.239  78.810  1.00  0.00     0.000 C 
BRANCH  19  20
ATOM     20  C   UNL     1      88.008  88.756  78.860  1.00  0.00     0.006 C 
BRANCH  20  21
ATOM     21  C   UNL     1      89.335  89.521  78.843  1.00  0.00     0.053 C 
BRANCH  21  22
ATOM     22  C   UNL     1      89.124  90.944  79.251  1.00  0.00     0.041 C 
ATOM     23  O   UNL     1      88.158  91.602  78.780  1.00  0.00    -0.550 OA
ATOM     24  O   UNL     1      89.954  91.526  80.200  1.00  0.00    -0.550 OA
ENDBRANCH  21  22
ENDBRANCH  20  21
ENDBRANCH  19  20
ENDBRANCH  18  19
ENDBRANCH  17  18
ENDBRANCH  16  17
ENDBRANCH  15  16
ENDBRANCH  14  15
ENDBRANCH  13  14
ENDBRANCH   1  13
TORSDOF 20
ENDMDL
MODEL 3
REMARK VINA RESULT:    -2.349      9.228     12.581
REMARK INTER + INTRA:          -8.250
REMARK INTER:                  -4.638
REMARK INTRA:                  -3.612
REMARK UNBOUND:                -3.154
REMARK SMILES CCCCCCCCCCCCCCCCCCCCCC(=O)[O-]
REMARK SMILES IDX 12 1 11 2 10 3 9 4 8 5 7 6 6 7 5 8 4 9 3 10 2 11 1 12 13 13
REMARK SMILES IDX 14 14 15 15 16 16 17 17 18 18 19 19 20 20 21 21 22 22 23 23
REMARK SMILES IDX 24 24
REMARK H PARENT
REMARK Flexibility Score: inf
ROOT
ATOM      1  C   UNL     1      75.671  86.425  79.853  1.00  0.00     0.000 C 
ENDROOT
BRANCH   1   2
ATOM      2  C   UNL     1      75.502  87.436  81.000  1.00  0.00     0.000 C 
BRANCH   2   3
ATOM      3  C   UNL     1      74.055  87.948  81.163  1.00  0.00     0.000 C 
BRANCH   3   4
ATOM      4  C   UNL     1      74.005  89.452  81.483  1.00  0.00    -0.000 C 
BRANCH   4   5
ATOM      5  C   UNL     1      73.514  90.299  80.298  1.00  0.00    -0.000 C 
BRANCH   5   6
ATOM      6  C   UNL     1      74.414  91.518  80.028  1.00  0.00    -0.000 C 
BRANCH   6   7
ATOM      7  C   UNL     1      75.178  91.413  78.694  1.00  0.00    -0.000 C 
BRANCH   7   8
ATOM      8  C   UNL     1      76.067  90.165  78.545  1.00  0.00    -0.000 C 
BRANCH   8   9
ATOM      9  C   UNL     1      77.363  90.248  79.366  1.00  0.00    -0.000 C 
BRANCH   9  10
ATOM     10  C   UNL     1      78.336  89.126  78.974  1.00  0.00    -0.000 C 
BRANCH  10  11
ATOM     11  C   UNL     1      77.968  88.466  77.636  1.00  0.00    -0.003 C 
ATOM     12  C   UNL     1      79.190  88.130  76.782  1.00  0.00     0.004 C 
ENDBRANCH  10  11
ENDBRANCH   9  10
ENDBRANCH   8   9
ENDBRANCH   7   8
ENDBRANCH   6   7
ENDBRANCH   5   6
ENDBRANCH   4   5
ENDBRANCH   3   4
ENDBRANCH   2   3
ENDBRANCH   1   2
BRANCH   1  13
ATOM     13  C   UNL     1      74.919  86.841  78.576  1.00  0.00     0.000 C 
BRANCH  13  14
ATOM     14  C   UNL     1      74.057  85.706  78.000  1.00  0.00     0.000 C 
BRANCH  14  15
ATOM     15  C   UNL     1      74.012  85.719  76.461  1.00  0.00     0.000 C 
BRANCH  15  16
ATOM     16  C   UNL     1      75.387  85.434  75.828  1.00  0.00     0.000 C 
BRANCH  16  17
ATOM     17  C   UNL     1      75.929  86.574  74.947  1.00  0.00     0.000 C 
BRANCH  17  18
ATOM     18  C   UNL     1      74.875  87.109  73.961  1.00  0.00     0.000 C 
BRANCH  18  19
ATOM     19  C   UNL     1      74.837  88.645  73.911  1.00  0.00     0.000 C 
BRANCH  19  20
ATOM     20  C   UNL     1      75.436  89.296  75.168  1.00  0.00     0.006 C 
BRANCH  20  21
ATOM     21  C   UNL     1      76.341  90.474  74.798  1.00  0.00     0.053 C 
BRANCH  21  22
ATOM     22  C   UNL     1      75.536  91.587  74.206  1.00  0.00     0.041 C 
ATOM     23  O   UNL     1      75.835  92.055  73.075  1.00  0.00    -0.550 OA
ATOM     24  O   UNL     1      74.417  92.067  74.874  1.00  0.00    -0.550 OA
ENDBRANCH  21  22
ENDBRANCH  20  21
ENDBRANCH  19  20
ENDBRANCH  18  19
ENDBRANCH  17  18
ENDBRANCH  16  17
ENDBRANCH  15  16
ENDBRANCH  14  15
ENDBRANCH  13  14
ENDBRANCH   1  13
TORSDOF 20
ENDMDL
MODEL 4
REMARK VINA RESULT:    -2.349      3.344      6.813
REMARK INTER + INTRA:          -8.248
REMARK INTER:                  -4.619
REMARK INTRA:                  -3.629
REMARK UNBOUND:                -3.154
REMARK SMILES CCCCCCCCCCCCCCCCCCCCCC(=O)[O-]
REMARK SMILES IDX 12 1 11 2 10 3 9 4 8 5 7 6 6 7 5 8 4 9 3 10 2 11 1 12 13 13
REMARK SMILES IDX 14 14 15 15 16 16 17 17 18 18 19 19 20 20 21 21 22 22 23 23
REMARK SMILES IDX 24 24
REMARK H PARENT
REMARK Flexibility Score: inf
ROOT
ATOM      1  C   UNL     1      83.319  89.268  73.348  1.00  0.00     0.000 C 
ENDROOT
BRANCH   1   2
ATOM      2  C   UNL     1      84.329  88.108  73.311  1.00  0.00     0.000 C 
BRANCH   2   3
ATOM      3  C   UNL     1      85.306  88.103  74.506  1.00  0.00     0.000 C 
BRANCH   3   4
ATOM      4  C   UNL     1      86.258  86.894  74.472  1.00  0.00    -0.000 C 
BRANCH   4   5
ATOM      5  C   UNL     1      87.015  86.692  75.794  1.00  0.00    -0.000 C 
BRANCH   5   6
ATOM      6  C   UNL     1      86.550  87.660  76.896  1.00  0.00    -0.000 C 
BRANCH   6   7
ATOM      7  C   UNL     1      85.889  86.939  78.086  1.00  0.00    -0.000 C 
BRANCH   7   8
ATOM      8  C   UNL     1      84.413  87.303  78.335  1.00  0.00    -0.000 C 
BRANCH   8   9
ATOM      9  C   UNL     1      83.444  86.545  77.414  1.00  0.00    -0.000 C 
BRANCH   9  10
ATOM     10  C   UNL     1      82.497  87.516  76.693  1.00  0.00    -0.000 C 
BRANCH  10  11
ATOM     11  C   UNL     1      81.657  86.826  75.608  1.00  0.00    -0.003 C 
ATOM     12  C   UNL     1      82.306  85.548  75.076  1.00  0.00     0.004 C 
ENDBRANCH  10  11
ENDBRANCH   9  10
ENDBRANCH   8   9
ENDBRANCH   7   8
ENDBRANCH   6   7
ENDBRANCH   5   6
ENDBRANCH   4   5
ENDBRANCH   3   4
ENDBRANCH   2   3
ENDBRANCH   1   2
BRANCH   1  13
ATOM     13  C   UNL     1      83.978  90.640  73.121  1.00  0.00     0.000 C 
BRANCH  13  14
ATOM     14  C   UNL     1      84.176  91.427  74.427  1.00  0.00     0.000 C 
BRANCH  14  15
ATOM     15  C   UNL     1      82.958  91.336  75.365  1.00  0.00     0.000 C 
BRANCH  15  16
ATOM     16  C   UNL     1      83.353  90.991  76.812  1.00  0.00     0.000 C 
BRANCH  16  17
ATOM     17  C   UNL     1      84.871  90.965  77.068  1.00  0.00     0.000 C 
BRANCH  17  18
ATOM     18  C   UNL     1      85.233  91.374  78.506  1.00  0.00     0.000 C 
BRANCH  18  19
ATOM     19  C   UNL     1      86.745  91.574  78.702  1.00  0.00     0.000 C 
BRANCH  19  20
ATOM     20  C   UNL     1      87.467  90.283  79.118  1.00  0.00     0.006 C 
BRANCH  20  21
ATOM     21  C   UNL     1      88.984  90.494  79.169  1.00  0.00     0.053 C 
BRANCH  21  22
ATOM     22  C   UNL     1      89.698  89.191  79.001  1.00  0.00     0.041 C 
ATOM     23  O   UNL     1      89.984  88.768  77.849  1.00  0.00    -0.550 OA
ATOM     24  O   UNL     1      90.106  88.473  80.117  1.00  0.00    -0.550 OA
ENDBRANCH  21  22
ENDBRANCH  20  21
ENDBRANCH  19  20
ENDBRANCH  18  19
ENDBRANCH  17  18
ENDBRANCH  16  17
ENDBRANCH  15  16
ENDBRANCH  14  15
ENDBRANCH  13  14
ENDBRANCH   1  13
TORSDOF 20
ENDMDL
MODEL 5
REMARK VINA RESULT:    -2.311     16.561     18.852
REMARK INTER + INTRA:          -8.168
REMARK INTER:                  -4.677
REMARK INTRA:                  -3.491
REMARK UNBOUND:                -3.154
REMARK SMILES CCCCCCCCCCCCCCCCCCCCCC(=O)[O-]
REMARK SMILES IDX 12 1 11 2 10 3 9 4 8 5 7 6 6 7 5 8 4 9 3 10 2 11 1 12 13 13
REMARK SMILES IDX 14 14 15 15 16 16 17 17 18 18 19 19 20 20 21 21 22 22 23 23
REMARK SMILES IDX 24 24
REMARK H PARENT
REMARK Flexibility Score: inf
ROOT
ATOM      1  C   UNL     1      75.805  77.070  77.027  1.00  0.00     0.000 C 
ENDROOT
BRANCH   1   2
ATOM      2  C   UNL     1      76.334  75.625  77.034  1.00  0.00     0.000 C 
BRANCH   2   3
ATOM      3  C   UNL     1      75.326  74.602  77.599  1.00  0.00     0.000 C 
BRANCH   3   4
ATOM      4  C   UNL     1      74.077  75.283  78.188  1.00  0.00    -0.000 C 
BRANCH   4   5
ATOM      5  C   UNL     1      73.010  74.277  78.648  1.00  0.00    -0.000 C 
BRANCH   5   6
ATOM      6  C   UNL     1      73.469  72.817  78.499  1.00  0.00    -0.000 C 
BRANCH   6   7
ATOM      7  C   UNL     1      73.976  72.210  79.821  1.00  0.00    -0.000 C 
BRANCH   7   8
ATOM      8  C   UNL     1      73.322  72.776  81.094  1.00  0.00    -0.000 C 
BRANCH   8   9
ATOM      9  C   UNL     1      74.325  73.476  82.025  1.00  0.00    -0.000 C 
BRANCH   9  10
ATOM     10  C   UNL     1      75.673  73.690  81.321  1.00  0.00    -0.000 C 
BRANCH  10  11
ATOM     11  C   UNL     1      76.123  75.158  81.340  1.00  0.00    -0.003 C 
ATOM     12  C   UNL     1      77.439  75.388  80.598  1.00  0.00     0.004 C 
ENDBRANCH  10  11
ENDBRANCH   9  10
ENDBRANCH   8   9
ENDBRANCH   7   8
ENDBRANCH   6   7
ENDBRANCH   5   6
ENDBRANCH   4   5
ENDBRANCH   3   4
ENDBRANCH   2   3
ENDBRANCH   1   2
BRANCH   1  13
ATOM     13  C   UNL     1      75.954  77.753  75.657  1.00  0.00     0.000 C 
BRANCH  13  14
ATOM     14  C   UNL     1      76.180  76.749  74.515  1.00  0.00     0.000 C 
BRANCH  14  15
ATOM     15  C   UNL     1      75.348  77.079  73.263  1.00  0.00     0.000 C 
BRANCH  15  16
ATOM     16  C   UNL     1      74.388  78.262  73.486  1.00  0.00     0.000 C 
BRANCH  16  17
ATOM     17  C   UNL     1      72.897  77.908  73.337  1.00  0.00     0.000 C 
BRANCH  17  18
ATOM     18  C   UNL     1      72.046  78.439  74.503  1.00  0.00     0.000 C 
BRANCH  18  19
ATOM     19  C   UNL     1      72.241  77.630  75.796  1.00  0.00     0.000 C 
BRANCH  19  20
ATOM     20  C   UNL     1      72.432  78.522  77.032  1.00  0.00     0.006 C 
BRANCH  20  21
ATOM     21  C   UNL     1      72.991  79.893  76.639  1.00  0.00     0.053 C 
BRANCH  21  22
ATOM     22  C   UNL     1      73.533  80.601  77.841  1.00  0.00     0.041 C 
ATOM     23  O   UNL     1      72.850  81.492  78.413  1.00  0.00    -0.550 OA
ATOM     24  O   UNL     1      74.764  80.233  78.367  1.00  0.00    -0.550 OA
ENDBRANCH  21  22
ENDBRANCH  20  21
ENDBRANCH  19  20
ENDBRANCH  18  19
ENDBRANCH  17  18
ENDBRANCH  16  17
ENDBRANCH  15  16
ENDBRANCH  14  15
ENDBRANCH  13  14
ENDBRANCH   1  13
TORSDOF 20
ENDMDL
MODEL 6
REMARK VINA RESULT:    -2.304      3.266      7.398
REMARK INTER + INTRA:          -8.153
REMARK INTER:                  -4.764
REMARK INTRA:                  -3.388
REMARK UNBOUND:                -3.154
REMARK SMILES CCCCCCCCCCCCCCCCCCCCCC(=O)[O-]
REMARK SMILES IDX 12 1 11 2 10 3 9 4 8 5 7 6 6 7 5 8 4 9 3 10 2 11 1 12 13 13
REMARK SMILES IDX 14 14 15 15 16 16 17 17 18 18 19 19 20 20 21 21 22 22 23 23
REMARK SMILES IDX 24 24
REMARK H PARENT
REMARK Flexibility Score: inf
ROOT
ATOM      1  C   UNL     1      84.792  89.166  78.221  1.00  0.00     0.000 C 
ENDROOT
BRANCH   1   2
ATOM      2  C   UNL     1      84.007  90.350  77.628  1.00  0.00     0.000 C 
BRANCH   2   3
ATOM      3  C   UNL     1      84.631  90.918  76.337  1.00  0.00     0.000 C 
BRANCH   3   4
ATOM      4  C   UNL     1      83.563  91.417  75.347  1.00  0.00    -0.000 C 
BRANCH   4   5
ATOM      5  C   UNL     1      83.694  90.778  73.955  1.00  0.00    -0.000 C 
BRANCH   5   6
ATOM      6  C   UNL     1      82.432  90.003  73.537  1.00  0.00    -0.000 C 
BRANCH   6   7
ATOM      7  C   UNL     1      81.785  89.238  74.707  1.00  0.00    -0.000 C 
BRANCH   7   8
ATOM      8  C   UNL     1      81.720  87.710  74.533  1.00  0.00    -0.000 C 
BRANCH   8   9
ATOM      9  C   UNL     1      83.071  87.090  74.147  1.00  0.00    -0.000 C 
BRANCH   9  10
ATOM     10  C   UNL     1      84.059  87.146  75.321  1.00  0.00    -0.000 C 
BRANCH  10  11
ATOM     11  C   UNL     1      85.462  87.601  74.892  1.00  0.00    -0.003 C 
ATOM     12  C   UNL     1      85.654  87.588  73.375  1.00  0.00     0.004 C 
ENDBRANCH  10  11
ENDBRANCH   9  10
ENDBRANCH   8   9
ENDBRANCH   7   8
ENDBRANCH   6   7
ENDBRANCH   5   6
ENDBRANCH   4   5
ENDBRANCH   3   4
ENDBRANCH   2   3
ENDBRANCH   1   2
BRANCH   1  13
ATOM     13  C   UNL     1      86.313  89.398  78.219  1.00  0.00     0.000 C 
BRANCH  13  14
ATOM     14  C   UNL     1      86.778  90.291  79.380  1.00  0.00     0.000 C 
BRANCH  14  15
ATOM     15  C   UNL     1      87.617  91.491  78.907  1.00  0.00     0.000 C 
BRANCH  15  16
ATOM     16  C   UNL     1      89.128  91.193  78.912  1.00  0.00     0.000 C 
BRANCH  16  17
ATOM     17  C   UNL     1      89.602  90.333  80.098  1.00  0.00     0.000 C 
BRANCH  17  18
ATOM     18  C   UNL     1      90.298  89.038  79.646  1.00  0.00     0.000 C 
BRANCH  18  19
ATOM     19  C   UNL     1      90.270  88.853  78.119  1.00  0.00     0.000 C 
BRANCH  19  20
ATOM     20  C   UNL     1      89.506  87.592  77.687  1.00  0.00     0.006 C 
BRANCH  20  21
ATOM     21  C   UNL     1      88.909  86.869  78.897  1.00  0.00     0.053 C 
BRANCH  21  22
ATOM     22  C   UNL     1      89.475  85.489  79.013  1.00  0.00     0.041 C 
ATOM     23  O   UNL     1      89.080  84.575  78.241  1.00  0.00    -0.550 OA
ATOM     24  O   UNL     1      90.484  85.226  79.930  1.00  0.00    -0.550 OA
ENDBRANCH  21  22
ENDBRANCH  20  21
ENDBRANCH  19  20
ENDBRANCH  18  19
ENDBRANCH  17  18
ENDBRANCH  16  17
ENDBRANCH  15  16
ENDBRANCH  14  15
ENDBRANCH  13  14
ENDBRANCH   1  13
TORSDOF 20
ENDMDL
MODEL 7
REMARK VINA RESULT:    -2.303      9.138     12.304
REMARK INTER + INTRA:          -8.150
REMARK INTER:                  -4.723
REMARK INTRA:                  -3.427
REMARK UNBOUND:                -3.154
REMARK SMILES CCCCCCCCCCCCCCCCCCCCCC(=O)[O-]
REMARK SMILES IDX 12 1 11 2 10 3 9 4 8 5 7 6 6 7 5 8 4 9 3 10 2 11 1 12 13 13
REMARK SMILES IDX 14 14 15 15 16 16 17 17 18 18 19 19 20 20 21 21 22 22 23 23
REMARK SMILES IDX 24 24
REMARK H PARENT
REMARK Flexibility Score: inf
ROOT
ATOM      1  C   UNL     1      78.430  88.770  79.424  1.00  0.00     0.000 C 
ENDROOT
BRANCH   1   2
ATOM      2  C   UNL     1      77.368  88.494  78.345  1.00  0.00     0.000 C 
BRANCH   2   3
ATOM      3  C   UNL     1      75.922  88.516  78.884  1.00  0.00     0.000 C 
BRANCH   3   4
ATOM      4  C   UNL     1      75.876  88.619  80.419  1.00  0.00    -0.000 C 
BRANCH   4   5
ATOM      5  C   UNL     1      75.404  89.996  80.911  1.00  0.00    -0.000 C 
BRANCH   5   6
ATOM      6  C   UNL     1      74.526  90.725  79.879  1.00  0.00    -0.000 C 
BRANCH   6   7
ATOM      7  C   UNL     1      73.239  91.308  80.493  1.00  0.00    -0.000 C 
BRANCH   7   8
ATOM      8  C   UNL     1      72.101  90.294  80.713  1.00  0.00    -0.000 C 
BRANCH   8   9
ATOM      9  C   UNL     1      71.921  89.902  82.187  1.00  0.00    -0.000 C 
BRANCH   9  10
ATOM     10  C   UNL     1      72.237  88.414  82.403  1.00  0.00    -0.000 C 
BRANCH  10  11
ATOM     11  C   UNL     1      73.056  88.164  83.678  1.00  0.00    -0.003 C 
ATOM     12  C   UNL     1      74.269  87.265  83.440  1.00  0.00     0.004 C 
ENDBRANCH  10  11
ENDBRANCH   9  10
ENDBRANCH   8   9
ENDBRANCH   7   8
ENDBRANCH   6   7
ENDBRANCH   5   6
ENDBRANCH   4   5
ENDBRANCH   3   4
ENDBRANCH   2   3
ENDBRANCH   1   2
BRANCH   1  13
ATOM     13  C   UNL     1      78.905  90.233  79.432  1.00  0.00     0.000 C 
BRANCH  13  14
ATOM     14  C   UNL     1      78.766  90.910  78.059  1.00  0.00     0.000 C 
BRANCH  14  15
ATOM     15  C   UNL     1      77.695  92.015  78.048  1.00  0.00     0.000 C 
BRANCH  15  16
ATOM     16  C   UNL     1      76.973  92.125  76.692  1.00  0.00     0.000 C 
BRANCH  16  17
ATOM     17  C   UNL     1      75.586  91.456  76.655  1.00  0.00     0.000 C 
BRANCH  17  18
ATOM     18  C   UNL     1      75.429  90.493  75.466  1.00  0.00     0.000 C 
BRANCH  18  19
ATOM     19  C   UNL     1      76.776  89.954  74.958  1.00  0.00     0.000 C 
BRANCH  19  20
ATOM     20  C   UNL     1      76.784  88.425  74.800  1.00  0.00     0.006 C 
BRANCH  20  21
ATOM     21  C   UNL     1      75.357  87.869  74.766  1.00  0.00     0.053 C 
BRANCH  21  22
ATOM     22  C   UNL     1      75.286  86.567  75.498  1.00  0.00     0.041 C 
ATOM     23  O   UNL     1      74.217  86.216  76.065  1.00  0.00    -0.550 OA
ATOM     24  O   UNL     1      76.379  85.711  75.500  1.00  0.00    -0.550 OA
ENDBRANCH  21  22
ENDBRANCH  20  21
ENDBRANCH  19  20
ENDBRANCH  18  19
ENDBRANCH  17  18
ENDBRANCH  16  17
ENDBRANCH  15  16
ENDBRANCH  14  15
ENDBRANCH  13  14
ENDBRANCH   1  13
TORSDOF 20
ENDMDL
MODEL 8
REMARK VINA RESULT:    -2.283      3.453      7.350
REMARK INTER + INTRA:          -8.106
REMARK INTER:                  -4.416
REMARK INTRA:                  -3.691
REMARK UNBOUND:                -3.154
REMARK SMILES CCCCCCCCCCCCCCCCCCCCCC(=O)[O-]
REMARK SMILES IDX 12 1 11 2 10 3 9 4 8 5 7 6 6 7 5 8 4 9 3 10 2 11 1 12 13 13
REMARK SMILES IDX 14 14 15 15 16 16 17 17 18 18 19 19 20 20 21 21 22 22 23 23
REMARK SMILES IDX 24 24
REMARK H PARENT
REMARK Flexibility Score: inf
ROOT
ATOM      1  C   UNL     1      84.867  85.833  77.431  1.00  0.00     0.000 C 
ENDROOT
BRANCH   1   2
ATOM      2  C   UNL     1      84.499  85.114  76.122  1.00  0.00     0.000 C 
BRANCH   2   3
ATOM      3  C   UNL     1      84.855  85.920  74.855  1.00  0.00     0.000 C 
BRANCH   3   4
ATOM      4  C   UNL     1      85.240  87.374  75.182  1.00  0.00    -0.000 C 
BRANCH   4   5
ATOM      5  C   UNL     1      85.176  88.299  73.956  1.00  0.00    -0.000 C 
BRANCH   5   6
ATOM      6  C   UNL     1      83.772  88.887  73.731  1.00  0.00    -0.000 C 
BRANCH   6   7
ATOM      7  C   UNL     1      83.785  90.418  73.561  1.00  0.00    -0.000 C 
BRANCH   7   8
ATOM      8  C   UNL     1      84.544  91.192  74.655  1.00  0.00    -0.000 C 
BRANCH   8   9
ATOM      9  C   UNL     1      83.924  91.024  76.051  1.00  0.00    -0.000 C 
BRANCH   9  10
ATOM     10  C   UNL     1      85.012  90.964  77.133  1.00  0.00    -0.000 C 
BRANCH  10  11
ATOM     11  C   UNL     1      84.448  90.622  78.520  1.00  0.00    -0.003 C 
ATOM     12  C   UNL     1      84.060  89.150  78.658  1.00  0.00     0.004 C 
ENDBRANCH  10  11
ENDBRANCH   9  10
ENDBRANCH   8   9
ENDBRANCH   7   8
ENDBRANCH   6   7
ENDBRANCH   5   6
ENDBRANCH   4   5
ENDBRANCH   3   4
ENDBRANCH   2   3
ENDBRANCH   1   2
BRANCH   1  13
ATOM     13  C   UNL     1      85.787  84.992  78.334  1.00  0.00     0.000 C 
BRANCH  13  14
ATOM     14  C   UNL     1      86.596  83.947  77.549  1.00  0.00     0.000 C 
BRANCH  14  15
ATOM     15  C   UNL     1      88.066  84.359  77.355  1.00  0.00     0.000 C 
BRANCH  15  16
ATOM     16  C   UNL     1      88.334  84.951  75.958  1.00  0.00     0.000 C 
BRANCH  16  17
ATOM     17  C   UNL     1      88.668  86.454  75.959  1.00  0.00     0.000 C 
BRANCH  17  18
ATOM     18  C   UNL     1      88.935  86.997  77.373  1.00  0.00     0.000 C 
BRANCH  18  19
ATOM     19  C   UNL     1      87.851  87.980  77.845  1.00  0.00     0.000 C 
BRANCH  19  20
ATOM     20  C   UNL     1      87.951  88.301  79.345  1.00  0.00     0.006 C 
BRANCH  20  21
ATOM     21  C   UNL     1      87.911  89.813  79.587  1.00  0.00     0.053 C 
BRANCH  21  22
ATOM     22  C   UNL     1      89.274  90.405  79.420  1.00  0.00     0.041 C 
ATOM     23  O   UNL     1      90.269  89.877  79.986  1.00  0.00    -0.550 OA
ATOM     24  O   UNL     1      89.458  91.503  78.590  1.00  0.00    -0.550 OA
ENDBRANCH  21  22
ENDBRANCH  20  21
ENDBRANCH  19  20
ENDBRANCH  18  19
ENDBRANCH  17  18
ENDBRANCH  16  17
ENDBRANCH  15  16
ENDBRANCH  14  15
ENDBRANCH  13  14
ENDBRANCH   1  13
TORSDOF 20
ENDMDL
MODEL 9
REMARK VINA RESULT:    -2.207     12.354     15.223
REMARK INTER + INTRA:          -7.941
REMARK INTER:                  -3.474
REMARK INTRA:                  -4.467
REMARK UNBOUND:                -3.154
REMARK SMILES CCCCCCCCCCCCCCCCCCCCCC(=O)[O-]
REMARK SMILES IDX 12 1 11 2 10 3 9 4 8 5 7 6 6 7 5 8 4 9 3 10 2 11 1 12 13 13
REMARK SMILES IDX 14 14 15 15 16 16 17 17 18 18 19 19 20 20 21 21 22 22 23 23
REMARK SMILES IDX 24 24
REMARK H PARENT
REMARK Flexibility Score: inf
ROOT
ATOM      1  C   UNL     1      89.210  85.331  88.722  1.00  0.00     0.000 C 
ENDROOT
BRANCH   1   2
ATOM      2  C   UNL     1      88.215  86.045  89.654  1.00  0.00     0.000 C 
BRANCH   2   3
ATOM      3  C   UNL     1      87.665  85.140  90.777  1.00  0.00     0.000 C 
BRANCH   3   4
ATOM      4  C   UNL     1      87.498  85.901  92.105  1.00  0.00    -0.000 C 
BRANCH   4   5
ATOM      5  C   UNL     1      86.574  85.176  93.096  1.00  0.00    -0.000 C 
BRANCH   5   6
ATOM      6  C   UNL     1      86.375  83.692  92.744  1.00  0.00    -0.000 C 
BRANCH   6   7
ATOM      7  C   UNL     1      84.970  83.174  93.105  1.00  0.00    -0.000 C 
BRANCH   7   8
ATOM      8  C   UNL     1      83.962  83.150  91.942  1.00  0.00    -0.000 C 
BRANCH   8   9
ATOM      9  C   UNL     1      84.635  83.043  90.564  1.00  0.00    -0.000 C 
BRANCH   9  10
ATOM     10  C   UNL     1      84.196  84.194  89.647  1.00  0.00    -0.000 C 
BRANCH  10  11
ATOM     11  C   UNL     1      85.083  84.326  88.399  1.00  0.00    -0.003 C 
ATOM     12  C   UNL     1      85.867  83.051  88.089  1.00  0.00     0.004 C 
ENDBRANCH  10  11
ENDBRANCH   9  10
ENDBRANCH   8   9
ENDBRANCH   7   8
ENDBRANCH   6   7
ENDBRANCH   5   6
ENDBRANCH   4   5
ENDBRANCH   3   4
ENDBRANCH   2   3
ENDBRANCH   1   2
BRANCH   1  13
ATOM     13  C   UNL     1      90.636  85.283  89.296  1.00  0.00     0.000 C 
BRANCH  13  14
ATOM     14  C   UNL     1      90.949  86.481  90.208  1.00  0.00     0.000 C 
BRANCH  14  15
ATOM     15  C   UNL     1      91.348  86.055  91.632  1.00  0.00     0.000 C 
BRANCH  15  16
ATOM     16  C   UNL     1      91.466  84.526  91.779  1.00  0.00     0.000 C 
BRANCH  16  17
ATOM     17  C   UNL     1      90.543  83.918  92.852  1.00  0.00     0.000 C 
BRANCH  17  18
ATOM     18  C   UNL     1      89.896  82.600  92.394  1.00  0.00     0.000 C 
BRANCH  18  19
ATOM     19  C   UNL     1      90.603  81.986  91.173  1.00  0.00     0.000 C 
BRANCH  19  20
ATOM     20  C   UNL     1      89.657  81.784  89.979  1.00  0.00     0.006 C 
BRANCH  20  21
ATOM     21  C   UNL     1      88.233  81.477  90.451  1.00  0.00     0.053 C 
BRANCH  21  22
ATOM     22  C   UNL     1      87.995  80.000  90.469  1.00  0.00     0.041 C 
ATOM     23  O   UNL     1      88.199  79.338  91.521  1.00  0.00    -0.550 OA
ATOM     24  O   UNL     1      87.488  79.364  89.344  1.00  0.00    -0.550 OA
ENDBRANCH  21  22
ENDBRANCH  20  21
ENDBRANCH  19  20
ENDBRANCH  18  19
ENDBRANCH  17  18
ENDBRANCH  16  17
ENDBRANCH  15  16
ENDBRANCH  14  15
ENDBRANCH  13  14
ENDBRANCH   1  13
TORSDOF 20
ENDMDL
