MODEL 1
REMARK VINA RESULT:    -6.306      0.000      0.000
REMARK INTER + INTRA:         -12.675
REMARK INTER:                 -10.361
REMARK INTRA:                  -2.314
REMARK UNBOUND:                -2.314
REMARK SMILES C[C@H]1O[C@@H](OC[C@H]2O[C@H](Oc3c(-c4ccc(O)c(O)c4)oc4cc(O)cc(O)c4c3=O)[C@@H](O)[C@@H](O)[C@@H]2O)[C@@H](O)[C@H](O)[C@H]1O
REMARK SMILES IDX 7 1 36 2 34 3 32 4 9 5 8 6 6 7 5 8 4 9 1 10 2 11 42 12 3 13
REMARK SMILES IDX 40 14 38 15 43 16 41 18 39 20 37 22 35 24 10 26 11 27 12 28
REMARK SMILES IDX 30 29 21 30 29 31 31 32 22 33 27 34 23 35 26 36 24 37 13 38
REMARK SMILES IDX 20 39 14 40 18 41 15 42 16 43 19 44 17 46 28 48 25 50 33 52
REMARK H PARENT 43 17 41 19 39 21 37 23 35 25 19 45 17 47 28 49 25 51 33 53
REMARK Flexibility Score: inf
ROOT
ATOM      1  C   UNL     1      -0.185  14.159   5.238  1.00  0.00     0.180 C 
ATOM      2  C   UNL     1       0.520  15.531   5.192  1.00  0.00     0.177 C 
ATOM      3  C   UNL     1       0.177  16.379   6.448  1.00  0.00     0.180 C 
ATOM      4  C   UNL     1       0.179  15.566   7.754  1.00  0.00     0.214 C 
ATOM      5  C   UNL     1      -0.496  14.200   7.585  1.00  0.00     0.339 C 
ATOM      6  O   UNL     1       0.018  13.495   6.466  1.00  0.00    -0.332 OA
ENDROOT
BRANCH   1   7
ATOM      7  C   UNL     1       0.260  13.222   4.072  1.00  0.00     0.198 C 
BRANCH   7   8
ATOM      8  O   UNL     1      -0.142  13.736   2.813  1.00  0.00    -0.347 OA
BRANCH   8   9
ATOM      9  C   UNL     1      -1.467  13.337   2.451  1.00  0.00     0.281 C 
ATOM     10  C   UNL     1      -2.535  10.252   0.715  1.00  0.00     0.041 C 
ATOM     11  C   UNL     1      -2.482  11.747   1.011  1.00  0.00     0.150 C 
ATOM     12  C   UNL     1      -2.369  12.623  -0.290  1.00  0.00     0.174 C 
ATOM     13  O   UNL     1      -1.395  12.033   1.875  1.00  0.00    -0.344 OA
ATOM     14  C   UNL     1      -1.739  13.991   0.046  1.00  0.00     0.179 C 
ATOM     15  C   UNL     1      -2.070  14.402   1.495  1.00  0.00     0.202 C 
BRANCH  12  16
ATOM     16  O   UNL     1      -1.590  11.971  -1.259  1.00  0.00    -0.388 OA
ATOM     17  H   UNL     1      -0.760  11.659  -0.807  1.00  0.00     0.211 HD
ENDBRANCH  12  16
BRANCH  14  18
ATOM     18  O   UNL     1      -2.138  14.992  -0.859  1.00  0.00    -0.387 OA
ATOM     19  H   UNL     1      -1.542  14.924  -1.656  1.00  0.00     0.211 HD
ENDBRANCH  14  18
BRANCH  15  20
ATOM     20  O   UNL     1      -1.557  15.675   1.769  1.00  0.00    -0.385 OA
ATOM     21  H   UNL     1      -1.401  15.717   2.747  1.00  0.00     0.211 HD
ENDBRANCH  15  20
ENDBRANCH   8   9
ENDBRANCH   7   8
ENDBRANCH   1   7
BRANCH   2  22
ATOM     22  O   UNL     1       0.106  16.268   4.044  1.00  0.00    -0.387 OA
ATOM     23  H   UNL     1       0.051  17.236   4.296  1.00  0.00     0.211 HD
ENDBRANCH   2  22
BRANCH   3  24
ATOM     24  O   UNL     1       1.085  17.459   6.576  1.00  0.00    -0.387 OA
ATOM     25  H   UNL     1       1.953  17.185   6.182  1.00  0.00     0.211 HD
ENDBRANCH   3  24
BRANCH   5  26
ATOM     26  O   UNL     1      -1.944  14.299   7.546  1.00  0.00    -0.454 OA
BRANCH  26  27
ATOM     27  C   UNL     1      -2.804  13.199   7.758  1.00  0.00     0.214 A 
ATOM     28  C   UNL     1      -3.932  12.971   6.930  1.00  0.00     0.180 A 
ATOM     29  C   UNL     1      -2.595  12.300   8.822  1.00  0.00     0.239 A 
ATOM     30  O   UNL     1      -4.560  11.791   6.984  1.00  0.00    -0.452 OA
ATOM     31  C   UNL     1      -3.333  11.106   8.898  1.00  0.00     0.111 A 
ATOM     32  O   UNL     1      -1.784  12.606   9.740  1.00  0.00    -0.285 OA
ATOM     33  C   UNL     1      -4.277  10.850   7.877  1.00  0.00     0.146 A 
ATOM     34  C   UNL     1      -3.212  10.179   9.983  1.00  0.00     0.134 A 
ATOM     35  C   UNL     1      -4.917   9.604   7.809  1.00  0.00     0.094 A 
ATOM     36  C   UNL     1      -3.947   8.990   9.950  1.00  0.00     0.093 A 
ATOM     37  C   UNL     1      -4.752   8.671   8.853  1.00  0.00     0.123 A 
BRANCH  28  38
ATOM     38  C   UNL     1      -4.511  14.014   6.052  1.00  0.00     0.025 A 
ATOM     39  C   UNL     1      -5.827  14.430   6.325  1.00  0.00     0.062 A 
ATOM     40  C   UNL     1      -3.854  14.497   4.913  1.00  0.00     0.016 A 
ATOM     41  C   UNL     1      -6.486  15.327   5.467  1.00  0.00     0.158 A 
ATOM     42  C   UNL     1      -4.519  15.376   4.043  1.00  0.00     0.051 A 
ATOM     43  C   UNL     1      -5.824  15.813   4.332  1.00  0.00     0.157 A 
BRANCH  41  44
ATOM     44  O   UNL     1      -7.804  15.670   5.730  1.00  0.00    -0.504 OA
ATOM     45  H   UNL     1      -8.348  15.221   6.466  1.00  0.00     0.293 HD
ENDBRANCH  41  44
BRANCH  43  46
ATOM     46  O   UNL     1      -6.479  16.692   3.470  1.00  0.00    -0.504 OA
ATOM     47  H   UNL     1      -7.298  17.219   3.765  1.00  0.00     0.293 HD
ENDBRANCH  43  46
ENDBRANCH  28  38
BRANCH  34  48
ATOM     48  O   UNL     1      -2.397  10.441  11.084  1.00  0.00    -0.507 OA
ATOM     49  H   UNL     1      -1.991  11.359  11.251  1.00  0.00     0.293 HD
ENDBRANCH  34  48
BRANCH  37  50
ATOM     50  O   UNL     1      -5.424   7.465   8.839  1.00  0.00    -0.508 OA
ATOM     51  H   UNL     1      -4.923   6.573   8.828  1.00  0.00     0.293 HD
ENDBRANCH  37  50
ENDBRANCH  26  27
ENDBRANCH   5  26
BRANCH   4  52
ATOM     52  O   UNL     1       1.499  15.375   8.205  1.00  0.00    -0.384 OA
ATOM     53  H   UNL     1       2.098  15.374   7.400  1.00  0.00     0.211 HD
ENDBRANCH   4  52
TORSDOF 16
ENDMDL
MODEL 2
REMARK VINA RESULT:    -5.977      2.875      7.809
REMARK INTER + INTRA:         -12.135
REMARK INTER:                 -10.520
REMARK INTRA:                  -1.615
REMARK UNBOUND:                -2.314
REMARK SMILES C[C@H]1O[C@@H](OC[C@H]2O[C@H](Oc3c(-c4ccc(O)c(O)c4)oc4cc(O)cc(O)c4c3=O)[C@@H](O)[C@@H](O)[C@@H]2O)[C@@H](O)[C@H](O)[C@H]1O
REMARK SMILES IDX 7 1 36 2 34 3 32 4 9 5 8 6 6 7 5 8 4 9 1 10 2 11 42 12 3 13
REMARK SMILES IDX 40 14 38 15 43 16 41 18 39 20 37 22 35 24 10 26 11 27 12 28
REMARK SMILES IDX 30 29 21 30 29 31 31 32 22 33 27 34 23 35 26 36 24 37 13 38
REMARK SMILES IDX 20 39 14 40 18 41 15 42 16 43 19 44 17 46 28 48 25 50 33 52
REMARK H PARENT 43 17 41 19 39 21 37 23 35 25 19 45 17 47 28 49 25 51 33 53
REMARK Flexibility Score: inf
ROOT
ATOM      1  C   UNL     1      -5.004  10.910   7.117  1.00  0.00     0.180 C 
ATOM      2  C   UNL     1      -3.745  10.731   7.990  1.00  0.00     0.177 C 
ATOM      3  C   UNL     1      -2.763  11.922   7.808  1.00  0.00     0.180 C 
ATOM      4  C   UNL     1      -3.466  13.289   7.757  1.00  0.00     0.214 C 
ATOM      5  C   UNL     1      -4.740  13.254   6.905  1.00  0.00     0.339 C 
ATOM      6  O   UNL     1      -5.592  12.183   7.281  1.00  0.00    -0.332 OA
ENDROOT
BRANCH   1   7
ATOM      7  C   UNL     1      -6.080   9.813   7.392  1.00  0.00     0.198 C 
BRANCH   7   8
ATOM      8  O   UNL     1      -6.968   9.672   6.296  1.00  0.00    -0.347 OA
BRANCH   8   9
ATOM      9  C   UNL     1      -8.280   9.266   6.695  1.00  0.00     0.281 C 
ATOM     10  C   UNL     1      -9.226   6.884   9.361  1.00  0.00     0.041 C 
ATOM     11  C   UNL     1      -9.255   7.522   7.976  1.00  0.00     0.150 C 
ATOM     12  C   UNL     1      -9.259   6.461   6.816  1.00  0.00     0.174 C 
ATOM     13  O   UNL     1      -8.151   8.397   7.820  1.00  0.00    -0.344 OA
ATOM     14  C   UNL     1      -8.703   7.091   5.521  1.00  0.00     0.179 C 
ATOM     15  C   UNL     1      -8.993   8.606   5.484  1.00  0.00     0.202 C 
BRANCH  12  16
ATOM     16  O   UNL     1      -8.485   5.344   7.165  1.00  0.00    -0.388 OA
ATOM     17  H   UNL     1      -7.858   5.633   7.882  1.00  0.00     0.211 HD
ENDBRANCH  12  16
BRANCH  14  18
ATOM     18  O   UNL     1      -9.207   6.460   4.369  1.00  0.00    -0.387 OA
ATOM     19  H   UNL     1      -9.645   5.613   4.664  1.00  0.00     0.211 HD
ENDBRANCH  14  18
BRANCH  15  20
ATOM     20  O   UNL     1      -8.551   9.156   4.276  1.00  0.00    -0.385 OA
ATOM     21  H   UNL     1      -8.973  10.049   4.196  1.00  0.00     0.211 HD
ENDBRANCH  15  20
ENDBRANCH   8   9
ENDBRANCH   7   8
ENDBRANCH   1   7
BRANCH   2  22
ATOM     22  O   UNL     1      -3.052   9.538   7.630  1.00  0.00    -0.387 OA
ATOM     23  H   UNL     1      -3.587   9.064   6.929  1.00  0.00     0.211 HD
ENDBRANCH   2  22
BRANCH   3  24
ATOM     24  O   UNL     1      -1.805  11.934   8.852  1.00  0.00    -0.387 OA
ATOM     25  H   UNL     1      -1.034  11.375   8.574  1.00  0.00     0.211 HD
ENDBRANCH   3  24
BRANCH   5  26
ATOM     26  O   UNL     1      -4.454  13.247   5.481  1.00  0.00    -0.454 OA
BRANCH  26  27
ATOM     27  C   UNL     1      -3.632  14.206   4.849  1.00  0.00     0.214 A 
ATOM     28  C   UNL     1      -3.970  15.582   4.844  1.00  0.00     0.180 A 
ATOM     29  C   UNL     1      -2.457  13.829   4.170  1.00  0.00     0.239 A 
ATOM     30  O   UNL     1      -3.050  16.484   4.482  1.00  0.00    -0.452 OA
ATOM     31  C   UNL     1      -1.551  14.806   3.725  1.00  0.00     0.111 A 
ATOM     32  O   UNL     1      -2.257  12.610   3.908  1.00  0.00    -0.285 OA
ATOM     33  C   UNL     1      -1.862  16.160   3.985  1.00  0.00     0.146 A 
ATOM     34  C   UNL     1      -0.369  14.496   2.977  1.00  0.00     0.134 A 
ATOM     35  C   UNL     1      -0.919  17.163   3.716  1.00  0.00     0.094 A 
ATOM     36  C   UNL     1       0.504  15.527   2.619  1.00  0.00     0.093 A 
ATOM     37  C   UNL     1       0.269  16.843   3.028  1.00  0.00     0.123 A 
BRANCH  28  38
ATOM     38  C   UNL     1      -5.332  16.079   5.146  1.00  0.00     0.025 A 
ATOM     39  C   UNL     1      -6.371  15.675   4.287  1.00  0.00     0.062 A 
ATOM     40  C   UNL     1      -5.593  17.011   6.158  1.00  0.00     0.016 A 
ATOM     41  C   UNL     1      -7.667  16.198   4.438  1.00  0.00     0.158 A 
ATOM     42  C   UNL     1      -6.881  17.552   6.296  1.00  0.00     0.051 A 
ATOM     43  C   UNL     1      -7.925  17.126   5.455  1.00  0.00     0.157 A 
BRANCH  41  44
ATOM     44  O   UNL     1      -8.654  15.828   3.537  1.00  0.00    -0.504 OA
ATOM     45  H   UNL     1      -9.378  16.476   3.225  1.00  0.00     0.293 HD
ENDBRANCH  41  44
BRANCH  43  46
ATOM     46  O   UNL     1      -9.207  17.659   5.599  1.00  0.00    -0.504 OA
ATOM     47  H   UNL     1      -9.703  18.076   4.814  1.00  0.00     0.293 HD
ENDBRANCH  43  46
ENDBRANCH  28  38
BRANCH  34  48
ATOM     48  O   UNL     1      -0.077  13.192   2.574  1.00  0.00    -0.507 OA
ATOM     49  H   UNL     1       0.281  12.980   1.645  1.00  0.00     0.293 HD
ENDBRANCH  34  48
BRANCH  37  50
ATOM     50  O   UNL     1       1.181  17.824   2.695  1.00  0.00    -0.508 OA
ATOM     51  H   UNL     1       0.893  18.794   2.539  1.00  0.00     0.293 HD
ENDBRANCH  37  50
ENDBRANCH  26  27
ENDBRANCH   5  26
BRANCH   4  52
ATOM     52  O   UNL     1      -3.792  13.717   9.057  1.00  0.00    -0.384 OA
ATOM     53  H   UNL     1      -3.682  14.714   9.086  1.00  0.00     0.211 HD
ENDBRANCH   4  52
TORSDOF 16
ENDMDL
MODEL 3
REMARK VINA RESULT:    -5.869      2.132      6.938
REMARK INTER + INTRA:         -11.957
REMARK INTER:                 -10.231
REMARK INTRA:                  -1.726
REMARK UNBOUND:                -2.314
REMARK SMILES C[C@H]1O[C@@H](OC[C@H]2O[C@H](Oc3c(-c4ccc(O)c(O)c4)oc4cc(O)cc(O)c4c3=O)[C@@H](O)[C@@H](O)[C@@H]2O)[C@@H](O)[C@H](O)[C@H]1O
REMARK SMILES IDX 7 1 36 2 34 3 32 4 9 5 8 6 6 7 5 8 4 9 1 10 2 11 42 12 3 13
REMARK SMILES IDX 40 14 38 15 43 16 41 18 39 20 37 22 35 24 10 26 11 27 12 28
REMARK SMILES IDX 30 29 21 30 29 31 31 32 22 33 27 34 23 35 26 36 24 37 13 38
REMARK SMILES IDX 20 39 14 40 18 41 15 42 16 43 19 44 17 46 28 48 25 50 33 52
REMARK H PARENT 43 17 41 19 39 21 37 23 35 25 19 45 17 47 28 49 25 51 33 53
REMARK Flexibility Score: inf
ROOT
ATOM      1  C   UNL     1      -4.237  14.537   7.659  1.00  0.00     0.180 C 
ATOM      2  C   UNL     1      -5.612  14.294   8.316  1.00  0.00     0.177 C 
ATOM      3  C   UNL     1      -5.520  13.205   9.421  1.00  0.00     0.180 C 
ATOM      4  C   UNL     1      -4.268  13.336  10.304  1.00  0.00     0.214 C 
ATOM      5  C   UNL     1      -3.012  13.655   9.484  1.00  0.00     0.339 C 
ATOM      6  O   UNL     1      -3.220  14.756   8.613  1.00  0.00    -0.332 OA
ENDROOT
BRANCH   1   7
ATOM      7  C   UNL     1      -4.260  15.732   6.656  1.00  0.00     0.198 C 
BRANCH   7   8
ATOM      8  O   UNL     1      -5.288  15.579   5.692  1.00  0.00    -0.347 OA
BRANCH   8   9
ATOM      9  C   UNL     1      -6.075  16.763   5.529  1.00  0.00     0.281 C 
ATOM     10  C   UNL     1      -8.658  18.125   7.797  1.00  0.00     0.041 C 
ATOM     11  C   UNL     1      -8.044  17.696   6.468  1.00  0.00     0.150 C 
ATOM     12  C   UNL     1      -9.044  16.885   5.567  1.00  0.00     0.174 C 
ATOM     13  O   UNL     1      -6.876  16.926   6.698  1.00  0.00    -0.344 OA
ATOM     14  C   UNL     1      -8.263  15.997   4.575  1.00  0.00     0.179 C 
ATOM     15  C   UNL     1      -6.905  16.639   4.223  1.00  0.00     0.202 C 
BRANCH  12  16
ATOM     16  O   UNL     1      -9.882  16.082   6.357  1.00  0.00    -0.388 OA
ATOM     17  H   UNL     1      -9.301  15.415   6.816  1.00  0.00     0.211 HD
ENDBRANCH  12  16
BRANCH  14  18
ATOM     18  O   UNL     1      -9.004  15.731   3.409  1.00  0.00    -0.387 OA
ATOM     19  H   UNL     1      -9.389  16.598   3.099  1.00  0.00     0.211 HD
ENDBRANCH  14  18
BRANCH  15  20
ATOM     20  O   UNL     1      -6.235  15.867   3.268  1.00  0.00    -0.385 OA
ATOM     21  H   UNL     1      -5.386  15.569   3.685  1.00  0.00     0.211 HD
ENDBRANCH  15  20
ENDBRANCH   8   9
ENDBRANCH   7   8
ENDBRANCH   1   7
BRANCH   2  22
ATOM     22  O   UNL     1      -6.558  13.849   7.346  1.00  0.00    -0.387 OA
ATOM     23  H   UNL     1      -6.245  12.971   6.982  1.00  0.00     0.211 HD
ENDBRANCH   2  22
BRANCH   3  24
ATOM     24  O   UNL     1      -6.672  13.242  10.245  1.00  0.00    -0.387 OA
ATOM     25  H   UNL     1      -7.356  12.642   9.852  1.00  0.00     0.211 HD
ENDBRANCH   3  24
BRANCH   5  26
ATOM     26  O   UNL     1      -2.502  12.493   8.778  1.00  0.00    -0.454 OA
BRANCH  26  27
ATOM     27  C   UNL     1      -2.265  12.473   7.386  1.00  0.00     0.214 A 
ATOM     28  C   UNL     1      -3.158  11.831   6.492  1.00  0.00     0.180 A 
ATOM     29  C   UNL     1      -1.112  13.063   6.831  1.00  0.00     0.239 A 
ATOM     30  O   UNL     1      -3.052  12.059   5.178  1.00  0.00    -0.452 OA
ATOM     31  C   UNL     1      -0.992  13.211   5.438  1.00  0.00     0.111 A 
ATOM     32  O   UNL     1      -0.162  13.399   7.590  1.00  0.00    -0.285 OA
ATOM     33  C   UNL     1      -2.059  12.752   4.633  1.00  0.00     0.146 A 
ATOM     34  C   UNL     1       0.176  13.747   4.806  1.00  0.00     0.134 A 
ATOM     35  C   UNL     1      -2.070  13.026   3.257  1.00  0.00     0.094 A 
ATOM     36  C   UNL     1       0.188  13.907   3.417  1.00  0.00     0.093 A 
ATOM     37  C   UNL     1      -0.938  13.605   2.647  1.00  0.00     0.123 A 
BRANCH  28  38
ATOM     38  C   UNL     1      -4.168  10.841   6.935  1.00  0.00     0.025 A 
ATOM     39  C   UNL     1      -5.420  10.866   6.293  1.00  0.00     0.062 A 
ATOM     40  C   UNL     1      -3.965   9.988   8.027  1.00  0.00     0.016 A 
ATOM     41  C   UNL     1      -6.467  10.041   6.738  1.00  0.00     0.158 A 
ATOM     42  C   UNL     1      -5.017   9.179   8.486  1.00  0.00     0.051 A 
ATOM     43  C   UNL     1      -6.259   9.184   7.826  1.00  0.00     0.157 A 
BRANCH  41  44
ATOM     44  O   UNL     1      -7.708  10.133   6.125  1.00  0.00    -0.504 OA
ATOM     45  H   UNL     1      -8.014  10.975   5.638  1.00  0.00     0.293 HD
ENDBRANCH  41  44
BRANCH  43  46
ATOM     46  O   UNL     1      -7.300   8.373   8.279  1.00  0.00    -0.504 OA
ATOM     47  H   UNL     1      -7.927   7.897   7.634  1.00  0.00     0.293 HD
ENDBRANCH  43  46
ENDBRANCH  28  38
BRANCH  34  48
ATOM     48  O   UNL     1       1.313  14.093   5.537  1.00  0.00    -0.507 OA
ATOM     49  H   UNL     1       2.229  14.185   5.103  1.00  0.00     0.293 HD
ENDBRANCH  34  48
BRANCH  37  50
ATOM     50  O   UNL     1      -0.901  13.823   1.285  1.00  0.00    -0.508 OA
ATOM     51  H   UNL     1      -1.722  13.669   0.694  1.00  0.00     0.293 HD
ENDBRANCH  37  50
ENDBRANCH  26  27
ENDBRANCH   5  26
BRANCH   4  52
ATOM     52  O   UNL     1      -4.456  14.344  11.268  1.00  0.00    -0.384 OA
ATOM     53  H   UNL     1      -3.619  14.895  11.300  1.00  0.00     0.211 HD
ENDBRANCH   4  52
TORSDOF 16
ENDMDL
MODEL 4
REMARK VINA RESULT:    -5.849      3.209      8.032
REMARK INTER + INTRA:         -11.924
REMARK INTER:                 -10.135
REMARK INTRA:                  -1.788
REMARK UNBOUND:                -2.314
REMARK SMILES C[C@H]1O[C@@H](OC[C@H]2O[C@H](Oc3c(-c4ccc(O)c(O)c4)oc4cc(O)cc(O)c4c3=O)[C@@H](O)[C@@H](O)[C@@H]2O)[C@@H](O)[C@H](O)[C@H]1O
REMARK SMILES IDX 7 1 36 2 34 3 32 4 9 5 8 6 6 7 5 8 4 9 1 10 2 11 42 12 3 13
REMARK SMILES IDX 40 14 38 15 43 16 41 18 39 20 37 22 35 24 10 26 11 27 12 28
REMARK SMILES IDX 30 29 21 30 29 31 31 32 22 33 27 34 23 35 26 36 24 37 13 38
REMARK SMILES IDX 20 39 14 40 18 41 15 42 16 43 19 44 17 46 28 48 25 50 33 52
REMARK H PARENT 43 17 41 19 39 21 37 23 35 25 19 45 17 47 28 49 25 51 33 53
REMARK Flexibility Score: inf
ROOT
ATOM      1  C   UNL     1      -5.424  10.497   7.708  1.00  0.00     0.180 C 
ATOM      2  C   UNL     1      -5.485  10.277   9.235  1.00  0.00     0.177 C 
ATOM      3  C   UNL     1      -4.812  11.452   9.997  1.00  0.00     0.180 C 
ATOM      4  C   UNL     1      -5.153  12.833   9.413  1.00  0.00     0.214 C 
ATOM      5  C   UNL     1      -5.117  12.839   7.880  1.00  0.00     0.339 C 
ATOM      6  O   UNL     1      -5.885  11.777   7.334  1.00  0.00    -0.332 OA
ENDROOT
BRANCH   1   7
ATOM      7  C   UNL     1      -6.228   9.416   6.919  1.00  0.00     0.198 C 
BRANCH   7   8
ATOM      8  O   UNL     1      -7.250  10.004   6.132  1.00  0.00    -0.347 OA
BRANCH   8   9
ATOM      9  C   UNL     1      -8.546   9.469   6.420  1.00  0.00     0.281 C 
ATOM     10  C   UNL     1      -9.522   7.181   9.156  1.00  0.00     0.041 C 
ATOM     11  C   UNL     1      -9.461   7.713   7.727  1.00  0.00     0.150 C 
ATOM     12  C   UNL     1      -9.208   6.582   6.666  1.00  0.00     0.174 C 
ATOM     13  O   UNL     1      -8.452   8.703   7.620  1.00  0.00    -0.344 OA
ATOM     14  C   UNL     1      -8.578   7.182   5.391  1.00  0.00     0.179 C 
ATOM     15  C   UNL     1      -9.032   8.644   5.197  1.00  0.00     0.202 C 
BRANCH  12  16
ATOM     16  O   UNL     1      -8.359   5.594   7.189  1.00  0.00    -0.388 OA
ATOM     17  H   UNL     1      -8.922   4.796   7.386  1.00  0.00     0.211 HD
ENDBRANCH  12  16
BRANCH  14  18
ATOM     18  O   UNL     1      -8.869   6.416   4.247  1.00  0.00    -0.387 OA
ATOM     19  H   UNL     1      -9.836   6.174   4.293  1.00  0.00     0.211 HD
ENDBRANCH  14  18
BRANCH  15  20
ATOM     20  O   UNL     1      -8.516   9.159   4.002  1.00  0.00    -0.385 OA
ATOM     21  H   UNL     1      -9.069   8.789   3.268  1.00  0.00     0.211 HD
ENDBRANCH  15  20
ENDBRANCH   8   9
ENDBRANCH   7   8
ENDBRANCH   1   7
BRANCH   2  22
ATOM     22  O   UNL     1      -4.803   9.078   9.595  1.00  0.00    -0.387 OA
ATOM     23  H   UNL     1      -5.395   8.552  10.208  1.00  0.00     0.211 HD
ENDBRANCH   2  22
BRANCH   3  24
ATOM     24  O   UNL     1      -5.179  11.425  11.365  1.00  0.00    -0.387 OA
ATOM     25  H   UNL     1      -5.485  12.333  11.623  1.00  0.00     0.211 HD
ENDBRANCH   3  24
BRANCH   5  26
ATOM     26  O   UNL     1      -3.762  12.853   7.358  1.00  0.00    -0.454 OA
BRANCH  26  27
ATOM     27  C   UNL     1      -3.381  13.577   6.206  1.00  0.00     0.214 A 
ATOM     28  C   UNL     1      -3.346  14.994   6.201  1.00  0.00     0.180 A 
ATOM     29  C   UNL     1      -3.051  12.920   5.005  1.00  0.00     0.239 A 
ATOM     30  O   UNL     1      -2.730  15.633   5.200  1.00  0.00    -0.452 OA
ATOM     31  C   UNL     1      -2.483  13.637   3.938  1.00  0.00     0.111 A 
ATOM     32  O   UNL     1      -3.328  11.696   4.872  1.00  0.00    -0.285 OA
ATOM     33  C   UNL     1      -2.261  15.021   4.119  1.00  0.00     0.146 A 
ATOM     34  C   UNL     1      -2.180  13.044   2.669  1.00  0.00     0.134 A 
ATOM     35  C   UNL     1      -1.545  15.750   3.158  1.00  0.00     0.094 A 
ATOM     36  C   UNL     1      -1.567  13.820   1.681  1.00  0.00     0.093 A 
ATOM     37  C   UNL     1      -1.199  15.145   1.932  1.00  0.00     0.123 A 
BRANCH  28  38
ATOM     38  C   UNL     1      -4.036  15.821   7.218  1.00  0.00     0.025 A 
ATOM     39  C   UNL     1      -3.354  16.061   8.425  1.00  0.00     0.062 A 
ATOM     40  C   UNL     1      -5.359  16.256   7.071  1.00  0.00     0.016 A 
ATOM     41  C   UNL     1      -3.988  16.734   9.483  1.00  0.00     0.158 A 
ATOM     42  C   UNL     1      -6.002  16.910   8.135  1.00  0.00     0.051 A 
ATOM     43  C   UNL     1      -5.310  17.173   9.331  1.00  0.00     0.157 A 
BRANCH  41  44
ATOM     44  O   UNL     1      -3.311  16.900  10.682  1.00  0.00    -0.504 OA
ATOM     45  H   UNL     1      -3.254  17.801  11.156  1.00  0.00     0.293 HD
ENDBRANCH  41  44
BRANCH  43  46
ATOM     46  O   UNL     1      -5.948  17.830  10.384  1.00  0.00    -0.504 OA
ATOM     47  H   UNL     1      -6.949  18.012  10.371  1.00  0.00     0.293 HD
ENDBRANCH  43  46
ENDBRANCH  28  38
BRANCH  34  48
ATOM     48  O   UNL     1      -2.500  11.716   2.385  1.00  0.00    -0.507 OA
ATOM     49  H   UNL     1      -1.797  11.039   2.096  1.00  0.00     0.293 HD
ENDBRANCH  34  48
BRANCH  37  50
ATOM     50  O   UNL     1      -0.553  15.862   0.945  1.00  0.00    -0.508 OA
ATOM     51  H   UNL     1      -0.993  16.667   0.491  1.00  0.00     0.293 HD
ENDBRANCH  37  50
ENDBRANCH  26  27
ENDBRANCH   5  26
BRANCH   4  52
ATOM     52  O   UNL     1      -6.428  13.242   9.845  1.00  0.00    -0.384 OA
ATOM     53  H   UNL     1      -7.107  12.680   9.366  1.00  0.00     0.211 HD
ENDBRANCH   4  52
TORSDOF 16
ENDMDL
MODEL 5
REMARK VINA RESULT:    -5.747     10.490     12.433
REMARK INTER + INTRA:         -11.756
REMARK INTER:                  -9.198
REMARK INTRA:                  -2.559
REMARK UNBOUND:                -2.314
REMARK SMILES C[C@H]1O[C@@H](OC[C@H]2O[C@H](Oc3c(-c4ccc(O)c(O)c4)oc4cc(O)cc(O)c4c3=O)[C@@H](O)[C@@H](O)[C@@H]2O)[C@@H](O)[C@H](O)[C@H]1O
REMARK SMILES IDX 7 1 36 2 34 3 32 4 9 5 8 6 6 7 5 8 4 9 1 10 2 11 42 12 3 13
REMARK SMILES IDX 40 14 38 15 43 16 41 18 39 20 37 22 35 24 10 26 11 27 12 28
REMARK SMILES IDX 30 29 21 30 29 31 31 32 22 33 27 34 23 35 26 36 24 37 13 38
REMARK SMILES IDX 20 39 14 40 18 41 15 42 16 43 19 44 17 46 28 48 25 50 33 52
REMARK H PARENT 43 17 41 19 39 21 37 23 35 25 19 45 17 47 28 49 25 51 33 53
REMARK Flexibility Score: inf
ROOT
ATOM      1  C   UNL     1       4.833   7.531  -4.705  1.00  0.00     0.180 C 
ATOM      2  C   UNL     1       3.978   8.434  -5.620  1.00  0.00     0.177 C 
ATOM      3  C   UNL     1       2.494   8.452  -5.160  1.00  0.00     0.180 C 
ATOM      4  C   UNL     1       2.329   8.542  -3.633  1.00  0.00     0.214 C 
ATOM      5  C   UNL     1       3.315   7.633  -2.890  1.00  0.00     0.339 C 
ATOM      6  O   UNL     1       4.647   7.828  -3.338  1.00  0.00    -0.332 OA
ENDROOT
BRANCH   1   7
ATOM      7  C   UNL     1       6.354   7.614  -5.042  1.00  0.00     0.198 C 
BRANCH   7   8
ATOM      8  O   UNL     1       6.706   8.895  -5.536  1.00  0.00    -0.347 OA
BRANCH   8   9
ATOM      9  C   UNL     1       7.489   9.651  -4.607  1.00  0.00     0.281 C 
ATOM     10  C   UNL     1       8.672   8.634  -1.254  1.00  0.00     0.041 C 
ATOM     11  C   UNL     1       8.046   9.549  -2.302  1.00  0.00     0.150 C 
ATOM     12  C   UNL     1       6.733  10.248  -1.795  1.00  0.00     0.174 C 
ATOM     13  O   UNL     1       7.770   8.816  -3.484  1.00  0.00    -0.344 OA
ATOM     14  C   UNL     1       5.849  10.650  -2.994  1.00  0.00     0.179 C 
ATOM     15  C   UNL     1       6.717  10.946  -4.235  1.00  0.00     0.202 C 
BRANCH  12  16
ATOM     16  O   UNL     1       6.012   9.392  -0.946  1.00  0.00    -0.388 OA
ATOM     17  H   UNL     1       6.674   8.800  -0.496  1.00  0.00     0.211 HD
ENDBRANCH  12  16
BRANCH  14  18
ATOM     18  O   UNL     1       5.019  11.746  -2.695  1.00  0.00    -0.387 OA
ATOM     19  H   UNL     1       5.604  12.467  -2.331  1.00  0.00     0.211 HD
ENDBRANCH  14  18
BRANCH  15  20
ATOM     20  O   UNL     1       5.916  11.379  -5.298  1.00  0.00    -0.385 OA
ATOM     21  H   UNL     1       5.319  12.083  -4.938  1.00  0.00     0.211 HD
ENDBRANCH  15  20
ENDBRANCH   8   9
ENDBRANCH   7   8
ENDBRANCH   1   7
BRANCH   2  22
ATOM     22  O   UNL     1       4.011   7.957  -6.964  1.00  0.00    -0.387 OA
ATOM     23  H   UNL     1       3.112   8.116  -7.374  1.00  0.00     0.211 HD
ENDBRANCH   2  22
BRANCH   3  24
ATOM     24  O   UNL     1       1.805   9.532  -5.764  1.00  0.00    -0.387 OA
ATOM     25  H   UNL     1       1.448   9.226  -6.637  1.00  0.00     0.211 HD
ENDBRANCH   3  24
BRANCH   5  26
ATOM     26  O   UNL     1       2.924   6.235  -2.939  1.00  0.00    -0.454 OA
BRANCH  26  27
ATOM     27  C   UNL     1       1.897   5.688  -2.140  1.00  0.00     0.214 A 
ATOM     28  C   UNL     1       0.644   5.321  -2.693  1.00  0.00     0.180 A 
ATOM     29  C   UNL     1       2.063   5.513  -0.752  1.00  0.00     0.239 A 
ATOM     30  O   UNL     1      -0.196   4.565  -1.977  1.00  0.00    -0.452 OA
ATOM     31  C   UNL     1       1.117   4.785  -0.011  1.00  0.00     0.111 A 
ATOM     32  O   UNL     1       3.036   6.068  -0.170  1.00  0.00    -0.285 OA
ATOM     33  C   UNL     1       0.010   4.245  -0.705  1.00  0.00     0.146 A 
ATOM     34  C   UNL     1       1.193   4.620   1.411  1.00  0.00     0.134 A 
ATOM     35  C   UNL     1      -0.872   3.371  -0.052  1.00  0.00     0.094 A 
ATOM     36  C   UNL     1       0.236   3.836   2.060  1.00  0.00     0.093 A 
ATOM     37  C   UNL     1      -0.758   3.169   1.339  1.00  0.00     0.123 A 
BRANCH  28  38
ATOM     38  C   UNL     1       0.174   5.804  -4.012  1.00  0.00     0.025 A 
ATOM     39  C   UNL     1      -0.862   6.756  -4.019  1.00  0.00     0.062 A 
ATOM     40  C   UNL     1       0.630   5.267  -5.223  1.00  0.00     0.016 A 
ATOM     41  C   UNL     1      -1.442   7.173  -5.229  1.00  0.00     0.158 A 
ATOM     42  C   UNL     1       0.037   5.666  -6.431  1.00  0.00     0.051 A 
ATOM     43  C   UNL     1      -0.980   6.639  -6.439  1.00  0.00     0.157 A 
BRANCH  41  44
ATOM     44  O   UNL     1      -2.503   8.065  -5.199  1.00  0.00    -0.504 OA
ATOM     45  H   UNL     1      -3.204   8.054  -4.458  1.00  0.00     0.293 HD
ENDBRANCH  41  44
BRANCH  43  46
ATOM     46  O   UNL     1      -1.562   7.039  -7.642  1.00  0.00    -0.504 OA
ATOM     47  H   UNL     1      -2.553   7.258  -7.708  1.00  0.00     0.293 HD
ENDBRANCH  43  46
ENDBRANCH  28  38
BRANCH  34  48
ATOM     48  O   UNL     1       2.187   5.241   2.168  1.00  0.00    -0.507 OA
ATOM     49  H   UNL     1       2.343   5.013   3.148  1.00  0.00     0.293 HD
ENDBRANCH  34  48
BRANCH  37  50
ATOM     50  O   UNL     1      -1.655   2.365   2.014  1.00  0.00    -0.508 OA
ATOM     51  H   UNL     1      -2.663   2.431   1.849  1.00  0.00     0.293 HD
ENDBRANCH  37  50
ENDBRANCH  26  27
ENDBRANCH   5  26
BRANCH   4  52
ATOM     52  O   UNL     1       2.511   9.869  -3.203  1.00  0.00    -0.384 OA
ATOM     53  H   UNL     1       2.403  10.466  -4.002  1.00  0.00     0.211 HD
ENDBRANCH   4  52
TORSDOF 16
ENDMDL
MODEL 6
REMARK VINA RESULT:    -5.744     10.650     14.997
REMARK INTER + INTRA:         -11.752
REMARK INTER:                  -8.971
REMARK INTRA:                  -2.781
REMARK UNBOUND:                -2.314
REMARK SMILES C[C@H]1O[C@@H](OC[C@H]2O[C@H](Oc3c(-c4ccc(O)c(O)c4)oc4cc(O)cc(O)c4c3=O)[C@@H](O)[C@@H](O)[C@@H]2O)[C@@H](O)[C@H](O)[C@H]1O
REMARK SMILES IDX 7 1 36 2 34 3 32 4 9 5 8 6 6 7 5 8 4 9 1 10 2 11 42 12 3 13
REMARK SMILES IDX 40 14 38 15 43 16 41 18 39 20 37 22 35 24 10 26 11 27 12 28
REMARK SMILES IDX 30 29 21 30 29 31 31 32 22 33 27 34 23 35 26 36 24 37 13 38
REMARK SMILES IDX 20 39 14 40 18 41 15 42 16 43 19 44 17 46 28 48 25 50 33 52
REMARK H PARENT 43 17 41 19 39 21 37 23 35 25 19 45 17 47 28 49 25 51 33 53
REMARK Flexibility Score: inf
ROOT
ATOM      1  C   UNL     1      -0.506   7.454  -4.946  1.00  0.00     0.180 C 
ATOM      2  C   UNL     1      -0.984   8.848  -5.404  1.00  0.00     0.177 C 
ATOM      3  C   UNL     1      -0.746   9.050  -6.926  1.00  0.00     0.180 C 
ATOM      4  C   UNL     1      -1.097   7.811  -7.768  1.00  0.00     0.214 C 
ATOM      5  C   UNL     1      -0.610   6.511  -7.116  1.00  0.00     0.339 C 
ATOM      6  O   UNL     1      -1.017   6.420  -5.760  1.00  0.00    -0.332 OA
ENDROOT
BRANCH   1   7
ATOM      7  C   UNL     1      -0.872   7.158  -3.458  1.00  0.00     0.198 C 
BRANCH   7   8
ATOM      8  O   UNL     1      -0.147   6.047  -2.958  1.00  0.00    -0.347 OA
BRANCH   8   9
ATOM      9  C   UNL     1      -0.915   5.248  -2.053  1.00  0.00     0.281 C 
ATOM     10  C   UNL     1      -0.161   4.412   1.469  1.00  0.00     0.041 C 
ATOM     11  C   UNL     1      -0.584   4.153   0.026  1.00  0.00     0.150 C 
ATOM     12  C   UNL     1       0.079   2.864  -0.582  1.00  0.00     0.174 C 
ATOM     13  O   UNL     1      -0.271   5.277  -0.780  1.00  0.00    -0.344 OA
ATOM     14  C   UNL     1       0.119   2.964  -2.121  1.00  0.00     0.179 C 
ATOM     15  C   UNL     1      -1.057   3.818  -2.642  1.00  0.00     0.202 C 
BRANCH  12  16
ATOM     16  O   UNL     1       1.382   2.698  -0.088  1.00  0.00    -0.388 OA
ATOM     17  H   UNL     1       1.433   3.185   0.779  1.00  0.00     0.211 HD
ENDBRANCH  12  16
BRANCH  14  18
ATOM     18  O   UNL     1       0.122   1.697  -2.733  1.00  0.00    -0.387 OA
ATOM     19  H   UNL     1       0.941   1.647  -3.301  1.00  0.00     0.211 HD
ENDBRANCH  14  18
BRANCH  15  20
ATOM     20  O   UNL     1      -1.056   3.845  -4.041  1.00  0.00    -0.385 OA
ATOM     21  H   UNL     1      -0.525   3.065  -4.343  1.00  0.00     0.211 HD
ENDBRANCH  15  20
ENDBRANCH   8   9
ENDBRANCH   7   8
ENDBRANCH   1   7
BRANCH   2  22
ATOM     22  O   UNL     1      -0.271   9.872  -4.714  1.00  0.00    -0.387 OA
ATOM     23  H   UNL     1      -0.236  10.681  -5.303  1.00  0.00     0.211 HD
ENDBRANCH   2  22
BRANCH   3  24
ATOM     24  O   UNL     1      -1.494  10.156  -7.399  1.00  0.00    -0.387 OA
ATOM     25  H   UNL     1      -1.864  10.640  -6.616  1.00  0.00     0.211 HD
ENDBRANCH   3  24
BRANCH   5  26
ATOM     26  O   UNL     1       0.822   6.319  -7.267  1.00  0.00    -0.454 OA
BRANCH  26  27
ATOM     27  C   UNL     1       1.526   5.242  -6.685  1.00  0.00     0.214 A 
ATOM     28  C   UNL     1       2.548   5.459  -5.726  1.00  0.00     0.180 A 
ATOM     29  C   UNL     1       1.265   3.909  -7.056  1.00  0.00     0.239 A 
ATOM     30  O   UNL     1       3.001   4.428  -5.003  1.00  0.00    -0.452 OA
ATOM     31  C   UNL     1       1.825   2.847  -6.327  1.00  0.00     0.111 A 
ATOM     32  O   UNL     1       0.574   3.678  -8.087  1.00  0.00    -0.285 OA
ATOM     33  C   UNL     1       2.649   3.167  -5.224  1.00  0.00     0.146 A 
ATOM     34  C   UNL     1       1.649   1.471  -6.686  1.00  0.00     0.134 A 
ATOM     35  C   UNL     1       3.095   2.155  -4.362  1.00  0.00     0.094 A 
ATOM     36  C   UNL     1       2.200   0.476  -5.874  1.00  0.00     0.093 A 
ATOM     37  C   UNL     1       2.871   0.802  -4.691  1.00  0.00     0.123 A 
BRANCH  28  38
ATOM     38  C   UNL     1       3.209   6.771  -5.535  1.00  0.00     0.025 A 
ATOM     39  C   UNL     1       2.731   7.588  -4.494  1.00  0.00     0.062 A 
ATOM     40  C   UNL     1       4.184   7.264  -6.412  1.00  0.00     0.016 A 
ATOM     41  C   UNL     1       3.226   8.893  -4.326  1.00  0.00     0.158 A 
ATOM     42  C   UNL     1       4.662   8.575  -6.259  1.00  0.00     0.051 A 
ATOM     43  C   UNL     1       4.205   9.381  -5.201  1.00  0.00     0.157 A 
BRANCH  41  44
ATOM     44  O   UNL     1       2.690   9.696  -3.330  1.00  0.00    -0.504 OA
ATOM     45  H   UNL     1       1.954  10.377  -3.515  1.00  0.00     0.293 HD
ENDBRANCH  41  44
BRANCH  43  46
ATOM     46  O   UNL     1       4.688  10.680  -5.046  1.00  0.00    -0.504 OA
ATOM     47  H   UNL     1       4.837  11.089  -4.126  1.00  0.00     0.293 HD
ENDBRANCH  43  46
ENDBRANCH  28  38
BRANCH  34  48
ATOM     48  O   UNL     1       0.959   1.097  -7.841  1.00  0.00    -0.507 OA
ATOM     49  H   UNL     1       0.229   0.389  -7.829  1.00  0.00     0.293 HD
ENDBRANCH  34  48
BRANCH  37  50
ATOM     50  O   UNL     1       3.358  -0.212  -3.893  1.00  0.00    -0.508 OA
ATOM     51  H   UNL     1       2.941  -0.425  -2.982  1.00  0.00     0.293 HD
ENDBRANCH  37  50
ENDBRANCH  26  27
ENDBRANCH   5  26
BRANCH   4  52
ATOM     52  O   UNL     1      -2.488   7.735  -7.963  1.00  0.00    -0.384 OA
ATOM     53  H   UNL     1      -2.859   8.663  -7.875  1.00  0.00     0.211 HD
ENDBRANCH   4  52
TORSDOF 16
ENDMDL
MODEL 7
REMARK VINA RESULT:    -5.685      9.597     13.345
REMARK INTER + INTRA:         -11.655
REMARK INTER:                  -8.808
REMARK INTRA:                  -2.847
REMARK UNBOUND:                -2.314
REMARK SMILES C[C@H]1O[C@@H](OC[C@H]2O[C@H](Oc3c(-c4ccc(O)c(O)c4)oc4cc(O)cc(O)c4c3=O)[C@@H](O)[C@@H](O)[C@@H]2O)[C@@H](O)[C@H](O)[C@H]1O
REMARK SMILES IDX 7 1 36 2 34 3 32 4 9 5 8 6 6 7 5 8 4 9 1 10 2 11 42 12 3 13
REMARK SMILES IDX 40 14 38 15 43 16 41 18 39 20 37 22 35 24 10 26 11 27 12 28
REMARK SMILES IDX 30 29 21 30 29 31 31 32 22 33 27 34 23 35 26 36 24 37 13 38
REMARK SMILES IDX 20 39 14 40 18 41 15 42 16 43 19 44 17 46 28 48 25 50 33 52
REMARK H PARENT 43 17 41 19 39 21 37 23 35 25 19 45 17 47 28 49 25 51 33 53
REMARK Flexibility Score: inf
ROOT
ATOM      1  C   UNL     1       3.816   4.561  -0.155  1.00  0.00     0.180 C 
ATOM      2  C   UNL     1       5.317   4.917  -0.143  1.00  0.00     0.177 C 
ATOM      3  C   UNL     1       5.668   5.901  -1.294  1.00  0.00     0.180 C 
ATOM      4  C   UNL     1       4.624   7.014  -1.486  1.00  0.00     0.214 C 
ATOM      5  C   UNL     1       3.188   6.484  -1.388  1.00  0.00     0.339 C 
ATOM      6  O   UNL     1       2.995   5.708  -0.215  1.00  0.00    -0.332 OA
ENDROOT
BRANCH   1   7
ATOM      7  C   UNL     1       3.399   3.701   1.079  1.00  0.00     0.198 C 
BRANCH   7   8
ATOM      8  O   UNL     1       2.844   4.506   2.106  1.00  0.00    -0.347 OA
BRANCH   8   9
ATOM      9  C   UNL     1       2.913   3.884   3.393  1.00  0.00     0.281 C 
ATOM     10  C   UNL     1       1.256   0.778   4.526  1.00  0.00     0.041 C 
ATOM     11  C   UNL     1       1.713   2.232   4.602  1.00  0.00     0.150 C 
ATOM     12  C   UNL     1       0.583   3.200   5.109  1.00  0.00     0.174 C 
ATOM     13  O   UNL     1       2.178   2.662   3.334  1.00  0.00    -0.344 OA
ATOM     14  C   UNL     1       0.860   4.638   4.620  1.00  0.00     0.179 C 
ATOM     15  C   UNL     1       2.376   4.876   4.460  1.00  0.00     0.202 C 
BRANCH  12  16
ATOM     16  O   UNL     1      -0.674   2.780   4.645  1.00  0.00    -0.388 OA
ATOM     17  H   UNL     1      -0.931   3.390   3.900  1.00  0.00     0.211 HD
ENDBRANCH  12  16
BRANCH  14  18
ATOM     18  O   UNL     1       0.292   5.603   5.472  1.00  0.00    -0.387 OA
ATOM     19  H   UNL     1      -0.069   6.331   4.893  1.00  0.00     0.211 HD
ENDBRANCH  14  18
BRANCH  15  20
ATOM     20  O   UNL     1       2.623   6.202   4.088  1.00  0.00    -0.385 OA
ATOM     21  H   UNL     1       2.909   6.185   3.140  1.00  0.00     0.211 HD
ENDBRANCH  15  20
ENDBRANCH   8   9
ENDBRANCH   7   8
ENDBRANCH   1   7
BRANCH   2  22
ATOM     22  O   UNL     1       6.111   3.745  -0.317  1.00  0.00    -0.387 OA
ATOM     23  H   UNL     1       5.630   3.132  -0.945  1.00  0.00     0.211 HD
ENDBRANCH   2  22
BRANCH   3  24
ATOM     24  O   UNL     1       6.935   6.492  -1.067  1.00  0.00    -0.387 OA
ATOM     25  H   UNL     1       7.008   6.714  -0.103  1.00  0.00     0.211 HD
ENDBRANCH   3  24
BRANCH   5  26
ATOM     26  O   UNL     1       2.779   5.770  -2.585  1.00  0.00    -0.454 OA
BRANCH  26  27
ATOM     27  C   UNL     1       1.623   6.098  -3.326  1.00  0.00     0.214 A 
ATOM     28  C   UNL     1       0.322   5.858  -2.816  1.00  0.00     0.180 A 
ATOM     29  C   UNL     1       1.714   6.648  -4.620  1.00  0.00     0.239 A 
ATOM     30  O   UNL     1      -0.734   6.419  -3.414  1.00  0.00    -0.452 OA
ATOM     31  C   UNL     1       0.569   7.154  -5.258  1.00  0.00     0.111 A 
ATOM     32  O   UNL     1       2.822   6.627  -5.225  1.00  0.00    -0.285 OA
ATOM     33  C   UNL     1      -0.658   7.088  -4.559  1.00  0.00     0.146 A 
ATOM     34  C   UNL     1       0.580   7.672  -6.594  1.00  0.00     0.134 A 
ATOM     35  C   UNL     1      -1.796   7.726  -5.074  1.00  0.00     0.094 A 
ATOM     36  C   UNL     1      -0.596   8.202  -7.132  1.00  0.00     0.093 A 
ATOM     37  C   UNL     1      -1.764   8.284  -6.368  1.00  0.00     0.123 A 
BRANCH  28  38
ATOM     38  C   UNL     1       0.059   4.938  -1.685  1.00  0.00     0.025 A 
ATOM     39  C   UNL     1      -0.282   5.517  -0.448  1.00  0.00     0.062 A 
ATOM     40  C   UNL     1       0.253   3.554  -1.772  1.00  0.00     0.016 A 
ATOM     41  C   UNL     1      -0.430   4.718   0.699  1.00  0.00     0.158 A 
ATOM     42  C   UNL     1       0.127   2.757  -0.622  1.00  0.00     0.051 A 
ATOM     43  C   UNL     1      -0.240   3.333   0.607  1.00  0.00     0.157 A 
BRANCH  41  44
ATOM     44  O   UNL     1      -0.704   5.325   1.915  1.00  0.00    -0.504 OA
ATOM     45  H   UNL     1      -0.662   4.819   2.799  1.00  0.00     0.293 HD
ENDBRANCH  41  44
BRANCH  43  46
ATOM     46  O   UNL     1      -0.372   2.538   1.746  1.00  0.00    -0.504 OA
ATOM     47  H   UNL     1       0.026   2.816   2.640  1.00  0.00     0.293 HD
ENDBRANCH  43  46
ENDBRANCH  28  38
BRANCH  34  48
ATOM     48  O   UNL     1       1.732   7.640  -7.382  1.00  0.00    -0.507 OA
ATOM     49  H   UNL     1       2.045   8.448  -7.915  1.00  0.00     0.293 HD
ENDBRANCH  34  48
BRANCH  37  50
ATOM     50  O   UNL     1      -2.890   8.859  -6.921  1.00  0.00    -0.508 OA
ATOM     51  H   UNL     1      -3.824   8.681  -6.541  1.00  0.00     0.293 HD
ENDBRANCH  37  50
ENDBRANCH  26  27
ENDBRANCH   5  26
BRANCH   4  52
ATOM     52  O   UNL     1       4.808   8.024  -0.524  1.00  0.00    -0.384 OA
ATOM     53  H   UNL     1       5.753   8.351  -0.604  1.00  0.00     0.211 HD
ENDBRANCH   4  52
TORSDOF 16
ENDMDL
MODEL 8
REMARK VINA RESULT:    -5.664     10.288     12.872
REMARK INTER + INTRA:         -11.620
REMARK INTER:                  -9.585
REMARK INTRA:                  -2.035
REMARK UNBOUND:                -2.314
REMARK SMILES C[C@H]1O[C@@H](OC[C@H]2O[C@H](Oc3c(-c4ccc(O)c(O)c4)oc4cc(O)cc(O)c4c3=O)[C@@H](O)[C@@H](O)[C@@H]2O)[C@@H](O)[C@H](O)[C@H]1O
REMARK SMILES IDX 7 1 36 2 34 3 32 4 9 5 8 6 6 7 5 8 4 9 1 10 2 11 42 12 3 13
REMARK SMILES IDX 40 14 38 15 43 16 41 18 39 20 37 22 35 24 10 26 11 27 12 28
REMARK SMILES IDX 30 29 21 30 29 31 31 32 22 33 27 34 23 35 26 36 24 37 13 38
REMARK SMILES IDX 20 39 14 40 18 41 15 42 16 43 19 44 17 46 28 48 25 50 33 52
REMARK H PARENT 43 17 41 19 39 21 37 23 35 25 19 45 17 47 28 49 25 51 33 53
REMARK Flexibility Score: inf
ROOT
ATOM      1  C   UNL     1       0.175   5.299  -3.635  1.00  0.00     0.180 C 
ATOM      2  C   UNL     1      -0.585   4.166  -4.355  1.00  0.00     0.177 C 
ATOM      3  C   UNL     1      -0.674   2.896  -3.463  1.00  0.00     0.180 C 
ATOM      4  C   UNL     1      -0.988   3.206  -1.990  1.00  0.00     0.214 C 
ATOM      5  C   UNL     1      -0.196   4.412  -1.471  1.00  0.00     0.339 C 
ATOM      6  O   UNL     1      -0.320   5.532  -2.334  1.00  0.00    -0.332 OA
ENDROOT
BRANCH   1   7
ATOM      7  C   UNL     1       0.148   6.637  -4.437  1.00  0.00     0.198 C 
BRANCH   7   8
ATOM      8  O   UNL     1      -0.944   6.676  -5.341  1.00  0.00    -0.347 OA
BRANCH   8   9
ATOM      9  C   UNL     1      -0.566   7.124  -6.646  1.00  0.00     0.281 C 
ATOM     10  C   UNL     1       2.808   8.007  -7.875  1.00  0.00     0.041 C 
ATOM     11  C   UNL     1       1.306   8.171  -7.660  1.00  0.00     0.150 C 
ATOM     12  C   UNL     1       0.905   9.635  -7.253  1.00  0.00     0.174 C 
ATOM     13  O   UNL     1       0.854   7.259  -6.673  1.00  0.00    -0.344 OA
ATOM     14  C   UNL     1      -0.439   9.624  -6.494  1.00  0.00     0.179 C 
ATOM     15  C   UNL     1      -1.319   8.446  -6.962  1.00  0.00     0.202 C 
BRANCH  12  16
ATOM     16  O   UNL     1       1.896  10.213  -6.444  1.00  0.00    -0.388 OA
ATOM     17  H   UNL     1       2.729   9.682  -6.575  1.00  0.00     0.211 HD
ENDBRANCH  12  16
BRANCH  14  18
ATOM     18  O   UNL     1      -1.130  10.843  -6.626  1.00  0.00    -0.387 OA
ATOM     19  H   UNL     1      -0.952  11.184  -7.547  1.00  0.00     0.211 HD
ENDBRANCH  14  18
BRANCH  15  20
ATOM     20  O   UNL     1      -2.563   8.484  -6.323  1.00  0.00    -0.385 OA
ATOM     21  H   UNL     1      -3.251   8.508  -7.036  1.00  0.00     0.211 HD
ENDBRANCH  15  20
ENDBRANCH   8   9
ENDBRANCH   7   8
ENDBRANCH   1   7
BRANCH   2  22
ATOM     22  O   UNL     1       0.084   3.803  -5.561  1.00  0.00    -0.387 OA
ATOM     23  H   UNL     1       0.690   3.031  -5.364  1.00  0.00     0.211 HD
ENDBRANCH   2  22
BRANCH   3  24
ATOM     24  O   UNL     1      -1.656   2.009  -3.968  1.00  0.00    -0.387 OA
ATOM     25  H   UNL     1      -2.507   2.509  -4.069  1.00  0.00     0.211 HD
ENDBRANCH   3  24
BRANCH   5  26
ATOM     26  O   UNL     1       1.193   4.087  -1.199  1.00  0.00    -0.454 OA
BRANCH  26  27
ATOM     27  C   UNL     1       1.972   4.756  -0.230  1.00  0.00     0.214 A 
ATOM     28  C   UNL     1       1.887   4.426   1.146  1.00  0.00     0.180 A 
ATOM     29  C   UNL     1       2.844   5.804  -0.588  1.00  0.00     0.239 A 
ATOM     30  O   UNL     1       2.819   4.881   1.991  1.00  0.00    -0.452 OA
ATOM     31  C   UNL     1       3.755   6.319   0.349  1.00  0.00     0.111 A 
ATOM     32  O   UNL     1       2.755   6.317  -1.738  1.00  0.00    -0.285 OA
ATOM     33  C   UNL     1       3.761   5.751   1.644  1.00  0.00     0.146 A 
ATOM     34  C   UNL     1       4.627   7.422   0.070  1.00  0.00     0.134 A 
ATOM     35  C   UNL     1       4.758   6.107   2.564  1.00  0.00     0.094 A 
ATOM     36  C   UNL     1       5.539   7.836   1.045  1.00  0.00     0.093 A 
ATOM     37  C   UNL     1       5.649   7.157   2.262  1.00  0.00     0.123 A 
BRANCH  28  38
ATOM     38  C   UNL     1       0.758   3.659   1.722  1.00  0.00     0.025 A 
ATOM     39  C   UNL     1       0.846   2.255   1.683  1.00  0.00     0.062 A 
ATOM     40  C   UNL     1      -0.417   4.268   2.179  1.00  0.00     0.016 A 
ATOM     41  C   UNL     1      -0.236   1.460   2.100  1.00  0.00     0.158 A 
ATOM     42  C   UNL     1      -1.506   3.475   2.575  1.00  0.00     0.051 A 
ATOM     43  C   UNL     1      -1.408   2.072   2.563  1.00  0.00     0.157 A 
BRANCH  41  44
ATOM     44  O   UNL     1      -0.142   0.081   1.991  1.00  0.00    -0.504 OA
ATOM     45  H   UNL     1       0.723  -0.388   1.721  1.00  0.00     0.293 HD
ENDBRANCH  41  44
BRANCH  43  46
ATOM     46  O   UNL     1      -2.488   1.287   2.964  1.00  0.00    -0.504 OA
ATOM     47  H   UNL     1      -2.959   1.441   3.853  1.00  0.00     0.293 HD
ENDBRANCH  43  46
ENDBRANCH  28  38
BRANCH  34  48
ATOM     48  O   UNL     1       4.573   8.109  -1.143  1.00  0.00    -0.507 OA
ATOM     49  H   UNL     1       4.090   7.735  -1.956  1.00  0.00     0.293 HD
ENDBRANCH  34  48
BRANCH  37  50
ATOM     50  O   UNL     1       6.596   7.568   3.178  1.00  0.00    -0.508 OA
ATOM     51  H   UNL     1       7.522   7.890   2.884  1.00  0.00     0.293 HD
ENDBRANCH  37  50
ENDBRANCH  26  27
ENDBRANCH   5  26
BRANCH   4  52
ATOM     52  O   UNL     1      -2.364   3.455  -1.828  1.00  0.00    -0.384 OA
ATOM     53  H   UNL     1      -2.719   3.784  -2.707  1.00  0.00     0.211 HD
ENDBRANCH   4  52
TORSDOF 16
ENDMDL
MODEL 9
REMARK VINA RESULT:    -5.634      2.449      6.101
REMARK INTER + INTRA:         -11.572
REMARK INTER:                  -9.921
REMARK INTRA:                  -1.651
REMARK UNBOUND:                -2.314
REMARK SMILES C[C@H]1O[C@@H](OC[C@H]2O[C@H](Oc3c(-c4ccc(O)c(O)c4)oc4cc(O)cc(O)c4c3=O)[C@@H](O)[C@@H](O)[C@@H]2O)[C@@H](O)[C@H](O)[C@H]1O
REMARK SMILES IDX 7 1 36 2 34 3 32 4 9 5 8 6 6 7 5 8 4 9 1 10 2 11 42 12 3 13
REMARK SMILES IDX 40 14 38 15 43 16 41 18 39 20 37 22 35 24 10 26 11 27 12 28
REMARK SMILES IDX 30 29 21 30 29 31 31 32 22 33 27 34 23 35 26 36 24 37 13 38
REMARK SMILES IDX 20 39 14 40 18 41 15 42 16 43 19 44 17 46 28 48 25 50 33 52
REMARK H PARENT 43 17 41 19 39 21 37 23 35 25 19 45 17 47 28 49 25 51 33 53
REMARK Flexibility Score: inf
ROOT
ATOM      1  C   UNL     1      -3.349  13.054   6.536  1.00  0.00     0.180 C 
ATOM      2  C   UNL     1      -2.628  14.048   7.472  1.00  0.00     0.177 C 
ATOM      3  C   UNL     1      -2.631  13.536   8.940  1.00  0.00     0.180 C 
ATOM      4  C   UNL     1      -2.344  12.030   9.062  1.00  0.00     0.214 C 
ATOM      5  C   UNL     1      -3.086  11.211   8.000  1.00  0.00     0.339 C 
ATOM      6  O   UNL     1      -2.880  11.733   6.697  1.00  0.00    -0.332 OA
ENDROOT
BRANCH   1   7
ATOM      7  C   UNL     1      -3.228  13.459   5.034  1.00  0.00     0.198 C 
BRANCH   7   8
ATOM      8  O   UNL     1      -2.568  12.456   4.280  1.00  0.00    -0.347 OA
BRANCH   8   9
ATOM      9  C   UNL     1      -1.367  12.928   3.662  1.00  0.00     0.281 C 
ATOM     10  C   UNL     1       0.320  16.185   4.134  1.00  0.00     0.041 C 
ATOM     11  C   UNL     1      -0.257  15.004   3.360  1.00  0.00     0.150 C 
ATOM     12  C   UNL     1      -1.098  15.448   2.108  1.00  0.00     0.174 C 
ATOM     13  O   UNL     1      -1.059  14.207   4.216  1.00  0.00    -0.344 OA
ATOM     14  C   UNL     1      -2.109  14.344   1.731  1.00  0.00     0.179 C 
ATOM     15  C   UNL     1      -1.568  12.953   2.123  1.00  0.00     0.202 C 
BRANCH  12  16
ATOM     16  O   UNL     1      -1.784  16.644   2.371  1.00  0.00    -0.388 OA
ATOM     17  H   UNL     1      -2.480  16.744   1.666  1.00  0.00     0.211 HD
ENDBRANCH  12  16
BRANCH  14  18
ATOM     18  O   UNL     1      -2.444  14.380   0.365  1.00  0.00    -0.387 OA
ATOM     19  H   UNL     1      -3.400  14.103   0.289  1.00  0.00     0.211 HD
ENDBRANCH  14  18
BRANCH  15  20
ATOM     20  O   UNL     1      -2.457  11.953   1.713  1.00  0.00    -0.385 OA
ATOM     21  H   UNL     1      -3.342  12.383   1.602  1.00  0.00     0.211 HD
ENDBRANCH  15  20
ENDBRANCH   8   9
ENDBRANCH   7   8
ENDBRANCH   1   7
BRANCH   2  22
ATOM     22  O   UNL     1      -3.280  15.316   7.453  1.00  0.00    -0.387 OA
ATOM     23  H   UNL     1      -2.971  15.815   6.642  1.00  0.00     0.211 HD
ENDBRANCH   2  22
BRANCH   3  24
ATOM     24  O   UNL     1      -1.682  14.251   9.712  1.00  0.00    -0.387 OA
ATOM     25  H   UNL     1      -0.782  13.885   9.517  1.00  0.00     0.211 HD
ENDBRANCH   3  24
BRANCH   5  26
ATOM     26  O   UNL     1      -4.498  11.057   8.306  1.00  0.00    -0.454 OA
BRANCH  26  27
ATOM     27  C   UNL     1      -5.217   9.864   8.074  1.00  0.00     0.214 A 
ATOM     28  C   UNL     1      -4.897   8.663   8.754  1.00  0.00     0.180 A 
ATOM     29  C   UNL     1      -6.263   9.811   7.132  1.00  0.00     0.239 A 
ATOM     30  O   UNL     1      -5.755   7.637   8.718  1.00  0.00    -0.452 OA
ATOM     31  C   UNL     1      -7.096   8.682   7.060  1.00  0.00     0.111 A 
ATOM     32  O   UNL     1      -6.406  10.760   6.312  1.00  0.00    -0.285 OA
ATOM     33  C   UNL     1      -6.844   7.619   7.957  1.00  0.00     0.146 A 
ATOM     34  C   UNL     1      -8.138   8.538   6.087  1.00  0.00     0.134 A 
ATOM     35  C   UNL     1      -7.741   6.545   8.046  1.00  0.00     0.094 A 
ATOM     36  C   UNL     1      -8.952   7.402   6.121  1.00  0.00     0.093 A 
ATOM     37  C   UNL     1      -8.799   6.436   7.120  1.00  0.00     0.123 A 
BRANCH  28  38
ATOM     38  C   UNL     1      -3.606   8.450   9.449  1.00  0.00     0.025 A 
ATOM     39  C   UNL     1      -2.588   7.794   8.732  1.00  0.00     0.062 A 
ATOM     40  C   UNL     1      -3.412   8.760  10.800  1.00  0.00     0.016 A 
ATOM     41  C   UNL     1      -1.379   7.450   9.360  1.00  0.00     0.158 A 
ATOM     42  C   UNL     1      -2.213   8.397  11.436  1.00  0.00     0.051 A 
ATOM     43  C   UNL     1      -1.185   7.767  10.711  1.00  0.00     0.157 A 
BRANCH  41  44
ATOM     44  O   UNL     1      -0.420   6.749   8.644  1.00  0.00    -0.504 OA
ATOM     45  H   UNL     1      -0.182   6.980   7.680  1.00  0.00     0.293 HD
ENDBRANCH  41  44
BRANCH  43  46
ATOM     46  O   UNL     1       0.008   7.415  11.342  1.00  0.00    -0.504 OA
ATOM     47  H   UNL     1       0.199   6.457  11.627  1.00  0.00     0.293 HD
ENDBRANCH  43  46
ENDBRANCH  28  38
BRANCH  34  48
ATOM     48  O   UNL     1      -8.348   9.492   5.091  1.00  0.00    -0.507 OA
ATOM     49  H   UNL     1      -7.656   9.679   4.367  1.00  0.00     0.293 HD
ENDBRANCH  34  48
BRANCH  37  50
ATOM     50  O   UNL     1      -9.656   5.354   7.147  1.00  0.00    -0.508 OA
ATOM     51  H   UNL     1      -9.634   4.635   6.419  1.00  0.00     0.293 HD
ENDBRANCH  37  50
ENDBRANCH  26  27
ENDBRANCH   5  26
BRANCH   4  52
ATOM     52  O   UNL     1      -0.962  11.788   8.948  1.00  0.00    -0.384 OA
ATOM     53  H   UNL     1      -0.638  12.257   8.121  1.00  0.00     0.211 HD
ENDBRANCH   4  52
TORSDOF 16
ENDMDL
