MODEL 1
REMARK VINA RESULT:    -4.467      0.000      0.000
REMARK INTER + INTRA:         -15.262
REMARK INTER:                 -11.257
REMARK INTRA:                  -4.005
REMARK UNBOUND:                -4.005
REMARK SMILES CCCCCCCCCCCCCCCCCCCCCCCCCCCC(=O)[O-]
REMARK SMILES IDX 15 1 16 2 17 3 18 4 19 5 20 6 21 7 22 8 23 9 24 10 25 11
REMARK SMILES IDX 26 12 27 13 28 14 29 15 30 16 14 17 13 18 12 19 11 20 10 21
REMARK SMILES IDX 9 22 8 23 7 24 6 25 5 26 4 27 3 28 2 29 1 30
REMARK H PARENT
REMARK Flexibility Score: inf
ROOT
ATOM      1  C   UNL     1      49.132  -6.583 -54.135  1.00  0.00     0.000 C 
ENDROOT
BRANCH   1   2
ATOM      2  C   UNL     1      49.476  -8.034 -54.492  1.00  0.00     0.000 C 
BRANCH   2   3
ATOM      3  C   UNL     1      48.450  -8.630 -55.468  1.00  0.00     0.000 C 
BRANCH   3   4
ATOM      4  C   UNL     1      47.550  -7.562 -56.119  1.00  0.00     0.000 C 
BRANCH   4   5
ATOM      5  C   UNL     1      47.031  -7.916 -57.525  1.00  0.00     0.000 C 
BRANCH   5   6
ATOM      6  C   UNL     1      48.068  -8.664 -58.374  1.00  0.00     0.000 C 
BRANCH   6   7
ATOM      7  C   UNL     1      47.444  -9.895 -59.047  1.00  0.00     0.000 C 
BRANCH   7   8
ATOM      8  C   UNL     1      48.032 -11.221 -58.534  1.00  0.00     0.000 C 
BRANCH   8   9
ATOM      9  C   UNL     1      47.385 -11.731 -57.230  1.00  0.00     0.000 C 
BRANCH   9  10
ATOM     10  C   UNL     1      48.422 -12.168 -56.178  1.00  0.00     0.000 C 
BRANCH  10  11
ATOM     11  C   UNL     1      48.587 -13.705 -56.140  1.00  0.00     0.000 C 
BRANCH  11  12
ATOM     12  C   UNL     1      47.474 -14.420 -55.355  1.00  0.00     0.006 C 
BRANCH  12  13
ATOM     13  C   UNL     1      46.701 -15.437 -56.209  1.00  0.00     0.053 C 
BRANCH  13  14
ATOM     14  C   UNL     1      47.582 -16.588 -56.582  1.00  0.00     0.041 C 
ATOM     15  O   UNL     1      48.345 -17.105 -55.724  1.00  0.00    -0.550 OA
ATOM     16  O   UNL     1      47.544 -17.106 -57.871  1.00  0.00    -0.550 OA
ENDBRANCH  13  14
ENDBRANCH  12  13
ENDBRANCH  11  12
ENDBRANCH  10  11
ENDBRANCH   9  10
ENDBRANCH   8   9
ENDBRANCH   7   8
ENDBRANCH   6   7
ENDBRANCH   5   6
ENDBRANCH   4   5
ENDBRANCH   3   4
ENDBRANCH   2   3
ENDBRANCH   1   2
BRANCH   1  17
ATOM     17  C   UNL     1      50.259  -5.598 -54.493  1.00  0.00     0.000 C 
BRANCH  17  18
ATOM     18  C   UNL     1      51.552  -6.280 -54.990  1.00  0.00     0.000 C 
BRANCH  18  19
ATOM     19  C   UNL     1      51.860  -5.944 -56.461  1.00  0.00     0.000 C 
BRANCH  19  20
ATOM     20  C   UNL     1      50.856  -4.933 -57.054  1.00  0.00     0.000 C 
BRANCH  20  21
ATOM     21  C   UNL     1      49.996  -5.515 -58.189  1.00  0.00     0.000 C 
BRANCH  21  22
ATOM     22  C   UNL     1      48.751  -4.666 -58.484  1.00  0.00    -0.000 C 
BRANCH  22  23
ATOM     23  C   UNL     1      48.759  -3.373 -57.660  1.00  0.00    -0.000 C 
BRANCH  23  24
ATOM     24  C   UNL     1      47.366  -3.083 -57.080  1.00  0.00    -0.000 C 
BRANCH  24  25
ATOM     25  C   UNL     1      47.046  -3.951 -55.854  1.00  0.00    -0.000 C 
BRANCH  25  26
ATOM     26  C   UNL     1      47.485  -3.293 -54.534  1.00  0.00    -0.000 C 
BRANCH  26  27
ATOM     27  C   UNL     1      46.368  -3.276 -53.479  1.00  0.00    -0.000 C 
BRANCH  27  28
ATOM     28  C   UNL     1      45.525  -4.566 -53.406  1.00  0.00    -0.000 C 
BRANCH  28  29
ATOM     29  C   UNL     1      45.601  -5.282 -52.040  1.00  0.00    -0.003 C 
ATOM     30  C   UNL     1      44.223  -5.670 -51.501  1.00  0.00     0.004 C 
ENDBRANCH  28  29
ENDBRANCH  27  28
ENDBRANCH  26  27
ENDBRANCH  25  26
ENDBRANCH  24  25
ENDBRANCH  23  24
ENDBRANCH  22  23
ENDBRANCH  21  22
ENDBRANCH  20  21
ENDBRANCH  19  20
ENDBRANCH  18  19
ENDBRANCH  17  18
ENDBRANCH   1  17
TORSDOF 26
ENDMDL
MODEL 2
REMARK VINA RESULT:    -4.352      3.569      8.960
REMARK INTER + INTRA:         -14.973
REMARK INTER:                 -10.822
REMARK INTRA:                  -4.151
REMARK UNBOUND:                -4.005
REMARK SMILES CCCCCCCCCCCCCCCCCCCCCCCCCCCC(=O)[O-]
REMARK SMILES IDX 15 1 16 2 17 3 18 4 19 5 20 6 21 7 22 8 23 9 24 10 25 11
REMARK SMILES IDX 26 12 27 13 28 14 29 15 30 16 14 17 13 18 12 19 11 20 10 21
REMARK SMILES IDX 9 22 8 23 7 24 6 25 5 26 4 27 3 28 2 29 1 30
REMARK H PARENT
REMARK Flexibility Score: inf
ROOT
ATOM      1  C   UNL     1      48.494  -7.075 -53.874  1.00  0.00     0.000 C 
ENDROOT
BRANCH   1   2
ATOM      2  C   UNL     1      49.874  -7.673 -54.174  1.00  0.00     0.000 C 
BRANCH   2   3
ATOM      3  C   UNL     1      50.863  -6.594 -54.641  1.00  0.00     0.000 C 
BRANCH   3   4
ATOM      4  C   UNL     1      50.258  -5.177 -54.625  1.00  0.00     0.000 C 
BRANCH   4   5
ATOM      5  C   UNL     1      50.361  -4.407 -55.955  1.00  0.00     0.000 C 
BRANCH   5   6
ATOM      6  C   UNL     1      50.213  -5.316 -57.184  1.00  0.00     0.000 C 
BRANCH   6   7
ATOM      7  C   UNL     1      48.755  -5.364 -57.661  1.00  0.00     0.000 C 
BRANCH   7   8
ATOM      8  C   UNL     1      47.940  -4.133 -57.224  1.00  0.00     0.000 C 
BRANCH   8   9
ATOM      9  C   UNL     1      46.468  -4.444 -56.885  1.00  0.00     0.000 C 
BRANCH   9  10
ATOM     10  C   UNL     1      46.204  -4.513 -55.369  1.00  0.00     0.000 C 
BRANCH  10  11
ATOM     11  C   UNL     1      46.480  -3.159 -54.677  1.00  0.00     0.000 C 
BRANCH  11  12
ATOM     12  C   UNL     1      46.502  -3.251 -53.142  1.00  0.00     0.006 C 
BRANCH  12  13
ATOM     13  C   UNL     1      45.097  -3.194 -52.520  1.00  0.00     0.053 C 
BRANCH  13  14
ATOM     14  C   UNL     1      44.727  -4.521 -51.935  1.00  0.00     0.041 C 
ATOM     15  O   UNL     1      43.532  -4.763 -51.621  1.00  0.00    -0.550 OA
ATOM     16  O   UNL     1      45.698  -5.500 -51.760  1.00  0.00    -0.550 OA
ENDBRANCH  13  14
ENDBRANCH  12  13
ENDBRANCH  11  12
ENDBRANCH  10  11
ENDBRANCH   9  10
ENDBRANCH   8   9
ENDBRANCH   7   8
ENDBRANCH   6   7
ENDBRANCH   5   6
ENDBRANCH   4   5
ENDBRANCH   3   4
ENDBRANCH   2   3
ENDBRANCH   1   2
BRANCH   1  17
ATOM     17  C   UNL     1      47.368  -7.739 -54.685  1.00  0.00     0.000 C 
BRANCH  17  18
ATOM     18  C   UNL     1      47.858  -8.477 -55.950  1.00  0.00     0.000 C 
BRANCH  18  19
ATOM     19  C   UNL     1      46.794  -8.499 -57.062  1.00  0.00     0.000 C 
BRANCH  19  20
ATOM     20  C   UNL     1      47.392  -8.865 -58.438  1.00  0.00     0.000 C 
BRANCH  20  21
ATOM     21  C   UNL     1      47.996 -10.279 -58.488  1.00  0.00     0.000 C 
BRANCH  21  22
ATOM     22  C   UNL     1      46.931 -11.373 -58.650  1.00  0.00    -0.000 C 
BRANCH  22  23
ATOM     23  C   UNL     1      46.972 -12.358 -57.475  1.00  0.00    -0.000 C 
BRANCH  23  24
ATOM     24  C   UNL     1      48.192 -12.094 -56.579  1.00  0.00    -0.000 C 
BRANCH  24  25
ATOM     25  C   UNL     1      48.881 -13.389 -56.125  1.00  0.00    -0.000 C 
BRANCH  25  26
ATOM     26  C   UNL     1      47.876 -14.494 -55.755  1.00  0.00    -0.000 C 
BRANCH  26  27
ATOM     27  C   UNL     1      48.374 -15.899 -56.132  1.00  0.00    -0.000 C 
BRANCH  27  28
ATOM     28  C   UNL     1      47.399 -16.722 -56.997  1.00  0.00    -0.000 C 
BRANCH  28  29
ATOM     29  C   UNL     1      46.018 -16.057 -57.184  1.00  0.00    -0.003 C 
ATOM     30  C   UNL     1      45.730 -15.698 -58.643  1.00  0.00     0.004 C 
ENDBRANCH  28  29
ENDBRANCH  27  28
ENDBRANCH  26  27
ENDBRANCH  25  26
ENDBRANCH  24  25
ENDBRANCH  23  24
ENDBRANCH  22  23
ENDBRANCH  21  22
ENDBRANCH  20  21
ENDBRANCH  19  20
ENDBRANCH  18  19
ENDBRANCH  17  18
ENDBRANCH   1  17
TORSDOF 26
ENDMDL
MODEL 3
REMARK VINA RESULT:    -4.319      3.641      9.354
REMARK INTER + INTRA:         -14.889
REMARK INTER:                 -10.591
REMARK INTRA:                  -4.298
REMARK UNBOUND:                -4.005
REMARK SMILES CCCCCCCCCCCCCCCCCCCCCCCCCCCC(=O)[O-]
REMARK SMILES IDX 15 1 16 2 17 3 18 4 19 5 20 6 21 7 22 8 23 9 24 10 25 11
REMARK SMILES IDX 26 12 27 13 28 14 29 15 30 16 14 17 13 18 12 19 11 20 10 21
REMARK SMILES IDX 9 22 8 23 7 24 6 25 5 26 4 27 3 28 2 29 1 30
REMARK H PARENT
REMARK Flexibility Score: inf
ROOT
ATOM      1  C   UNL     1      47.559  -7.498 -55.842  1.00  0.00     0.000 C 
ENDROOT
BRANCH   1   2
ATOM      2  C   UNL     1      48.646  -8.471 -55.372  1.00  0.00     0.000 C 
BRANCH   2   3
ATOM      3  C   UNL     1      49.571  -7.820 -54.332  1.00  0.00     0.000 C 
BRANCH   3   4
ATOM      4  C   UNL     1      49.372  -6.296 -54.223  1.00  0.00     0.000 C 
BRANCH   4   5
ATOM      5  C   UNL     1      50.612  -5.450 -54.563  1.00  0.00     0.000 C 
BRANCH   5   6
ATOM      6  C   UNL     1      51.721  -6.263 -55.245  1.00  0.00     0.000 C 
BRANCH   6   7
ATOM      7  C   UNL     1      52.021  -5.718 -56.648  1.00  0.00     0.000 C 
BRANCH   7   8
ATOM      8  C   UNL     1      50.865  -5.943 -57.638  1.00  0.00     0.000 C 
BRANCH   8   9
ATOM      9  C   UNL     1      50.232  -4.640 -58.171  1.00  0.00     0.000 C 
BRANCH   9  10
ATOM     10  C   UNL     1      48.739  -4.512 -57.817  1.00  0.00     0.000 C 
BRANCH  10  11
ATOM     11  C   UNL     1      48.503  -3.474 -56.696  1.00  0.00     0.000 C 
BRANCH  11  12
ATOM     12  C   UNL     1      47.219  -3.728 -55.889  1.00  0.00     0.006 C 
BRANCH  12  13
ATOM     13  C   UNL     1      47.325  -3.247 -54.433  1.00  0.00     0.053 C 
BRANCH  13  14
ATOM     14  C   UNL     1      46.241  -3.853 -53.599  1.00  0.00     0.041 C 
ATOM     15  O   UNL     1      46.130  -3.545 -52.383  1.00  0.00    -0.550 OA
ATOM     16  O   UNL     1      45.337  -4.741 -54.170  1.00  0.00    -0.550 OA
ENDBRANCH  13  14
ENDBRANCH  12  13
ENDBRANCH  11  12
ENDBRANCH  10  11
ENDBRANCH   9  10
ENDBRANCH   8   9
ENDBRANCH   7   8
ENDBRANCH   6   7
ENDBRANCH   5   6
ENDBRANCH   4   5
ENDBRANCH   3   4
ENDBRANCH   2   3
ENDBRANCH   1   2
BRANCH   1  17
ATOM     17  C   UNL     1      47.270  -7.608 -57.350  1.00  0.00     0.000 C 
BRANCH  17  18
ATOM     18  C   UNL     1      48.259  -8.518 -58.111  1.00  0.00     0.000 C 
BRANCH  18  19
ATOM     19  C   UNL     1      47.541  -9.628 -58.900  1.00  0.00     0.000 C 
BRANCH  19  20
ATOM     20  C   UNL     1      47.872 -11.037 -58.362  1.00  0.00     0.000 C 
BRANCH  20  21
ATOM     21  C   UNL     1      47.395 -11.271 -56.919  1.00  0.00     0.000 C 
BRANCH  21  22
ATOM     22  C   UNL     1      48.372 -12.129 -56.103  1.00  0.00    -0.000 C 
BRANCH  22  23
ATOM     23  C   UNL     1      48.454 -13.554 -56.664  1.00  0.00    -0.000 C 
BRANCH  23  24
ATOM     24  C   UNL     1      47.824 -14.564 -55.694  1.00  0.00    -0.000 C 
BRANCH  24  25
ATOM     25  C   UNL     1      48.341 -15.994 -55.913  1.00  0.00    -0.000 C 
BRANCH  25  26
ATOM     26  C   UNL     1      47.399 -16.833 -56.793  1.00  0.00    -0.000 C 
BRANCH  26  27
ATOM     27  C   UNL     1      45.916 -16.609 -56.457  1.00  0.00    -0.000 C 
BRANCH  27  28
ATOM     28  C   UNL     1      45.025 -16.251 -57.663  1.00  0.00    -0.000 C 
BRANCH  28  29
ATOM     29  C   UNL     1      45.791 -15.591 -58.830  1.00  0.00    -0.003 C 
ATOM     30  C   UNL     1      45.572 -14.079 -58.898  1.00  0.00     0.004 C 
ENDBRANCH  28  29
ENDBRANCH  27  28
ENDBRANCH  26  27
ENDBRANCH  25  26
ENDBRANCH  24  25
ENDBRANCH  23  24
ENDBRANCH  22  23
ENDBRANCH  21  22
ENDBRANCH  20  21
ENDBRANCH  19  20
ENDBRANCH  18  19
ENDBRANCH  17  18
ENDBRANCH   1  17
TORSDOF 26
ENDMDL
MODEL 4
REMARK VINA RESULT:    -4.228      1.340      3.258
REMARK INTER + INTRA:         -14.659
REMARK INTER:                 -10.520
REMARK INTRA:                  -4.139
REMARK UNBOUND:                -4.005
REMARK SMILES CCCCCCCCCCCCCCCCCCCCCCCCCCCC(=O)[O-]
REMARK SMILES IDX 15 1 16 2 17 3 18 4 19 5 20 6 21 7 22 8 23 9 24 10 25 11
REMARK SMILES IDX 26 12 27 13 28 14 29 15 30 16 14 17 13 18 12 19 11 20 10 21
REMARK SMILES IDX 9 22 8 23 7 24 6 25 5 26 4 27 3 28 2 29 1 30
REMARK H PARENT
REMARK Flexibility Score: inf
ROOT
ATOM      1  C   UNL     1      51.717  -5.732 -57.494  1.00  0.00     0.000 C 
ENDROOT
BRANCH   1   2
ATOM      2  C   UNL     1      50.795  -6.533 -58.421  1.00  0.00     0.000 C 
BRANCH   2   3
ATOM      3  C   UNL     1      49.334  -6.079 -58.289  1.00  0.00     0.000 C 
BRANCH   3   4
ATOM      4  C   UNL     1      48.347  -7.010 -59.017  1.00  0.00     0.000 C 
BRANCH   4   5
ATOM      5  C   UNL     1      48.723  -8.504 -58.998  1.00  0.00     0.000 C 
BRANCH   5   6
ATOM      6  C   UNL     1      47.504  -9.429 -59.125  1.00  0.00     0.000 C 
BRANCH   6   7
ATOM      7  C   UNL     1      47.897 -10.894 -58.888  1.00  0.00     0.000 C 
BRANCH   7   8
ATOM      8  C   UNL     1      47.248 -11.492 -57.628  1.00  0.00     0.000 C 
BRANCH   8   9
ATOM      9  C   UNL     1      48.135 -11.414 -56.368  1.00  0.00     0.000 C 
BRANCH   9  10
ATOM     10  C   UNL     1      48.640 -12.794 -55.906  1.00  0.00     0.000 C 
BRANCH  10  11
ATOM     11  C   UNL     1      47.653 -13.922 -56.282  1.00  0.00     0.000 C 
BRANCH  11  12
ATOM     12  C   UNL     1      48.128 -15.319 -55.850  1.00  0.00     0.006 C 
BRANCH  12  13
ATOM     13  C   UNL     1      47.577 -16.440 -56.746  1.00  0.00     0.053 C 
BRANCH  13  14
ATOM     14  C   UNL     1      46.211 -16.089 -57.246  1.00  0.00     0.041 C 
ATOM     15  O   UNL     1      46.046 -15.736 -58.444  1.00  0.00    -0.550 OA
ATOM     16  O   UNL     1      45.114 -16.176 -56.396  1.00  0.00    -0.550 OA
ENDBRANCH  13  14
ENDBRANCH  12  13
ENDBRANCH  11  12
ENDBRANCH  10  11
ENDBRANCH   9  10
ENDBRANCH   8   9
ENDBRANCH   7   8
ENDBRANCH   6   7
ENDBRANCH   5   6
ENDBRANCH   4   5
ENDBRANCH   3   4
ENDBRANCH   2   3
ENDBRANCH   1   2
BRANCH   1  17
ATOM     17  C   UNL     1      51.703  -6.250 -56.046  1.00  0.00     0.000 C 
BRANCH  17  18
ATOM     18  C   UNL     1      51.014  -5.295 -55.046  1.00  0.00     0.000 C 
BRANCH  18  19
ATOM     19  C   UNL     1      49.721  -5.894 -54.464  1.00  0.00     0.000 C 
BRANCH  19  20
ATOM     20  C   UNL     1      49.785  -7.433 -54.356  1.00  0.00     0.000 C 
BRANCH  20  21
ATOM     21  C   UNL     1      48.764  -8.155 -55.251  1.00  0.00     0.000 C 
BRANCH  21  22
ATOM     22  C   UNL     1      47.313  -7.911 -54.811  1.00  0.00    -0.000 C 
BRANCH  22  23
ATOM     23  C   UNL     1      46.398  -7.705 -56.024  1.00  0.00    -0.000 C 
BRANCH  23  24
ATOM     24  C   UNL     1      45.230  -6.770 -55.679  1.00  0.00    -0.000 C 
BRANCH  24  25
ATOM     25  C   UNL     1      45.272  -6.286 -54.222  1.00  0.00    -0.000 C 
BRANCH  25  26
ATOM     26  C   UNL     1      45.193  -4.754 -54.106  1.00  0.00    -0.000 C 
BRANCH  26  27
ATOM     27  C   UNL     1      46.519  -4.123 -53.652  1.00  0.00    -0.000 C 
BRANCH  27  28
ATOM     28  C   UNL     1      47.167  -3.168 -54.674  1.00  0.00    -0.000 C 
BRANCH  28  29
ATOM     29  C   UNL     1      47.414  -3.808 -56.056  1.00  0.00    -0.003 C 
ATOM     30  C   UNL     1      46.821  -2.985 -57.201  1.00  0.00     0.004 C 
ENDBRANCH  28  29
ENDBRANCH  27  28
ENDBRANCH  26  27
ENDBRANCH  25  26
ENDBRANCH  24  25
ENDBRANCH  23  24
ENDBRANCH  22  23
ENDBRANCH  21  22
ENDBRANCH  20  21
ENDBRANCH  19  20
ENDBRANCH  18  19
ENDBRANCH  17  18
ENDBRANCH   1  17
TORSDOF 26
ENDMDL
MODEL 5
REMARK VINA RESULT:    -4.178      1.561      3.791
REMARK INTER + INTRA:         -14.533
REMARK INTER:                  -9.847
REMARK INTRA:                  -4.687
REMARK UNBOUND:                -4.005
REMARK SMILES CCCCCCCCCCCCCCCCCCCCCCCCCCCC(=O)[O-]
REMARK SMILES IDX 15 1 16 2 17 3 18 4 19 5 20 6 21 7 22 8 23 9 24 10 25 11
REMARK SMILES IDX 26 12 27 13 28 14 29 15 30 16 14 17 13 18 12 19 11 20 10 21
REMARK SMILES IDX 9 22 8 23 7 24 6 25 5 26 4 27 3 28 2 29 1 30
REMARK H PARENT
REMARK Flexibility Score: inf
ROOT
ATOM      1  C   UNL     1      51.223  -6.286 -57.912  1.00  0.00     0.000 C 
ENDROOT
BRANCH   1   2
ATOM      2  C   UNL     1      52.159  -5.661 -56.870  1.00  0.00     0.000 C 
BRANCH   2   3
ATOM      3  C   UNL     1      51.872  -6.204 -55.461  1.00  0.00     0.000 C 
BRANCH   3   4
ATOM      4  C   UNL     1      50.871  -5.336 -54.675  1.00  0.00     0.000 C 
BRANCH   4   5
ATOM      5  C   UNL     1      49.593  -6.064 -54.220  1.00  0.00     0.000 C 
BRANCH   5   6
ATOM      6  C   UNL     1      49.645  -7.578 -54.473  1.00  0.00     0.000 C 
BRANCH   6   7
ATOM      7  C   UNL     1      48.325  -8.081 -55.075  1.00  0.00     0.000 C 
BRANCH   7   8
ATOM      8  C   UNL     1      48.035  -7.488 -56.465  1.00  0.00     0.000 C 
BRANCH   8   9
ATOM      9  C   UNL     1      47.979  -8.537 -57.595  1.00  0.00     0.000 C 
BRANCH   9  10
ATOM     10  C   UNL     1      47.131  -9.768 -57.228  1.00  0.00     0.000 C 
BRANCH  10  11
ATOM     11  C   UNL     1      47.742 -11.073 -57.787  1.00  0.00     0.000 C 
BRANCH  11  12
ATOM     12  C   UNL     1      47.210 -12.341 -57.099  1.00  0.00     0.006 C 
BRANCH  12  13
ATOM     13  C   UNL     1      48.245 -12.995 -56.169  1.00  0.00     0.053 C 
BRANCH  13  14
ATOM     14  C   UNL     1      47.905 -14.432 -55.933  1.00  0.00     0.041 C 
ATOM     15  O   UNL     1      48.744 -15.333 -56.199  1.00  0.00    -0.550 OA
ATOM     16  O   UNL     1      46.671 -14.777 -55.395  1.00  0.00    -0.550 OA
ENDBRANCH  13  14
ENDBRANCH  12  13
ENDBRANCH  11  12
ENDBRANCH  10  11
ENDBRANCH   9  10
ENDBRANCH   8   9
ENDBRANCH   7   8
ENDBRANCH   6   7
ENDBRANCH   5   6
ENDBRANCH   4   5
ENDBRANCH   3   4
ENDBRANCH   2   3
ENDBRANCH   1   2
BRANCH   1  17
ATOM     17  C   UNL     1      50.250  -5.265 -58.527  1.00  0.00     0.000 C 
BRANCH  17  18
ATOM     18  C   UNL     1      50.612  -3.794 -58.226  1.00  0.00     0.000 C 
BRANCH  18  19
ATOM     19  C   UNL     1      49.373  -2.948 -57.880  1.00  0.00     0.000 C 
BRANCH  19  20
ATOM     20  C   UNL     1      48.489  -3.616 -56.804  1.00  0.00     0.000 C 
BRANCH  20  21
ATOM     21  C   UNL     1      46.983  -3.523 -57.102  1.00  0.00     0.000 C 
BRANCH  21  22
ATOM     22  C   UNL     1      46.135  -3.378 -55.830  1.00  0.00    -0.000 C 
BRANCH  22  23
ATOM     23  C   UNL     1      47.022  -3.146 -54.601  1.00  0.00    -0.000 C 
BRANCH  23  24
ATOM     24  C   UNL     1      46.459  -3.875 -53.371  1.00  0.00    -0.000 C 
BRANCH  24  25
ATOM     25  C   UNL     1      46.131  -5.348 -53.658  1.00  0.00    -0.000 C 
BRANCH  25  26
ATOM     26  C   UNL     1      45.016  -5.892 -52.748  1.00  0.00    -0.000 C 
BRANCH  26  27
ATOM     27  C   UNL     1      44.095  -6.889 -53.469  1.00  0.00    -0.000 C 
BRANCH  27  28
ATOM     28  C   UNL     1      44.719  -7.573 -54.701  1.00  0.00    -0.000 C 
BRANCH  28  29
ATOM     29  C   UNL     1      43.935  -7.333 -56.010  1.00  0.00    -0.003 C 
ATOM     30  C   UNL     1      43.404  -5.903 -56.124  1.00  0.00     0.004 C 
ENDBRANCH  28  29
ENDBRANCH  27  28
ENDBRANCH  26  27
ENDBRANCH  25  26
ENDBRANCH  24  25
ENDBRANCH  23  24
ENDBRANCH  22  23
ENDBRANCH  21  22
ENDBRANCH  20  21
ENDBRANCH  19  20
ENDBRANCH  18  19
ENDBRANCH  17  18
ENDBRANCH   1  17
TORSDOF 26
ENDMDL
MODEL 6
REMARK VINA RESULT:    -4.165      3.093      7.055
REMARK INTER + INTRA:         -14.501
REMARK INTER:                 -10.111
REMARK INTRA:                  -4.389
REMARK UNBOUND:                -4.005
REMARK SMILES CCCCCCCCCCCCCCCCCCCCCCCCCCCC(=O)[O-]
REMARK SMILES IDX 15 1 16 2 17 3 18 4 19 5 20 6 21 7 22 8 23 9 24 10 25 11
REMARK SMILES IDX 26 12 27 13 28 14 29 15 30 16 14 17 13 18 12 19 11 20 10 21
REMARK SMILES IDX 9 22 8 23 7 24 6 25 5 26 4 27 3 28 2 29 1 30
REMARK H PARENT
REMARK Flexibility Score: inf
ROOT
ATOM      1  C   UNL     1      48.479  -8.122 -54.664  1.00  0.00     0.000 C 
ENDROOT
BRANCH   1   2
ATOM      2  C   UNL     1      47.472  -7.060 -54.205  1.00  0.00     0.000 C 
BRANCH   2   3
ATOM      3  C   UNL     1      46.173  -7.129 -55.022  1.00  0.00     0.000 C 
BRANCH   3   4
ATOM      4  C   UNL     1      46.006  -5.940 -55.988  1.00  0.00     0.000 C 
BRANCH   4   5
ATOM      5  C   UNL     1      47.172  -4.934 -55.991  1.00  0.00     0.000 C 
BRANCH   5   6
ATOM      6  C   UNL     1      46.785  -3.569 -55.404  1.00  0.00     0.000 C 
BRANCH   6   7
ATOM      7  C   UNL     1      47.270  -3.435 -53.954  1.00  0.00     0.000 C 
BRANCH   7   8
ATOM      8  C   UNL     1      46.123  -3.185 -52.959  1.00  0.00     0.000 C 
BRANCH   8   9
ATOM      9  C   UNL     1      45.568  -4.467 -52.306  1.00  0.00     0.000 C 
BRANCH   9  10
ATOM     10  C   UNL     1      44.247  -4.230 -51.551  1.00  0.00     0.000 C 
BRANCH  10  11
ATOM     11  C   UNL     1      43.079  -5.028 -52.175  1.00  0.00     0.000 C 
BRANCH  11  12
ATOM     12  C   UNL     1      43.520  -6.352 -52.822  1.00  0.00     0.006 C 
BRANCH  12  13
ATOM     13  C   UNL     1      42.401  -7.405 -52.849  1.00  0.00     0.053 C 
BRANCH  13  14
ATOM     14  C   UNL     1      42.684  -8.497 -51.866  1.00  0.00     0.041 C 
ATOM     15  O   UNL     1      43.216  -8.228 -50.757  1.00  0.00    -0.550 OA
ATOM     16  O   UNL     1      42.338  -9.810 -52.164  1.00  0.00    -0.550 OA
ENDBRANCH  13  14
ENDBRANCH  12  13
ENDBRANCH  11  12
ENDBRANCH  10  11
ENDBRANCH   9  10
ENDBRANCH   8   9
ENDBRANCH   7   8
ENDBRANCH   6   7
ENDBRANCH   5   6
ENDBRANCH   4   5
ENDBRANCH   3   4
ENDBRANCH   2   3
ENDBRANCH   1   2
BRANCH   1  17
ATOM     17  C   UNL     1      49.930  -7.764 -54.300  1.00  0.00     0.000 C 
BRANCH  17  18
ATOM     18  C   UNL     1      50.295  -6.286 -54.561  1.00  0.00     0.000 C 
BRANCH  18  19
ATOM     19  C   UNL     1      51.763  -6.115 -54.995  1.00  0.00     0.000 C 
BRANCH  19  20
ATOM     20  C   UNL     1      51.900  -5.871 -56.513  1.00  0.00     0.000 C 
BRANCH  20  21
ATOM     21  C   UNL     1      50.613  -5.346 -57.171  1.00  0.00     0.000 C 
BRANCH  21  22
ATOM     22  C   UNL     1      50.603  -5.540 -58.694  1.00  0.00    -0.000 C 
BRANCH  22  23
ATOM     23  C   UNL     1      50.090  -6.936 -59.067  1.00  0.00    -0.000 C 
BRANCH  23  24
ATOM     24  C   UNL     1      48.646  -7.138 -58.582  1.00  0.00    -0.000 C 
BRANCH  24  25
ATOM     25  C   UNL     1      48.349  -8.597 -58.206  1.00  0.00    -0.000 C 
BRANCH  25  26
ATOM     26  C   UNL     1      46.842  -8.905 -58.180  1.00  0.00    -0.000 C 
BRANCH  26  27
ATOM     27  C   UNL     1      46.498 -10.111 -57.292  1.00  0.00    -0.000 C 
BRANCH  27  28
ATOM     28  C   UNL     1      47.713 -10.818 -56.659  1.00  0.00    -0.000 C 
BRANCH  28  29
ATOM     29  C   UNL     1      47.745 -12.342 -56.904  1.00  0.00    -0.003 C 
ATOM     30  C   UNL     1      48.861 -13.040 -56.123  1.00  0.00     0.004 C 
ENDBRANCH  28  29
ENDBRANCH  27  28
ENDBRANCH  26  27
ENDBRANCH  25  26
ENDBRANCH  24  25
ENDBRANCH  23  24
ENDBRANCH  22  23
ENDBRANCH  21  22
ENDBRANCH  20  21
ENDBRANCH  19  20
ENDBRANCH  18  19
ENDBRANCH  17  18
ENDBRANCH   1  17
TORSDOF 26
ENDMDL
MODEL 7
REMARK VINA RESULT:    -4.100      1.563      2.640
REMARK INTER + INTRA:         -14.337
REMARK INTER:                 -10.048
REMARK INTRA:                  -4.289
REMARK UNBOUND:                -4.005
REMARK SMILES CCCCCCCCCCCCCCCCCCCCCCCCCCCC(=O)[O-]
REMARK SMILES IDX 15 1 16 2 17 3 18 4 19 5 20 6 21 7 22 8 23 9 24 10 25 11
REMARK SMILES IDX 26 12 27 13 28 14 29 15 30 16 14 17 13 18 12 19 11 20 10 21
REMARK SMILES IDX 9 22 8 23 7 24 6 25 5 26 4 27 3 28 2 29 1 30
REMARK H PARENT
REMARK Flexibility Score: inf
ROOT
ATOM      1  C   UNL     1      47.608  -7.823 -55.361  1.00  0.00     0.000 C 
ENDROOT
BRANCH   1   2
ATOM      2  C   UNL     1      47.278  -7.785 -56.858  1.00  0.00     0.000 C 
BRANCH   2   3
ATOM      3  C   UNL     1      48.553  -7.711 -57.712  1.00  0.00     0.000 C 
BRANCH   3   4
ATOM      4  C   UNL     1      48.489  -8.604 -58.966  1.00  0.00     0.000 C 
BRANCH   4   5
ATOM      5  C   UNL     1      47.309  -9.593 -59.003  1.00  0.00     0.000 C 
BRANCH   5   6
ATOM      6  C   UNL     1      47.728 -11.036 -58.691  1.00  0.00     0.000 C 
BRANCH   6   7
ATOM      7  C   UNL     1      47.214 -11.474 -57.313  1.00  0.00     0.000 C 
BRANCH   7   8
ATOM      8  C   UNL     1      48.338 -11.628 -56.274  1.00  0.00     0.000 C 
BRANCH   8   9
ATOM      9  C   UNL     1      48.774 -13.089 -56.033  1.00  0.00     0.000 C 
BRANCH   9  10
ATOM     10  C   UNL     1      47.582 -14.055 -55.900  1.00  0.00     0.000 C 
BRANCH  10  11
ATOM     11  C   UNL     1      48.046 -15.524 -55.780  1.00  0.00     0.000 C 
BRANCH  11  12
ATOM     12  C   UNL     1      47.431 -16.448 -56.844  1.00  0.00     0.006 C 
BRANCH  12  13
ATOM     13  C   UNL     1      47.379 -17.919 -56.399  1.00  0.00     0.053 C 
BRANCH  13  14
ATOM     14  C   UNL     1      45.961 -18.381 -56.280  1.00  0.00     0.041 C 
ATOM     15  O   UNL     1      45.663 -19.579 -56.529  1.00  0.00    -0.550 OA
ATOM     16  O   UNL     1      44.971 -17.496 -55.868  1.00  0.00    -0.550 OA
ENDBRANCH  13  14
ENDBRANCH  12  13
ENDBRANCH  11  12
ENDBRANCH  10  11
ENDBRANCH   9  10
ENDBRANCH   8   9
ENDBRANCH   7   8
ENDBRANCH   6   7
ENDBRANCH   5   6
ENDBRANCH   4   5
ENDBRANCH   3   4
ENDBRANCH   2   3
ENDBRANCH   1   2
BRANCH   1  17
ATOM     17  C   UNL     1      49.059  -8.250 -55.081  1.00  0.00     0.000 C 
BRANCH  17  18
ATOM     18  C   UNL     1      49.806  -7.322 -54.098  1.00  0.00     0.000 C 
BRANCH  18  19
ATOM     19  C   UNL     1      50.951  -6.550 -54.779  1.00  0.00     0.000 C 
BRANCH  19  20
ATOM     20  C   UNL     1      50.526  -5.128 -55.206  1.00  0.00     0.000 C 
BRANCH  20  21
ATOM     21  C   UNL     1      49.368  -4.556 -54.370  1.00  0.00     0.000 C 
BRANCH  21  22
ATOM     22  C   UNL     1      48.296  -3.873 -55.231  1.00  0.00    -0.000 C 
BRANCH  22  23
ATOM     23  C   UNL     1      48.506  -4.183 -56.718  1.00  0.00    -0.000 C 
BRANCH  23  24
ATOM     24  C   UNL     1      47.170  -4.166 -57.477  1.00  0.00    -0.000 C 
BRANCH  24  25
ATOM     25  C   UNL     1      46.020  -3.595 -56.633  1.00  0.00    -0.000 C 
BRANCH  25  26
ATOM     26  C   UNL     1      44.638  -4.047 -57.137  1.00  0.00    -0.000 C 
BRANCH  26  27
ATOM     27  C   UNL     1      43.808  -4.742 -56.046  1.00  0.00    -0.000 C 
BRANCH  27  28
ATOM     28  C   UNL     1      44.588  -5.754 -55.184  1.00  0.00    -0.000 C 
BRANCH  28  29
ATOM     29  C   UNL     1      44.499  -5.480 -53.667  1.00  0.00    -0.003 C 
ATOM     30  C   UNL     1      45.865  -5.520 -52.980  1.00  0.00     0.004 C 
ENDBRANCH  28  29
ENDBRANCH  27  28
ENDBRANCH  26  27
ENDBRANCH  25  26
ENDBRANCH  24  25
ENDBRANCH  23  24
ENDBRANCH  22  23
ENDBRANCH  21  22
ENDBRANCH  20  21
ENDBRANCH  19  20
ENDBRANCH  18  19
ENDBRANCH  17  18
ENDBRANCH   1  17
TORSDOF 26
ENDMDL
MODEL 8
REMARK VINA RESULT:    -4.042      1.613      3.920
REMARK INTER + INTRA:         -14.190
REMARK INTER:                  -9.988
REMARK INTRA:                  -4.203
REMARK UNBOUND:                -4.005
REMARK SMILES CCCCCCCCCCCCCCCCCCCCCCCCCCCC(=O)[O-]
REMARK SMILES IDX 15 1 16 2 17 3 18 4 19 5 20 6 21 7 22 8 23 9 24 10 25 11
REMARK SMILES IDX 26 12 27 13 28 14 29 15 30 16 14 17 13 18 12 19 11 20 10 21
REMARK SMILES IDX 9 22 8 23 7 24 6 25 5 26 4 27 3 28 2 29 1 30
REMARK H PARENT
REMARK Flexibility Score: inf
ROOT
ATOM      1  C   UNL     1      45.866  -7.627 -55.246  1.00  0.00     0.000 C 
ENDROOT
BRANCH   1   2
ATOM      2  C   UNL     1      45.692  -7.955 -56.734  1.00  0.00     0.000 C 
BRANCH   2   3
ATOM      3  C   UNL     1      46.997  -7.729 -57.514  1.00  0.00     0.000 C 
BRANCH   3   4
ATOM      4  C   UNL     1      47.099  -8.602 -58.780  1.00  0.00     0.000 C 
BRANCH   4   5
ATOM      5  C   UNL     1      48.311  -9.551 -58.823  1.00  0.00     0.000 C 
BRANCH   5   6
ATOM      6  C   UNL     1      47.914 -11.015 -59.062  1.00  0.00     0.000 C 
BRANCH   6   7
ATOM      7  C   UNL     1      47.307 -11.635 -57.796  1.00  0.00     0.000 C 
BRANCH   7   8
ATOM      8  C   UNL     1      47.912 -11.068 -56.501  1.00  0.00     0.000 C 
BRANCH   8   9
ATOM      9  C   UNL     1      48.748 -12.088 -55.699  1.00  0.00     0.000 C 
BRANCH   9  10
ATOM     10  C   UNL     1      48.749 -13.491 -56.333  1.00  0.00     0.000 C 
BRANCH  10  11
ATOM     11  C   UNL     1      47.841 -14.472 -55.557  1.00  0.00     0.000 C 
BRANCH  11  12
ATOM     12  C   UNL     1      48.118 -15.949 -55.882  1.00  0.00     0.006 C 
BRANCH  12  13
ATOM     13  C   UNL     1      47.363 -16.437 -57.129  1.00  0.00     0.053 C 
BRANCH  13  14
ATOM     14  C   UNL     1      45.930 -16.011 -57.076  1.00  0.00     0.041 C 
ATOM     15  O   UNL     1      45.443 -15.310 -58.002  1.00  0.00    -0.550 OA
ATOM     16  O   UNL     1      45.124 -16.407 -56.015  1.00  0.00    -0.550 OA
ENDBRANCH  13  14
ENDBRANCH  12  13
ENDBRANCH  11  12
ENDBRANCH  10  11
ENDBRANCH   9  10
ENDBRANCH   8   9
ENDBRANCH   7   8
ENDBRANCH   6   7
ENDBRANCH   5   6
ENDBRANCH   4   5
ENDBRANCH   3   4
ENDBRANCH   2   3
ENDBRANCH   1   2
BRANCH   1  17
ATOM     17  C   UNL     1      45.721  -6.126 -54.945  1.00  0.00     0.000 C 
BRANCH  17  18
ATOM     18  C   UNL     1      44.677  -5.408 -55.829  1.00  0.00     0.000 C 
BRANCH  18  19
ATOM     19  C   UNL     1      45.300  -4.273 -56.662  1.00  0.00     0.000 C 
BRANCH  19  20
ATOM     20  C   UNL     1      46.814  -4.117 -56.400  1.00  0.00     0.000 C 
BRANCH  20  21
ATOM     21  C   UNL     1      47.657  -4.060 -57.685  1.00  0.00     0.000 C 
BRANCH  21  22
ATOM     22  C   UNL     1      48.916  -3.195 -57.530  1.00  0.00    -0.000 C 
BRANCH  22  23
ATOM     23  C   UNL     1      50.157  -3.932 -58.052  1.00  0.00    -0.000 C 
BRANCH  23  24
ATOM     24  C   UNL     1      49.842  -5.409 -58.331  1.00  0.00    -0.000 C 
BRANCH  24  25
ATOM     25  C   UNL     1      50.970  -6.348 -57.880  1.00  0.00    -0.000 C 
BRANCH  25  26
ATOM     26  C   UNL     1      51.947  -5.669 -56.904  1.00  0.00    -0.000 C 
BRANCH  26  27
ATOM     27  C   UNL     1      51.761  -6.142 -55.453  1.00  0.00    -0.000 C 
BRANCH  27  28
ATOM     28  C   UNL     1      50.648  -5.416 -54.672  1.00  0.00    -0.000 C 
BRANCH  28  29
ATOM     29  C   UNL     1      49.336  -6.222 -54.561  1.00  0.00    -0.003 C 
ATOM     30  C   UNL     1      49.568  -7.733 -54.609  1.00  0.00     0.004 C 
ENDBRANCH  28  29
ENDBRANCH  27  28
ENDBRANCH  26  27
ENDBRANCH  25  26
ENDBRANCH  24  25
ENDBRANCH  23  24
ENDBRANCH  22  23
ENDBRANCH  21  22
ENDBRANCH  20  21
ENDBRANCH  19  20
ENDBRANCH  18  19
ENDBRANCH  17  18
ENDBRANCH   1  17
TORSDOF 26
ENDMDL
