MODEL 1
REMARK VINA RESULT:    -5.412      0.000      0.000
REMARK INTER + INTRA:         -15.884
REMARK INTER:                 -13.637
REMARK INTRA:                  -2.247
REMARK UNBOUND:                -2.247
REMARK SMILES CCCCCCCCCCCCCCCCCCCCCCCCCCCC(=O)[O-]
REMARK SMILES IDX 15 1 16 2 17 3 18 4 19 5 20 6 21 7 22 8 23 9 24 10 25 11
REMARK SMILES IDX 26 12 27 13 28 14 29 15 30 16 14 17 13 18 12 19 11 20 10 21
REMARK SMILES IDX 9 22 8 23 7 24 6 25 5 26 4 27 3 28 2 29 1 30
REMARK H PARENT
REMARK Flexibility Score: inf
ROOT
ATOM      1  C   UNL     1      10.954  51.051  22.991  1.00  0.00     0.000 C 
ENDROOT
BRANCH   1   2
ATOM      2  C   UNL     1      10.686  49.575  22.660  1.00  0.00     0.000 C 
BRANCH   2   3
ATOM      3  C   UNL     1      11.785  48.672  23.241  1.00  0.00     0.000 C 
BRANCH   3   4
ATOM      4  C   UNL     1      11.432  47.177  23.169  1.00  0.00     0.000 C 
BRANCH   4   5
ATOM      5  C   UNL     1      10.025  46.811  23.683  1.00  0.00     0.000 C 
BRANCH   5   6
ATOM      6  C   UNL     1       9.726  45.303  23.746  1.00  0.00     0.000 C 
BRANCH   6   7
ATOM      7  C   UNL     1       8.226  44.994  23.870  1.00  0.00     0.000 C 
BRANCH   7   8
ATOM      8  C   UNL     1       7.474  46.182  24.484  1.00  0.00     0.000 C 
BRANCH   8   9
ATOM      9  C   UNL     1       7.039  45.929  25.938  1.00  0.00     0.000 C 
BRANCH   9  10
ATOM     10  C   UNL     1       5.706  46.590  26.343  1.00  0.00     0.000 C 
BRANCH  10  11
ATOM     11  C   UNL     1       4.438  45.884  25.820  1.00  0.00     0.000 C 
BRANCH  11  12
ATOM     12  C   UNL     1       3.283  46.825  25.433  1.00  0.00     0.006 C 
BRANCH  12  13
ATOM     13  C   UNL     1       3.691  47.870  24.388  1.00  0.00     0.053 C 
BRANCH  13  14
ATOM     14  C   UNL     1       2.664  48.955  24.307  1.00  0.00     0.041 C 
ATOM     15  O   UNL     1       2.997  50.157  24.481  1.00  0.00    -0.550 OA
ATOM     16  O   UNL     1       1.347  48.645  23.987  1.00  0.00    -0.550 OA
ENDBRANCH  13  14
ENDBRANCH  12  13
ENDBRANCH  11  12
ENDBRANCH  10  11
ENDBRANCH   9  10
ENDBRANCH   8   9
ENDBRANCH   7   8
ENDBRANCH   6   7
ENDBRANCH   5   6
ENDBRANCH   4   5
ENDBRANCH   3   4
ENDBRANCH   2   3
ENDBRANCH   1   2
BRANCH   1  17
ATOM     17  C   UNL     1      10.357  52.008  21.938  1.00  0.00     0.000 C 
BRANCH  17  18
ATOM     18  C   UNL     1      10.946  53.428  21.981  1.00  0.00     0.000 C 
BRANCH  18  19
ATOM     19  C   UNL     1      11.023  54.004  23.402  1.00  0.00     0.000 C 
BRANCH  19  20
ATOM     20  C   UNL     1       9.977  55.102  23.664  1.00  0.00     0.000 C 
BRANCH  20  21
ATOM     21  C   UNL     1       8.875  54.688  24.661  1.00  0.00     0.000 C 
BRANCH  21  22
ATOM     22  C   UNL     1       7.777  53.842  24.000  1.00  0.00    -0.000 C 
BRANCH  22  23
ATOM     23  C   UNL     1       7.539  54.280  22.547  1.00  0.00    -0.000 C 
BRANCH  23  24
ATOM     24  C   UNL     1       6.311  55.196  22.386  1.00  0.00    -0.000 C 
BRANCH  24  25
ATOM     25  C   UNL     1       6.515  56.413  21.465  1.00  0.00    -0.000 C 
BRANCH  25  26
ATOM     26  C   UNL     1       7.938  56.501  20.890  1.00  0.00    -0.000 C 
BRANCH  26  27
ATOM     27  C   UNL     1       8.001  56.143  19.394  1.00  0.00    -0.000 C 
BRANCH  27  28
ATOM     28  C   UNL     1       7.703  54.667  19.056  1.00  0.00    -0.000 C 
BRANCH  28  29
ATOM     29  C   UNL     1       7.385  54.392  17.577  1.00  0.00    -0.003 C 
ATOM     30  C   UNL     1       6.985  55.652  16.808  1.00  0.00     0.004 C 
ENDBRANCH  28  29
ENDBRANCH  27  28
ENDBRANCH  26  27
ENDBRANCH  25  26
ENDBRANCH  24  25
ENDBRANCH  23  24
ENDBRANCH  22  23
ENDBRANCH  21  22
ENDBRANCH  20  21
ENDBRANCH  19  20
ENDBRANCH  18  19
ENDBRANCH  17  18
ENDBRANCH   1  17
TORSDOF 26
ENDMDL
MODEL 2
REMARK VINA RESULT:    -5.253      2.785      8.977
REMARK INTER + INTRA:         -15.485
REMARK INTER:                 -13.178
REMARK INTRA:                  -2.306
REMARK UNBOUND:                -2.247
REMARK SMILES CCCCCCCCCCCCCCCCCCCCCCCCCCCC(=O)[O-]
REMARK SMILES IDX 15 1 16 2 17 3 18 4 19 5 20 6 21 7 22 8 23 9 24 10 25 11
REMARK SMILES IDX 26 12 27 13 28 14 29 15 30 16 14 17 13 18 12 19 11 20 10 21
REMARK SMILES IDX 9 22 8 23 7 24 6 25 5 26 4 27 3 28 2 29 1 30
REMARK H PARENT
REMARK Flexibility Score: inf
ROOT
ATOM      1  C   UNL     1      10.807  48.810  23.949  1.00  0.00     0.000 C 
ENDROOT
BRANCH   1   2
ATOM      2  C   UNL     1      11.225  49.876  22.926  1.00  0.00     0.000 C 
BRANCH   2   3
ATOM      3  C   UNL     1      10.439  51.180  23.136  1.00  0.00     0.000 C 
BRANCH   3   4
ATOM      4  C   UNL     1      10.427  52.080  21.888  1.00  0.00     0.000 C 
BRANCH   4   5
ATOM      5  C   UNL     1      10.988  53.500  22.100  1.00  0.00     0.000 C 
BRANCH   5   6
ATOM      6  C   UNL     1      10.962  54.000  23.555  1.00  0.00     0.000 C 
BRANCH   6   7
ATOM      7  C   UNL     1       9.847  55.023  23.817  1.00  0.00     0.000 C 
BRANCH   7   8
ATOM      8  C   UNL     1       8.663  54.367  24.540  1.00  0.00     0.000 C 
BRANCH   8   9
ATOM      9  C   UNL     1       7.606  53.807  23.573  1.00  0.00     0.000 C 
BRANCH   9  10
ATOM     10  C   UNL     1       7.233  54.741  22.405  1.00  0.00     0.000 C 
BRANCH  10  11
ATOM     11  C   UNL     1       7.762  54.307  21.023  1.00  0.00     0.000 C 
BRANCH  11  12
ATOM     12  C   UNL     1       8.422  55.426  20.198  1.00  0.00     0.006 C 
BRANCH  12  13
ATOM     13  C   UNL     1       7.429  56.158  19.286  1.00  0.00     0.053 C 
BRANCH  13  14
ATOM     14  C   UNL     1       7.248  55.409  18.004  1.00  0.00     0.041 C 
ATOM     15  O   UNL     1       7.289  56.019  16.903  1.00  0.00    -0.550 OA
ATOM     16  O   UNL     1       7.088  54.028  18.020  1.00  0.00    -0.550 OA
ENDBRANCH  13  14
ENDBRANCH  12  13
ENDBRANCH  11  12
ENDBRANCH  10  11
ENDBRANCH   9  10
ENDBRANCH   8   9
ENDBRANCH   7   8
ENDBRANCH   6   7
ENDBRANCH   5   6
ENDBRANCH   4   5
ENDBRANCH   3   4
ENDBRANCH   2   3
ENDBRANCH   1   2
BRANCH   1  17
ATOM     17  C   UNL     1      11.184  47.384  23.499  1.00  0.00     0.000 C 
BRANCH  17  18
ATOM     18  C   UNL     1      10.091  46.336  23.768  1.00  0.00     0.000 C 
BRANCH  18  19
ATOM     19  C   UNL     1       8.835  46.931  24.422  1.00  0.00     0.000 C 
BRANCH  19  20
ATOM     20  C   UNL     1       7.535  46.253  23.958  1.00  0.00     0.000 C 
BRANCH  20  21
ATOM     21  C   UNL     1       7.001  45.190  24.942  1.00  0.00     0.000 C 
BRANCH  21  22
ATOM     22  C   UNL     1       7.038  45.672  26.400  1.00  0.00    -0.000 C 
BRANCH  22  23
ATOM     23  C   UNL     1       5.634  45.664  27.022  1.00  0.00    -0.000 C 
BRANCH  23  24
ATOM     24  C   UNL     1       4.906  47.014  26.888  1.00  0.00    -0.000 C 
BRANCH  24  25
ATOM     25  C   UNL     1       3.788  47.056  25.829  1.00  0.00    -0.000 C 
BRANCH  25  26
ATOM     26  C   UNL     1       4.202  47.798  24.547  1.00  0.00    -0.000 C 
BRANCH  26  27
ATOM     27  C   UNL     1       3.406  47.342  23.310  1.00  0.00    -0.000 C 
BRANCH  27  28
ATOM     28  C   UNL     1       1.880  47.556  23.392  1.00  0.00    -0.000 C 
BRANCH  28  29
ATOM     29  C   UNL     1       1.107  47.209  22.109  1.00  0.00    -0.003 C 
ATOM     30  C   UNL     1       1.176  45.723  21.754  1.00  0.00     0.004 C 
ENDBRANCH  28  29
ENDBRANCH  27  28
ENDBRANCH  26  27
ENDBRANCH  25  26
ENDBRANCH  24  25
ENDBRANCH  23  24
ENDBRANCH  22  23
ENDBRANCH  21  22
ENDBRANCH  20  21
ENDBRANCH  19  20
ENDBRANCH  18  19
ENDBRANCH  17  18
ENDBRANCH   1  17
TORSDOF 26
ENDMDL
MODEL 3
REMARK VINA RESULT:    -5.229      6.717     11.504
REMARK INTER + INTRA:         -15.424
REMARK INTER:                 -12.773
REMARK INTRA:                  -2.651
REMARK UNBOUND:                -2.247
REMARK SMILES CCCCCCCCCCCCCCCCCCCCCCCCCCCC(=O)[O-]
REMARK SMILES IDX 15 1 16 2 17 3 18 4 19 5 20 6 21 7 22 8 23 9 24 10 25 11
REMARK SMILES IDX 26 12 27 13 28 14 29 15 30 16 14 17 13 18 12 19 11 20 10 21
REMARK SMILES IDX 9 22 8 23 7 24 6 25 5 26 4 27 3 28 2 29 1 30
REMARK H PARENT
REMARK Flexibility Score: inf
ROOT
ATOM      1  C   UNL     1       1.326  60.244  22.491  1.00  0.00     0.000 C 
ENDROOT
BRANCH   1   2
ATOM      2  C   UNL     1       2.732  59.627  22.464  1.00  0.00     0.000 C 
BRANCH   2   3
ATOM      3  C   UNL     1       3.411  59.863  21.106  1.00  0.00     0.000 C 
BRANCH   3   4
ATOM      4  C   UNL     1       4.118  58.608  20.563  1.00  0.00     0.000 C 
BRANCH   4   5
ATOM      5  C   UNL     1       4.539  57.580  21.632  1.00  0.00     0.000 C 
BRANCH   5   6
ATOM      6  C   UNL     1       5.467  56.460  21.129  1.00  0.00     0.000 C 
BRANCH   6   7
ATOM      7  C   UNL     1       6.913  56.931  20.918  1.00  0.00     0.000 C 
BRANCH   7   8
ATOM      8  C   UNL     1       7.482  56.373  19.607  1.00  0.00     0.000 C 
BRANCH   8   9
ATOM      9  C   UNL     1       8.609  55.349  19.829  1.00  0.00     0.000 C 
BRANCH   9  10
ATOM     10  C   UNL     1       8.383  54.379  21.006  1.00  0.00     0.000 C 
BRANCH  10  11
ATOM     11  C   UNL     1       9.503  53.341  21.225  1.00  0.00     0.000 C 
BRANCH  11  12
ATOM     12  C   UNL     1       9.757  52.960  22.694  1.00  0.00     0.006 C 
BRANCH  12  13
ATOM     13  C   UNL     1      11.016  53.619  23.271  1.00  0.00     0.053 C 
BRANCH  13  14
ATOM     14  C   UNL     1      10.644  54.660  24.280  1.00  0.00     0.041 C 
ATOM     15  O   UNL     1       9.802  55.551  23.989  1.00  0.00    -0.550 OA
ATOM     16  O   UNL     1      11.187  54.617  25.558  1.00  0.00    -0.550 OA
ENDBRANCH  13  14
ENDBRANCH  12  13
ENDBRANCH  11  12
ENDBRANCH  10  11
ENDBRANCH   9  10
ENDBRANCH   8   9
ENDBRANCH   7   8
ENDBRANCH   6   7
ENDBRANCH   5   6
ENDBRANCH   4   5
ENDBRANCH   3   4
ENDBRANCH   2   3
ENDBRANCH   1   2
BRANCH   1  17
ATOM     17  C   UNL     1       0.238  59.246  22.044  1.00  0.00     0.000 C 
BRANCH  17  18
ATOM     18  C   UNL     1      -1.151  59.529  22.642  1.00  0.00     0.000 C 
BRANCH  18  19
ATOM     19  C   UNL     1      -1.964  60.542  21.822  1.00  0.00     0.000 C 
BRANCH  19  20
ATOM     20  C   UNL     1      -1.954  60.242  20.313  1.00  0.00     0.000 C 
BRANCH  20  21
ATOM     21  C   UNL     1      -1.789  61.496  19.429  1.00  0.00     0.000 C 
BRANCH  21  22
ATOM     22  C   UNL     1      -0.483  62.250  19.722  1.00  0.00    -0.000 C 
BRANCH  22  23
ATOM     23  C   UNL     1       0.559  62.003  18.622  1.00  0.00    -0.000 C 
BRANCH  23  24
ATOM     24  C   UNL     1       1.319  60.675  18.797  1.00  0.00    -0.000 C 
BRANCH  24  25
ATOM     25  C   UNL     1       2.176  60.244  17.592  1.00  0.00    -0.000 C 
BRANCH  25  26
ATOM     26  C   UNL     1       1.387  60.213  16.273  1.00  0.00    -0.000 C 
BRANCH  26  27
ATOM     27  C   UNL     1       1.953  61.180  15.216  1.00  0.00    -0.000 C 
BRANCH  27  28
ATOM     28  C   UNL     1       1.156  62.486  15.023  1.00  0.00    -0.000 C 
BRANCH  28  29
ATOM     29  C   UNL     1      -0.310  62.295  14.600  1.00  0.00    -0.003 C 
ATOM     30  C   UNL     1      -1.302  62.893  15.597  1.00  0.00     0.004 C 
ENDBRANCH  28  29
ENDBRANCH  27  28
ENDBRANCH  26  27
ENDBRANCH  25  26
ENDBRANCH  24  25
ENDBRANCH  23  24
ENDBRANCH  22  23
ENDBRANCH  21  22
ENDBRANCH  20  21
ENDBRANCH  19  20
ENDBRANCH  18  19
ENDBRANCH  17  18
ENDBRANCH   1  17
TORSDOF 26
ENDMDL
MODEL 4
REMARK VINA RESULT:    -5.225      1.211      2.849
REMARK INTER + INTRA:         -15.414
REMARK INTER:                 -12.733
REMARK INTRA:                  -2.681
REMARK UNBOUND:                -2.247
REMARK SMILES CCCCCCCCCCCCCCCCCCCCCCCCCCCC(=O)[O-]
REMARK SMILES IDX 15 1 16 2 17 3 18 4 19 5 20 6 21 7 22 8 23 9 24 10 25 11
REMARK SMILES IDX 26 12 27 13 28 14 29 15 30 16 14 17 13 18 12 19 11 20 10 21
REMARK SMILES IDX 9 22 8 23 7 24 6 25 5 26 4 27 3 28 2 29 1 30
REMARK H PARENT
REMARK Flexibility Score: inf
ROOT
ATOM      1  C   UNL     1      11.466  47.971  25.373  1.00  0.00     0.000 C 
ENDROOT
BRANCH   1   2
ATOM      2  C   UNL     1      12.213  46.858  24.623  1.00  0.00     0.000 C 
BRANCH   2   3
ATOM      3  C   UNL     1      12.180  45.543  25.415  1.00  0.00     0.000 C 
BRANCH   3   4
ATOM      4  C   UNL     1      11.239  44.494  24.797  1.00  0.00     0.000 C 
BRANCH   4   5
ATOM      5  C   UNL     1      10.376  45.001  23.624  1.00  0.00     0.000 C 
BRANCH   5   6
ATOM      6  C   UNL     1       8.856  44.908  23.846  1.00  0.00     0.000 C 
BRANCH   6   7
ATOM      7  C   UNL     1       8.415  45.463  25.208  1.00  0.00     0.000 C 
BRANCH   7   8
ATOM      8  C   UNL     1       6.894  45.348  25.378  1.00  0.00     0.000 C 
BRANCH   8   9
ATOM      9  C   UNL     1       6.339  46.287  26.464  1.00  0.00     0.000 C 
BRANCH   9  10
ATOM     10  C   UNL     1       4.984  46.940  26.128  1.00  0.00     0.000 C 
BRANCH  10  11
ATOM     11  C   UNL     1       4.693  47.112  24.623  1.00  0.00     0.000 C 
BRANCH  11  12
ATOM     12  C   UNL     1       3.203  47.078  24.241  1.00  0.00     0.006 C 
BRANCH  12  13
ATOM     13  C   UNL     1       2.891  47.904  22.987  1.00  0.00     0.053 C 
BRANCH  13  14
ATOM     14  C   UNL     1       2.322  49.235  23.367  1.00  0.00     0.041 C 
ATOM     15  O   UNL     1       1.419  49.761  22.664  1.00  0.00    -0.550 OA
ATOM     16  O   UNL     1       2.751  49.870  24.526  1.00  0.00    -0.550 OA
ENDBRANCH  13  14
ENDBRANCH  12  13
ENDBRANCH  11  12
ENDBRANCH  10  11
ENDBRANCH   9  10
ENDBRANCH   8   9
ENDBRANCH   7   8
ENDBRANCH   6   7
ENDBRANCH   5   6
ENDBRANCH   4   5
ENDBRANCH   3   4
ENDBRANCH   2   3
ENDBRANCH   1   2
BRANCH   1  17
ATOM     17  C   UNL     1      10.265  48.516  24.573  1.00  0.00     0.000 C 
BRANCH  17  18
ATOM     18  C   UNL     1      10.564  48.751  23.083  1.00  0.00     0.000 C 
BRANCH  18  19
ATOM     19  C   UNL     1      11.316  50.064  22.819  1.00  0.00     0.000 C 
BRANCH  19  20
ATOM     20  C   UNL     1      10.398  51.298  22.844  1.00  0.00     0.000 C 
BRANCH  20  21
ATOM     21  C   UNL     1      10.444  52.136  21.549  1.00  0.00     0.000 C 
BRANCH  21  22
ATOM     22  C   UNL     1      10.715  53.623  21.824  1.00  0.00    -0.000 C 
BRANCH  22  23
ATOM     23  C   UNL     1      10.661  53.927  23.329  1.00  0.00    -0.000 C 
BRANCH  23  24
ATOM     24  C   UNL     1       9.468  54.819  23.722  1.00  0.00    -0.000 C 
BRANCH  24  25
ATOM     25  C   UNL     1       8.084  54.155  23.601  1.00  0.00    -0.000 C 
BRANCH  25  26
ATOM     26  C   UNL     1       7.294  54.629  22.370  1.00  0.00    -0.000 C 
BRANCH  26  27
ATOM     27  C   UNL     1       7.921  55.863  21.696  1.00  0.00    -0.000 C 
BRANCH  27  28
ATOM     28  C   UNL     1       7.945  55.832  20.154  1.00  0.00    -0.000 C 
BRANCH  28  29
ATOM     29  C   UNL     1       7.284  54.597  19.520  1.00  0.00    -0.003 C 
ATOM     30  C   UNL     1       7.776  54.319  18.100  1.00  0.00     0.004 C 
ENDBRANCH  28  29
ENDBRANCH  27  28
ENDBRANCH  26  27
ENDBRANCH  25  26
ENDBRANCH  24  25
ENDBRANCH  23  24
ENDBRANCH  22  23
ENDBRANCH  21  22
ENDBRANCH  20  21
ENDBRANCH  19  20
ENDBRANCH  18  19
ENDBRANCH  17  18
ENDBRANCH   1  17
TORSDOF 26
ENDMDL
MODEL 5
REMARK VINA RESULT:    -5.201      4.628      6.890
REMARK INTER + INTRA:         -15.353
REMARK INTER:                 -13.547
REMARK INTRA:                  -1.805
REMARK UNBOUND:                -2.247
REMARK SMILES CCCCCCCCCCCCCCCCCCCCCCCCCCCC(=O)[O-]
REMARK SMILES IDX 15 1 16 2 17 3 18 4 19 5 20 6 21 7 22 8 23 9 24 10 25 11
REMARK SMILES IDX 26 12 27 13 28 14 29 15 30 16 14 17 13 18 12 19 11 20 10 21
REMARK SMILES IDX 9 22 8 23 7 24 6 25 5 26 4 27 3 28 2 29 1 30
REMARK H PARENT
REMARK Flexibility Score: inf
ROOT
ATOM      1  C   UNL     1      10.729  53.573  21.795  1.00  0.00     0.000 C 
ENDROOT
BRANCH   1   2
ATOM      2  C   UNL     1      10.254  52.117  21.674  1.00  0.00     0.000 C 
BRANCH   2   3
ATOM      3  C   UNL     1      10.673  51.297  22.903  1.00  0.00     0.000 C 
BRANCH   3   4
ATOM      4  C   UNL     1      10.676  49.781  22.640  1.00  0.00     0.000 C 
BRANCH   4   5
ATOM      5  C   UNL     1      11.019  48.905  23.861  1.00  0.00     0.000 C 
BRANCH   5   6
ATOM      6  C   UNL     1      10.248  47.576  23.948  1.00  0.00     0.000 C 
BRANCH   6   7
ATOM      7  C   UNL     1      11.056  46.380  23.426  1.00  0.00     0.000 C 
BRANCH   7   8
ATOM      8  C   UNL     1      10.460  45.058  23.928  1.00  0.00     0.000 C 
BRANCH   8   9
ATOM      9  C   UNL     1      11.145  44.536  25.203  1.00  0.00     0.000 C 
BRANCH   9  10
ATOM     10  C   UNL     1      12.566  45.081  25.447  1.00  0.00     0.000 C 
BRANCH  10  11
ATOM     11  C   UNL     1      12.748  45.876  26.756  1.00  0.00     0.000 C 
BRANCH  11  12
ATOM     12  C   UNL     1      12.848  47.402  26.581  1.00  0.00     0.006 C 
BRANCH  12  13
ATOM     13  C   UNL     1      14.115  47.992  27.213  1.00  0.00     0.053 C 
BRANCH  13  14
ATOM     14  C   UNL     1      13.760  49.102  28.152  1.00  0.00     0.041 C 
ATOM     15  O   UNL     1      12.797  48.971  28.953  1.00  0.00    -0.550 OA
ATOM     16  O   UNL     1      14.525  50.262  28.179  1.00  0.00    -0.550 OA
ENDBRANCH  13  14
ENDBRANCH  12  13
ENDBRANCH  11  12
ENDBRANCH  10  11
ENDBRANCH   9  10
ENDBRANCH   8   9
ENDBRANCH   7   8
ENDBRANCH   6   7
ENDBRANCH   5   6
ENDBRANCH   4   5
ENDBRANCH   3   4
ENDBRANCH   2   3
ENDBRANCH   1   2
BRANCH   1  17
ATOM     17  C   UNL     1      10.729  54.072  23.254  1.00  0.00     0.000 C 
BRANCH  17  18
ATOM     18  C   UNL     1       9.587  55.050  23.579  1.00  0.00     0.000 C 
BRANCH  18  19
ATOM     19  C   UNL     1       8.248  54.346  23.843  1.00  0.00     0.000 C 
BRANCH  19  20
ATOM     20  C   UNL     1       7.337  54.302  22.605  1.00  0.00     0.000 C 
BRANCH  20  21
ATOM     21  C   UNL     1       7.472  55.535  21.687  1.00  0.00     0.000 C 
BRANCH  21  22
ATOM     22  C   UNL     1       6.188  55.816  20.893  1.00  0.00    -0.000 C 
BRANCH  22  23
ATOM     23  C   UNL     1       5.313  56.858  21.606  1.00  0.00    -0.000 C 
BRANCH  23  24
ATOM     24  C   UNL     1       4.901  58.028  20.693  1.00  0.00    -0.000 C 
BRANCH  24  25
ATOM     25  C   UNL     1       3.423  58.448  20.789  1.00  0.00    -0.000 C 
BRANCH  25  26
ATOM     26  C   UNL     1       3.149  59.428  21.942  1.00  0.00    -0.000 C 
BRANCH  26  27
ATOM     27  C   UNL     1       1.695  59.936  21.961  1.00  0.00    -0.000 C 
BRANCH  27  28
ATOM     28  C   UNL     1       0.953  59.760  23.303  1.00  0.00    -0.000 C 
BRANCH  28  29
ATOM     29  C   UNL     1       0.107  60.968  23.739  1.00  0.00    -0.003 C 
ATOM     30  C   UNL     1      -1.230  60.566  24.360  1.00  0.00     0.004 C 
ENDBRANCH  28  29
ENDBRANCH  27  28
ENDBRANCH  26  27
ENDBRANCH  25  26
ENDBRANCH  24  25
ENDBRANCH  23  24
ENDBRANCH  22  23
ENDBRANCH  21  22
ENDBRANCH  20  21
ENDBRANCH  19  20
ENDBRANCH  18  19
ENDBRANCH  17  18
ENDBRANCH   1  17
TORSDOF 26
ENDMDL
MODEL 6
REMARK VINA RESULT:    -5.158      5.930     11.491
REMARK INTER + INTRA:         -15.245
REMARK INTER:                 -13.403
REMARK INTRA:                  -1.842
REMARK UNBOUND:                -2.247
REMARK SMILES CCCCCCCCCCCCCCCCCCCCCCCCCCCC(=O)[O-]
REMARK SMILES IDX 15 1 16 2 17 3 18 4 19 5 20 6 21 7 22 8 23 9 24 10 25 11
REMARK SMILES IDX 26 12 27 13 28 14 29 15 30 16 14 17 13 18 12 19 11 20 10 21
REMARK SMILES IDX 9 22 8 23 7 24 6 25 5 26 4 27 3 28 2 29 1 30
REMARK H PARENT
REMARK Flexibility Score: inf
ROOT
ATOM      1  C   UNL     1       1.788  60.247  20.942  1.00  0.00     0.000 C 
ENDROOT
BRANCH   1   2
ATOM      2  C   UNL     1       3.187  59.790  20.501  1.00  0.00     0.000 C 
BRANCH   2   3
ATOM      3  C   UNL     1       3.616  58.524  21.258  1.00  0.00     0.000 C 
BRANCH   3   4
ATOM      4  C   UNL     1       4.813  57.812  20.605  1.00  0.00     0.000 C 
BRANCH   4   5
ATOM      5  C   UNL     1       5.380  56.619  21.402  1.00  0.00     0.000 C 
BRANCH   5   6
ATOM      6  C   UNL     1       6.904  56.641  21.611  1.00  0.00     0.000 C 
BRANCH   6   7
ATOM      7  C   UNL     1       7.688  56.726  20.294  1.00  0.00     0.000 C 
BRANCH   7   8
ATOM      8  C   UNL     1       8.394  55.397  19.991  1.00  0.00     0.000 C 
BRANCH   8   9
ATOM      9  C   UNL     1       7.765  54.203  20.730  1.00  0.00     0.000 C 
BRANCH   9  10
ATOM     10  C   UNL     1       8.737  53.404  21.620  1.00  0.00     0.000 C 
BRANCH  10  11
ATOM     11  C   UNL     1      10.212  53.848  21.543  1.00  0.00     0.000 C 
BRANCH  11  12
ATOM     12  C   UNL     1      10.841  54.251  22.889  1.00  0.00     0.006 C 
BRANCH  12  13
ATOM     13  C   UNL     1       9.978  55.245  23.675  1.00  0.00     0.053 C 
BRANCH  13  14
ATOM     14  C   UNL     1       9.492  54.623  24.946  1.00  0.00     0.041 C 
ATOM     15  O   UNL     1      10.194  54.682  25.989  1.00  0.00    -0.550 OA
ATOM     16  O   UNL     1       8.239  54.023  24.993  1.00  0.00    -0.550 OA
ENDBRANCH  13  14
ENDBRANCH  12  13
ENDBRANCH  11  12
ENDBRANCH  10  11
ENDBRANCH   9  10
ENDBRANCH   8   9
ENDBRANCH   7   8
ENDBRANCH   6   7
ENDBRANCH   5   6
ENDBRANCH   4   5
ENDBRANCH   3   4
ENDBRANCH   2   3
ENDBRANCH   1   2
BRANCH   1  17
ATOM     17  C   UNL     1       1.605  60.186  22.472  1.00  0.00     0.000 C 
BRANCH  17  18
ATOM     18  C   UNL     1       0.266  59.572  22.916  1.00  0.00     0.000 C 
BRANCH  18  19
ATOM     19  C   UNL     1      -0.076  59.872  24.383  1.00  0.00     0.000 C 
BRANCH  19  20
ATOM     20  C   UNL     1      -0.248  58.601  25.233  1.00  0.00     0.000 C 
BRANCH  20  21
ATOM     21  C   UNL     1      -0.239  57.295  24.410  1.00  0.00     0.000 C 
BRANCH  21  22
ATOM     22  C   UNL     1      -1.244  56.263  24.943  1.00  0.00    -0.000 C 
BRANCH  22  23
ATOM     23  C   UNL     1      -1.243  56.228  26.478  1.00  0.00    -0.000 C 
BRANCH  23  24
ATOM     24  C   UNL     1      -0.617  54.944  27.053  1.00  0.00    -0.000 C 
BRANCH  24  25
ATOM     25  C   UNL     1       0.756  55.125  27.724  1.00  0.00    -0.000 C 
BRANCH  25  26
ATOM     26  C   UNL     1       0.909  54.304  29.015  1.00  0.00    -0.000 C 
BRANCH  26  27
ATOM     27  C   UNL     1      -0.045  54.765  30.133  1.00  0.00    -0.000 C 
BRANCH  27  28
ATOM     28  C   UNL     1      -0.726  53.631  30.928  1.00  0.00    -0.000 C 
BRANCH  28  29
ATOM     29  C   UNL     1      -0.184  52.221  30.640  1.00  0.00    -0.003 C 
ATOM     30  C   UNL     1      -0.836  51.143  31.506  1.00  0.00     0.004 C 
ENDBRANCH  28  29
ENDBRANCH  27  28
ENDBRANCH  26  27
ENDBRANCH  25  26
ENDBRANCH  24  25
ENDBRANCH  23  24
ENDBRANCH  22  23
ENDBRANCH  21  22
ENDBRANCH  20  21
ENDBRANCH  19  20
ENDBRANCH  18  19
ENDBRANCH  17  18
ENDBRANCH   1  17
TORSDOF 26
ENDMDL
MODEL 7
REMARK VINA RESULT:    -5.084      2.893      8.700
REMARK INTER + INTRA:         -15.058
REMARK INTER:                 -12.552
REMARK INTRA:                  -2.506
REMARK UNBOUND:                -2.247
REMARK SMILES CCCCCCCCCCCCCCCCCCCCCCCCCCCC(=O)[O-]
REMARK SMILES IDX 15 1 16 2 17 3 18 4 19 5 20 6 21 7 22 8 23 9 24 10 25 11
REMARK SMILES IDX 26 12 27 13 28 14 29 15 30 16 14 17 13 18 12 19 11 20 10 21
REMARK SMILES IDX 9 22 8 23 7 24 6 25 5 26 4 27 3 28 2 29 1 30
REMARK H PARENT
REMARK Flexibility Score: inf
ROOT
ATOM      1  C   UNL     1      11.026  46.174  24.431  1.00  0.00     0.000 C 
ENDROOT
BRANCH   1   2
ATOM      2  C   UNL     1      11.596  47.257  23.503  1.00  0.00     0.000 C 
BRANCH   2   3
ATOM      3  C   UNL     1      11.105  48.652  23.919  1.00  0.00     0.000 C 
BRANCH   3   4
ATOM      4  C   UNL     1      10.635  49.502  22.725  1.00  0.00     0.000 C 
BRANCH   4   5
ATOM      5  C   UNL     1      11.039  50.989  22.782  1.00  0.00     0.000 C 
BRANCH   5   6
ATOM      6  C   UNL     1      10.088  51.951  22.049  1.00  0.00     0.000 C 
BRANCH   6   7
ATOM      7  C   UNL     1      10.695  53.345  21.834  1.00  0.00     0.000 C 
BRANCH   7   8
ATOM      8  C   UNL     1       9.987  54.390  22.707  1.00  0.00     0.000 C 
BRANCH   8   9
ATOM      9  C   UNL     1       8.843  53.794  23.547  1.00  0.00     0.000 C 
BRANCH   9  10
ATOM     10  C   UNL     1       7.434  54.300  23.178  1.00  0.00     0.000 C 
BRANCH  10  11
ATOM     11  C   UNL     1       7.379  55.278  21.987  1.00  0.00     0.000 C 
BRANCH  11  12
ATOM     12  C   UNL     1       6.721  54.717  20.714  1.00  0.00     0.006 C 
BRANCH  12  13
ATOM     13  C   UNL     1       7.727  54.463  19.585  1.00  0.00     0.053 C 
BRANCH  13  14
ATOM     14  C   UNL     1       7.601  55.515  18.528  1.00  0.00     0.041 C 
ATOM     15  O   UNL     1       7.360  55.188  17.336  1.00  0.00    -0.550 OA
ATOM     16  O   UNL     1       7.697  56.859  18.868  1.00  0.00    -0.550 OA
ENDBRANCH  13  14
ENDBRANCH  12  13
ENDBRANCH  11  12
ENDBRANCH  10  11
ENDBRANCH   9  10
ENDBRANCH   8   9
ENDBRANCH   7   8
ENDBRANCH   6   7
ENDBRANCH   5   6
ENDBRANCH   4   5
ENDBRANCH   3   4
ENDBRANCH   2   3
ENDBRANCH   1   2
BRANCH   1  17
ATOM     17  C   UNL     1      10.319  45.045  23.653  1.00  0.00     0.000 C 
BRANCH  17  18
ATOM     18  C   UNL     1       8.795  45.007  23.857  1.00  0.00     0.000 C 
BRANCH  18  19
ATOM     19  C   UNL     1       8.153  46.402  23.860  1.00  0.00     0.000 C 
BRANCH  19  20
ATOM     20  C   UNL     1       7.103  46.580  24.970  1.00  0.00     0.000 C 
BRANCH  20  21
ATOM     21  C   UNL     1       6.701  45.263  25.665  1.00  0.00     0.000 C 
BRANCH  21  22
ATOM     22  C   UNL     1       5.428  45.413  26.510  1.00  0.00    -0.000 C 
BRANCH  22  23
ATOM     23  C   UNL     1       5.184  46.881  26.891  1.00  0.00    -0.000 C 
BRANCH  23  24
ATOM     24  C   UNL     1       3.690  47.247  26.958  1.00  0.00    -0.000 C 
BRANCH  24  25
ATOM     25  C   UNL     1       3.245  48.369  26.001  1.00  0.00    -0.000 C 
BRANCH  25  26
ATOM     26  C   UNL     1       3.703  48.140  24.552  1.00  0.00    -0.000 C 
BRANCH  26  27
ATOM     27  C   UNL     1       2.810  47.141  23.793  1.00  0.00    -0.000 C 
BRANCH  27  28
ATOM     28  C   UNL     1       1.557  47.748  23.129  1.00  0.00    -0.000 C 
BRANCH  28  29
ATOM     29  C   UNL     1       1.767  49.132  22.491  1.00  0.00    -0.003 C 
ATOM     30  C   UNL     1       0.972  50.237  23.187  1.00  0.00     0.004 C 
ENDBRANCH  28  29
ENDBRANCH  27  28
ENDBRANCH  26  27
ENDBRANCH  25  26
ENDBRANCH  24  25
ENDBRANCH  23  24
ENDBRANCH  22  23
ENDBRANCH  21  22
ENDBRANCH  20  21
ENDBRANCH  19  20
ENDBRANCH  18  19
ENDBRANCH  17  18
ENDBRANCH   1  17
TORSDOF 26
ENDMDL
MODEL 8
REMARK VINA RESULT:    -5.078      4.570     10.889
REMARK INTER + INTRA:         -15.042
REMARK INTER:                 -13.278
REMARK INTRA:                  -1.765
REMARK UNBOUND:                -2.247
REMARK SMILES CCCCCCCCCCCCCCCCCCCCCCCCCCCC(=O)[O-]
REMARK SMILES IDX 15 1 16 2 17 3 18 4 19 5 20 6 21 7 22 8 23 9 24 10 25 11
REMARK SMILES IDX 26 12 27 13 28 14 29 15 30 16 14 17 13 18 12 19 11 20 10 21
REMARK SMILES IDX 9 22 8 23 7 24 6 25 5 26 4 27 3 28 2 29 1 30
REMARK H PARENT
REMARK Flexibility Score: inf
ROOT
ATOM      1  C   UNL     1      10.568  54.122  23.603  1.00  0.00     0.000 C 
ENDROOT
BRANCH   1   2
ATOM      2  C   UNL     1       9.469  55.173  23.384  1.00  0.00     0.000 C 
BRANCH   2   3
ATOM      3  C   UNL     1       8.094  54.507  23.223  1.00  0.00     0.000 C 
BRANCH   3   4
ATOM      4  C   UNL     1       7.550  54.599  21.787  1.00  0.00     0.000 C 
BRANCH   4   5
ATOM      5  C   UNL     1       7.990  55.848  20.998  1.00  0.00     0.000 C 
BRANCH   5   6
ATOM      6  C   UNL     1       6.871  56.863  20.706  1.00  0.00     0.000 C 
BRANCH   6   7
ATOM      7  C   UNL     1       5.492  56.388  21.187  1.00  0.00     0.000 C 
BRANCH   7   8
ATOM      8  C   UNL     1       4.637  57.576  21.650  1.00  0.00     0.000 C 
BRANCH   8   9
ATOM      9  C   UNL     1       4.212  58.496  20.492  1.00  0.00     0.000 C 
BRANCH   9  10
ATOM     10  C   UNL     1       3.246  59.632  20.885  1.00  0.00     0.000 C 
BRANCH  10  11
ATOM     11  C   UNL     1       2.799  59.631  22.361  1.00  0.00     0.000 C 
BRANCH  11  12
ATOM     12  C   UNL     1       1.322  59.265  22.592  1.00  0.00     0.006 C 
BRANCH  12  13
ATOM     13  C   UNL     1       0.533  60.384  23.283  1.00  0.00     0.053 C 
BRANCH  13  14
ATOM     14  C   UNL     1      -0.491  59.805  24.209  1.00  0.00     0.041 C 
ATOM     15  O   UNL     1      -0.213  59.618  25.423  1.00  0.00    -0.550 OA
ATOM     16  O   UNL     1      -1.769  59.521  23.743  1.00  0.00    -0.550 OA
ENDBRANCH  13  14
ENDBRANCH  12  13
ENDBRANCH  11  12
ENDBRANCH  10  11
ENDBRANCH   9  10
ENDBRANCH   8   9
ENDBRANCH   7   8
ENDBRANCH   6   7
ENDBRANCH   5   6
ENDBRANCH   4   5
ENDBRANCH   3   4
ENDBRANCH   2   3
ENDBRANCH   1   2
BRANCH   1  17
ATOM     17  C   UNL     1      11.026  53.468  22.283  1.00  0.00     0.000 C 
BRANCH  17  18
ATOM     18  C   UNL     1      10.339  52.126  21.980  1.00  0.00     0.000 C 
BRANCH  18  19
ATOM     19  C   UNL     1      10.480  51.107  23.120  1.00  0.00     0.000 C 
BRANCH  19  20
ATOM     20  C   UNL     1      11.140  49.791  22.673  1.00  0.00     0.000 C 
BRANCH  20  21
ATOM     21  C   UNL     1      10.807  48.587  23.579  1.00  0.00     0.000 C 
BRANCH  21  22
ATOM     22  C   UNL     1      11.538  47.309  23.143  1.00  0.00    -0.000 C 
BRANCH  22  23
ATOM     23  C   UNL     1      11.035  46.088  23.927  1.00  0.00    -0.000 C 
BRANCH  23  24
ATOM     24  C   UNL     1      11.414  46.130  25.419  1.00  0.00    -0.000 C 
BRANCH  24  25
ATOM     25  C   UNL     1      12.848  46.604  25.720  1.00  0.00    -0.000 C 
BRANCH  25  26
ATOM     26  C   UNL     1      12.893  47.892  26.560  1.00  0.00    -0.000 C 
BRANCH  26  27
ATOM     27  C   UNL     1      13.647  47.711  27.890  1.00  0.00    -0.000 C 
BRANCH  27  28
ATOM     28  C   UNL     1      12.877  46.944  28.985  1.00  0.00    -0.000 C 
BRANCH  28  29
ATOM     29  C   UNL     1      13.349  45.499  29.218  1.00  0.00    -0.003 C 
ATOM     30  C   UNL     1      14.865  45.384  29.378  1.00  0.00     0.004 C 
ENDBRANCH  28  29
ENDBRANCH  27  28
ENDBRANCH  26  27
ENDBRANCH  25  26
ENDBRANCH  24  25
ENDBRANCH  23  24
ENDBRANCH  22  23
ENDBRANCH  21  22
ENDBRANCH  20  21
ENDBRANCH  19  20
ENDBRANCH  18  19
ENDBRANCH  17  18
ENDBRANCH   1  17
TORSDOF 26
ENDMDL
MODEL 9
REMARK VINA RESULT:    -5.075      1.112      3.771
REMARK INTER + INTRA:         -15.036
REMARK INTER:                 -13.226
REMARK INTRA:                  -1.811
REMARK UNBOUND:                -2.247
REMARK SMILES CCCCCCCCCCCCCCCCCCCCCCCCCCCC(=O)[O-]
REMARK SMILES IDX 15 1 16 2 17 3 18 4 19 5 20 6 21 7 22 8 23 9 24 10 25 11
REMARK SMILES IDX 26 12 27 13 28 14 29 15 30 16 14 17 13 18 12 19 11 20 10 21
REMARK SMILES IDX 9 22 8 23 7 24 6 25 5 26 4 27 3 28 2 29 1 30
REMARK H PARENT
REMARK Flexibility Score: inf
ROOT
ATOM      1  C   UNL     1      10.235  46.933  23.965  1.00  0.00     0.000 C 
ENDROOT
BRANCH   1   2
ATOM      2  C   UNL     1       9.960  45.454  23.657  1.00  0.00     0.000 C 
BRANCH   2   3
ATOM      3  C   UNL     1       8.487  45.103  23.913  1.00  0.00     0.000 C 
BRANCH   3   4
ATOM      4  C   UNL     1       7.750  46.173  24.738  1.00  0.00     0.000 C 
BRANCH   4   5
ATOM      5  C   UNL     1       6.514  45.668  25.509  1.00  0.00     0.000 C 
BRANCH   5   6
ATOM      6  C   UNL     1       6.147  46.487  26.760  1.00  0.00     0.000 C 
BRANCH   6   7
ATOM      7  C   UNL     1       4.660  46.866  26.812  1.00  0.00     0.000 C 
BRANCH   7   8
ATOM      8  C   UNL     1       3.811  45.853  26.033  1.00  0.00     0.000 C 
BRANCH   8   9
ATOM      9  C   UNL     1       2.895  46.515  24.989  1.00  0.00     0.000 C 
BRANCH   9  10
ATOM     10  C   UNL     1       3.555  47.638  24.165  1.00  0.00     0.000 C 
BRANCH  10  11
ATOM     11  C   UNL     1       2.955  47.861  22.761  1.00  0.00     0.000 C 
BRANCH  11  12
ATOM     12  C   UNL     1       1.947  49.019  22.661  1.00  0.00     0.006 C 
BRANCH  12  13
ATOM     13  C   UNL     1       2.109  50.048  23.787  1.00  0.00     0.053 C 
BRANCH  13  14
ATOM     14  C   UNL     1       0.891  50.912  23.882  1.00  0.00     0.041 C 
ATOM     15  O   UNL     1      -0.251  50.390  23.975  1.00  0.00    -0.550 OA
ATOM     16  O   UNL     1       1.021  52.296  23.922  1.00  0.00    -0.550 OA
ENDBRANCH  13  14
ENDBRANCH  12  13
ENDBRANCH  11  12
ENDBRANCH  10  11
ENDBRANCH   9  10
ENDBRANCH   8   9
ENDBRANCH   7   8
ENDBRANCH   6   7
ENDBRANCH   5   6
ENDBRANCH   4   5
ENDBRANCH   3   4
ENDBRANCH   2   3
ENDBRANCH   1   2
BRANCH   1  17
ATOM     17  C   UNL     1      11.740  47.271  23.934  1.00  0.00     0.000 C 
BRANCH  17  18
ATOM     18  C   UNL     1      12.076  48.549  23.146  1.00  0.00     0.000 C 
BRANCH  18  19
ATOM     19  C   UNL     1      10.832  49.361  22.758  1.00  0.00     0.000 C 
BRANCH  19  20
ATOM     20  C   UNL     1      10.993  50.869  23.013  1.00  0.00     0.000 C 
BRANCH  20  21
ATOM     21  C   UNL     1      10.251  51.757  21.992  1.00  0.00     0.000 C 
BRANCH  21  22
ATOM     22  C   UNL     1      10.781  53.198  21.977  1.00  0.00    -0.000 C 
BRANCH  22  23
ATOM     23  C   UNL     1      10.464  53.920  23.296  1.00  0.00    -0.000 C 
BRANCH  23  24
ATOM     24  C   UNL     1       9.301  54.922  23.170  1.00  0.00    -0.000 C 
BRANCH  24  25
ATOM     25  C   UNL     1       7.935  54.304  22.821  1.00  0.00    -0.000 C 
BRANCH  25  26
ATOM     26  C   UNL     1       7.021  55.264  22.042  1.00  0.00    -0.000 C 
BRANCH  26  27
ATOM     27  C   UNL     1       7.807  56.299  21.216  1.00  0.00    -0.000 C 
BRANCH  27  28
ATOM     28  C   UNL     1       7.754  56.101  19.687  1.00  0.00    -0.000 C 
BRANCH  28  29
ATOM     29  C   UNL     1       7.292  54.708  19.230  1.00  0.00    -0.003 C 
ATOM     30  C   UNL     1       7.639  54.414  17.770  1.00  0.00     0.004 C 
ENDBRANCH  28  29
ENDBRANCH  27  28
ENDBRANCH  26  27
ENDBRANCH  25  26
ENDBRANCH  24  25
ENDBRANCH  23  24
ENDBRANCH  22  23
ENDBRANCH  21  22
ENDBRANCH  20  21
ENDBRANCH  19  20
ENDBRANCH  18  19
ENDBRANCH  17  18
ENDBRANCH   1  17
TORSDOF 26
ENDMDL
