MODEL 1
REMARK VINA RESULT:    -2.979      0.000      0.000
REMARK INTER + INTRA:          -7.894
REMARK INTER:                  -5.416
REMARK INTRA:                  -2.478
REMARK UNBOUND:                -2.478
REMARK SMILES CCCCCCCCCCCCCCCC(=O)[O-]
REMARK SMILES IDX 9 1 10 2 11 3 12 4 13 5 14 6 15 7 16 8 17 9 18 10 8 11 7 12
REMARK SMILES IDX 6 13 5 14 4 15 3 16 2 17 1 18
REMARK H PARENT
REMARK Flexibility Score: inf
ROOT
ATOM      1  C   UNL     1      30.747  31.381  52.257  1.00  0.00     0.000 C 
ENDROOT
BRANCH   1   2
ATOM      2  C   UNL     1      30.965  32.891  52.460  1.00  0.00     0.000 C 
BRANCH   2   3
ATOM      3  C   UNL     1      29.728  33.728  52.093  1.00  0.00     0.000 C 
BRANCH   3   4
ATOM      4  C   UNL     1      29.045  34.360  53.319  1.00  0.00     0.000 C 
BRANCH   4   5
ATOM      5  C   UNL     1      27.505  34.363  53.282  1.00  0.00     0.000 C 
BRANCH   5   6
ATOM      6  C   UNL     1      26.922  33.244  52.405  1.00  0.00     0.006 C 
BRANCH   6   7
ATOM      7  C   UNL     1      25.478  32.930  52.805  1.00  0.00     0.053 C 
BRANCH   7   8
ATOM      8  C   UNL     1      25.367  31.523  53.301  1.00  0.00     0.041 C 
ATOM      9  O   UNL     1      24.863  31.287  54.431  1.00  0.00    -0.550 OA
ATOM     10  O   UNL     1      25.865  30.475  52.539  1.00  0.00    -0.550 OA
ENDBRANCH   7   8
ENDBRANCH   6   7
ENDBRANCH   5   6
ENDBRANCH   4   5
ENDBRANCH   3   4
ENDBRANCH   2   3
ENDBRANCH   1   2
BRANCH   1  11
ATOM     11  C   UNL     1      31.842  30.469  52.848  1.00  0.00     0.000 C 
BRANCH  11  12
ATOM     12  C   UNL     1      32.780  31.141  53.868  1.00  0.00    -0.000 C 
BRANCH  12  13
ATOM     13  C   UNL     1      32.446  30.767  55.322  1.00  0.00    -0.000 C 
BRANCH  13  14
ATOM     14  C   UNL     1      32.155  31.996  56.203  1.00  0.00    -0.000 C 
BRANCH  14  15
ATOM     15  C   UNL     1      30.749  32.608  56.035  1.00  0.00    -0.000 C 
BRANCH  15  16
ATOM     16  C   UNL     1      29.584  31.694  56.456  1.00  0.00    -0.000 C 
BRANCH  16  17
ATOM     17  C   UNL     1      28.582  31.445  55.320  1.00  0.00    -0.003 C 
ATOM     18  C   UNL     1      28.575  29.977  54.905  1.00  0.00     0.004 C 
ENDBRANCH  16  17
ENDBRANCH  15  16
ENDBRANCH  14  15
ENDBRANCH  13  14
ENDBRANCH  12  13
ENDBRANCH  11  12
ENDBRANCH   1  11
TORSDOF 14
ENDMDL
MODEL 2
REMARK VINA RESULT:    -2.821     17.444     19.526
REMARK INTER + INTRA:          -7.608
REMARK INTER:                  -5.256
REMARK INTRA:                  -2.351
REMARK UNBOUND:                -2.478
REMARK SMILES CCCCCCCCCCCCCCCC(=O)[O-]
REMARK SMILES IDX 9 1 10 2 11 3 12 4 13 5 14 6 15 7 16 8 17 9 18 10 8 11 7 12
REMARK SMILES IDX 6 13 5 14 4 15 3 16 2 17 1 18
REMARK H PARENT
REMARK Flexibility Score: inf
ROOT
ATOM      1  C   UNL     1      17.335  20.782  47.976  1.00  0.00     0.000 C 
ENDROOT
BRANCH   1   2
ATOM      2  C   UNL     1      17.071  20.458  49.458  1.00  0.00     0.000 C 
BRANCH   2   3
ATOM      3  C   UNL     1      15.787  19.639  49.671  1.00  0.00     0.000 C 
BRANCH   3   4
ATOM      4  C   UNL     1      16.059  18.228  50.223  1.00  0.00     0.000 C 
BRANCH   4   5
ATOM      5  C   UNL     1      17.541  17.809  50.250  1.00  0.00     0.000 C 
BRANCH   5   6
ATOM      6  C   UNL     1      17.961  17.168  51.581  1.00  0.00     0.006 C 
BRANCH   6   7
ATOM      7  C   UNL     1      16.827  17.245  52.608  1.00  0.00     0.053 C 
BRANCH   7   8
ATOM      8  C   UNL     1      17.245  18.063  53.789  1.00  0.00     0.041 C 
ATOM      9  O   UNL     1      16.471  18.195  54.774  1.00  0.00    -0.550 OA
ATOM     10  O   UNL     1      18.467  18.721  53.781  1.00  0.00    -0.550 OA
ENDBRANCH   7   8
ENDBRANCH   6   7
ENDBRANCH   5   6
ENDBRANCH   4   5
ENDBRANCH   3   4
ENDBRANCH   2   3
ENDBRANCH   1   2
BRANCH   1  11
ATOM     11  C   UNL     1      18.499  20.006  47.327  1.00  0.00     0.000 C 
BRANCH  11  12
ATOM     12  C   UNL     1      18.101  19.053  46.185  1.00  0.00    -0.000 C 
BRANCH  12  13
ATOM     13  C   UNL     1      17.240  17.873  46.664  1.00  0.00    -0.000 C 
BRANCH  13  14
ATOM     14  C   UNL     1      15.934  17.723  45.863  1.00  0.00    -0.000 C 
BRANCH  14  15
ATOM     15  C   UNL     1      14.638  17.770  46.699  1.00  0.00    -0.000 C 
BRANCH  15  16
ATOM     16  C   UNL     1      13.844  19.085  46.600  1.00  0.00    -0.000 C 
BRANCH  16  17
ATOM     17  C   UNL     1      14.471  20.087  45.621  1.00  0.00    -0.003 C 
ATOM     18  C   UNL     1      14.266  21.522  46.095  1.00  0.00     0.004 C 
ENDBRANCH  16  17
ENDBRANCH  15  16
ENDBRANCH  14  15
ENDBRANCH  13  14
ENDBRANCH  12  13
ENDBRANCH  11  12
ENDBRANCH   1  11
TORSDOF 14
ENDMDL
MODEL 3
REMARK VINA RESULT:    -2.818      1.252      2.459
REMARK INTER + INTRA:          -7.603
REMARK INTER:                  -5.131
REMARK INTRA:                  -2.472
REMARK UNBOUND:                -2.478
REMARK SMILES CCCCCCCCCCCCCCCC(=O)[O-]
REMARK SMILES IDX 9 1 10 2 11 3 12 4 13 5 14 6 15 7 16 8 17 9 18 10 8 11 7 12
REMARK SMILES IDX 6 13 5 14 4 15 3 16 2 17 1 18
REMARK H PARENT
REMARK Flexibility Score: inf
ROOT
ATOM      1  C   UNL     1      30.993  34.720  54.570  1.00  0.00     0.000 C 
ENDROOT
BRANCH   1   2
ATOM      2  C   UNL     1      29.622  34.764  53.872  1.00  0.00     0.000 C 
BRANCH   2   3
ATOM      3  C   UNL     1      29.596  33.969  52.556  1.00  0.00     0.000 C 
BRANCH   3   4
ATOM      4  C   UNL     1      28.179  33.529  52.147  1.00  0.00     0.000 C 
BRANCH   4   5
ATOM      5  C   UNL     1      27.040  34.093  53.017  1.00  0.00     0.000 C 
BRANCH   5   6
ATOM      6  C   UNL     1      25.657  33.557  52.619  1.00  0.00     0.006 C 
BRANCH   6   7
ATOM      7  C   UNL     1      25.756  32.123  52.091  1.00  0.00     0.053 C 
BRANCH   7   8
ATOM      8  C   UNL     1      24.954  31.194  52.946  1.00  0.00     0.041 C 
ATOM      9  O   UNL     1      24.362  30.210  52.430  1.00  0.00    -0.550 OA
ATOM     10  O   UNL     1      24.819  31.442  54.306  1.00  0.00    -0.550 OA
ENDBRANCH   7   8
ENDBRANCH   6   7
ENDBRANCH   5   6
ENDBRANCH   4   5
ENDBRANCH   3   4
ENDBRANCH   2   3
ENDBRANCH   1   2
BRANCH   1  11
ATOM     11  C   UNL     1      31.096  33.749  55.764  1.00  0.00     0.000 C 
BRANCH  11  12
ATOM     12  C   UNL     1      31.483  32.302  55.406  1.00  0.00    -0.000 C 
BRANCH  12  13
ATOM     13  C   UNL     1      30.685  31.256  56.201  1.00  0.00    -0.000 C 
BRANCH  13  14
ATOM     14  C   UNL     1      29.204  31.638  56.371  1.00  0.00    -0.000 C 
BRANCH  14  15
ATOM     15  C   UNL     1      28.318  31.413  55.128  1.00  0.00    -0.000 C 
BRANCH  15  16
ATOM     16  C   UNL     1      28.043  29.939  54.781  1.00  0.00    -0.000 C 
BRANCH  16  17
ATOM     17  C   UNL     1      28.309  29.616  53.304  1.00  0.00    -0.003 C 
ATOM     18  C   UNL     1      29.631  30.217  52.838  1.00  0.00     0.004 C 
ENDBRANCH  16  17
ENDBRANCH  15  16
ENDBRANCH  14  15
ENDBRANCH  13  14
ENDBRANCH  12  13
ENDBRANCH  11  12
ENDBRANCH   1  11
TORSDOF 14
ENDMDL
MODEL 4
REMARK VINA RESULT:    -2.813      6.881     10.944
REMARK INTER + INTRA:          -7.593
REMARK INTER:                  -5.658
REMARK INTRA:                  -1.935
REMARK UNBOUND:                -2.478
REMARK SMILES CCCCCCCCCCCCCCCC(=O)[O-]
REMARK SMILES IDX 9 1 10 2 11 3 12 4 13 5 14 6 15 7 16 8 17 9 18 10 8 11 7 12
REMARK SMILES IDX 6 13 5 14 4 15 3 16 2 17 1 18
REMARK H PARENT
REMARK Flexibility Score: inf
ROOT
ATOM      1  C   UNL     1      19.422  27.289  57.870  1.00  0.00     0.000 C 
ENDROOT
BRANCH   1   2
ATOM      2  C   UNL     1      20.436  28.158  58.635  1.00  0.00     0.000 C 
BRANCH   2   3
ATOM      3  C   UNL     1      20.406  29.633  58.201  1.00  0.00     0.000 C 
BRANCH   3   4
ATOM      4  C   UNL     1      21.697  30.076  57.489  1.00  0.00     0.000 C 
BRANCH   4   5
ATOM      5  C   UNL     1      22.513  28.940  56.844  1.00  0.00     0.000 C 
BRANCH   5   6
ATOM      6  C   UNL     1      23.871  29.409  56.300  1.00  0.00     0.006 C 
BRANCH   6   7
ATOM      7  C   UNL     1      23.704  30.619  55.377  1.00  0.00     0.053 C 
BRANCH   7   8
ATOM      8  C   UNL     1      24.942  30.834  54.566  1.00  0.00     0.041 C 
ATOM      9  O   UNL     1      26.073  30.578  55.057  1.00  0.00    -0.550 OA
ATOM     10  O   UNL     1      24.852  31.365  53.286  1.00  0.00    -0.550 OA
ENDBRANCH   7   8
ENDBRANCH   6   7
ENDBRANCH   5   6
ENDBRANCH   4   5
ENDBRANCH   3   4
ENDBRANCH   2   3
ENDBRANCH   1   2
BRANCH   1  11
ATOM     11  C   UNL     1      18.769  27.959  56.644  1.00  0.00     0.000 C 
BRANCH  11  12
ATOM     12  C   UNL     1      19.224  27.418  55.275  1.00  0.00    -0.000 C 
BRANCH  12  13
ATOM     13  C   UNL     1      19.757  28.520  54.346  1.00  0.00    -0.000 C 
BRANCH  13  14
ATOM     14  C   UNL     1      19.070  29.879  54.574  1.00  0.00    -0.000 C 
BRANCH  14  15
ATOM     15  C   UNL     1      17.800  30.125  53.733  1.00  0.00    -0.000 C 
BRANCH  15  16
ATOM     16  C   UNL     1      16.472  29.842  54.458  1.00  0.00    -0.000 C 
BRANCH  16  17
ATOM     17  C   UNL     1      15.644  28.742  53.778  1.00  0.00    -0.003 C 
ATOM     18  C   UNL     1      15.506  27.520  54.681  1.00  0.00     0.004 C 
ENDBRANCH  16  17
ENDBRANCH  15  16
ENDBRANCH  14  15
ENDBRANCH  13  14
ENDBRANCH  12  13
ENDBRANCH  11  12
ENDBRANCH   1  11
TORSDOF 14
ENDMDL
MODEL 5
REMARK VINA RESULT:    -2.782      1.711      4.539
REMARK INTER + INTRA:          -7.536
REMARK INTER:                  -5.254
REMARK INTRA:                  -2.282
REMARK UNBOUND:                -2.478
REMARK SMILES CCCCCCCCCCCCCCCC(=O)[O-]
REMARK SMILES IDX 9 1 10 2 11 3 12 4 13 5 14 6 15 7 16 8 17 9 18 10 8 11 7 12
REMARK SMILES IDX 6 13 5 14 4 15 3 16 2 17 1 18
REMARK H PARENT
REMARK Flexibility Score: inf
ROOT
ATOM      1  C   UNL     1      30.943  31.310  52.503  1.00  0.00     0.000 C 
ENDROOT
BRANCH   1   2
ATOM      2  C   UNL     1      32.044  31.880  53.416  1.00  0.00     0.000 C 
BRANCH   2   3
ATOM      3  C   UNL     1      31.911  31.414  54.875  1.00  0.00     0.000 C 
BRANCH   3   4
ATOM      4  C   UNL     1      31.252  32.467  55.784  1.00  0.00     0.000 C 
BRANCH   4   5
ATOM      5  C   UNL     1      29.865  32.085  56.334  1.00  0.00     0.000 C 
BRANCH   5   6
ATOM      6  C   UNL     1      29.409  30.686  55.893  1.00  0.00     0.006 C 
BRANCH   6   7
ATOM      7  C   UNL     1      27.940  30.699  55.462  1.00  0.00     0.053 C 
BRANCH   7   8
ATOM      8  C   UNL     1      27.074  30.122  56.536  1.00  0.00     0.041 C 
ATOM      9  O   UNL     1      25.836  29.987  56.348  1.00  0.00    -0.550 OA
ATOM     10  O   UNL     1      27.624  29.778  57.763  1.00  0.00    -0.550 OA
ENDBRANCH   7   8
ENDBRANCH   6   7
ENDBRANCH   5   6
ENDBRANCH   4   5
ENDBRANCH   3   4
ENDBRANCH   2   3
ENDBRANCH   1   2
BRANCH   1  11
ATOM     11  C   UNL     1      29.808  32.291  52.144  1.00  0.00     0.000 C 
BRANCH  11  12
ATOM     12  C   UNL     1      30.051  33.757  52.547  1.00  0.00    -0.000 C 
BRANCH  12  13
ATOM     13  C   UNL     1      28.911  34.338  53.399  1.00  0.00    -0.000 C 
BRANCH  13  14
ATOM     14  C   UNL     1      27.635  33.477  53.358  1.00  0.00    -0.000 C 
BRANCH  14  15
ATOM     15  C   UNL     1      26.334  34.240  53.035  1.00  0.00    -0.000 C 
BRANCH  15  16
ATOM     16  C   UNL     1      25.491  33.641  51.895  1.00  0.00    -0.000 C 
BRANCH  16  17
ATOM     17  C   UNL     1      26.235  32.547  51.115  1.00  0.00    -0.003 C 
ATOM     18  C   UNL     1      26.762  33.080  49.787  1.00  0.00     0.004 C 
ENDBRANCH  16  17
ENDBRANCH  15  16
ENDBRANCH  14  15
ENDBRANCH  13  14
ENDBRANCH  12  13
ENDBRANCH  11  12
ENDBRANCH   1  11
TORSDOF 14
ENDMDL
MODEL 6
REMARK VINA RESULT:    -2.779     16.502     18.538
REMARK INTER + INTRA:          -7.531
REMARK INTER:                  -5.125
REMARK INTRA:                  -2.406
REMARK UNBOUND:                -2.478
REMARK SMILES CCCCCCCCCCCCCCCC(=O)[O-]
REMARK SMILES IDX 9 1 10 2 11 3 12 4 13 5 14 6 15 7 16 8 17 9 18 10 8 11 7 12
REMARK SMILES IDX 6 13 5 14 4 15 3 16 2 17 1 18
REMARK H PARENT
REMARK Flexibility Score: inf
ROOT
ATOM      1  C   UNL     1      18.166  17.208  51.230  1.00  0.00     0.000 C 
ENDROOT
BRANCH   1   2
ATOM      2  C   UNL     1      16.925  17.208  52.142  1.00  0.00     0.000 C 
BRANCH   2   3
ATOM      3  C   UNL     1      15.724  17.935  51.516  1.00  0.00     0.000 C 
BRANCH   3   4
ATOM      4  C   UNL     1      15.832  18.067  49.986  1.00  0.00     0.000 C 
BRANCH   4   5
ATOM      5  C   UNL     1      16.148  19.484  49.470  1.00  0.00     0.000 C 
BRANCH   5   6
ATOM      6  C   UNL     1      17.274  19.507  48.426  1.00  0.00     0.006 C 
BRANCH   6   7
ATOM      7  C   UNL     1      17.506  18.112  47.839  1.00  0.00     0.053 C 
BRANCH   7   8
ATOM      8  C   UNL     1      16.946  18.027  46.455  1.00  0.00     0.041 C 
ATOM      9  O   UNL     1      17.614  18.448  45.474  1.00  0.00    -0.550 OA
ATOM     10  O   UNL     1      15.666  17.528  46.251  1.00  0.00    -0.550 OA
ENDBRANCH   7   8
ENDBRANCH   6   7
ENDBRANCH   5   6
ENDBRANCH   4   5
ENDBRANCH   3   4
ENDBRANCH   2   3
ENDBRANCH   1   2
BRANCH   1  11
ATOM     11  C   UNL     1      19.355  18.053  51.730  1.00  0.00     0.000 C 
BRANCH  11  12
ATOM     12  C   UNL     1      19.017  19.085  52.823  1.00  0.00    -0.000 C 
BRANCH  12  13
ATOM     13  C   UNL     1      18.504  20.416  52.248  1.00  0.00    -0.000 C 
BRANCH  13  14
ATOM     14  C   UNL     1      17.310  20.985  53.036  1.00  0.00    -0.000 C 
BRANCH  14  15
ATOM     15  C   UNL     1      17.056  20.334  54.412  1.00  0.00    -0.000 C 
BRANCH  15  16
ATOM     16  C   UNL     1      15.624  19.818  54.636  1.00  0.00    -0.000 C 
BRANCH  16  17
ATOM     17  C   UNL     1      15.551  18.696  55.681  1.00  0.00    -0.003 C 
ATOM     18  C   UNL     1      16.843  17.887  55.711  1.00  0.00     0.004 C 
ENDBRANCH  16  17
ENDBRANCH  15  16
ENDBRANCH  14  15
ENDBRANCH  13  14
ENDBRANCH  12  13
ENDBRANCH  11  12
ENDBRANCH   1  11
TORSDOF 14
ENDMDL
MODEL 7
REMARK VINA RESULT:    -2.771     17.113     18.953
REMARK INTER + INTRA:          -7.517
REMARK INTER:                  -5.188
REMARK INTRA:                  -2.329
REMARK UNBOUND:                -2.478
REMARK SMILES CCCCCCCCCCCCCCCC(=O)[O-]
REMARK SMILES IDX 9 1 10 2 11 3 12 4 13 5 14 6 15 7 16 8 17 9 18 10 8 11 7 12
REMARK SMILES IDX 6 13 5 14 4 15 3 16 2 17 1 18
REMARK H PARENT
REMARK Flexibility Score: inf
ROOT
ATOM      1  C   UNL     1      17.513  20.622  49.697  1.00  0.00     0.000 C 
ENDROOT
BRANCH   1   2
ATOM      2  C   UNL     1      17.856  21.391  48.408  1.00  0.00     0.000 C 
BRANCH   2   3
ATOM      3  C   UNL     1      19.025  20.763  47.632  1.00  0.00     0.000 C 
BRANCH   3   4
ATOM      4  C   UNL     1      18.593  19.580  46.747  1.00  0.00     0.000 C 
BRANCH   4   5
ATOM      5  C   UNL     1      17.653  19.941  45.581  1.00  0.00     0.000 C 
BRANCH   5   6
ATOM      6  C   UNL     1      16.220  19.425  45.782  1.00  0.00     0.006 C 
BRANCH   6   7
ATOM      7  C   UNL     1      16.203  17.903  45.942  1.00  0.00     0.053 C 
BRANCH   7   8
ATOM      8  C   UNL     1      14.822  17.425  46.261  1.00  0.00     0.041 C 
ATOM      9  O   UNL     1      14.419  16.315  45.825  1.00  0.00    -0.550 OA
ATOM     10  O   UNL     1      13.962  18.227  46.999  1.00  0.00    -0.550 OA
ENDBRANCH   7   8
ENDBRANCH   6   7
ENDBRANCH   5   6
ENDBRANCH   4   5
ENDBRANCH   3   4
ENDBRANCH   2   3
ENDBRANCH   1   2
BRANCH   1  11
ATOM     11  C   UNL     1      16.240  19.753  49.630  1.00  0.00     0.000 C 
BRANCH  11  12
ATOM     12  C   UNL     1      16.477  18.232  49.690  1.00  0.00    -0.000 C 
BRANCH  12  13
ATOM     13  C   UNL     1      17.944  17.867  49.967  1.00  0.00    -0.000 C 
BRANCH  13  14
ATOM     14  C   UNL     1      18.126  17.080  51.278  1.00  0.00    -0.000 C 
BRANCH  14  15
ATOM     15  C   UNL     1      17.108  17.406  52.390  1.00  0.00    -0.000 C 
BRANCH  15  16
ATOM     16  C   UNL     1      17.575  18.455  53.416  1.00  0.00    -0.000 C 
BRANCH  16  17
ATOM     17  C   UNL     1      16.577  19.609  53.585  1.00  0.00    -0.003 C 
ATOM     18  C   UNL     1      15.173  19.189  53.163  1.00  0.00     0.004 C 
ENDBRANCH  16  17
ENDBRANCH  15  16
ENDBRANCH  14  15
ENDBRANCH  13  14
ENDBRANCH  12  13
ENDBRANCH  11  12
ENDBRANCH   1  11
TORSDOF 14
ENDMDL
MODEL 8
REMARK VINA RESULT:    -2.771      2.888      5.660
REMARK INTER + INTRA:          -7.516
REMARK INTER:                  -4.716
REMARK INTRA:                  -2.801
REMARK UNBOUND:                -2.478
REMARK SMILES CCCCCCCCCCCCCCCC(=O)[O-]
REMARK SMILES IDX 9 1 10 2 11 3 12 4 13 5 14 6 15 7 16 8 17 9 18 10 8 11 7 12
REMARK SMILES IDX 6 13 5 14 4 15 3 16 2 17 1 18
REMARK H PARENT
REMARK Flexibility Score: inf
ROOT
ATOM      1  C   UNL     1      30.586  32.968  52.399  1.00  0.00     0.000 C 
ENDROOT
BRANCH   1   2
ATOM      2  C   UNL     1      30.461  31.588  51.729  1.00  0.00     0.000 C 
BRANCH   2   3
ATOM      3  C   UNL     1      30.364  30.437  52.744  1.00  0.00     0.000 C 
BRANCH   3   4
ATOM      4  C   UNL     1      28.920  30.151  53.192  1.00  0.00     0.000 C 
BRANCH   4   5
ATOM      5  C   UNL     1      28.610  30.487  54.663  1.00  0.00     0.000 C 
BRANCH   5   6
ATOM      6  C   UNL     1      29.874  30.655  55.520  1.00  0.00     0.006 C 
BRANCH   6   7
ATOM      7  C   UNL     1      29.846  31.982  56.284  1.00  0.00     0.053 C 
BRANCH   7   8
ATOM      8  C   UNL     1      31.136  32.716  56.106  1.00  0.00     0.041 C 
ATOM      9  O   UNL     1      32.233  32.128  56.300  1.00  0.00    -0.550 OA
ATOM     10  O   UNL     1      31.129  34.065  55.775  1.00  0.00    -0.550 OA
ENDBRANCH   7   8
ENDBRANCH   6   7
ENDBRANCH   5   6
ENDBRANCH   4   5
ENDBRANCH   3   4
ENDBRANCH   2   3
ENDBRANCH   1   2
BRANCH   1  11
ATOM     11  C   UNL     1      29.385  33.914  52.195  1.00  0.00     0.000 C 
BRANCH  11  12
ATOM     12  C   UNL     1      28.511  34.148  53.441  1.00  0.00    -0.000 C 
BRANCH  12  13
ATOM     13  C   UNL     1      27.166  33.408  53.374  1.00  0.00    -0.000 C 
BRANCH  13  14
ATOM     14  C   UNL     1      26.488  33.524  51.997  1.00  0.00    -0.000 C 
BRANCH  14  15
ATOM     15  C   UNL     1      26.145  32.183  51.315  1.00  0.00    -0.000 C 
BRANCH  15  16
ATOM     16  C   UNL     1      27.096  31.766  50.179  1.00  0.00    -0.000 C 
BRANCH  16  17
ATOM     17  C   UNL     1      27.355  32.896  49.173  1.00  0.00    -0.003 C 
ATOM     18  C   UNL     1      28.786  32.849  48.648  1.00  0.00     0.004 C 
ENDBRANCH  16  17
ENDBRANCH  15  16
ENDBRANCH  14  15
ENDBRANCH  13  14
ENDBRANCH  12  13
ENDBRANCH  11  12
ENDBRANCH   1  11
TORSDOF 14
ENDMDL
MODEL 9
REMARK VINA RESULT:    -2.750      8.116     11.152
REMARK INTER + INTRA:          -7.478
REMARK INTER:                  -5.142
REMARK INTRA:                  -2.337
REMARK UNBOUND:                -2.478
REMARK SMILES CCCCCCCCCCCCCCCC(=O)[O-]
REMARK SMILES IDX 9 1 10 2 11 3 12 4 13 5 14 6 15 7 16 8 17 9 18 10 8 11 7 12
REMARK SMILES IDX 6 13 5 14 4 15 3 16 2 17 1 18
REMARK H PARENT
REMARK Flexibility Score: inf
ROOT
ATOM      1  C   UNL     1      19.335  27.438  56.051  1.00  0.00     0.000 C 
ENDROOT
BRANCH   1   2
ATOM      2  C   UNL     1      18.556  28.758  55.902  1.00  0.00     0.000 C 
BRANCH   2   3
ATOM      3  C   UNL     1      18.858  29.484  54.581  1.00  0.00     0.000 C 
BRANCH   3   4
ATOM      4  C   UNL     1      17.598  30.069  53.916  1.00  0.00     0.000 C 
BRANCH   4   5
ATOM      5  C   UNL     1      16.265  29.687  54.587  1.00  0.00     0.000 C 
BRANCH   5   6
ATOM      6  C   UNL     1      15.482  28.622  53.805  1.00  0.00     0.006 C 
BRANCH   6   7
ATOM      7  C   UNL     1      15.301  27.351  54.640  1.00  0.00     0.053 C 
BRANCH   7   8
ATOM      8  C   UNL     1      16.145  26.243  54.096  1.00  0.00     0.041 C 
ATOM      9  O   UNL     1      15.898  25.048  54.405  1.00  0.00    -0.550 OA
ATOM     10  O   UNL     1      17.236  26.532  53.287  1.00  0.00    -0.550 OA
ENDBRANCH   7   8
ENDBRANCH   6   7
ENDBRANCH   5   6
ENDBRANCH   4   5
ENDBRANCH   3   4
ENDBRANCH   2   3
ENDBRANCH   1   2
BRANCH   1  11
ATOM     11  C   UNL     1      19.912  27.165  57.455  1.00  0.00     0.000 C 
BRANCH  11  12
ATOM     12  C   UNL     1      19.897  28.365  58.420  1.00  0.00    -0.000 C 
BRANCH  12  13
ATOM     13  C   UNL     1      21.273  29.037  58.556  1.00  0.00    -0.000 C 
BRANCH  13  14
ATOM     14  C   UNL     1      21.377  30.353  57.763  1.00  0.00    -0.000 C 
BRANCH  14  15
ATOM     15  C   UNL     1      22.222  30.282  56.475  1.00  0.00    -0.000 C 
BRANCH  15  16
ATOM     16  C   UNL     1      23.185  29.084  56.391  1.00  0.00    -0.000 C 
BRANCH  16  17
ATOM     17  C   UNL     1      22.841  28.121  55.246  1.00  0.00    -0.003 C 
ATOM     18  C   UNL     1      22.491  28.884  53.972  1.00  0.00     0.004 C 
ENDBRANCH  16  17
ENDBRANCH  15  16
ENDBRANCH  14  15
ENDBRANCH  13  14
ENDBRANCH  12  13
ENDBRANCH  11  12
ENDBRANCH   1  11
TORSDOF 14
ENDMDL
