MODEL 1
REMARK VINA RESULT:    -6.720      0.000      0.000
REMARK INTER + INTRA:          -8.205
REMARK INTER:                  -7.898
REMARK INTRA:                  -0.306
REMARK UNBOUND:                -0.306
REMARK SMILES O=c1cc(-c2ccc(O)c(O)c2)oc2cc(O)cc(O)c12
REMARK SMILES IDX 4 1 3 2 2 3 1 4 21 5 19 6 18 7 16 8 15 9 14 10 13 11 5 12
REMARK SMILES IDX 6 13 7 14 8 15 12 16 10 17 9 18 11 20 20 22 17 24
REMARK H PARENT 9 19 11 21 20 23 17 25
REMARK Flexibility Score: inf
ROOT
ATOM      1  C   UNL     1       9.460  14.745  51.985  1.00  0.00     0.138 A 
ATOM      2  C   UNL     1       8.301  15.375  52.468  1.00  0.00     0.100 A 
ATOM      3  C   UNL     1       7.563  14.767  53.485  1.00  0.00     0.197 A 
ATOM      4  O   UNL     1       6.523  15.339  53.910  1.00  0.00    -0.289 OA
ATOM      5  C   UNL     1       7.987  13.531  54.010  1.00  0.00     0.107 A 
ATOM      6  C   UNL     1       7.300  12.849  55.041  1.00  0.00     0.134 A 
ATOM      7  C   UNL     1       7.785  11.618  55.506  1.00  0.00     0.093 A 
ATOM      8  C   UNL     1       8.943  11.058  54.960  1.00  0.00     0.123 A 
ATOM      9  C   UNL     1       9.628  11.727  53.941  1.00  0.00     0.094 A 
ATOM     10  C   UNL     1       9.160  12.955  53.465  1.00  0.00     0.146 A 
ATOM     11  O   UNL     1       9.829  13.572  52.496  1.00  0.00    -0.456 OA
ENDROOT
BRANCH   1  12
ATOM     12  C   UNL     1      10.284  15.343  50.904  1.00  0.00     0.021 A 
ATOM     13  C   UNL     1       9.721  16.179  49.920  1.00  0.00     0.016 A 
ATOM     14  C   UNL     1      10.522  16.736  48.921  1.00  0.00     0.051 A 
ATOM     15  C   UNL     1      11.897  16.477  48.891  1.00  0.00     0.157 A 
ATOM     16  C   UNL     1      11.668  15.099  50.873  1.00  0.00     0.062 A 
ATOM     17  C   UNL     1      12.472  15.658  49.869  1.00  0.00     0.158 A 
BRANCH  15  18
ATOM     18  O   UNL     1      12.698  17.031  47.894  1.00  0.00    -0.504 OA
ATOM     19  H   UNL     1      12.312  17.636  47.179  1.00  0.00     0.293 HD
ENDBRANCH  15  18
BRANCH  17  20
ATOM     20  O   UNL     1      13.842  15.405  49.839  1.00  0.00    -0.504 OA
ATOM     21  H   UNL     1      14.393  15.566  49.004  1.00  0.00     0.293 HD
ENDBRANCH  17  20
ENDBRANCH   1  12
BRANCH   6  22
ATOM     22  O   UNL     1       6.140  13.384  55.605  1.00  0.00    -0.507 OA
ATOM     23  H   UNL     1       6.118  13.719  56.561  1.00  0.00     0.293 HD
ENDBRANCH   6  22
BRANCH   8  24
ATOM     24  O   UNL     1       9.404   9.833  55.440  1.00  0.00    -0.508 OA
ATOM     25  H   UNL     1       8.946   8.963  55.194  1.00  0.00     0.293 HD
ENDBRANCH   8  24
TORSDOF 5
ENDMDL
MODEL 2
REMARK VINA RESULT:    -6.676      4.349      6.907
REMARK INTER + INTRA:          -8.153
REMARK INTER:                  -7.859
REMARK INTRA:                  -0.295
REMARK UNBOUND:                -0.306
REMARK SMILES O=c1cc(-c2ccc(O)c(O)c2)oc2cc(O)cc(O)c12
REMARK SMILES IDX 4 1 3 2 2 3 1 4 21 5 19 6 18 7 16 8 15 9 14 10 13 11 5 12
REMARK SMILES IDX 6 13 7 14 8 15 12 16 10 17 9 18 11 20 20 22 17 24
REMARK H PARENT 9 19 11 21 20 23 17 25
REMARK Flexibility Score: inf
ROOT
ATOM      1  C   UNL     1       9.891   9.882  54.620  1.00  0.00     0.138 A 
ATOM      2  C   UNL     1      10.014  11.236  54.266  1.00  0.00     0.100 A 
ATOM      3  C   UNL     1       8.877  11.953  53.891  1.00  0.00     0.197 A 
ATOM      4  O   UNL     1       8.998  13.168  53.574  1.00  0.00    -0.289 OA
ATOM      5  C   UNL     1       7.624  11.311  53.869  1.00  0.00     0.107 A 
ATOM      6  C   UNL     1       6.424  11.964  53.504  1.00  0.00     0.134 A 
ATOM      7  C   UNL     1       5.215  11.250  53.502  1.00  0.00     0.093 A 
ATOM      8  C   UNL     1       5.186   9.900  53.858  1.00  0.00     0.123 A 
ATOM      9  C   UNL     1       6.369   9.248  54.221  1.00  0.00     0.094 A 
ATOM     10  C   UNL     1       7.582   9.942  54.230  1.00  0.00     0.146 A 
ATOM     11  O   UNL     1       8.693   9.301  54.579  1.00  0.00    -0.456 OA
ENDROOT
BRANCH   1  12
ATOM     12  C   UNL     1      11.065   9.069  55.025  1.00  0.00     0.021 A 
ATOM     13  C   UNL     1      10.937   7.717  55.398  1.00  0.00     0.016 A 
ATOM     14  C   UNL     1      12.061   6.973  55.765  1.00  0.00     0.051 A 
ATOM     15  C   UNL     1      13.330   7.562  55.758  1.00  0.00     0.157 A 
ATOM     16  C   UNL     1      12.347   9.648  55.009  1.00  0.00     0.062 A 
ATOM     17  C   UNL     1      13.474   8.901  55.378  1.00  0.00     0.158 A 
BRANCH  15  18
ATOM     18  O   UNL     1      14.454   6.822  56.125  1.00  0.00    -0.504 OA
ATOM     19  H   UNL     1      15.039   7.099  56.904  1.00  0.00     0.293 HD
ENDBRANCH  15  18
BRANCH  17  20
ATOM     20  O   UNL     1      14.741   9.484  55.369  1.00  0.00    -0.504 OA
ATOM     21  H   UNL     1      15.332   9.454  54.547  1.00  0.00     0.293 HD
ENDBRANCH  17  20
ENDBRANCH   1  12
BRANCH   6  22
ATOM     22  O   UNL     1       6.422  13.312  53.142  1.00  0.00    -0.507 OA
ATOM     23  H   UNL     1       6.504  13.605  52.175  1.00  0.00     0.293 HD
ENDBRANCH   6  22
BRANCH   8  24
ATOM     24  O   UNL     1       3.972   9.214  53.847  1.00  0.00    -0.508 OA
ATOM     25  H   UNL     1       3.254   9.421  53.163  1.00  0.00     0.293 HD
ENDBRANCH   8  24
TORSDOF 5
ENDMDL
MODEL 3
REMARK VINA RESULT:    -6.644      1.521      7.533
REMARK INTER + INTRA:          -8.115
REMARK INTER:                  -7.820
REMARK INTRA:                  -0.296
REMARK UNBOUND:                -0.306
REMARK SMILES O=c1cc(-c2ccc(O)c(O)c2)oc2cc(O)cc(O)c12
REMARK SMILES IDX 4 1 3 2 2 3 1 4 21 5 19 6 18 7 16 8 15 9 14 10 13 11 5 12
REMARK SMILES IDX 6 13 7 14 8 15 12 16 10 17 9 18 11 20 20 22 17 24
REMARK H PARENT 9 19 11 21 20 23 17 25
REMARK Flexibility Score: inf
ROOT
ATOM      1  C   UNL     1       9.785  14.978  51.323  1.00  0.00     0.138 A 
ATOM      2  C   UNL     1      11.181  14.823  51.306  1.00  0.00     0.100 A 
ATOM      3  C   UNL     1      11.912  15.298  50.216  1.00  0.00     0.197 A 
ATOM      4  O   UNL     1      13.164  15.153  50.210  1.00  0.00    -0.289 OA
ATOM      5  C   UNL     1      11.240  15.921  49.146  1.00  0.00     0.107 A 
ATOM      6  C   UNL     1      11.903  16.431  48.006  1.00  0.00     0.134 A 
ATOM      7  C   UNL     1      11.160  17.033  46.979  1.00  0.00     0.093 A 
ATOM      8  C   UNL     1       9.770  17.135  47.073  1.00  0.00     0.123 A 
ATOM      9  C   UNL     1       9.108  16.633  48.198  1.00  0.00     0.094 A 
ATOM     10  C   UNL     1       9.831  16.030  49.231  1.00  0.00     0.146 A 
ATOM     11  O   UNL     1       9.179  15.562  50.291  1.00  0.00    -0.456 OA
ENDROOT
BRANCH   1  12
ATOM     12  C   UNL     1       8.957  14.491  52.454  1.00  0.00     0.021 A 
ATOM     13  C   UNL     1       9.201  13.249  53.071  1.00  0.00     0.016 A 
ATOM     14  C   UNL     1       8.412  12.821  54.141  1.00  0.00     0.051 A 
ATOM     15  C   UNL     1       7.373  13.627  54.619  1.00  0.00     0.157 A 
ATOM     16  C   UNL     1       7.918  15.300  52.950  1.00  0.00     0.062 A 
ATOM     17  C   UNL     1       7.126  14.870  54.024  1.00  0.00     0.158 A 
BRANCH  15  18
ATOM     18  O   UNL     1       6.582  13.202  55.686  1.00  0.00    -0.504 OA
ATOM     19  H   UNL     1       5.697  12.733  55.536  1.00  0.00     0.293 HD
ENDBRANCH  15  18
BRANCH  17  20
ATOM     20  O   UNL     1       6.093  15.673  54.505  1.00  0.00    -0.504 OA
ATOM     21  H   UNL     1       5.293  15.909  53.930  1.00  0.00     0.293 HD
ENDBRANCH  17  20
ENDBRANCH   1  12
BRANCH   6  22
ATOM     22  O   UNL     1      13.291  16.343  47.884  1.00  0.00    -0.507 OA
ATOM     23  H   UNL     1      13.843  17.107  47.513  1.00  0.00     0.293 HD
ENDBRANCH   6  22
BRANCH   8  24
ATOM     24  O   UNL     1       9.055  17.738  46.039  1.00  0.00    -0.508 OA
ATOM     25  H   UNL     1       8.739  17.207  45.236  1.00  0.00     0.293 HD
ENDBRANCH   8  24
TORSDOF 5
ENDMDL
MODEL 4
REMARK VINA RESULT:    -6.536      1.741      7.031
REMARK INTER + INTRA:          -7.989
REMARK INTER:                  -7.703
REMARK INTRA:                  -0.286
REMARK UNBOUND:                -0.306
REMARK SMILES O=c1cc(-c2ccc(O)c(O)c2)oc2cc(O)cc(O)c12
REMARK SMILES IDX 4 1 3 2 2 3 1 4 21 5 19 6 18 7 16 8 15 9 14 10 13 11 5 12
REMARK SMILES IDX 6 13 7 14 8 15 12 16 10 17 9 18 11 20 20 22 17 24
REMARK H PARENT 9 19 11 21 20 23 17 25
REMARK Flexibility Score: inf
ROOT
ATOM      1  C   UNL     1       9.846  14.888  51.413  1.00  0.00     0.138 A 
ATOM      2  C   UNL     1      10.104  16.254  51.207  1.00  0.00     0.100 A 
ATOM      3  C   UNL     1      10.898  16.647  50.128  1.00  0.00     0.197 A 
ATOM      4  O   UNL     1      11.125  17.875  49.953  1.00  0.00    -0.289 OA
ATOM      5  C   UNL     1      11.431  15.671  49.263  1.00  0.00     0.107 A 
ATOM      6  C   UNL     1      12.242  15.984  48.148  1.00  0.00     0.134 A 
ATOM      7  C   UNL     1      12.740  14.952  47.338  1.00  0.00     0.093 A 
ATOM      8  C   UNL     1      12.441  13.617  47.622  1.00  0.00     0.123 A 
ATOM      9  C   UNL     1      11.640  13.301  48.724  1.00  0.00     0.094 A 
ATOM     10  C   UNL     1      11.134  14.315  49.543  1.00  0.00     0.146 A 
ATOM     11  O   UNL     1      10.373  13.990  50.583  1.00  0.00    -0.456 OA
ENDROOT
BRANCH   1  12
ATOM     12  C   UNL     1       9.011  14.411  52.544  1.00  0.00     0.021 A 
ATOM     13  C   UNL     1       9.224  13.155  53.144  1.00  0.00     0.016 A 
ATOM     14  C   UNL     1       8.429  12.737  54.214  1.00  0.00     0.051 A 
ATOM     15  C   UNL     1       7.416  13.566  54.708  1.00  0.00     0.157 A 
ATOM     16  C   UNL     1       7.998  15.243  53.055  1.00  0.00     0.062 A 
ATOM     17  C   UNL     1       7.201  14.822  54.129  1.00  0.00     0.158 A 
BRANCH  15  18
ATOM     18  O   UNL     1       6.620  13.150  55.774  1.00  0.00    -0.504 OA
ATOM     19  H   UNL     1       6.540  13.700  56.622  1.00  0.00     0.293 HD
ENDBRANCH  15  18
BRANCH  17  20
ATOM     20  O   UNL     1       6.193  15.647  54.625  1.00  0.00    -0.504 OA
ATOM     21  H   UNL     1       5.378  15.882  54.070  1.00  0.00     0.293 HD
ENDBRANCH  17  20
ENDBRANCH   1  12
BRANCH   6  22
ATOM     22  O   UNL     1      12.558  17.308  47.839  1.00  0.00    -0.507 OA
ATOM     23  H   UNL     1      12.113  18.086  48.311  1.00  0.00     0.293 HD
ENDBRANCH   6  22
BRANCH   8  24
ATOM     24  O   UNL     1      12.948  12.611  46.802  1.00  0.00    -0.508 OA
ATOM     25  H   UNL     1      13.520  11.862  47.176  1.00  0.00     0.293 HD
ENDBRANCH   8  24
TORSDOF 5
ENDMDL
MODEL 5
REMARK VINA RESULT:    -6.488      1.661      7.452
REMARK INTER + INTRA:          -7.932
REMARK INTER:                  -7.641
REMARK INTRA:                  -0.291
REMARK UNBOUND:                -0.306
REMARK SMILES O=c1cc(-c2ccc(O)c(O)c2)oc2cc(O)cc(O)c12
REMARK SMILES IDX 4 1 3 2 2 3 1 4 21 5 19 6 18 7 16 8 15 9 14 10 13 11 5 12
REMARK SMILES IDX 6 13 7 14 8 15 12 16 10 17 9 18 11 20 20 22 17 24
REMARK H PARENT 9 19 11 21 20 23 17 25
REMARK Flexibility Score: inf
ROOT
ATOM      1  C   UNL     1       9.671  15.148  51.154  1.00  0.00     0.138 A 
ATOM      2  C   UNL     1      11.064  14.972  51.200  1.00  0.00     0.100 A 
ATOM      3  C   UNL     1      11.845  15.390  50.121  1.00  0.00     0.197 A 
ATOM      4  O   UNL     1      13.094  15.225  50.172  1.00  0.00    -0.289 OA
ATOM      5  C   UNL     1      11.227  15.979  49.002  1.00  0.00     0.107 A 
ATOM      6  C   UNL     1      11.944  16.431  47.869  1.00  0.00     0.134 A 
ATOM      7  C   UNL     1      11.252  17.003  46.790  1.00  0.00     0.093 A 
ATOM      8  C   UNL     1       9.861  17.130  46.823  1.00  0.00     0.123 A 
ATOM      9  C   UNL     1       9.147  16.685  47.940  1.00  0.00     0.094 A 
ATOM     10  C   UNL     1       9.817  16.114  49.025  1.00  0.00     0.146 A 
ATOM     11  O   UNL     1       9.116  15.699  50.076  1.00  0.00    -0.456 OA
ENDROOT
BRANCH   1  12
ATOM     12  C   UNL     1       8.790  14.721  52.270  1.00  0.00     0.021 A 
ATOM     13  C   UNL     1       7.479  15.216  52.410  1.00  0.00     0.016 A 
ATOM     14  C   UNL     1       6.669  14.788  53.465  1.00  0.00     0.051 A 
ATOM     15  C   UNL     1       7.149  13.856  54.392  1.00  0.00     0.157 A 
ATOM     16  C   UNL     1       9.260  13.776  53.200  1.00  0.00     0.062 A 
ATOM     17  C   UNL     1       8.446  13.348  54.258  1.00  0.00     0.158 A 
BRANCH  15  18
ATOM     18  O   UNL     1       6.343  13.429  55.446  1.00  0.00    -0.504 OA
ATOM     19  H   UNL     1       5.374  13.174  55.302  1.00  0.00     0.293 HD
ENDBRANCH  15  18
BRANCH  17  20
ATOM     20  O   UNL     1       8.921  12.416  55.181  1.00  0.00    -0.504 OA
ATOM     21  H   UNL     1       8.866  12.583  56.179  1.00  0.00     0.293 HD
ENDBRANCH  17  20
ENDBRANCH   1  12
BRANCH   6  22
ATOM     22  O   UNL     1      13.334  16.317  47.807  1.00  0.00    -0.507 OA
ATOM     23  H   UNL     1      13.801  15.426  47.932  1.00  0.00     0.293 HD
ENDBRANCH   6  22
BRANCH   8  24
ATOM     24  O   UNL     1       9.198  17.701  45.738  1.00  0.00    -0.508 OA
ATOM     25  H   UNL     1       8.786  18.624  45.797  1.00  0.00     0.293 HD
ENDBRANCH   8  24
TORSDOF 5
ENDMDL
MODEL 6
REMARK VINA RESULT:    -6.422      1.585      1.908
REMARK INTER + INTRA:          -7.855
REMARK INTER:                  -7.577
REMARK INTRA:                  -0.278
REMARK UNBOUND:                -0.306
REMARK SMILES O=c1cc(-c2ccc(O)c(O)c2)oc2cc(O)cc(O)c12
REMARK SMILES IDX 4 1 3 2 2 3 1 4 21 5 19 6 18 7 16 8 15 9 14 10 13 11 5 12
REMARK SMILES IDX 6 13 7 14 8 15 12 16 10 17 9 18 11 20 20 22 17 24
REMARK H PARENT 9 19 11 21 20 23 17 25
REMARK Flexibility Score: inf
ROOT
ATOM      1  C   UNL     1      10.095  14.532  51.267  1.00  0.00     0.138 A 
ATOM      2  C   UNL     1       9.439  15.711  51.657  1.00  0.00     0.100 A 
ATOM      3  C   UNL     1       8.669  15.715  52.821  1.00  0.00     0.197 A 
ATOM      4  O   UNL     1       8.083  16.778  53.162  1.00  0.00    -0.289 OA
ATOM      5  C   UNL     1       8.558  14.538  53.587  1.00  0.00     0.107 A 
ATOM      6  C   UNL     1       7.801  14.457  54.779  1.00  0.00     0.134 A 
ATOM      7  C   UNL     1       7.736  13.244  55.481  1.00  0.00     0.093 A 
ATOM      8  C   UNL     1       8.413  12.114  55.015  1.00  0.00     0.123 A 
ATOM      9  C   UNL     1       9.163  12.188  53.837  1.00  0.00     0.094 A 
ATOM     10  C   UNL     1       9.241  13.388  53.123  1.00  0.00     0.146 A 
ATOM     11  O   UNL     1       9.961  13.433  52.007  1.00  0.00    -0.456 OA
ENDROOT
BRANCH   1  12
ATOM     12  C   UNL     1      10.925  14.467  50.038  1.00  0.00     0.021 A 
ATOM     13  C   UNL     1      10.868  13.366  49.162  1.00  0.00     0.016 A 
ATOM     14  C   UNL     1      11.654  13.337  48.008  1.00  0.00     0.051 A 
ATOM     15  C   UNL     1      12.501  14.408  47.702  1.00  0.00     0.157 A 
ATOM     16  C   UNL     1      11.770  15.545  49.716  1.00  0.00     0.062 A 
ATOM     17  C   UNL     1      12.559  15.515  48.557  1.00  0.00     0.158 A 
BRANCH  15  18
ATOM     18  O   UNL     1      13.287  14.382  46.551  1.00  0.00    -0.504 OA
ATOM     19  H   UNL     1      13.373  13.544  45.988  1.00  0.00     0.293 HD
ENDBRANCH  15  18
BRANCH  17  20
ATOM     20  O   UNL     1      13.401  16.582  48.249  1.00  0.00    -0.504 OA
ATOM     21  H   UNL     1      14.357  16.434  47.950  1.00  0.00     0.293 HD
ENDBRANCH  17  20
ENDBRANCH   1  12
BRANCH   6  22
ATOM     22  O   UNL     1       7.113  15.569  55.269  1.00  0.00    -0.507 OA
ATOM     23  H   UNL     1       6.421  15.486  56.005  1.00  0.00     0.293 HD
ENDBRANCH   6  22
BRANCH   8  24
ATOM     24  O   UNL     1       8.331  10.922  55.731  1.00  0.00    -0.508 OA
ATOM     25  H   UNL     1       7.785  10.852  56.582  1.00  0.00     0.293 HD
ENDBRANCH   8  24
TORSDOF 5
ENDMDL
MODEL 7
REMARK VINA RESULT:    -6.178     11.100     13.377
REMARK INTER + INTRA:          -7.568
REMARK INTER:                  -7.306
REMARK INTRA:                  -0.262
REMARK UNBOUND:                -0.306
REMARK SMILES O=c1cc(-c2ccc(O)c(O)c2)oc2cc(O)cc(O)c12
REMARK SMILES IDX 4 1 3 2 2 3 1 4 21 5 19 6 18 7 16 8 15 9 14 10 13 11 5 12
REMARK SMILES IDX 6 13 7 14 8 15 12 16 10 17 9 18 11 20 20 22 17 24
REMARK H PARENT 9 19 11 21 20 23 17 25
REMARK Flexibility Score: inf
ROOT
ATOM      1  C   UNL     1       4.704  18.624  42.541  1.00  0.00     0.138 A 
ATOM      2  C   UNL     1       4.748  17.325  43.073  1.00  0.00     0.100 A 
ATOM      3  C   UNL     1       4.884  16.235  42.212  1.00  0.00     0.197 A 
ATOM      4  O   UNL     1       4.921  15.072  42.700  1.00  0.00    -0.289 OA
ATOM      5  C   UNL     1       4.971  16.451  40.823  1.00  0.00     0.107 A 
ATOM      6  C   UNL     1       5.112  15.404  39.883  1.00  0.00     0.134 A 
ATOM      7  C   UNL     1       5.186  15.704  38.514  1.00  0.00     0.093 A 
ATOM      8  C   UNL     1       5.123  17.027  38.070  1.00  0.00     0.123 A 
ATOM      9  C   UNL     1       4.984  18.067  38.995  1.00  0.00     0.094 A 
ATOM     10  C   UNL     1       4.909  17.789  40.363  1.00  0.00     0.146 A 
ATOM     11  O   UNL     1       4.779  18.794  41.223  1.00  0.00    -0.456 OA
ENDROOT
BRANCH   1  12
ATOM     12  C   UNL     1       4.559  19.821  43.408  1.00  0.00     0.021 A 
ATOM     13  C   UNL     1       3.405  20.627  43.370  1.00  0.00     0.016 A 
ATOM     14  C   UNL     1       3.291  21.741  44.205  1.00  0.00     0.051 A 
ATOM     15  C   UNL     1       4.321  22.065  45.096  1.00  0.00     0.157 A 
ATOM     16  C   UNL     1       5.583  20.147  44.315  1.00  0.00     0.062 A 
ATOM     17  C   UNL     1       5.469  21.266  45.152  1.00  0.00     0.158 A 
BRANCH  15  18
ATOM     18  O   UNL     1       4.211  23.177  45.929  1.00  0.00    -0.504 OA
ATOM     19  H   UNL     1       3.314  23.602  46.131  1.00  0.00     0.293 HD
ENDBRANCH  15  18
BRANCH  17  20
ATOM     20  O   UNL     1       6.492  21.588  46.043  1.00  0.00    -0.504 OA
ATOM     21  H   UNL     1       6.958  22.487  46.012  1.00  0.00     0.293 HD
ENDBRANCH  17  20
ENDBRANCH   1  12
BRANCH   6  22
ATOM     22  O   UNL     1       5.177  14.072  40.296  1.00  0.00    -0.507 OA
ATOM     23  H   UNL     1       4.341  13.516  40.435  1.00  0.00     0.293 HD
ENDBRANCH   6  22
BRANCH   8  24
ATOM     24  O   UNL     1       5.199  17.297  36.705  1.00  0.00    -0.508 OA
ATOM     25  H   UNL     1       6.090  17.425  36.240  1.00  0.00     0.293 HD
ENDBRANCH   8  24
TORSDOF 5
ENDMDL
MODEL 8
REMARK VINA RESULT:    -6.157      3.001      8.112
REMARK INTER + INTRA:          -7.544
REMARK INTER:                  -7.284
REMARK INTRA:                  -0.259
REMARK UNBOUND:                -0.306
REMARK SMILES O=c1cc(-c2ccc(O)c(O)c2)oc2cc(O)cc(O)c12
REMARK SMILES IDX 4 1 3 2 2 3 1 4 21 5 19 6 18 7 16 8 15 9 14 10 13 11 5 12
REMARK SMILES IDX 6 13 7 14 8 15 12 16 10 17 9 18 11 20 20 22 17 24
REMARK H PARENT 9 19 11 21 20 23 17 25
REMARK Flexibility Score: inf
ROOT
ATOM      1  C   UNL     1      11.431  16.362  48.967  1.00  0.00     0.138 A 
ATOM      2  C   UNL     1      11.727  17.656  48.507  1.00  0.00     0.100 A 
ATOM      3  C   UNL     1      12.495  17.815  47.353  1.00  0.00     0.197 A 
ATOM      4  O   UNL     1      12.756  18.981  46.949  1.00  0.00    -0.289 OA
ATOM      5  C   UNL     1      12.965  16.678  46.667  1.00  0.00     0.107 A 
ATOM      6  C   UNL     1      13.746  16.751  45.490  1.00  0.00     0.134 A 
ATOM      7  C   UNL     1      14.181  15.570  44.869  1.00  0.00     0.093 A 
ATOM      8  C   UNL     1      13.848  14.321  45.402  1.00  0.00     0.123 A 
ATOM      9  C   UNL     1      13.076  14.243  46.565  1.00  0.00     0.094 A 
ATOM     10  C   UNL     1      12.633  15.408  47.198  1.00  0.00     0.146 A 
ATOM     11  O   UNL     1      11.899  15.308  48.302  1.00  0.00    -0.456 OA
ENDROOT
BRANCH   1  12
ATOM     12  C   UNL     1      10.621  16.132  50.190  1.00  0.00     0.021 A 
ATOM     13  C   UNL     1       9.278  15.711  50.121  1.00  0.00     0.016 A 
ATOM     14  C   UNL     1       8.543  15.493  51.288  1.00  0.00     0.051 A 
ATOM     15  C   UNL     1       9.135  15.681  52.542  1.00  0.00     0.157 A 
ATOM     16  C   UNL     1      11.211  16.306  51.454  1.00  0.00     0.062 A 
ATOM     17  C   UNL     1      10.472  16.087  52.626  1.00  0.00     0.158 A 
BRANCH  15  18
ATOM     18  O   UNL     1       8.403  15.464  53.709  1.00  0.00    -0.504 OA
ATOM     19  H   UNL     1       8.712  15.827  54.603  1.00  0.00     0.293 HD
ENDBRANCH  15  18
BRANCH  17  20
ATOM     20  O   UNL     1      11.061  16.270  53.876  1.00  0.00    -0.504 OA
ATOM     21  H   UNL     1      10.733  16.983  54.517  1.00  0.00     0.293 HD
ENDBRANCH  17  20
ENDBRANCH   1  12
BRANCH   6  22
ATOM     22  O   UNL     1      14.094  17.983  44.935  1.00  0.00    -0.507 OA
ATOM     23  H   UNL     1      14.665  18.652  45.439  1.00  0.00     0.293 HD
ENDBRANCH   6  22
BRANCH   8  24
ATOM     24  O   UNL     1      14.293  13.164  44.766  1.00  0.00    -0.508 OA
ATOM     25  H   UNL     1      15.032  13.192  44.073  1.00  0.00     0.293 HD
ENDBRANCH   8  24
TORSDOF 5
ENDMDL
MODEL 9
REMARK VINA RESULT:    -6.081      2.296      7.088
REMARK INTER + INTRA:          -7.453
REMARK INTER:                  -7.190
REMARK INTRA:                  -0.263
REMARK UNBOUND:                -0.306
REMARK SMILES O=c1cc(-c2ccc(O)c(O)c2)oc2cc(O)cc(O)c12
REMARK SMILES IDX 4 1 3 2 2 3 1 4 21 5 19 6 18 7 16 8 15 9 14 10 13 11 5 12
REMARK SMILES IDX 6 13 7 14 8 15 12 16 10 17 9 18 11 20 20 22 17 24
REMARK H PARENT 9 19 11 21 20 23 17 25
REMARK Flexibility Score: inf
ROOT
ATOM      1  C   UNL     1       9.813  15.382  50.501  1.00  0.00     0.138 A 
ATOM      2  C   UNL     1      10.438  16.608  50.217  1.00  0.00     0.100 A 
ATOM      3  C   UNL     1      11.162  16.751  49.032  1.00  0.00     0.197 A 
ATOM      4  O   UNL     1      11.720  17.855  48.788  1.00  0.00    -0.289 OA
ATOM      5  C   UNL     1      11.258  15.666  48.140  1.00  0.00     0.107 A 
ATOM      6  C   UNL     1      11.969  15.727  46.919  1.00  0.00     0.134 A 
ATOM      7  C   UNL     1      12.023  14.598  46.087  1.00  0.00     0.093 A 
ATOM      8  C   UNL     1      11.380  13.413  46.453  1.00  0.00     0.123 A 
ATOM      9  C   UNL     1      10.675  13.346  47.659  1.00  0.00     0.094 A 
ATOM     10  C   UNL     1      10.609  14.460  48.501  1.00  0.00     0.146 A 
ATOM     11  O   UNL     1       9.933  14.372  49.642  1.00  0.00    -0.456 OA
ENDROOT
BRANCH   1  12
ATOM     12  C   UNL     1       9.033  15.171  51.746  1.00  0.00     0.021 A 
ATOM     13  C   UNL     1       7.634  15.328  51.779  1.00  0.00     0.016 A 
ATOM     14  C   UNL     1       6.924  15.113  52.962  1.00  0.00     0.051 A 
ATOM     15  C   UNL     1       7.595  14.731  54.129  1.00  0.00     0.157 A 
ATOM     16  C   UNL     1       9.697  14.775  52.921  1.00  0.00     0.062 A 
ATOM     17  C   UNL     1       8.984  14.560  54.109  1.00  0.00     0.158 A 
BRANCH  15  18
ATOM     18  O   UNL     1       6.889  14.517  55.312  1.00  0.00    -0.504 OA
ATOM     19  H   UNL     1       6.017  14.997  55.504  1.00  0.00     0.293 HD
ENDBRANCH  15  18
BRANCH  17  20
ATOM     20  O   UNL     1       9.649  14.176  55.272  1.00  0.00    -0.504 OA
ATOM     21  H   UNL     1       9.408  13.324  55.764  1.00  0.00     0.293 HD
ENDBRANCH  17  20
ENDBRANCH   1  12
BRANCH   6  22
ATOM     22  O   UNL     1      12.622  16.897  46.527  1.00  0.00    -0.507 OA
ATOM     23  H   UNL     1      12.252  17.495  45.798  1.00  0.00     0.293 HD
ENDBRANCH   6  22
BRANCH   8  24
ATOM     24  O   UNL     1      11.449  12.306  45.609  1.00  0.00    -0.508 OA
ATOM     25  H   UNL     1      10.842  11.505  45.737  1.00  0.00     0.293 HD
ENDBRANCH   8  24
TORSDOF 5
ENDMDL
