MODEL 1
REMARK VINA RESULT:    -3.052      0.000      0.000
REMARK INTER + INTRA:          -6.072
REMARK INTER:                  -4.836
REMARK INTRA:                  -1.236
REMARK UNBOUND:                -1.236
REMARK SMILES CCCCCCCCCCCC(=O)[O-]
REMARK SMILES IDX 7 1 8 2 9 3 10 4 11 5 12 6 13 7 14 8 6 9 5 10 4 11 3 12 2 13
REMARK SMILES IDX 1 14
REMARK H PARENT
REMARK Flexibility Score: inf
ROOT
ATOM      1  C   UNL     1      60.912  30.197  57.822  1.00  0.00     0.000 C 
ENDROOT
BRANCH   1   2
ATOM      2  C   UNL     1      61.264  31.507  58.543  1.00  0.00     0.000 C 
BRANCH   2   3
ATOM      3  C   UNL     1      62.723  31.901  58.286  1.00  0.00     0.000 C 
BRANCH   3   4
ATOM      4  C   UNL     1      63.036  33.278  58.881  1.00  0.00     0.006 C 
BRANCH   4   5
ATOM      5  C   UNL     1      64.036  33.164  60.036  1.00  0.00     0.053 C 
BRANCH   5   6
ATOM      6  C   UNL     1      64.117  34.454  60.789  1.00  0.00     0.041 C 
ATOM      7  O   UNL     1      63.068  35.098  61.057  1.00  0.00    -0.550 OA
ATOM      8  O   UNL     1      65.355  34.970  61.152  1.00  0.00    -0.550 OA
ENDBRANCH   5   6
ENDBRANCH   4   5
ENDBRANCH   3   4
ENDBRANCH   2   3
ENDBRANCH   1   2
BRANCH   1   9
ATOM      9  C   UNL     1      60.794  29.003  58.783  1.00  0.00     0.000 C 
BRANCH   9  10
ATOM     10  C   UNL     1      60.724  29.436  60.257  1.00  0.00    -0.000 C 
BRANCH  10  11
ATOM     11  C   UNL     1      61.821  28.785  61.116  1.00  0.00    -0.000 C 
BRANCH  11  12
ATOM     12  C   UNL     1      63.158  29.543  61.040  1.00  0.00    -0.000 C 
BRANCH  12  13
ATOM     13  C   UNL     1      64.257  28.730  60.337  1.00  0.00    -0.003 C 
ATOM     14  C   UNL     1      65.321  29.612  59.684  1.00  0.00     0.004 C 
ENDBRANCH  12  13
ENDBRANCH  11  12
ENDBRANCH  10  11
ENDBRANCH   9  10
ENDBRANCH   1   9
TORSDOF 10
ENDMDL
MODEL 2
REMARK VINA RESULT:    -3.002      0.842      2.798
REMARK INTER + INTRA:          -5.993
REMARK INTER:                  -4.711
REMARK INTRA:                  -1.283
REMARK UNBOUND:                -1.236
REMARK SMILES CCCCCCCCCCCC(=O)[O-]
REMARK SMILES IDX 7 1 8 2 9 3 10 4 11 5 12 6 13 7 14 8 6 9 5 10 4 11 3 12 2 13
REMARK SMILES IDX 1 14
REMARK H PARENT
REMARK Flexibility Score: inf
ROOT
ATOM      1  C   UNL     1      64.360  29.567  58.730  1.00  0.00     0.000 C 
ENDROOT
BRANCH   1   2
ATOM      2  C   UNL     1      64.692  31.065  58.823  1.00  0.00     0.000 C 
BRANCH   2   3
ATOM      3  C   UNL     1      63.589  31.912  58.178  1.00  0.00     0.000 C 
BRANCH   3   4
ATOM      4  C   UNL     1      63.135  33.035  59.117  1.00  0.00     0.006 C 
BRANCH   4   5
ATOM      5  C   UNL     1      64.213  33.352  60.158  1.00  0.00     0.053 C 
BRANCH   5   6
ATOM      6  C   UNL     1      63.880  34.612  60.890  1.00  0.00     0.041 C 
ATOM      7  O   UNL     1      64.581  34.982  61.869  1.00  0.00    -0.550 OA
ATOM      8  O   UNL     1      62.764  35.355  60.523  1.00  0.00    -0.550 OA
ENDBRANCH   5   6
ENDBRANCH   4   5
ENDBRANCH   3   4
ENDBRANCH   2   3
ENDBRANCH   1   2
BRANCH   1   9
ATOM      9  C   UNL     1      64.300  28.886  60.107  1.00  0.00     0.000 C 
BRANCH   9  10
ATOM     10  C   UNL     1      63.207  29.480  61.012  1.00  0.00    -0.000 C 
BRANCH  10  11
ATOM     11  C   UNL     1      61.938  28.612  61.052  1.00  0.00    -0.000 C 
BRANCH  11  12
ATOM     12  C   UNL     1      60.693  29.362  60.545  1.00  0.00    -0.000 C 
BRANCH  12  13
ATOM     13  C   UNL     1      60.676  29.506  59.014  1.00  0.00    -0.003 C 
ATOM     14  C   UNL     1      60.019  30.805  58.548  1.00  0.00     0.004 C 
ENDBRANCH  12  13
ENDBRANCH  11  12
ENDBRANCH  10  11
ENDBRANCH   9  10
ENDBRANCH   1   9
TORSDOF 10
ENDMDL
MODEL 3
REMARK VINA RESULT:    -2.995      2.972      5.268
REMARK INTER + INTRA:          -5.982
REMARK INTER:                  -4.742
REMARK INTRA:                  -1.240
REMARK UNBOUND:                -1.236
REMARK SMILES CCCCCCCCCCCC(=O)[O-]
REMARK SMILES IDX 7 1 8 2 9 3 10 4 11 5 12 6 13 7 14 8 6 9 5 10 4 11 3 12 2 13
REMARK SMILES IDX 1 14
REMARK H PARENT
REMARK Flexibility Score: inf
ROOT
ATOM      1  C   UNL     1      61.723  33.122  58.140  1.00  0.00     0.000 C 
ENDROOT
BRANCH   1   2
ATOM      2  C   UNL     1      62.264  31.795  58.693  1.00  0.00     0.000 C 
BRANCH   2   3
ATOM      3  C   UNL     1      63.791  31.837  58.826  1.00  0.00     0.000 C 
BRANCH   3   4
ATOM      4  C   UNL     1      64.232  31.455  60.244  1.00  0.00     0.006 C 
BRANCH   4   5
ATOM      5  C   UNL     1      63.751  30.048  60.609  1.00  0.00     0.053 C 
BRANCH   5   6
ATOM      6  C   UNL     1      64.622  29.014  59.970  1.00  0.00     0.041 C 
ATOM      7  O   UNL     1      65.833  28.912  60.301  1.00  0.00    -0.550 OA
ATOM      8  O   UNL     1      64.109  28.194  58.972  1.00  0.00    -0.550 OA
ENDBRANCH   5   6
ENDBRANCH   4   5
ENDBRANCH   3   4
ENDBRANCH   2   3
ENDBRANCH   1   2
BRANCH   1   9
ATOM      9  C   UNL     1      62.838  34.124  57.803  1.00  0.00     0.000 C 
BRANCH   9  10
ATOM     10  C   UNL     1      62.678  35.461  58.548  1.00  0.00    -0.000 C 
BRANCH  10  11
ATOM     11  C   UNL     1      62.109  35.281  59.966  1.00  0.00    -0.000 C 
BRANCH  11  12
ATOM     12  C   UNL     1      63.024  35.877  61.050  1.00  0.00    -0.000 C 
BRANCH  12  13
ATOM     13  C   UNL     1      64.122  34.898  61.497  1.00  0.00    -0.003 C 
ATOM     14  C   UNL     1      65.492  35.237  60.912  1.00  0.00     0.004 C 
ENDBRANCH  12  13
ENDBRANCH  11  12
ENDBRANCH  10  11
ENDBRANCH   9  10
ENDBRANCH   1   9
TORSDOF 10
ENDMDL
MODEL 4
REMARK VINA RESULT:    -2.993      6.616      9.632
REMARK INTER + INTRA:          -5.980
REMARK INTER:                  -4.605
REMARK INTRA:                  -1.375
REMARK UNBOUND:                -1.236
REMARK SMILES CCCCCCCCCCCC(=O)[O-]
REMARK SMILES IDX 7 1 8 2 9 3 10 4 11 5 12 6 13 7 14 8 6 9 5 10 4 11 3 12 2 13
REMARK SMILES IDX 1 14
REMARK H PARENT
REMARK Flexibility Score: inf
ROOT
ATOM      1  C   UNL     1      72.726  28.265  61.367  1.00  0.00     0.000 C 
ENDROOT
BRANCH   1   2
ATOM      2  C   UNL     1      72.400  27.811  59.936  1.00  0.00     0.000 C 
BRANCH   2   3
ATOM      3  C   UNL     1      71.026  27.135  59.873  1.00  0.00     0.000 C 
BRANCH   3   4
ATOM      4  C   UNL     1      69.961  27.982  60.578  1.00  0.00     0.006 C 
BRANCH   4   5
ATOM      5  C   UNL     1      68.912  28.487  59.583  1.00  0.00     0.053 C 
BRANCH   5   6
ATOM      6  C   UNL     1      67.598  27.814  59.820  1.00  0.00     0.041 C 
ATOM      7  O   UNL     1      67.326  26.730  59.239  1.00  0.00    -0.550 OA
ATOM      8  O   UNL     1      66.651  28.409  60.646  1.00  0.00    -0.550 OA
ENDBRANCH   5   6
ENDBRANCH   4   5
ENDBRANCH   3   4
ENDBRANCH   2   3
ENDBRANCH   1   2
BRANCH   1   9
ATOM      9  C   UNL     1      72.986  29.776  61.467  1.00  0.00     0.000 C 
BRANCH   9  10
ATOM     10  C   UNL     1      72.781  30.501  60.125  1.00  0.00    -0.000 C 
BRANCH  10  11
ATOM     11  C   UNL     1      71.562  31.439  60.142  1.00  0.00    -0.000 C 
BRANCH  11  12
ATOM     12  C   UNL     1      70.868  31.530  58.772  1.00  0.00    -0.000 C 
BRANCH  12  13
ATOM     13  C   UNL     1      71.500  30.595  57.728  1.00  0.00    -0.003 C 
ATOM     14  C   UNL     1      71.654  31.254  56.358  1.00  0.00     0.004 C 
ENDBRANCH  12  13
ENDBRANCH  11  12
ENDBRANCH  10  11
ENDBRANCH   9  10
ENDBRANCH   1   9
TORSDOF 10
ENDMDL
MODEL 5
REMARK VINA RESULT:    -2.977     14.299     16.080
REMARK INTER + INTRA:          -5.953
REMARK INTER:                  -4.786
REMARK INTRA:                  -1.167
REMARK UNBOUND:                -1.236
REMARK SMILES CCCCCCCCCCCC(=O)[O-]
REMARK SMILES IDX 7 1 8 2 9 3 10 4 11 5 12 6 13 7 14 8 6 9 5 10 4 11 3 12 2 13
REMARK SMILES IDX 1 14
REMARK H PARENT
REMARK Flexibility Score: inf
ROOT
ATOM      1  C   UNL     1      60.434  17.107  50.874  1.00  0.00     0.000 C 
ENDROOT
BRANCH   1   2
ATOM      2  C   UNL     1      60.731  18.345  51.734  1.00  0.00     0.000 C 
BRANCH   2   3
ATOM      3  C   UNL     1      61.318  19.477  50.882  1.00  0.00     0.000 C 
BRANCH   3   4
ATOM      4  C   UNL     1      60.209  20.356  50.293  1.00  0.00     0.006 C 
BRANCH   4   5
ATOM      5  C   UNL     1      60.642  20.965  48.956  1.00  0.00     0.053 C 
BRANCH   5   6
ATOM      6  C   UNL     1      61.218  22.329  49.164  1.00  0.00     0.041 C 
ATOM      7  O   UNL     1      62.466  22.497  49.170  1.00  0.00    -0.550 OA
ATOM      8  O   UNL     1      60.377  23.410  49.400  1.00  0.00    -0.550 OA
ENDBRANCH   5   6
ENDBRANCH   4   5
ENDBRANCH   3   4
ENDBRANCH   2   3
ENDBRANCH   1   2
BRANCH   1   9
ATOM      9  C   UNL     1      59.217  16.312  51.375  1.00  0.00     0.000 C 
BRANCH   9  10
ATOM     10  C   UNL     1      58.077  16.265  50.344  1.00  0.00    -0.000 C 
BRANCH  10  11
ATOM     11  C   UNL     1      57.818  17.632  49.688  1.00  0.00    -0.000 C 
BRANCH  11  12
ATOM     12  C   UNL     1      56.389  18.147  49.938  1.00  0.00    -0.000 C 
BRANCH  12  13
ATOM     13  C   UNL     1      56.110  18.406  51.427  1.00  0.00    -0.003 C 
ATOM     14  C   UNL     1      57.090  19.399  52.051  1.00  0.00     0.004 C 
ENDBRANCH  12  13
ENDBRANCH  11  12
ENDBRANCH  10  11
ENDBRANCH   9  10
ENDBRANCH   1   9
TORSDOF 10
ENDMDL
MODEL 6
REMARK VINA RESULT:    -2.948      7.676      9.443
REMARK INTER + INTRA:          -5.907
REMARK INTER:                  -4.467
REMARK INTRA:                  -1.440
REMARK UNBOUND:                -1.236
REMARK SMILES CCCCCCCCCCCC(=O)[O-]
REMARK SMILES IDX 7 1 8 2 9 3 10 4 11 5 12 6 13 7 14 8 6 9 5 10 4 11 3 12 2 13
REMARK SMILES IDX 1 14
REMARK H PARENT
REMARK Flexibility Score: inf
ROOT
ATOM      1  C   UNL     1      72.739  30.433  60.140  1.00  0.00     0.000 C 
ENDROOT
BRANCH   1   2
ATOM      2  C   UNL     1      71.549  31.400  60.241  1.00  0.00     0.000 C 
BRANCH   2   3
ATOM      3  C   UNL     1      70.907  31.626  58.867  1.00  0.00     0.000 C 
BRANCH   3   4
ATOM      4  C   UNL     1      71.605  30.791  57.788  1.00  0.00     0.006 C 
BRANCH   4   5
ATOM      5  C   UNL     1      70.924  30.970  56.427  1.00  0.00     0.053 C 
BRANCH   5   6
ATOM      6  C   UNL     1      71.023  32.392  55.975  1.00  0.00     0.041 C 
ATOM      7  O   UNL     1      72.144  32.891  55.691  1.00  0.00    -0.550 OA
ATOM      8  O   UNL     1      69.882  33.182  55.912  1.00  0.00    -0.550 OA
ENDBRANCH   5   6
ENDBRANCH   4   5
ENDBRANCH   3   4
ENDBRANCH   2   3
ENDBRANCH   1   2
BRANCH   1   9
ATOM      9  C   UNL     1      72.931  29.591  61.412  1.00  0.00     0.000 C 
BRANCH   9  10
ATOM     10  C   UNL     1      72.913  28.079  61.128  1.00  0.00    -0.000 C 
BRANCH  10  11
ATOM     11  C   UNL     1      72.337  27.746  59.741  1.00  0.00    -0.000 C 
BRANCH  11  12
ATOM     12  C   UNL     1      70.950  27.084  59.821  1.00  0.00    -0.000 C 
BRANCH  12  13
ATOM     13  C   UNL     1      69.808  28.112  59.872  1.00  0.00    -0.003 C 
ATOM     14  C   UNL     1      69.247  28.306  61.280  1.00  0.00     0.004 C 
ENDBRANCH  12  13
ENDBRANCH  11  12
ENDBRANCH  10  11
ENDBRANCH   9  10
ENDBRANCH   1   9
TORSDOF 10
ENDMDL
MODEL 7
REMARK VINA RESULT:    -2.943      3.604      6.106
REMARK INTER + INTRA:          -5.900
REMARK INTER:                  -5.163
REMARK INTRA:                  -0.737
REMARK UNBOUND:                -1.236
REMARK SMILES CCCCCCCCCCCC(=O)[O-]
REMARK SMILES IDX 7 1 8 2 9 3 10 4 11 5 12 6 13 7 14 8 6 9 5 10 4 11 3 12 2 13
REMARK SMILES IDX 1 14
REMARK H PARENT
REMARK Flexibility Score: inf
ROOT
ATOM      1  C   UNL     1      64.152  31.861  59.882  1.00  0.00     0.000 C 
ENDROOT
BRANCH   1   2
ATOM      2  C   UNL     1      64.347  30.339  59.957  1.00  0.00     0.000 C 
BRANCH   2   3
ATOM      3  C   UNL     1      63.429  29.719  61.017  1.00  0.00     0.000 C 
BRANCH   3   4
ATOM      4  C   UNL     1      62.503  28.666  60.399  1.00  0.00     0.006 C 
BRANCH   4   5
ATOM      5  C   UNL     1      61.032  29.017  60.639  1.00  0.00     0.053 C 
BRANCH   5   6
ATOM      6  C   UNL     1      60.150  27.872  60.256  1.00  0.00     0.041 C 
ATOM      7  O   UNL     1      59.218  28.039  59.426  1.00  0.00    -0.550 OA
ATOM      8  O   UNL     1      60.327  26.629  60.853  1.00  0.00    -0.550 OA
ENDBRANCH   5   6
ENDBRANCH   4   5
ENDBRANCH   3   4
ENDBRANCH   2   3
ENDBRANCH   1   2
BRANCH   1   9
ATOM      9  C   UNL     1      62.951  32.264  59.011  1.00  0.00     0.000 C 
BRANCH   9  10
ATOM     10  C   UNL     1      63.094  33.680  58.427  1.00  0.00    -0.000 C 
BRANCH  10  11
ATOM     11  C   UNL     1      62.136  34.688  59.085  1.00  0.00    -0.000 C 
BRANCH  11  12
ATOM     12  C   UNL     1      62.881  35.815  59.823  1.00  0.00    -0.000 C 
BRANCH  12  13
ATOM     13  C   UNL     1      62.984  35.560  61.335  1.00  0.00    -0.003 C 
ATOM     14  C   UNL     1      64.374  35.090  61.763  1.00  0.00     0.004 C 
ENDBRANCH  12  13
ENDBRANCH  11  12
ENDBRANCH  10  11
ENDBRANCH   9  10
ENDBRANCH   1   9
TORSDOF 10
ENDMDL
MODEL 8
REMARK VINA RESULT:    -2.937      6.961      8.485
REMARK INTER + INTRA:          -5.891
REMARK INTER:                  -4.431
REMARK INTRA:                  -1.459
REMARK UNBOUND:                -1.236
REMARK SMILES CCCCCCCCCCCC(=O)[O-]
REMARK SMILES IDX 7 1 8 2 9 3 10 4 11 5 12 6 13 7 14 8 6 9 5 10 4 11 3 12 2 13
REMARK SMILES IDX 1 14
REMARK H PARENT
REMARK Flexibility Score: inf
ROOT
ATOM      1  C   UNL     1      72.576  29.789  60.371  1.00  0.00     0.000 C 
ENDROOT
BRANCH   1   2
ATOM      2  C   UNL     1      72.752  29.438  58.886  1.00  0.00     0.000 C 
BRANCH   2   3
ATOM      3  C   UNL     1      71.952  30.399  57.997  1.00  0.00     0.000 C 
BRANCH   3   4
ATOM      4  C   UNL     1      71.213  31.445  58.839  1.00  0.00     0.006 C 
BRANCH   4   5
ATOM      5  C   UNL     1      70.757  32.624  57.976  1.00  0.00     0.053 C 
BRANCH   5   6
ATOM      6  C   UNL     1      70.489  33.824  58.827  1.00  0.00     0.041 C 
ATOM      7  O   UNL     1      69.892  34.823  58.346  1.00  0.00    -0.550 OA
ATOM      8  O   UNL     1      70.941  33.859  60.141  1.00  0.00    -0.550 OA
ENDBRANCH   5   6
ENDBRANCH   4   5
ENDBRANCH   3   4
ENDBRANCH   2   3
ENDBRANCH   1   2
BRANCH   1   9
ATOM      9  C   UNL     1      71.902  28.663  61.172  1.00  0.00     0.000 C 
BRANCH   9  10
ATOM     10  C   UNL     1      70.397  28.907  61.380  1.00  0.00    -0.000 C 
BRANCH  10  11
ATOM     11  C   UNL     1      69.525  27.921  60.585  1.00  0.00    -0.000 C 
BRANCH  11  12
ATOM     12  C   UNL     1      68.927  28.553  59.315  1.00  0.00    -0.000 C 
BRANCH  12  13
ATOM     13  C   UNL     1      69.289  27.770  58.042  1.00  0.00    -0.003 C 
ATOM     14  C   UNL     1      70.344  26.692  58.289  1.00  0.00     0.004 C 
ENDBRANCH  12  13
ENDBRANCH  11  12
ENDBRANCH  10  11
ENDBRANCH   9  10
ENDBRANCH   1   9
TORSDOF 10
ENDMDL
MODEL 9
REMARK VINA RESULT:    -2.935     10.656     12.033
REMARK INTER + INTRA:          -5.886
REMARK INTER:                  -4.737
REMARK INTRA:                  -1.149
REMARK UNBOUND:                -1.236
REMARK SMILES CCCCCCCCCCCC(=O)[O-]
REMARK SMILES IDX 7 1 8 2 9 3 10 4 11 5 12 6 13 7 14 8 6 9 5 10 4 11 3 12 2 13
REMARK SMILES IDX 1 14
REMARK H PARENT
REMARK Flexibility Score: inf
ROOT
ATOM      1  C   UNL     1      59.357  28.430  50.691  1.00  0.00     0.000 C 
ENDROOT
BRANCH   1   2
ATOM      2  C   UNL     1      57.935  28.957  50.932  1.00  0.00     0.000 C 
BRANCH   2   3
ATOM      3  C   UNL     1      57.071  28.801  49.675  1.00  0.00     0.000 C 
BRANCH   3   4
ATOM      4  C   UNL     1      55.582  28.952  50.006  1.00  0.00     0.006 C 
BRANCH   4   5
ATOM      5  C   UNL     1      55.140  30.415  49.898  1.00  0.00     0.053 C 
BRANCH   5   6
ATOM      6  C   UNL     1      54.796  30.959  51.248  1.00  0.00     0.041 C 
ATOM      7  O   UNL     1      53.824  30.486  51.893  1.00  0.00    -0.550 OA
ATOM      8  O   UNL     1      55.520  32.023  51.773  1.00  0.00    -0.550 OA
ENDBRANCH   5   6
ENDBRANCH   4   5
ENDBRANCH   3   4
ENDBRANCH   2   3
ENDBRANCH   1   2
BRANCH   1   9
ATOM      9  C   UNL     1      59.647  28.157  49.207  1.00  0.00     0.000 C 
BRANCH   9  10
ATOM     10  C   UNL     1      60.430  26.851  48.988  1.00  0.00    -0.000 C 
BRANCH  10  11
ATOM     11  C   UNL     1      59.517  25.614  48.947  1.00  0.00    -0.000 C 
BRANCH  11  12
ATOM     12  C   UNL     1      59.585  24.786  50.242  1.00  0.00    -0.000 C 
BRANCH  12  13
ATOM     13  C   UNL     1      58.221  24.674  50.942  1.00  0.00    -0.003 C 
ATOM     14  C   UNL     1      57.077  25.245  50.105  1.00  0.00     0.004 C 
ENDBRANCH  12  13
ENDBRANCH  11  12
ENDBRANCH  10  11
ENDBRANCH   9  10
ENDBRANCH   1   9
TORSDOF 10
ENDMDL
