MODEL 1
REMARK VINA RESULT:    -3.975      0.000      0.000
REMARK INTER + INTRA:         -12.257
REMARK INTER:                  -8.623
REMARK INTRA:                  -3.634
REMARK UNBOUND:                -3.634
REMARK SMILES CCCCCCCCCCCCCCCCCCCCCC(=O)[O-]
REMARK SMILES IDX 12 1 11 2 10 3 9 4 8 5 7 6 6 7 5 8 4 9 3 10 2 11 1 12 13 13
REMARK SMILES IDX 14 14 15 15 16 16 17 17 18 18 19 19 20 20 21 21 22 22 23 23
REMARK SMILES IDX 24 24
REMARK H PARENT
REMARK Flexibility Score: inf
ROOT
ATOM      1  C   UNL     1     -11.316  -4.898 -27.265  1.00  0.00     0.000 C 
ENDROOT
BRANCH   1   2
ATOM      2  C   UNL     1     -12.340  -6.039 -27.135  1.00  0.00     0.000 C 
BRANCH   2   3
ATOM      3  C   UNL     1     -12.085  -7.174 -28.140  1.00  0.00     0.000 C 
BRANCH   3   4
ATOM      4  C   UNL     1     -12.794  -6.931 -29.485  1.00  0.00    -0.000 C 
BRANCH   4   5
ATOM      5  C   UNL     1     -13.774  -8.061 -29.862  1.00  0.00    -0.000 C 
BRANCH   5   6
ATOM      6  C   UNL     1     -15.027  -7.578 -30.623  1.00  0.00    -0.000 C 
BRANCH   6   7
ATOM      7  C   UNL     1     -15.227  -6.051 -30.659  1.00  0.00    -0.000 C 
BRANCH   7   8
ATOM      8  C   UNL     1     -15.735  -5.484 -32.002  1.00  0.00    -0.000 C 
BRANCH   8   9
ATOM      9  C   UNL     1     -15.593  -3.959 -32.158  1.00  0.00    -0.000 C 
BRANCH   9  10
ATOM     10  C   UNL     1     -14.818  -3.565 -33.427  1.00  0.00    -0.000 C 
BRANCH  10  11
ATOM     11  C   UNL     1     -15.024  -2.086 -33.796  1.00  0.00    -0.003 C 
ATOM     12  C   UNL     1     -15.373  -1.222 -32.584  1.00  0.00     0.004 C 
ENDBRANCH  10  11
ENDBRANCH   9  10
ENDBRANCH   8   9
ENDBRANCH   7   8
ENDBRANCH   6   7
ENDBRANCH   5   6
ENDBRANCH   4   5
ENDBRANCH   3   4
ENDBRANCH   2   3
ENDBRANCH   1   2
BRANCH   1  13
ATOM     13  C   UNL     1     -11.985  -3.513 -27.262  1.00  0.00     0.000 C 
BRANCH  13  14
ATOM     14  C   UNL     1     -13.481  -3.594 -27.616  1.00  0.00     0.000 C 
BRANCH  14  15
ATOM     15  C   UNL     1     -13.788  -3.103 -29.038  1.00  0.00     0.000 C 
BRANCH  15  16
ATOM     16  C   UNL     1     -12.691  -2.181 -29.597  1.00  0.00     0.000 C 
BRANCH  16  17
ATOM     17  C   UNL     1     -12.242  -2.591 -31.013  1.00  0.00     0.000 C 
BRANCH  17  18
ATOM     18  C   UNL     1     -11.710  -4.034 -31.120  1.00  0.00     0.000 C 
BRANCH  18  19
ATOM     19  C   UNL     1     -10.172  -4.101 -31.104  1.00  0.00     0.000 C 
BRANCH  19  20
ATOM     20  C   UNL     1      -9.640  -5.176 -30.142  1.00  0.00     0.006 C 
BRANCH  20  21
ATOM     21  C   UNL     1      -9.007  -6.365 -30.876  1.00  0.00     0.053 C 
BRANCH  21  22
ATOM     22  C   UNL     1      -8.609  -7.426 -29.900  1.00  0.00     0.041 C 
ATOM     23  O   UNL     1      -8.394  -7.130 -28.695  1.00  0.00    -0.550 OA
ATOM     24  O   UNL     1      -8.549  -8.755 -30.303  1.00  0.00    -0.550 OA
ENDBRANCH  21  22
ENDBRANCH  20  21
ENDBRANCH  19  20
ENDBRANCH  18  19
ENDBRANCH  17  18
ENDBRANCH  16  17
ENDBRANCH  15  16
ENDBRANCH  14  15
ENDBRANCH  13  14
ENDBRANCH   1  13
TORSDOF 20
ENDMDL
MODEL 2
REMARK VINA RESULT:    -3.917      2.753      5.668
REMARK INTER + INTRA:         -12.131
REMARK INTER:                  -9.216
REMARK INTRA:                  -2.915
REMARK UNBOUND:                -3.634
REMARK SMILES CCCCCCCCCCCCCCCCCCCCCC(=O)[O-]
REMARK SMILES IDX 12 1 11 2 10 3 9 4 8 5 7 6 6 7 5 8 4 9 3 10 2 11 1 12 13 13
REMARK SMILES IDX 14 14 15 15 16 16 17 17 18 18 19 19 20 20 21 21 22 22 23 23
REMARK SMILES IDX 24 24
REMARK H PARENT
REMARK Flexibility Score: inf
ROOT
ATOM      1  C   UNL     1     -13.905  -4.565 -32.470  1.00  0.00     0.000 C 
ENDROOT
BRANCH   1   2
ATOM      2  C   UNL     1     -14.956  -4.547 -31.347  1.00  0.00     0.000 C 
BRANCH   2   3
ATOM      3  C   UNL     1     -14.724  -5.654 -30.307  1.00  0.00     0.000 C 
BRANCH   3   4
ATOM      4  C   UNL     1     -15.314  -7.005 -30.753  1.00  0.00    -0.000 C 
BRANCH   4   5
ATOM      5  C   UNL     1     -14.408  -8.203 -30.401  1.00  0.00    -0.000 C 
BRANCH   5   6
ATOM      6  C   UNL     1     -13.396  -7.915 -29.272  1.00  0.00    -0.000 C 
BRANCH   6   7
ATOM      7  C   UNL     1     -12.413  -9.060 -28.961  1.00  0.00    -0.000 C 
BRANCH   7   8
ATOM      8  C   UNL     1     -11.139  -8.646 -28.195  1.00  0.00    -0.000 C 
BRANCH   8   9
ATOM      9  C   UNL     1     -10.235  -7.641 -28.932  1.00  0.00    -0.000 C 
BRANCH   9  10
ATOM     10  C   UNL     1     -10.165  -6.278 -28.223  1.00  0.00    -0.000 C 
BRANCH  10  11
ATOM     11  C   UNL     1     -10.808  -5.157 -29.056  1.00  0.00    -0.003 C 
ATOM     12  C   UNL     1     -10.785  -5.454 -30.556  1.00  0.00     0.004 C 
ENDBRANCH  10  11
ENDBRANCH   9  10
ENDBRANCH   8   9
ENDBRANCH   7   8
ENDBRANCH   6   7
ENDBRANCH   5   6
ENDBRANCH   4   5
ENDBRANCH   3   4
ENDBRANCH   2   3
ENDBRANCH   1   2
BRANCH   1  13
ATOM     13  C   UNL     1     -14.316  -3.687 -33.665  1.00  0.00     0.000 C 
BRANCH  13  14
ATOM     14  C   UNL     1     -15.562  -2.838 -33.355  1.00  0.00     0.000 C 
BRANCH  14  15
ATOM     15  C   UNL     1     -15.490  -1.428 -33.958  1.00  0.00     0.000 C 
BRANCH  15  16
ATOM     16  C   UNL     1     -15.073  -0.362 -32.929  1.00  0.00     0.000 C 
BRANCH  16  17
ATOM     17  C   UNL     1     -15.380  -0.791 -31.482  1.00  0.00     0.000 C 
BRANCH  17  18
ATOM     18  C   UNL     1     -14.192  -0.647 -30.509  1.00  0.00     0.000 C 
BRANCH  18  19
ATOM     19  C   UNL     1     -12.980  -1.502 -30.922  1.00  0.00     0.000 C 
BRANCH  19  20
ATOM     20  C   UNL     1     -11.733  -1.202 -30.075  1.00  0.00     0.006 C 
BRANCH  20  21
ATOM     21  C   UNL     1     -10.431  -1.623 -30.771  1.00  0.00     0.053 C 
BRANCH  21  22
ATOM     22  C   UNL     1      -9.460  -0.485 -30.790  1.00  0.00     0.041 C 
ATOM     23  O   UNL     1      -8.335  -0.623 -31.336  1.00  0.00    -0.550 OA
ATOM     24  O   UNL     1      -9.828   0.750 -30.270  1.00  0.00    -0.550 OA
ENDBRANCH  21  22
ENDBRANCH  20  21
ENDBRANCH  19  20
ENDBRANCH  18  19
ENDBRANCH  17  18
ENDBRANCH  16  17
ENDBRANCH  15  16
ENDBRANCH  14  15
ENDBRANCH  13  14
ENDBRANCH   1  13
TORSDOF 20
ENDMDL
MODEL 3
REMARK VINA RESULT:    -3.877     19.734     22.596
REMARK INTER + INTRA:         -12.044
REMARK INTER:                  -8.356
REMARK INTRA:                  -3.688
REMARK UNBOUND:                -3.634
REMARK SMILES CCCCCCCCCCCCCCCCCCCCCC(=O)[O-]
REMARK SMILES IDX 12 1 11 2 10 3 9 4 8 5 7 6 6 7 5 8 4 9 3 10 2 11 1 12 13 13
REMARK SMILES IDX 14 14 15 15 16 16 17 17 18 18 19 19 20 20 21 21 22 22 23 23
REMARK SMILES IDX 24 24
REMARK H PARENT
REMARK Flexibility Score: inf
ROOT
ATOM      1  C   UNL     1       3.536   9.234 -19.134  1.00  0.00     0.000 C 
ENDROOT
BRANCH   1   2
ATOM      2  C   UNL     1       2.383   9.188 -20.152  1.00  0.00     0.000 C 
BRANCH   2   3
ATOM      3  C   UNL     1       2.757   8.417 -21.429  1.00  0.00     0.000 C 
BRANCH   3   4
ATOM      4  C   UNL     1       3.985   7.511 -21.222  1.00  0.00    -0.000 C 
BRANCH   4   5
ATOM      5  C   UNL     1       3.627   6.011 -21.187  1.00  0.00    -0.000 C 
BRANCH   5   6
ATOM      6  C   UNL     1       2.923   5.563 -19.888  1.00  0.00    -0.000 C 
BRANCH   6   7
ATOM      7  C   UNL     1       1.421   5.252 -20.027  1.00  0.00    -0.000 C 
BRANCH   7   8
ATOM      8  C   UNL     1       0.884   4.158 -19.079  1.00  0.00    -0.000 C 
BRANCH   8   9
ATOM      9  C   UNL     1       0.336   2.902 -19.781  1.00  0.00    -0.000 C 
BRANCH   9  10
ATOM     10  C   UNL     1       1.117   1.630 -19.412  1.00  0.00    -0.000 C 
BRANCH  10  11
ATOM     11  C   UNL     1       2.637   1.819 -19.557  1.00  0.00    -0.003 C 
ATOM     12  C   UNL     1       3.091   1.814 -21.018  1.00  0.00     0.004 C 
ENDBRANCH  10  11
ENDBRANCH   9  10
ENDBRANCH   8   9
ENDBRANCH   7   8
ENDBRANCH   6   7
ENDBRANCH   5   6
ENDBRANCH   4   5
ENDBRANCH   3   4
ENDBRANCH   2   3
ENDBRANCH   1   2
BRANCH   1  13
ATOM     13  C   UNL     1       3.197  10.107 -17.914  1.00  0.00     0.000 C 
BRANCH  13  14
ATOM     14  C   UNL     1       1.763  10.661 -17.979  1.00  0.00     0.000 C 
BRANCH  14  15
ATOM     15  C   UNL     1       1.136  10.867 -16.593  1.00  0.00     0.000 C 
BRANCH  15  16
ATOM     16  C   UNL     1       1.888  10.112 -15.482  1.00  0.00     0.000 C 
BRANCH  16  17
ATOM     17  C   UNL     1       1.142   8.845 -15.023  1.00  0.00     0.000 C 
BRANCH  17  18
ATOM     18  C   UNL     1       1.817   7.522 -15.436  1.00  0.00     0.000 C 
BRANCH  18  19
ATOM     19  C   UNL     1       1.436   7.081 -16.861  1.00  0.00     0.000 C 
BRANCH  19  20
ATOM     20  C   UNL     1      -0.086   7.047 -17.080  1.00  0.00     0.006 C 
BRANCH  20  21
ATOM     21  C   UNL     1      -0.524   7.853 -18.309  1.00  0.00     0.053 C 
BRANCH  21  22
ATOM     22  C   UNL     1      -1.574   8.849 -17.931  1.00  0.00     0.041 C 
ATOM     23  O   UNL     1      -2.095   9.585 -18.809  1.00  0.00    -0.550 OA
ATOM     24  O   UNL     1      -2.033   8.911 -16.620  1.00  0.00    -0.550 OA
ENDBRANCH  21  22
ENDBRANCH  20  21
ENDBRANCH  19  20
ENDBRANCH  18  19
ENDBRANCH  17  18
ENDBRANCH  16  17
ENDBRANCH  15  16
ENDBRANCH  14  15
ENDBRANCH  13  14
ENDBRANCH   1  13
TORSDOF 20
ENDMDL
MODEL 4
REMARK VINA RESULT:    -3.763      1.030      2.432
REMARK INTER + INTRA:         -11.796
REMARK INTER:                  -8.554
REMARK INTRA:                  -3.242
REMARK UNBOUND:                -3.634
REMARK SMILES CCCCCCCCCCCCCCCCCCCCCC(=O)[O-]
REMARK SMILES IDX 12 1 11 2 10 3 9 4 8 5 7 6 6 7 5 8 4 9 3 10 2 11 1 12 13 13
REMARK SMILES IDX 14 14 15 15 16 16 17 17 18 18 19 19 20 20 21 21 22 22 23 23
REMARK SMILES IDX 24 24
REMARK H PARENT
REMARK Flexibility Score: inf
ROOT
ATOM      1  C   UNL     1     -12.286  -7.270 -28.997  1.00  0.00     0.000 C 
ENDROOT
BRANCH   1   2
ATOM      2  C   UNL     1     -13.186  -8.469 -29.342  1.00  0.00     0.000 C 
BRANCH   2   3
ATOM      3  C   UNL     1     -14.366  -8.076 -30.246  1.00  0.00     0.000 C 
BRANCH   3   4
ATOM      4  C   UNL     1     -14.353  -6.577 -30.601  1.00  0.00    -0.000 C 
BRANCH   4   5
ATOM      5  C   UNL     1     -15.761  -6.014 -30.886  1.00  0.00    -0.000 C 
BRANCH   5   6
ATOM      6  C   UNL     1     -15.850  -5.170 -32.175  1.00  0.00    -0.000 C 
BRANCH   6   7
ATOM      7  C   UNL     1     -14.726  -4.133 -32.361  1.00  0.00    -0.000 C 
BRANCH   7   8
ATOM      8  C   UNL     1     -14.557  -3.595 -33.798  1.00  0.00    -0.000 C 
BRANCH   8   9
ATOM      9  C   UNL     1     -14.928  -2.112 -33.985  1.00  0.00    -0.000 C 
BRANCH   9  10
ATOM     10  C   UNL     1     -15.520  -1.485 -32.711  1.00  0.00    -0.000 C 
BRANCH  10  11
ATOM     11  C   UNL     1     -14.675  -0.307 -32.198  1.00  0.00    -0.003 C 
ATOM     12  C   UNL     1     -14.780  -0.128 -30.682  1.00  0.00     0.004 C 
ENDBRANCH  10  11
ENDBRANCH   9  10
ENDBRANCH   8   9
ENDBRANCH   7   8
ENDBRANCH   6   7
ENDBRANCH   5   6
ENDBRANCH   4   5
ENDBRANCH   3   4
ENDBRANCH   2   3
ENDBRANCH   1   2
BRANCH   1  13
ATOM     13  C   UNL     1     -11.999  -7.174 -27.489  1.00  0.00     0.000 C 
BRANCH  13  14
ATOM     14  C   UNL     1     -11.789  -5.719 -27.032  1.00  0.00     0.000 C 
BRANCH  14  15
ATOM     15  C   UNL     1     -12.774  -4.738 -27.685  1.00  0.00     0.000 C 
BRANCH  15  16
ATOM     16  C   UNL     1     -12.078  -3.494 -28.263  1.00  0.00     0.000 C 
BRANCH  16  17
ATOM     17  C   UNL     1     -12.695  -3.043 -29.601  1.00  0.00     0.000 C 
BRANCH  17  18
ATOM     18  C   UNL     1     -11.729  -3.104 -30.802  1.00  0.00     0.000 C 
BRANCH  18  19
ATOM     19  C   UNL     1     -11.160  -4.516 -31.033  1.00  0.00     0.000 C 
BRANCH  19  20
ATOM     20  C   UNL     1      -9.626  -4.556 -30.934  1.00  0.00     0.006 C 
BRANCH  20  21
ATOM     21  C   UNL     1      -9.135  -5.292 -29.680  1.00  0.00     0.053 C 
BRANCH  21  22
ATOM     22  C   UNL     1      -8.369  -6.518 -30.065  1.00  0.00     0.041 C 
ATOM     23  O   UNL     1      -8.952  -7.631 -30.143  1.00  0.00    -0.550 OA
ATOM     24  O   UNL     1      -7.026  -6.418 -30.412  1.00  0.00    -0.550 OA
ENDBRANCH  21  22
ENDBRANCH  20  21
ENDBRANCH  19  20
ENDBRANCH  18  19
ENDBRANCH  17  18
ENDBRANCH  16  17
ENDBRANCH  15  16
ENDBRANCH  14  15
ENDBRANCH  13  14
ENDBRANCH   1  13
TORSDOF 20
ENDMDL
MODEL 5
REMARK VINA RESULT:    -3.754     19.095     22.101
REMARK INTER + INTRA:         -11.777
REMARK INTER:                  -8.022
REMARK INTRA:                  -3.756
REMARK UNBOUND:                -3.634
REMARK SMILES CCCCCCCCCCCCCCCCCCCCCC(=O)[O-]
REMARK SMILES IDX 12 1 11 2 10 3 9 4 8 5 7 6 6 7 5 8 4 9 3 10 2 11 1 12 13 13
REMARK SMILES IDX 14 14 15 15 16 16 17 17 18 18 19 19 20 20 21 21 22 22 23 23
REMARK SMILES IDX 24 24
REMARK H PARENT
REMARK Flexibility Score: inf
ROOT
ATOM      1  C   UNL     1       2.109   7.970 -20.721  1.00  0.00     0.000 C 
ENDROOT
BRANCH   1   2
ATOM      2  C   UNL     1       2.178   9.220 -19.827  1.00  0.00     0.000 C 
BRANCH   2   3
ATOM      3  C   UNL     1       3.473   9.280 -19.000  1.00  0.00     0.000 C 
BRANCH   3   4
ATOM      4  C   UNL     1       3.280  10.032 -17.670  1.00  0.00    -0.000 C 
BRANCH   4   5
ATOM      5  C   UNL     1       1.846  10.572 -17.487  1.00  0.00    -0.000 C 
BRANCH   5   6
ATOM      6  C   UNL     1       1.281  10.385 -16.063  1.00  0.00    -0.000 C 
BRANCH   6   7
ATOM      7  C   UNL     1       1.900   9.227 -15.256  1.00  0.00    -0.000 C 
BRANCH   7   8
ATOM      8  C   UNL     1       1.199   7.861 -15.419  1.00  0.00    -0.000 C 
BRANCH   8   9
ATOM      9  C   UNL     1       1.667   7.031 -16.628  1.00  0.00    -0.000 C 
BRANCH   9  10
ATOM     10  C   UNL     1       0.509   6.638 -17.561  1.00  0.00    -0.000 C 
BRANCH  10  11
ATOM     11  C   UNL     1      -0.767   7.447 -17.274  1.00  0.00    -0.003 C 
ATOM     12  C   UNL     1      -1.133   8.389 -18.422  1.00  0.00     0.004 C 
ENDBRANCH  10  11
ENDBRANCH   9  10
ENDBRANCH   8   9
ENDBRANCH   7   8
ENDBRANCH   6   7
ENDBRANCH   5   6
ENDBRANCH   4   5
ENDBRANCH   3   4
ENDBRANCH   2   3
ENDBRANCH   1   2
BRANCH   1  13
ATOM     13  C   UNL     1       3.371   7.098 -20.598  1.00  0.00     0.000 C 
BRANCH  13  14
ATOM     14  C   UNL     1       3.806   6.517 -21.956  1.00  0.00     0.000 C 
BRANCH  14  15
ATOM     15  C   UNL     1       4.125   5.016 -21.890  1.00  0.00     0.000 C 
BRANCH  15  16
ATOM     16  C   UNL     1       4.054   4.456 -20.459  1.00  0.00     0.000 C 
BRANCH  16  17
ATOM     17  C   UNL     1       3.056   3.289 -20.334  1.00  0.00     0.000 C 
BRANCH  17  18
ATOM     18  C   UNL     1       1.810   3.604 -19.481  1.00  0.00     0.000 C 
BRANCH  18  19
ATOM     19  C   UNL     1       0.792   4.488 -20.222  1.00  0.00     0.000 C 
BRANCH  19  20
ATOM     20  C   UNL     1      -0.476   3.717 -20.623  1.00  0.00     0.006 C 
BRANCH  20  21
ATOM     21  C   UNL     1      -1.720   4.185 -19.858  1.00  0.00     0.053 C 
BRANCH  21  22
ATOM     22  C   UNL     1      -1.814   3.485 -18.539  1.00  0.00     0.041 C 
ATOM     23  O   UNL     1      -1.427   2.292 -18.427  1.00  0.00    -0.550 OA
ATOM     24  O   UNL     1      -2.257   4.173 -17.416  1.00  0.00    -0.550 OA
ENDBRANCH  21  22
ENDBRANCH  20  21
ENDBRANCH  19  20
ENDBRANCH  18  19
ENDBRANCH  17  18
ENDBRANCH  16  17
ENDBRANCH  15  16
ENDBRANCH  14  15
ENDBRANCH  13  14
ENDBRANCH   1  13
TORSDOF 20
ENDMDL
MODEL 6
REMARK VINA RESULT:    -3.725     19.339     22.141
REMARK INTER + INTRA:         -11.715
REMARK INTER:                  -7.991
REMARK INTRA:                  -3.725
REMARK UNBOUND:                -3.634
REMARK SMILES CCCCCCCCCCCCCCCCCCCCCC(=O)[O-]
REMARK SMILES IDX 12 1 11 2 10 3 9 4 8 5 7 6 6 7 5 8 4 9 3 10 2 11 1 12 13 13
REMARK SMILES IDX 14 14 15 15 16 16 17 17 18 18 19 19 20 20 21 21 22 22 23 23
REMARK SMILES IDX 24 24
REMARK H PARENT
REMARK Flexibility Score: inf
ROOT
ATOM      1  C   UNL     1       4.109   9.556 -18.953  1.00  0.00     0.000 C 
ENDROOT
BRANCH   1   2
ATOM      2  C   UNL     1       3.359  10.252 -17.804  1.00  0.00     0.000 C 
BRANCH   2   3
ATOM      3  C   UNL     1       1.871  10.472 -18.123  1.00  0.00     0.000 C 
BRANCH   3   4
ATOM      4  C   UNL     1       1.034  10.717 -16.853  1.00  0.00    -0.000 C 
BRANCH   4   5
ATOM      5  C   UNL     1       1.619  10.024 -15.604  1.00  0.00    -0.000 C 
BRANCH   5   6
ATOM      6  C   UNL     1       1.013   8.635 -15.315  1.00  0.00    -0.000 C 
BRANCH   6   7
ATOM      7  C   UNL     1       1.899   7.436 -15.707  1.00  0.00    -0.000 C 
BRANCH   7   8
ATOM      8  C   UNL     1       1.588   6.809 -17.084  1.00  0.00    -0.000 C 
BRANCH   8   9
ATOM      9  C   UNL     1       0.181   7.109 -17.632  1.00  0.00    -0.000 C 
BRANCH   9  10
ATOM     10  C   UNL     1       0.174   7.333 -19.153  1.00  0.00    -0.000 C 
BRANCH  10  11
ATOM     11  C   UNL     1      -1.159   7.918 -19.648  1.00  0.00    -0.003 C 
ATOM     12  C   UNL     1      -1.743   8.948 -18.680  1.00  0.00     0.004 C 
ENDBRANCH  10  11
ENDBRANCH   9  10
ENDBRANCH   8   9
ENDBRANCH   7   8
ENDBRANCH   6   7
ENDBRANCH   5   6
ENDBRANCH   4   5
ENDBRANCH   3   4
ENDBRANCH   2   3
ENDBRANCH   1   2
BRANCH   1  13
ATOM     13  C   UNL     1       3.153   8.837 -19.920  1.00  0.00     0.000 C 
BRANCH  13  14
ATOM     14  C   UNL     1       3.901   8.197 -21.103  1.00  0.00     0.000 C 
BRANCH  14  15
ATOM     15  C   UNL     1       2.957   7.568 -22.138  1.00  0.00     0.000 C 
BRANCH  15  16
ATOM     16  C   UNL     1       2.644   6.092 -21.837  1.00  0.00     0.000 C 
BRANCH  16  17
ATOM     17  C   UNL     1       3.697   5.443 -20.918  1.00  0.00     0.000 C 
BRANCH  17  18
ATOM     18  C   UNL     1       3.108   4.634 -19.745  1.00  0.00     0.000 C 
BRANCH  18  19
ATOM     19  C   UNL     1       2.799   3.175 -20.126  1.00  0.00     0.000 C 
BRANCH  19  20
ATOM     20  C   UNL     1       1.598   2.606 -19.353  1.00  0.00     0.006 C 
BRANCH  20  21
ATOM     21  C   UNL     1       0.577   3.686 -18.970  1.00  0.00     0.053 C 
BRANCH  21  22
ATOM     22  C   UNL     1      -0.578   3.670 -19.921  1.00  0.00     0.041 C 
ATOM     23  O   UNL     1      -1.682   4.171 -19.584  1.00  0.00    -0.550 OA
ATOM     24  O   UNL     1      -0.412   3.170 -21.207  1.00  0.00    -0.550 OA
ENDBRANCH  21  22
ENDBRANCH  20  21
ENDBRANCH  19  20
ENDBRANCH  18  19
ENDBRANCH  17  18
ENDBRANCH  16  17
ENDBRANCH  15  16
ENDBRANCH  14  15
ENDBRANCH  13  14
ENDBRANCH   1  13
TORSDOF 20
ENDMDL
MODEL 7
REMARK VINA RESULT:    -3.714      2.071      5.559
REMARK INTER + INTRA:         -11.691
REMARK INTER:                  -8.455
REMARK INTRA:                  -3.236
REMARK UNBOUND:                -3.634
REMARK SMILES CCCCCCCCCCCCCCCCCCCCCC(=O)[O-]
REMARK SMILES IDX 12 1 11 2 10 3 9 4 8 5 7 6 6 7 5 8 4 9 3 10 2 11 1 12 13 13
REMARK SMILES IDX 14 14 15 15 16 16 17 17 18 18 19 19 20 20 21 21 22 22 23 23
REMARK SMILES IDX 24 24
REMARK H PARENT
REMARK Flexibility Score: inf
ROOT
ATOM      1  C   UNL     1     -14.247  -3.902 -33.216  1.00  0.00     0.000 C 
ENDROOT
BRANCH   1   2
ATOM      2  C   UNL     1     -14.118  -4.988 -32.134  1.00  0.00     0.000 C 
BRANCH   2   3
ATOM      3  C   UNL     1     -15.466  -5.646 -31.798  1.00  0.00     0.000 C 
BRANCH   3   4
ATOM      4  C   UNL     1     -15.306  -6.850 -30.852  1.00  0.00    -0.000 C 
BRANCH   4   5
ATOM      5  C   UNL     1     -13.901  -6.935 -30.218  1.00  0.00    -0.000 C 
BRANCH   5   6
ATOM      6  C   UNL     1     -13.579  -8.306 -29.588  1.00  0.00    -0.000 C 
BRANCH   6   7
ATOM      7  C   UNL     1     -12.420  -8.308 -28.572  1.00  0.00    -0.000 C 
BRANCH   7   8
ATOM      8  C   UNL     1     -12.044  -6.924 -28.000  1.00  0.00    -0.000 C 
BRANCH   8   9
ATOM      9  C   UNL     1     -10.612  -6.456 -28.319  1.00  0.00    -0.000 C 
BRANCH   9  10
ATOM     10  C   UNL     1      -9.944  -7.304 -29.415  1.00  0.00    -0.000 C 
BRANCH  10  11
ATOM     11  C   UNL     1      -9.213  -6.437 -30.454  1.00  0.00    -0.003 C 
ATOM     12  C   UNL     1      -7.708  -6.355 -30.195  1.00  0.00     0.004 C 
ENDBRANCH  10  11
ENDBRANCH   9  10
ENDBRANCH   8   9
ENDBRANCH   7   8
ENDBRANCH   6   7
ENDBRANCH   5   6
ENDBRANCH   4   5
ENDBRANCH   3   4
ENDBRANCH   2   3
ENDBRANCH   1   2
BRANCH   1  13
ATOM     13  C   UNL     1     -15.591  -3.157 -33.133  1.00  0.00     0.000 C 
BRANCH  13  14
ATOM     14  C   UNL     1     -15.400  -1.636 -32.986  1.00  0.00     0.000 C 
BRANCH  14  15
ATOM     15  C   UNL     1     -14.967  -1.221 -31.572  1.00  0.00     0.000 C 
BRANCH  15  16
ATOM     16  C   UNL     1     -16.125  -1.263 -30.559  1.00  0.00     0.000 C 
BRANCH  16  17
ATOM     17  C   UNL     1     -15.676  -1.763 -29.173  1.00  0.00     0.000 C 
BRANCH  17  18
ATOM     18  C   UNL     1     -15.260  -3.248 -29.135  1.00  0.00     0.000 C 
BRANCH  18  19
ATOM     19  C   UNL     1     -13.930  -3.472 -28.393  1.00  0.00     0.000 C 
BRANCH  19  20
ATOM     20  C   UNL     1     -12.729  -3.555 -29.349  1.00  0.00     0.006 C 
BRANCH  20  21
ATOM     21  C   UNL     1     -12.057  -2.194 -29.573  1.00  0.00     0.053 C 
BRANCH  21  22
ATOM     22  C   UNL     1     -10.978  -2.311 -30.603  1.00  0.00     0.041 C 
ATOM     23  O   UNL     1     -10.832  -3.382 -31.248  1.00  0.00    -0.550 OA
ATOM     24  O   UNL     1     -10.184  -1.211 -30.905  1.00  0.00    -0.550 OA
ENDBRANCH  21  22
ENDBRANCH  20  21
ENDBRANCH  19  20
ENDBRANCH  18  19
ENDBRANCH  17  18
ENDBRANCH  16  17
ENDBRANCH  15  16
ENDBRANCH  14  15
ENDBRANCH  13  14
ENDBRANCH   1  13
TORSDOF 20
ENDMDL
MODEL 8
REMARK VINA RESULT:    -3.680     19.218     21.970
REMARK INTER + INTRA:         -11.616
REMARK INTER:                  -8.223
REMARK INTRA:                  -3.393
REMARK UNBOUND:                -3.634
REMARK SMILES CCCCCCCCCCCCCCCCCCCCCC(=O)[O-]
REMARK SMILES IDX 12 1 11 2 10 3 9 4 8 5 7 6 6 7 5 8 4 9 3 10 2 11 1 12 13 13
REMARK SMILES IDX 14 14 15 15 16 16 17 17 18 18 19 19 20 20 21 21 22 22 23 23
REMARK SMILES IDX 24 24
REMARK H PARENT
REMARK Flexibility Score: inf
ROOT
ATOM      1  C   UNL     1       2.122   7.874 -20.998  1.00  0.00     0.000 C 
ENDROOT
BRANCH   1   2
ATOM      2  C   UNL     1       3.275   6.860 -20.903  1.00  0.00     0.000 C 
BRANCH   2   3
ATOM      3  C   UNL     1       3.046   5.812 -19.801  1.00  0.00     0.000 C 
BRANCH   3   4
ATOM      4  C   UNL     1       3.762   4.483 -20.104  1.00  0.00    -0.000 C 
BRANCH   4   5
ATOM      5  C   UNL     1       3.891   4.200 -21.616  1.00  0.00    -0.000 C 
BRANCH   5   6
ATOM      6  C   UNL     1       3.536   2.753 -22.016  1.00  0.00    -0.000 C 
BRANCH   6   7
ATOM      7  C   UNL     1       3.013   1.863 -20.872  1.00  0.00    -0.000 C 
BRANCH   7   8
ATOM      8  C   UNL     1       1.704   1.103 -21.174  1.00  0.00    -0.000 C 
BRANCH   8   9
ATOM      9  C   UNL     1       0.457   1.643 -20.450  1.00  0.00    -0.000 C 
BRANCH   9  10
ATOM     10  C   UNL     1       0.789   2.263 -19.083  1.00  0.00    -0.000 C 
BRANCH  10  11
ATOM     11  C   UNL     1       0.272   3.706 -18.958  1.00  0.00    -0.003 C 
ATOM     12  C   UNL     1      -0.215   4.272 -20.293  1.00  0.00     0.004 C 
ENDBRANCH  10  11
ENDBRANCH   9  10
ENDBRANCH   8   9
ENDBRANCH   7   8
ENDBRANCH   6   7
ENDBRANCH   5   6
ENDBRANCH   4   5
ENDBRANCH   3   4
ENDBRANCH   2   3
ENDBRANCH   1   2
BRANCH   1  13
ATOM     13  C   UNL     1       2.195   8.942 -19.893  1.00  0.00     0.000 C 
BRANCH  13  14
ATOM     14  C   UNL     1       3.647   9.259 -19.492  1.00  0.00     0.000 C 
BRANCH  14  15
ATOM     15  C   UNL     1       3.752   9.965 -18.132  1.00  0.00     0.000 C 
BRANCH  15  16
ATOM     16  C   UNL     1       2.377  10.278 -17.517  1.00  0.00     0.000 C 
BRANCH  16  17
ATOM     17  C   UNL     1       2.353  10.062 -15.992  1.00  0.00     0.000 C 
BRANCH  17  18
ATOM     18  C   UNL     1       1.478   8.880 -15.529  1.00  0.00     0.000 C 
BRANCH  18  19
ATOM     19  C   UNL     1       1.952   7.532 -16.100  1.00  0.00     0.000 C 
BRANCH  19  20
ATOM     20  C   UNL     1       0.936   6.915 -17.075  1.00  0.00     0.006 C 
BRANCH  20  21
ATOM     21  C   UNL     1      -0.473   7.500 -16.908  1.00  0.00     0.053 C 
BRANCH  21  22
ATOM     22  C   UNL     1      -0.909   8.172 -18.172  1.00  0.00     0.041 C 
ATOM     23  O   UNL     1      -1.195   7.486 -19.188  1.00  0.00    -0.550 OA
ATOM     24  O   UNL     1      -1.072   9.552 -18.204  1.00  0.00    -0.550 OA
ENDBRANCH  21  22
ENDBRANCH  20  21
ENDBRANCH  19  20
ENDBRANCH  18  19
ENDBRANCH  17  18
ENDBRANCH  16  17
ENDBRANCH  15  16
ENDBRANCH  14  15
ENDBRANCH  13  14
ENDBRANCH   1  13
TORSDOF 20
ENDMDL
MODEL 9
REMARK VINA RESULT:    -3.674      1.599      5.100
REMARK INTER + INTRA:         -11.604
REMARK INTER:                  -8.489
REMARK INTRA:                  -3.115
REMARK UNBOUND:                -3.634
REMARK SMILES CCCCCCCCCCCCCCCCCCCCCC(=O)[O-]
REMARK SMILES IDX 12 1 11 2 10 3 9 4 8 5 7 6 6 7 5 8 4 9 3 10 2 11 1 12 13 13
REMARK SMILES IDX 14 14 15 15 16 16 17 17 18 18 19 19 20 20 21 21 22 22 23 23
REMARK SMILES IDX 24 24
REMARK H PARENT
REMARK Flexibility Score: inf
ROOT
ATOM      1  C   UNL     1     -15.135  -5.035 -32.234  1.00  0.00     0.000 C 
ENDROOT
BRANCH   1   2
ATOM      2  C   UNL     1     -15.842  -3.835 -32.888  1.00  0.00     0.000 C 
BRANCH   2   3
ATOM      3  C   UNL     1     -14.850  -2.826 -33.490  1.00  0.00     0.000 C 
BRANCH   3   4
ATOM      4  C   UNL     1     -15.320  -1.371 -33.310  1.00  0.00    -0.000 C 
BRANCH   4   5
ATOM      5  C   UNL     1     -14.699  -0.686 -32.075  1.00  0.00    -0.000 C 
BRANCH   5   6
ATOM      6  C   UNL     1     -15.583  -0.750 -30.811  1.00  0.00    -0.000 C 
BRANCH   6   7
ATOM      7  C   UNL     1     -14.881  -1.272 -29.543  1.00  0.00    -0.000 C 
BRANCH   7   8
ATOM      8  C   UNL     1     -14.682  -2.802 -29.483  1.00  0.00    -0.000 C 
BRANCH   8   9
ATOM      9  C   UNL     1     -13.218  -3.262 -29.352  1.00  0.00    -0.000 C 
BRANCH   9  10
ATOM     10  C   UNL     1     -12.499  -3.341 -30.709  1.00  0.00    -0.000 C 
BRANCH  10  11
ATOM     11  C   UNL     1     -11.268  -2.421 -30.769  1.00  0.00    -0.003 C 
ATOM     12  C   UNL     1     -11.106  -1.576 -29.504  1.00  0.00     0.004 C 
ENDBRANCH  10  11
ENDBRANCH   9  10
ENDBRANCH   8   9
ENDBRANCH   7   8
ENDBRANCH   6   7
ENDBRANCH   5   6
ENDBRANCH   4   5
ENDBRANCH   3   4
ENDBRANCH   2   3
ENDBRANCH   1   2
BRANCH   1  13
ATOM     13  C   UNL     1     -16.060  -5.800 -31.272  1.00  0.00     0.000 C 
BRANCH  13  14
ATOM     14  C   UNL     1     -15.382  -7.056 -30.695  1.00  0.00     0.000 C 
BRANCH  14  15
ATOM     15  C   UNL     1     -13.919  -6.816 -30.295  1.00  0.00     0.000 C 
BRANCH  15  16
ATOM     16  C   UNL     1     -13.300  -8.017 -29.559  1.00  0.00     0.000 C 
BRANCH  16  17
ATOM     17  C   UNL     1     -12.263  -7.589 -28.503  1.00  0.00     0.000 C 
BRANCH  17  18
ATOM     18  C   UNL     1     -11.357  -6.418 -28.936  1.00  0.00     0.000 C 
BRANCH  18  19
ATOM     19  C   UNL     1      -9.875  -6.657 -28.595  1.00  0.00     0.000 C 
BRANCH  19  20
ATOM     20  C   UNL     1      -9.174  -7.565 -29.619  1.00  0.00     0.006 C 
BRANCH  20  21
ATOM     21  C   UNL     1      -7.890  -6.939 -30.181  1.00  0.00     0.053 C 
BRANCH  21  22
ATOM     22  C   UNL     1      -8.108  -5.490 -30.483  1.00  0.00     0.041 C 
ATOM     23  O   UNL     1      -7.435  -4.611 -29.884  1.00  0.00    -0.550 OA
ATOM     24  O   UNL     1      -8.999  -5.115 -31.482  1.00  0.00    -0.550 OA
ENDBRANCH  21  22
ENDBRANCH  20  21
ENDBRANCH  19  20
ENDBRANCH  18  19
ENDBRANCH  17  18
ENDBRANCH  16  17
ENDBRANCH  15  16
ENDBRANCH  14  15
ENDBRANCH  13  14
ENDBRANCH   1  13
TORSDOF 20
ENDMDL
