MODEL 1
REMARK VINA RESULT:    17.539      0.000      0.000
REMARK INTER + INTRA:          39.040
REMARK INTER:                  40.096
REMARK INTRA:                  -1.055
REMARK UNBOUND:                -1.055
REMARK SMILES CCCCCCCCCCCCCCCCCCCCCCCC(=O)[O-]
REMARK SMILES IDX 13 1 14 2 15 3 16 4 17 5 18 6 19 7 20 8 21 9 22 10 23 11
REMARK SMILES IDX 24 12 25 13 26 14 12 15 11 16 10 17 9 18 8 19 7 20 6 21 5 22
REMARK SMILES IDX 4 23 3 24 2 25 1 26
REMARK H PARENT
REMARK Flexibility Score: inf
ROOT
ATOM      1  C   UNL     1      -4.440 -12.663   7.455  1.00  0.00     0.000 C 
ENDROOT
BRANCH   1   2
ATOM      2  C   UNL     1      -3.535 -11.453   7.763  1.00  0.00     0.000 C 
BRANCH   2   3
ATOM      3  C   UNL     1      -3.484 -11.034   9.242  1.00  0.00     0.000 C 
BRANCH   3   4
ATOM      4  C   UNL     1      -2.718  -9.718   9.462  1.00  0.00     0.000 C 
BRANCH   4   5
ATOM      5  C   UNL     1      -2.535  -9.384  10.951  1.00  0.00     0.000 C 
BRANCH   5   6
ATOM      6  C   UNL     1      -1.151  -9.797  11.485  1.00  0.00     0.000 C 
BRANCH   6   7
ATOM      7  C   UNL     1      -0.929  -9.380  12.950  1.00  0.00     0.000 C 
BRANCH   7   8
ATOM      8  C   UNL     1       0.537  -9.092  13.325  1.00  0.00     0.000 C 
BRANCH   8   9
ATOM      9  C   UNL     1       1.432  -8.647  12.153  1.00  0.00     0.000 C 
BRANCH   9  10
ATOM     10  C   UNL     1       2.217  -7.347  12.429  1.00  0.00     0.006 C 
BRANCH  10  11
ATOM     11  C   UNL     1       2.570  -6.591  11.142  1.00  0.00     0.053 C 
BRANCH  11  12
ATOM     12  C   UNL     1       2.348  -5.123  11.319  1.00  0.00     0.041 C 
ATOM     13  O   UNL     1       2.672  -4.559  12.397  1.00  0.00    -0.550 OA
ATOM     14  O   UNL     1       1.740  -4.385  10.311  1.00  0.00    -0.550 OA
ENDBRANCH  11  12
ENDBRANCH  10  11
ENDBRANCH   9  10
ENDBRANCH   8   9
ENDBRANCH   7   8
ENDBRANCH   6   7
ENDBRANCH   5   6
ENDBRANCH   4   5
ENDBRANCH   3   4
ENDBRANCH   2   3
ENDBRANCH   1   2
BRANCH   1  15
ATOM     15  C   UNL     1      -5.025 -12.659   6.027  1.00  0.00     0.000 C 
BRANCH  15  16
ATOM     16  C   UNL     1      -6.337 -13.458   5.931  1.00  0.00     0.000 C 
BRANCH  16  17
ATOM     17  C   UNL     1      -6.663 -14.214   7.229  1.00  0.00     0.000 C 
BRANCH  17  18
ATOM     18  C   UNL     1      -6.690 -15.739   7.027  1.00  0.00    -0.000 C 
BRANCH  18  19
ATOM     19  C   UNL     1      -5.381 -16.287   6.437  1.00  0.00    -0.000 C 
BRANCH  19  20
ATOM     20  C   UNL     1      -4.152 -15.957   7.303  1.00  0.00    -0.000 C 
BRANCH  20  21
ATOM     21  C   UNL     1      -2.847 -16.552   6.741  1.00  0.00    -0.000 C 
BRANCH  21  22
ATOM     22  C   UNL     1      -1.817 -15.520   6.248  1.00  0.00    -0.000 C 
BRANCH  22  23
ATOM     23  C   UNL     1      -1.938 -14.164   6.960  1.00  0.00    -0.000 C 
BRANCH  23  24
ATOM     24  C   UNL     1      -1.220 -14.187   8.315  1.00  0.00    -0.000 C 
BRANCH  24  25
ATOM     25  C   UNL     1       0.232 -13.716   8.174  1.00  0.00    -0.003 C 
ATOM     26  C   UNL     1       1.203 -14.736   8.765  1.00  0.00     0.004 C 
ENDBRANCH  24  25
ENDBRANCH  23  24
ENDBRANCH  22  23
ENDBRANCH  21  22
ENDBRANCH  20  21
ENDBRANCH  19  20
ENDBRANCH  18  19
ENDBRANCH  17  18
ENDBRANCH  16  17
ENDBRANCH  15  16
ENDBRANCH   1  15
TORSDOF 22
ENDMDL
MODEL 2
REMARK VINA RESULT:    17.631      3.042      9.039
REMARK INTER + INTRA:          39.251
REMARK INTER:                  40.335
REMARK INTRA:                  -1.085
REMARK UNBOUND:                -1.055
REMARK SMILES CCCCCCCCCCCCCCCCCCCCCCCC(=O)[O-]
REMARK SMILES IDX 13 1 14 2 15 3 16 4 17 5 18 6 19 7 20 8 21 9 22 10 23 11
REMARK SMILES IDX 24 12 25 13 26 14 12 15 11 16 10 17 9 18 8 19 7 20 6 21 5 22
REMARK SMILES IDX 4 23 3 24 2 25 1 26
REMARK H PARENT
REMARK Flexibility Score: inf
ROOT
ATOM      1  C   UNL     1      -3.361 -11.367   8.619  1.00  0.00     0.000 C 
ENDROOT
BRANCH   1   2
ATOM      2  C   UNL     1      -4.266 -11.418   7.372  1.00  0.00     0.000 C 
BRANCH   2   3
ATOM      3  C   UNL     1      -4.785 -12.816   6.996  1.00  0.00     0.000 C 
BRANCH   3   4
ATOM      4  C   UNL     1      -6.063 -12.767   6.140  1.00  0.00     0.000 C 
BRANCH   4   5
ATOM      5  C   UNL     1      -6.798 -14.116   6.103  1.00  0.00     0.000 C 
BRANCH   5   6
ATOM      6  C   UNL     1      -6.619 -14.925   7.400  1.00  0.00     0.000 C 
BRANCH   6   7
ATOM      7  C   UNL     1      -6.293 -16.407   7.138  1.00  0.00     0.000 C 
BRANCH   7   8
ATOM      8  C   UNL     1      -4.917 -16.661   6.492  1.00  0.00     0.000 C 
BRANCH   8   9
ATOM      9  C   UNL     1      -3.727 -16.014   7.223  1.00  0.00     0.000 C 
BRANCH   9  10
ATOM     10  C   UNL     1      -2.497 -15.778   6.321  1.00  0.00     0.006 C 
BRANCH  10  11
ATOM     11  C   UNL     1      -1.967 -14.341   6.416  1.00  0.00     0.053 C 
BRANCH  11  12
ATOM     12  C   UNL     1      -1.305 -14.114   7.738  1.00  0.00     0.041 C 
ATOM     13  O   UNL     1      -0.052 -14.013   7.809  1.00  0.00    -0.550 OA
ATOM     14  O   UNL     1      -2.068 -14.062   8.898  1.00  0.00    -0.550 OA
ENDBRANCH  11  12
ENDBRANCH  10  11
ENDBRANCH   9  10
ENDBRANCH   8   9
ENDBRANCH   7   8
ENDBRANCH   6   7
ENDBRANCH   5   6
ENDBRANCH   4   5
ENDBRANCH   3   4
ENDBRANCH   2   3
ENDBRANCH   1   2
BRANCH   1  15
ATOM     15  C   UNL     1      -3.054  -9.937   9.111  1.00  0.00     0.000 C 
BRANCH  15  16
ATOM     16  C   UNL     1      -3.953  -9.518  10.288  1.00  0.00     0.000 C 
BRANCH  16  17
ATOM     17  C   UNL     1      -3.146  -9.012  11.495  1.00  0.00     0.000 C 
BRANCH  17  18
ATOM     18  C   UNL     1      -1.694  -9.520  11.483  1.00  0.00    -0.000 C 
BRANCH  18  19
ATOM     19  C   UNL     1      -1.127  -9.746  12.893  1.00  0.00    -0.000 C 
BRANCH  19  20
ATOM     20  C   UNL     1       0.108  -8.875  13.187  1.00  0.00    -0.000 C 
BRANCH  20  21
ATOM     21  C   UNL     1       1.374  -9.369  12.463  1.00  0.00    -0.000 C 
BRANCH  21  22
ATOM     22  C   UNL     1       2.564  -8.393  12.486  1.00  0.00    -0.000 C 
BRANCH  22  23
ATOM     23  C   UNL     1       2.130  -6.919  12.501  1.00  0.00    -0.000 C 
BRANCH  23  24
ATOM     24  C   UNL     1       2.283  -6.285  11.113  1.00  0.00    -0.000 C 
BRANCH  24  25
ATOM     25  C   UNL     1       2.786  -4.841  11.221  1.00  0.00    -0.003 C 
ATOM     26  C   UNL     1       2.437  -4.237  12.579  1.00  0.00     0.004 C 
ENDBRANCH  24  25
ENDBRANCH  23  24
ENDBRANCH  22  23
ENDBRANCH  21  22
ENDBRANCH  20  21
ENDBRANCH  19  20
ENDBRANCH  18  19
ENDBRANCH  17  18
ENDBRANCH  16  17
ENDBRANCH  15  16
ENDBRANCH   1  15
TORSDOF 22
ENDMDL
MODEL 3
REMARK VINA RESULT:    17.733      2.847      8.679
REMARK INTER + INTRA:          39.484
REMARK INTER:                  40.338
REMARK INTRA:                  -0.854
REMARK UNBOUND:                -1.055
REMARK SMILES CCCCCCCCCCCCCCCCCCCCCCCC(=O)[O-]
REMARK SMILES IDX 13 1 14 2 15 3 16 4 17 5 18 6 19 7 20 8 21 9 22 10 23 11
REMARK SMILES IDX 24 12 25 13 26 14 12 15 11 16 10 17 9 18 8 19 7 20 6 21 5 22
REMARK SMILES IDX 4 23 3 24 2 25 1 26
REMARK H PARENT
REMARK Flexibility Score: inf
ROOT
ATOM      1  C   UNL     1      -3.458 -11.977   7.750  1.00  0.00     0.000 C 
ENDROOT
BRANCH   1   2
ATOM      2  C   UNL     1      -4.714 -12.859   7.605  1.00  0.00     0.000 C 
BRANCH   2   3
ATOM      3  C   UNL     1      -5.680 -12.441   6.483  1.00  0.00     0.000 C 
BRANCH   3   4
ATOM      4  C   UNL     1      -6.683 -13.549   6.118  1.00  0.00     0.000 C 
BRANCH   4   5
ATOM      5  C   UNL     1      -6.580 -14.768   7.048  1.00  0.00     0.000 C 
BRANCH   5   6
ATOM      6  C   UNL     1      -5.820 -15.942   6.405  1.00  0.00     0.000 C 
BRANCH   6   7
ATOM      7  C   UNL     1      -4.672 -16.463   7.288  1.00  0.00     0.000 C 
BRANCH   7   8
ATOM      8  C   UNL     1      -3.264 -16.292   6.686  1.00  0.00     0.000 C 
BRANCH   8   9
ATOM      9  C   UNL     1      -2.917 -14.858   6.243  1.00  0.00     0.000 C 
BRANCH   9  10
ATOM     10  C   UNL     1      -1.492 -14.415   6.635  1.00  0.00     0.006 C 
BRANCH  10  11
ATOM     11  C   UNL     1      -1.270 -14.432   8.153  1.00  0.00     0.053 C 
BRANCH  11  12
ATOM     12  C   UNL     1       0.169 -14.185   8.475  1.00  0.00     0.041 C 
ATOM     13  O   UNL     1       0.705 -14.755   9.462  1.00  0.00    -0.550 OA
ATOM     14  O   UNL     1       0.907 -13.287   7.714  1.00  0.00    -0.550 OA
ENDBRANCH  11  12
ENDBRANCH  10  11
ENDBRANCH   9  10
ENDBRANCH   8   9
ENDBRANCH   7   8
ENDBRANCH   6   7
ENDBRANCH   5   6
ENDBRANCH   4   5
ENDBRANCH   3   4
ENDBRANCH   2   3
ENDBRANCH   1   2
BRANCH   1  15
ATOM     15  C   UNL     1      -3.737 -10.587   8.362  1.00  0.00     0.000 C 
BRANCH  15  16
ATOM     16  C   UNL     1      -2.785 -10.259   9.526  1.00  0.00     0.000 C 
BRANCH  16  17
ATOM     17  C   UNL     1      -3.451  -9.390  10.605  1.00  0.00     0.000 C 
BRANCH  17  18
ATOM     18  C   UNL     1      -2.558  -9.211  11.845  1.00  0.00    -0.000 C 
BRANCH  18  19
ATOM     19  C   UNL     1      -1.080  -9.531  11.570  1.00  0.00    -0.000 C 
BRANCH  19  20
ATOM     20  C   UNL     1      -0.173  -9.248  12.781  1.00  0.00    -0.000 C 
BRANCH  20  21
ATOM     21  C   UNL     1       1.325  -9.382  12.450  1.00  0.00    -0.000 C 
BRANCH  21  22
ATOM     22  C   UNL     1       2.195  -8.178  12.856  1.00  0.00    -0.000 C 
BRANCH  22  23
ATOM     23  C   UNL     1       2.135  -7.026  11.842  1.00  0.00    -0.000 C 
BRANCH  23  24
ATOM     24  C   UNL     1       2.938  -5.815  12.337  1.00  0.00    -0.000 C 
BRANCH  24  25
ATOM     25  C   UNL     1       2.368  -4.510  11.769  1.00  0.00    -0.003 C 
ATOM     26  C   UNL     1       1.856  -4.706  10.344  1.00  0.00     0.004 C 
ENDBRANCH  24  25
ENDBRANCH  23  24
ENDBRANCH  22  23
ENDBRANCH  21  22
ENDBRANCH  20  21
ENDBRANCH  19  20
ENDBRANCH  18  19
ENDBRANCH  17  18
ENDBRANCH  16  17
ENDBRANCH  15  16
ENDBRANCH   1  15
TORSDOF 22
ENDMDL
MODEL 4
REMARK VINA RESULT:    18.019      4.289     10.040
REMARK INTER + INTRA:          40.138
REMARK INTER:                  41.006
REMARK INTRA:                  -0.868
REMARK UNBOUND:                -1.055
REMARK SMILES CCCCCCCCCCCCCCCCCCCCCCCC(=O)[O-]
REMARK SMILES IDX 13 1 14 2 15 3 16 4 17 5 18 6 19 7 20 8 21 9 22 10 23 11
REMARK SMILES IDX 24 12 25 13 26 14 12 15 11 16 10 17 9 18 8 19 7 20 6 21 5 22
REMARK SMILES IDX 4 23 3 24 2 25 1 26
REMARK H PARENT
REMARK Flexibility Score: inf
ROOT
ATOM      1  C   UNL     1      -3.269 -11.145   8.823  1.00  0.00     0.000 C 
ENDROOT
BRANCH   1   2
ATOM      2  C   UNL     1      -3.979 -11.381   7.474  1.00  0.00     0.000 C 
BRANCH   2   3
ATOM      3  C   UNL     1      -4.657 -12.753   7.324  1.00  0.00     0.000 C 
BRANCH   3   4
ATOM      4  C   UNL     1      -5.337 -12.935   5.955  1.00  0.00     0.000 C 
BRANCH   4   5
ATOM      5  C   UNL     1      -6.662 -13.707   6.054  1.00  0.00     0.000 C 
BRANCH   5   6
ATOM      6  C   UNL     1      -6.759 -14.558   7.333  1.00  0.00     0.000 C 
BRANCH   6   7
ATOM      7  C   UNL     1      -6.395 -16.035   7.095  1.00  0.00     0.000 C 
BRANCH   7   8
ATOM      8  C   UNL     1      -5.065 -16.261   6.350  1.00  0.00     0.000 C 
BRANCH   8   9
ATOM      9  C   UNL     1      -3.803 -16.150   7.226  1.00  0.00     0.000 C 
BRANCH   9  10
ATOM     10  C   UNL     1      -2.506 -15.920   6.421  1.00  0.00     0.006 C 
BRANCH  10  11
ATOM     11  C   UNL     1      -2.028 -14.464   6.485  1.00  0.00     0.053 C 
BRANCH  11  12
ATOM     12  C   UNL     1      -1.380 -14.183   7.803  1.00  0.00     0.041 C 
ATOM     13  O   UNL     1      -2.063 -14.190   8.861  1.00  0.00    -0.550 OA
ATOM     14  O   UNL     1      -0.027 -13.868   7.859  1.00  0.00    -0.550 OA
ENDBRANCH  11  12
ENDBRANCH  10  11
ENDBRANCH   9  10
ENDBRANCH   8   9
ENDBRANCH   7   8
ENDBRANCH   6   7
ENDBRANCH   5   6
ENDBRANCH   4   5
ENDBRANCH   3   4
ENDBRANCH   2   3
ENDBRANCH   1   2
BRANCH   1  15
ATOM     15  C   UNL     1      -3.269  -9.671   9.280  1.00  0.00     0.000 C 
BRANCH  15  16
ATOM     16  C   UNL     1      -3.524  -9.528  10.791  1.00  0.00     0.000 C 
BRANCH  16  17
ATOM     17  C   UNL     1      -4.118  -8.158  11.161  1.00  0.00     0.000 C 
BRANCH  17  18
ATOM     18  C   UNL     1      -4.414  -8.037  12.666  1.00  0.00    -0.000 C 
BRANCH  18  19
ATOM     19  C   UNL     1      -3.270  -8.565  13.545  1.00  0.00    -0.000 C 
BRANCH  19  20
ATOM     20  C   UNL     1      -3.351  -8.059  14.997  1.00  0.00    -0.000 C 
BRANCH  20  21
ATOM     21  C   UNL     1      -2.117  -7.237  15.413  1.00  0.00    -0.000 C 
BRANCH  21  22
ATOM     22  C   UNL     1      -2.145  -6.700  16.855  1.00  0.00    -0.000 C 
BRANCH  22  23
ATOM     23  C   UNL     1      -2.677  -7.725  17.868  1.00  0.00    -0.000 C 
BRANCH  23  24
ATOM     24  C   UNL     1      -2.343  -7.305  19.305  1.00  0.00    -0.000 C 
BRANCH  24  25
ATOM     25  C   UNL     1      -1.721  -8.469  20.085  1.00  0.00    -0.003 C 
ATOM     26  C   UNL     1      -1.008  -7.972  21.341  1.00  0.00     0.004 C 
ENDBRANCH  24  25
ENDBRANCH  23  24
ENDBRANCH  22  23
ENDBRANCH  21  22
ENDBRANCH  20  21
ENDBRANCH  19  20
ENDBRANCH  18  19
ENDBRANCH  17  18
ENDBRANCH  16  17
ENDBRANCH  15  16
ENDBRANCH   1  15
TORSDOF 22
ENDMDL
MODEL 5
REMARK VINA RESULT:    18.162      6.277      8.255
REMARK INTER + INTRA:          40.466
REMARK INTER:                  41.751
REMARK INTRA:                  -1.285
REMARK UNBOUND:                -1.055
REMARK SMILES CCCCCCCCCCCCCCCCCCCCCCCC(=O)[O-]
REMARK SMILES IDX 13 1 14 2 15 3 16 4 17 5 18 6 19 7 20 8 21 9 22 10 23 11
REMARK SMILES IDX 24 12 25 13 26 14 12 15 11 16 10 17 9 18 8 19 7 20 6 21 5 22
REMARK SMILES IDX 4 23 3 24 2 25 1 26
REMARK H PARENT
REMARK Flexibility Score: inf
ROOT
ATOM      1  C   UNL     1      -3.182  -8.555  13.600  1.00  0.00     0.000 C 
ENDROOT
BRANCH   1   2
ATOM      2  C   UNL     1      -2.944  -8.300  15.101  1.00  0.00     0.000 C 
BRANCH   2   3
ATOM      3  C   UNL     1      -1.947  -7.174  15.423  1.00  0.00     0.000 C 
BRANCH   3   4
ATOM      4  C   UNL     1      -2.072  -6.663  16.869  1.00  0.00     0.000 C 
BRANCH   4   5
ATOM      5  C   UNL     1      -3.058  -7.494  17.705  1.00  0.00     0.000 C 
BRANCH   5   6
ATOM      6  C   UNL     1      -3.168  -6.999  19.158  1.00  0.00     0.000 C 
BRANCH   6   7
ATOM      7  C   UNL     1      -2.725  -8.057  20.184  1.00  0.00     0.000 C 
BRANCH   7   8
ATOM      8  C   UNL     1      -1.201  -8.158  20.393  1.00  0.00     0.000 C 
BRANCH   8   9
ATOM      9  C   UNL     1      -0.731  -7.969  21.847  1.00  0.00     0.000 C 
BRANCH   9  10
ATOM     10  C   UNL     1      -0.970  -6.547  22.397  1.00  0.00     0.006 C 
BRANCH  10  11
ATOM     11  C   UNL     1      -2.070  -6.510  23.466  1.00  0.00     0.053 C 
BRANCH  11  12
ATOM     12  C   UNL     1      -2.136  -5.158  24.103  1.00  0.00     0.041 C 
ATOM     13  O   UNL     1      -2.978  -4.925  25.010  1.00  0.00    -0.550 OA
ATOM     14  O   UNL     1      -1.300  -4.140  23.661  1.00  0.00    -0.550 OA
ENDBRANCH  11  12
ENDBRANCH  10  11
ENDBRANCH   9  10
ENDBRANCH   8   9
ENDBRANCH   7   8
ENDBRANCH   6   7
ENDBRANCH   5   6
ENDBRANCH   4   5
ENDBRANCH   3   4
ENDBRANCH   2   3
ENDBRANCH   1   2
BRANCH   1  15
ATOM     15  C   UNL     1      -4.172  -7.567  12.946  1.00  0.00     0.000 C 
BRANCH  15  16
ATOM     16  C   UNL     1      -4.615  -8.025  11.545  1.00  0.00     0.000 C 
BRANCH  16  17
ATOM     17  C   UNL     1      -3.520  -8.815  10.809  1.00  0.00     0.000 C 
BRANCH  17  18
ATOM     18  C   UNL     1      -4.100  -9.912   9.900  1.00  0.00    -0.000 C 
BRANCH  18  19
ATOM     19  C   UNL     1      -3.032 -10.603   9.039  1.00  0.00    -0.000 C 
BRANCH  19  20
ATOM     20  C   UNL     1      -3.550 -10.989   7.642  1.00  0.00    -0.000 C 
BRANCH  20  21
ATOM     21  C   UNL     1      -4.260 -12.355   7.625  1.00  0.00    -0.000 C 
BRANCH  21  22
ATOM     22  C   UNL     1      -3.741 -13.349   6.570  1.00  0.00    -0.000 C 
BRANCH  22  23
ATOM     23  C   UNL     1      -3.654 -14.791   7.095  1.00  0.00    -0.000 C 
BRANCH  23  24
ATOM     24  C   UNL     1      -2.260 -15.382   6.852  1.00  0.00    -0.000 C 
BRANCH  24  25
ATOM     25  C   UNL     1      -1.211 -14.273   6.707  1.00  0.00    -0.003 C 
ATOM     26  C   UNL     1      -0.597 -13.916   8.059  1.00  0.00     0.004 C 
ENDBRANCH  24  25
ENDBRANCH  23  24
ENDBRANCH  22  23
ENDBRANCH  21  22
ENDBRANCH  20  21
ENDBRANCH  19  20
ENDBRANCH  18  19
ENDBRANCH  17  18
ENDBRANCH  16  17
ENDBRANCH  15  16
ENDBRANCH   1  15
TORSDOF 22
ENDMDL
MODEL 6
REMARK VINA RESULT:    18.512      0.982      2.423
REMARK INTER + INTRA:          41.266
REMARK INTER:                  42.120
REMARK INTRA:                  -0.855
REMARK UNBOUND:                -1.055
REMARK SMILES CCCCCCCCCCCCCCCCCCCCCCCC(=O)[O-]
REMARK SMILES IDX 13 1 14 2 15 3 16 4 17 5 18 6 19 7 20 8 21 9 22 10 23 11
REMARK SMILES IDX 24 12 25 13 26 14 12 15 11 16 10 17 9 18 8 19 7 20 6 21 5 22
REMARK SMILES IDX 4 23 3 24 2 25 1 26
REMARK H PARENT
REMARK Flexibility Score: inf
ROOT
ATOM      1  C   UNL     1      -3.012 -10.684   9.251  1.00  0.00     0.000 C 
ENDROOT
BRANCH   1   2
ATOM      2  C   UNL     1      -3.663  -9.492   9.981  1.00  0.00     0.000 C 
BRANCH   2   3
ATOM      3  C   UNL     1      -2.868  -8.944  11.177  1.00  0.00     0.000 C 
BRANCH   3   4
ATOM      4  C   UNL     1      -1.673  -9.837  11.558  1.00  0.00     0.000 C 
BRANCH   4   5
ATOM      5  C   UNL     1      -0.846  -9.254  12.714  1.00  0.00     0.000 C 
BRANCH   5   6
ATOM      6  C   UNL     1       0.537  -9.915  12.846  1.00  0.00     0.000 C 
BRANCH   6   7
ATOM      7  C   UNL     1       1.626  -9.187  12.037  1.00  0.00     0.000 C 
BRANCH   7   8
ATOM      8  C   UNL     1       2.121  -7.868  12.660  1.00  0.00     0.000 C 
BRANCH   8   9
ATOM      9  C   UNL     1       2.292  -6.704  11.665  1.00  0.00     0.000 C 
BRANCH   9  10
ATOM     10  C   UNL     1       3.130  -5.532  12.219  1.00  0.00     0.006 C 
BRANCH  10  11
ATOM     11  C   UNL     1       2.523  -4.165  11.877  1.00  0.00     0.053 C 
BRANCH  11  12
ATOM     12  C   UNL     1       1.550  -4.292  10.748  1.00  0.00     0.041 C 
ATOM     13  O   UNL     1       1.959  -4.324   9.558  1.00  0.00    -0.550 OA
ATOM     14  O   UNL     1       0.185  -4.328  11.008  1.00  0.00    -0.550 OA
ENDBRANCH  11  12
ENDBRANCH  10  11
ENDBRANCH   9  10
ENDBRANCH   8   9
ENDBRANCH   7   8
ENDBRANCH   6   7
ENDBRANCH   5   6
ENDBRANCH   4   5
ENDBRANCH   3   4
ENDBRANCH   2   3
ENDBRANCH   1   2
BRANCH   1  15
ATOM     15  C   UNL     1      -3.661 -11.014   7.890  1.00  0.00     0.000 C 
BRANCH  15  16
ATOM     16  C   UNL     1      -4.134 -12.476   7.808  1.00  0.00     0.000 C 
BRANCH  16  17
ATOM     17  C   UNL     1      -4.736 -12.825   6.436  1.00  0.00     0.000 C 
BRANCH  17  18
ATOM     18  C   UNL     1      -6.226 -13.198   6.530  1.00  0.00    -0.000 C 
BRANCH  18  19
ATOM     19  C   UNL     1      -6.482 -14.418   7.429  1.00  0.00    -0.000 C 
BRANCH  19  20
ATOM     20  C   UNL     1      -6.237 -15.754   6.705  1.00  0.00    -0.000 C 
BRANCH  20  21
ATOM     21  C   UNL     1      -4.763 -15.958   6.307  1.00  0.00    -0.000 C 
BRANCH  21  22
ATOM     22  C   UNL     1      -3.857 -16.516   7.419  1.00  0.00    -0.000 C 
BRANCH  22  23
ATOM     23  C   UNL     1      -2.525 -15.760   7.543  1.00  0.00    -0.000 C 
BRANCH  23  24
ATOM     24  C   UNL     1      -2.290 -14.856   6.327  1.00  0.00    -0.000 C 
BRANCH  24  25
ATOM     25  C   UNL     1      -1.329 -13.712   6.671  1.00  0.00    -0.003 C 
ATOM     26  C   UNL     1      -0.587 -13.990   7.976  1.00  0.00     0.004 C 
ENDBRANCH  24  25
ENDBRANCH  23  24
ENDBRANCH  22  23
ENDBRANCH  21  22
ENDBRANCH  20  21
ENDBRANCH  19  20
ENDBRANCH  18  19
ENDBRANCH  17  18
ENDBRANCH  16  17
ENDBRANCH  15  16
ENDBRANCH   1  15
TORSDOF 22
ENDMDL
MODEL 7
REMARK VINA RESULT:    18.658      3.980      5.045
REMARK INTER + INTRA:          41.598
REMARK INTER:                  42.855
REMARK INTRA:                  -1.257
REMARK UNBOUND:                -1.055
REMARK SMILES CCCCCCCCCCCCCCCCCCCCCCCC(=O)[O-]
REMARK SMILES IDX 13 1 14 2 15 3 16 4 17 5 18 6 19 7 20 8 21 9 22 10 23 11
REMARK SMILES IDX 24 12 25 13 26 14 12 15 11 16 10 17 9 18 8 19 7 20 6 21 5 22
REMARK SMILES IDX 4 23 3 24 2 25 1 26
REMARK H PARENT
REMARK Flexibility Score: inf
ROOT
ATOM      1  C   UNL     1      -3.303 -11.098   8.944  1.00  0.00     0.000 C 
ENDROOT
BRANCH   1   2
ATOM      2  C   UNL     1      -3.629  -9.633   9.297  1.00  0.00     0.000 C 
BRANCH   2   3
ATOM      3  C   UNL     1      -3.443  -9.260  10.777  1.00  0.00     0.000 C 
BRANCH   3   4
ATOM      4  C   UNL     1      -4.466  -8.217  11.262  1.00  0.00     0.000 C 
BRANCH   4   5
ATOM      5  C   UNL     1      -4.320  -7.901  12.759  1.00  0.00     0.000 C 
BRANCH   5   6
ATOM      6  C   UNL     1      -3.099  -8.591  13.395  1.00  0.00     0.000 C 
BRANCH   6   7
ATOM      7  C   UNL     1      -2.971  -8.305  14.902  1.00  0.00     0.000 C 
BRANCH   7   8
ATOM      8  C   UNL     1      -2.089  -7.093  15.257  1.00  0.00     0.000 C 
BRANCH   8   9
ATOM      9  C   UNL     1      -2.375  -6.463  16.634  1.00  0.00     0.000 C 
BRANCH   9  10
ATOM     10  C   UNL     1      -1.772  -7.252  17.815  1.00  0.00     0.006 C 
BRANCH  10  11
ATOM     11  C   UNL     1      -2.616  -7.134  19.091  1.00  0.00     0.053 C 
BRANCH  11  12
ATOM     12  C   UNL     1      -2.245  -8.205  20.066  1.00  0.00     0.041 C 
ATOM     13  O   UNL     1      -2.984  -9.214  20.212  1.00  0.00    -0.550 OA
ATOM     14  O   UNL     1      -1.105  -8.067  20.849  1.00  0.00    -0.550 OA
ENDBRANCH  11  12
ENDBRANCH  10  11
ENDBRANCH   9  10
ENDBRANCH   8   9
ENDBRANCH   7   8
ENDBRANCH   6   7
ENDBRANCH   5   6
ENDBRANCH   4   5
ENDBRANCH   3   4
ENDBRANCH   2   3
ENDBRANCH   1   2
BRANCH   1  15
ATOM     15  C   UNL     1      -3.673 -11.489   7.497  1.00  0.00     0.000 C 
BRANCH  15  16
ATOM     16  C   UNL     1      -4.727 -12.611   7.447  1.00  0.00     0.000 C 
BRANCH  16  17
ATOM     17  C   UNL     1      -5.753 -12.404   6.321  1.00  0.00     0.000 C 
BRANCH  17  18
ATOM     18  C   UNL     1      -6.573 -13.675   6.037  1.00  0.00    -0.000 C 
BRANCH  18  19
ATOM     19  C   UNL     1      -6.850 -14.504   7.301  1.00  0.00    -0.000 C 
BRANCH  19  20
ATOM     20  C   UNL     1      -6.396 -15.968   7.166  1.00  0.00    -0.000 C 
BRANCH  20  21
ATOM     21  C   UNL     1      -5.107 -16.120   6.337  1.00  0.00    -0.000 C 
BRANCH  21  22
ATOM     22  C   UNL     1      -3.982 -16.922   7.017  1.00  0.00    -0.000 C 
BRANCH  22  23
ATOM     23  C   UNL     1      -2.623 -16.207   6.970  1.00  0.00    -0.000 C 
BRANCH  23  24
ATOM     24  C   UNL     1      -2.792 -14.727   6.604  1.00  0.00    -0.000 C 
BRANCH  24  25
ATOM     25  C   UNL     1      -1.445 -13.996   6.640  1.00  0.00    -0.003 C 
ATOM     26  C   UNL     1      -0.816 -14.069   8.029  1.00  0.00     0.004 C 
ENDBRANCH  24  25
ENDBRANCH  23  24
ENDBRANCH  22  23
ENDBRANCH  21  22
ENDBRANCH  20  21
ENDBRANCH  19  20
ENDBRANCH  18  19
ENDBRANCH  17  18
ENDBRANCH  16  17
ENDBRANCH  15  16
ENDBRANCH   1  15
TORSDOF 22
ENDMDL
MODEL 8
REMARK VINA RESULT:    18.891      4.551     10.319
REMARK INTER + INTRA:          42.132
REMARK INTER:                  42.006
REMARK INTRA:                   0.125
REMARK UNBOUND:                -1.055
REMARK SMILES CCCCCCCCCCCCCCCCCCCCCCCC(=O)[O-]
REMARK SMILES IDX 13 1 14 2 15 3 16 4 17 5 18 6 19 7 20 8 21 9 22 10 23 11
REMARK SMILES IDX 24 12 25 13 26 14 12 15 11 16 10 17 9 18 8 19 7 20 6 21 5 22
REMARK SMILES IDX 4 23 3 24 2 25 1 26
REMARK H PARENT
REMARK Flexibility Score: inf
ROOT
ATOM      1  C   UNL     1      -2.989  -9.895   9.419  1.00  0.00     0.000 C 
ENDROOT
BRANCH   1   2
ATOM      2  C   UNL     1      -3.312 -11.202   8.666  1.00  0.00     0.000 C 
BRANCH   2   3
ATOM      3  C   UNL     1      -4.486 -11.114   7.678  1.00  0.00     0.000 C 
BRANCH   3   4
ATOM      4  C   UNL     1      -4.769 -12.450   6.968  1.00  0.00     0.000 C 
BRANCH   4   5
ATOM      5  C   UNL     1      -6.144 -12.474   6.281  1.00  0.00     0.000 C 
BRANCH   5   6
ATOM      6  C   UNL     1      -6.695 -13.900   6.107  1.00  0.00     0.000 C 
BRANCH   6   7
ATOM      7  C   UNL     1      -6.192 -14.871   7.190  1.00  0.00     0.000 C 
BRANCH   7   8
ATOM      8  C   UNL     1      -5.454 -16.113   6.654  1.00  0.00     0.000 C 
BRANCH   8   9
ATOM      9  C   UNL     1      -3.919 -15.989   6.612  1.00  0.00     0.000 C 
BRANCH   9  10
ATOM     10  C   UNL     1      -3.415 -14.531   6.573  1.00  0.00     0.006 C 
BRANCH  10  11
ATOM     11  C   UNL     1      -1.885 -14.443   6.491  1.00  0.00     0.053 C 
BRANCH  11  12
ATOM     12  C   UNL     1      -1.301 -14.211   7.849  1.00  0.00     0.041 C 
ATOM     13  O   UNL     1      -2.033 -14.271   8.872  1.00  0.00    -0.550 OA
ATOM     14  O   UNL     1       0.042 -13.882   7.981  1.00  0.00    -0.550 OA
ENDBRANCH  11  12
ENDBRANCH  10  11
ENDBRANCH   9  10
ENDBRANCH   8   9
ENDBRANCH   7   8
ENDBRANCH   6   7
ENDBRANCH   5   6
ENDBRANCH   4   5
ENDBRANCH   3   4
ENDBRANCH   2   3
ENDBRANCH   1   2
BRANCH   1  15
ATOM     15  C   UNL     1      -4.102  -9.440  10.387  1.00  0.00     0.000 C 
BRANCH  15  16
ATOM     16  C   UNL     1      -3.693  -8.202  11.206  1.00  0.00     0.000 C 
BRANCH  16  17
ATOM     17  C   UNL     1      -4.116  -8.306  12.680  1.00  0.00     0.000 C 
BRANCH  17  18
ATOM     18  C   UNL     1      -3.008  -8.902  13.566  1.00  0.00    -0.000 C 
BRANCH  18  19
ATOM     19  C   UNL     1      -2.298  -7.847  14.428  1.00  0.00    -0.000 C 
BRANCH  19  20
ATOM     20  C   UNL     1      -2.939  -7.682  15.817  1.00  0.00    -0.000 C 
BRANCH  20  21
ATOM     21  C   UNL     1      -2.212  -6.644  16.692  1.00  0.00    -0.000 C 
BRANCH  21  22
ATOM     22  C   UNL     1      -2.915  -6.297  18.017  1.00  0.00    -0.000 C 
BRANCH  22  23
ATOM     23  C   UNL     1      -3.237  -7.535  18.868  1.00  0.00    -0.000 C 
BRANCH  23  24
ATOM     24  C   UNL     1      -2.428  -7.532  20.171  1.00  0.00    -0.000 C 
BRANCH  24  25
ATOM     25  C   UNL     1      -1.316  -8.587  20.129  1.00  0.00    -0.003 C 
ATOM     26  C   UNL     1      -0.412  -8.484  21.356  1.00  0.00     0.004 C 
ENDBRANCH  24  25
ENDBRANCH  23  24
ENDBRANCH  22  23
ENDBRANCH  21  22
ENDBRANCH  20  21
ENDBRANCH  19  20
ENDBRANCH  18  19
ENDBRANCH  17  18
ENDBRANCH  16  17
ENDBRANCH  15  16
ENDBRANCH   1  15
TORSDOF 22
ENDMDL
MODEL 9
REMARK VINA RESULT:    19.125      4.425      7.139
REMARK INTER + INTRA:          42.666
REMARK INTER:                  43.735
REMARK INTRA:                  -1.069
REMARK UNBOUND:                -1.055
REMARK SMILES CCCCCCCCCCCCCCCCCCCCCCCC(=O)[O-]
REMARK SMILES IDX 13 1 14 2 15 3 16 4 17 5 18 6 19 7 20 8 21 9 22 10 23 11
REMARK SMILES IDX 24 12 25 13 26 14 12 15 11 16 10 17 9 18 8 19 7 20 6 21 5 22
REMARK SMILES IDX 4 23 3 24 2 25 1 26
REMARK H PARENT
REMARK Flexibility Score: inf
ROOT
ATOM      1  C   UNL     1       1.451 -11.271  11.777  1.00  0.00     0.000 C 
ENDROOT
BRANCH   1   2
ATOM      2  C   UNL     1       0.788  -9.879  11.820  1.00  0.00     0.000 C 
BRANCH   2   3
ATOM      3  C   UNL     1       1.141  -9.025  13.049  1.00  0.00     0.000 C 
BRANCH   3   4
ATOM      4  C   UNL     1      -0.042  -8.174  13.543  1.00  0.00     0.000 C 
BRANCH   4   5
ATOM      5  C   UNL     1       0.192  -7.600  14.949  1.00  0.00     0.000 C 
BRANCH   5   6
ATOM      6  C   UNL     1      -0.725  -6.404  15.261  1.00  0.00     0.000 C 
BRANCH   6   7
ATOM      7  C   UNL     1      -1.963  -6.800  16.086  1.00  0.00     0.000 C 
BRANCH   7   8
ATOM      8  C   UNL     1      -1.771  -6.731  17.614  1.00  0.00     0.000 C 
BRANCH   8   9
ATOM      9  C   UNL     1      -3.058  -6.917  18.439  1.00  0.00     0.000 C 
BRANCH   9  10
ATOM     10  C   UNL     1      -2.945  -8.005  19.529  1.00  0.00     0.006 C 
BRANCH  10  11
ATOM     11  C   UNL     1      -1.528  -8.585  19.632  1.00  0.00     0.053 C 
BRANCH  11  12
ATOM     12  C   UNL     1      -0.910  -8.226  20.945  1.00  0.00     0.041 C 
ATOM     13  O   UNL     1      -0.054  -8.985  21.471  1.00  0.00    -0.550 OA
ATOM     14  O   UNL     1      -1.313  -7.076  21.612  1.00  0.00    -0.550 OA
ENDBRANCH  11  12
ENDBRANCH  10  11
ENDBRANCH   9  10
ENDBRANCH   8   9
ENDBRANCH   7   8
ENDBRANCH   6   7
ENDBRANCH   5   6
ENDBRANCH   4   5
ENDBRANCH   3   4
ENDBRANCH   2   3
ENDBRANCH   1   2
BRANCH   1  15
ATOM     15  C   UNL     1       1.161 -12.062  10.483  1.00  0.00     0.000 C 
BRANCH  15  16
ATOM     16  C   UNL     1       1.538 -13.548  10.610  1.00  0.00     0.000 C 
BRANCH  16  17
ATOM     17  C   UNL     1       0.816 -14.430   9.578  1.00  0.00     0.000 C 
BRANCH  17  18
ATOM     18  C   UNL     1       0.661 -13.729   8.217  1.00  0.00    -0.000 C 
BRANCH  18  19
ATOM     19  C   UNL     1      -0.514 -14.277   7.392  1.00  0.00    -0.000 C 
BRANCH  19  20
ATOM     20  C   UNL     1      -1.880 -14.014   8.051  1.00  0.00    -0.000 C 
BRANCH  20  21
ATOM     21  C   UNL     1      -3.058 -14.554   7.220  1.00  0.00    -0.000 C 
BRANCH  21  22
ATOM     22  C   UNL     1      -3.692 -13.541   6.249  1.00  0.00    -0.000 C 
BRANCH  22  23
ATOM     23  C   UNL     1      -5.016 -12.960   6.768  1.00  0.00    -0.000 C 
BRANCH  23  24
ATOM     24  C   UNL     1      -6.216 -13.720   6.189  1.00  0.00    -0.000 C 
BRANCH  24  25
ATOM     25  C   UNL     1      -6.826 -14.661   7.234  1.00  0.00    -0.003 C 
ATOM     26  C   UNL     1      -6.342 -16.095   7.034  1.00  0.00     0.004 C 
ENDBRANCH  24  25
ENDBRANCH  23  24
ENDBRANCH  22  23
ENDBRANCH  21  22
ENDBRANCH  20  21
ENDBRANCH  19  20
ENDBRANCH  18  19
ENDBRANCH  17  18
ENDBRANCH  16  17
ENDBRANCH  15  16
ENDBRANCH   1  15
TORSDOF 22
ENDMDL
