MODEL 1
REMARK VINA RESULT:    -4.671      0.000      0.000
REMARK INTER + INTRA:         -13.485
REMARK INTER:                 -10.133
REMARK INTRA:                  -3.352
REMARK UNBOUND:                -3.352
REMARK SMILES CCCCCCCCCCCCCCCCCCCCCC(=O)[O-]
REMARK SMILES IDX 12 1 11 2 10 3 9 4 8 5 7 6 6 7 5 8 4 9 3 10 2 11 1 12 13 13
REMARK SMILES IDX 14 14 15 15 16 16 17 17 18 18 19 19 20 20 21 21 22 22 23 23
REMARK SMILES IDX 24 24
REMARK H PARENT
REMARK Flexibility Score: inf
ROOT
ATOM      1  C   UNL     1      13.842   4.473   1.678  1.00  0.00     0.000 C 
ENDROOT
BRANCH   1   2
ATOM      2  C   UNL     1      15.238   4.096   1.168  1.00  0.00     0.000 C 
BRANCH   2   3
ATOM      3  C   UNL     1      15.685   2.736   1.727  1.00  0.00     0.000 C 
BRANCH   3   4
ATOM      4  C   UNL     1      16.123   1.762   0.614  1.00  0.00    -0.000 C 
BRANCH   4   5
ATOM      5  C   UNL     1      16.601   2.460  -0.675  1.00  0.00    -0.000 C 
BRANCH   5   6
ATOM      6  C   UNL     1      16.584   1.582  -1.939  1.00  0.00    -0.000 C 
BRANCH   6   7
ATOM      7  C   UNL     1      15.908   0.219  -1.711  1.00  0.00    -0.000 C 
BRANCH   7   8
ATOM      8  C   UNL     1      14.570   0.095  -2.457  1.00  0.00    -0.000 C 
BRANCH   8   9
ATOM      9  C   UNL     1      13.418  -0.351  -1.544  1.00  0.00    -0.000 C 
BRANCH   9  10
ATOM     10  C   UNL     1      13.025   0.773  -0.574  1.00  0.00    -0.000 C 
BRANCH  10  11
ATOM     11  C   UNL     1      12.188   1.871  -1.251  1.00  0.00    -0.003 C 
ATOM     12  C   UNL     1      13.006   3.122  -1.572  1.00  0.00     0.004 C 
ENDBRANCH  10  11
ENDBRANCH   9  10
ENDBRANCH   8   9
ENDBRANCH   7   8
ENDBRANCH   6   7
ENDBRANCH   5   6
ENDBRANCH   4   5
ENDBRANCH   3   4
ENDBRANCH   2   3
ENDBRANCH   1   2
BRANCH   1  13
ATOM     13  C   UNL     1      13.111   3.241   2.230  1.00  0.00     0.000 C 
BRANCH  13  14
ATOM     14  C   UNL     1      11.617   3.503   2.483  1.00  0.00     0.000 C 
BRANCH  14  15
ATOM     15  C   UNL     1      11.267   4.998   2.439  1.00  0.00     0.000 C 
BRANCH  15  16
ATOM     16  C   UNL     1      10.198   5.279   1.373  1.00  0.00     0.000 C 
BRANCH  16  17
ATOM     17  C   UNL     1       9.480   4.003   0.896  1.00  0.00     0.000 C 
BRANCH  17  18
ATOM     18  C   UNL     1       8.683   4.157  -0.415  1.00  0.00     0.000 C 
BRANCH  18  19
ATOM     19  C   UNL     1       9.539   4.357  -1.683  1.00  0.00     0.000 C 
BRANCH  19  20
ATOM     20  C   UNL     1       9.551   5.795  -2.239  1.00  0.00     0.006 C 
BRANCH  20  21
ATOM     21  C   UNL     1       8.330   6.640  -1.838  1.00  0.00     0.053 C 
BRANCH  21  22
ATOM     22  C   UNL     1       8.690   8.075  -1.611  1.00  0.00     0.041 C 
ATOM     23  O   UNL     1       8.743   8.876  -2.581  1.00  0.00    -0.550 OA
ATOM     24  O   UNL     1       8.947   8.534  -0.324  1.00  0.00    -0.550 OA
ENDBRANCH  21  22
ENDBRANCH  20  21
ENDBRANCH  19  20
ENDBRANCH  18  19
ENDBRANCH  17  18
ENDBRANCH  16  17
ENDBRANCH  15  16
ENDBRANCH  14  15
ENDBRANCH  13  14
ENDBRANCH   1  13
TORSDOF 20
ENDMDL
MODEL 2
REMARK VINA RESULT:    -4.535      1.114      2.538
REMARK INTER + INTRA:         -13.189
REMARK INTER:                  -9.569
REMARK INTRA:                  -3.621
REMARK UNBOUND:                -3.352
REMARK SMILES CCCCCCCCCCCCCCCCCCCCCC(=O)[O-]
REMARK SMILES IDX 12 1 11 2 10 3 9 4 8 5 7 6 6 7 5 8 4 9 3 10 2 11 1 12 13 13
REMARK SMILES IDX 14 14 15 15 16 16 17 17 18 18 19 19 20 20 21 21 22 22 23 23
REMARK SMILES IDX 24 24
REMARK H PARENT
REMARK Flexibility Score: inf
ROOT
ATOM      1  C   UNL     1      15.407   3.217   1.208  1.00  0.00     0.000 C 
ENDROOT
BRANCH   1   2
ATOM      2  C   UNL     1      15.749   2.614   2.576  1.00  0.00     0.000 C 
BRANCH   2   3
ATOM      3  C   UNL     1      15.280   1.154   2.671  1.00  0.00     0.000 C 
BRANCH   3   4
ATOM      4  C   UNL     1      15.132   0.496   1.283  1.00  0.00    -0.000 C 
BRANCH   4   5
ATOM      5  C   UNL     1      13.734  -0.096   1.017  1.00  0.00    -0.000 C 
BRANCH   5   6
ATOM      6  C   UNL     1      12.597   0.936   0.906  1.00  0.00    -0.000 C 
BRANCH   6   7
ATOM      7  C   UNL     1      12.097   1.121  -0.537  1.00  0.00    -0.000 C 
BRANCH   7   8
ATOM      8  C   UNL     1      13.080   1.928  -1.400  1.00  0.00    -0.000 C 
BRANCH   8   9
ATOM      9  C   UNL     1      13.606   1.134  -2.605  1.00  0.00    -0.000 C 
BRANCH   9  10
ATOM     10  C   UNL     1      15.064   0.706  -2.381  1.00  0.00    -0.000 C 
BRANCH  10  11
ATOM     11  C   UNL     1      15.971   1.886  -1.992  1.00  0.00    -0.003 C 
ATOM     12  C   UNL     1      17.379   1.441  -1.597  1.00  0.00     0.004 C 
ENDBRANCH  10  11
ENDBRANCH   9  10
ENDBRANCH   8   9
ENDBRANCH   7   8
ENDBRANCH   6   7
ENDBRANCH   5   6
ENDBRANCH   4   5
ENDBRANCH   3   4
ENDBRANCH   2   3
ENDBRANCH   1   2
BRANCH   1  13
ATOM     13  C   UNL     1      14.736   4.590   1.368  1.00  0.00     0.000 C 
BRANCH  13  14
ATOM     14  C   UNL     1      13.207   4.521   1.228  1.00  0.00     0.000 C 
BRANCH  14  15
ATOM     15  C   UNL     1      12.504   4.280   2.573  1.00  0.00     0.000 C 
BRANCH  15  16
ATOM     16  C   UNL     1      10.999   4.048   2.370  1.00  0.00     0.000 C 
BRANCH  16  17
ATOM     17  C   UNL     1      10.471   4.663   1.060  1.00  0.00     0.000 C 
BRANCH  17  18
ATOM     18  C   UNL     1       9.491   3.771   0.272  1.00  0.00     0.000 C 
BRANCH  18  19
ATOM     19  C   UNL     1       9.303   4.153  -1.211  1.00  0.00     0.000 C 
BRANCH  19  20
ATOM     20  C   UNL     1       9.867   5.532  -1.604  1.00  0.00     0.006 C 
BRANCH  20  21
ATOM     21  C   UNL     1       8.795   6.589  -1.920  1.00  0.00     0.053 C 
BRANCH  21  22
ATOM     22  C   UNL     1       8.612   7.557  -0.793  1.00  0.00     0.041 C 
ATOM     23  O   UNL     1       8.891   8.774  -0.952  1.00  0.00    -0.550 OA
ATOM     24  O   UNL     1       8.111   7.119   0.428  1.00  0.00    -0.550 OA
ENDBRANCH  21  22
ENDBRANCH  20  21
ENDBRANCH  19  20
ENDBRANCH  18  19
ENDBRANCH  17  18
ENDBRANCH  16  17
ENDBRANCH  15  16
ENDBRANCH  14  15
ENDBRANCH  13  14
ENDBRANCH   1  13
TORSDOF 20
ENDMDL
MODEL 3
REMARK VINA RESULT:    -4.523      1.295      2.820
REMARK INTER + INTRA:         -13.163
REMARK INTER:                  -9.655
REMARK INTRA:                  -3.509
REMARK UNBOUND:                -3.352
REMARK SMILES CCCCCCCCCCCCCCCCCCCCCC(=O)[O-]
REMARK SMILES IDX 12 1 11 2 10 3 9 4 8 5 7 6 6 7 5 8 4 9 3 10 2 11 1 12 13 13
REMARK SMILES IDX 14 14 15 15 16 16 17 17 18 18 19 19 20 20 21 21 22 22 23 23
REMARK SMILES IDX 24 24
REMARK H PARENT
REMARK Flexibility Score: inf
ROOT
ATOM      1  C   UNL     1      14.837   3.447   0.486  1.00  0.00     0.000 C 
ENDROOT
BRANCH   1   2
ATOM      2  C   UNL     1      15.768   3.999  -0.601  1.00  0.00     0.000 C 
BRANCH   2   3
ATOM      3  C   UNL     1      15.205   3.724  -2.004  1.00  0.00     0.000 C 
BRANCH   3   4
ATOM      4  C   UNL     1      13.749   3.217  -1.961  1.00  0.00    -0.000 C 
BRANCH   4   5
ATOM      5  C   UNL     1      13.530   1.881  -2.700  1.00  0.00    -0.000 C 
BRANCH   5   6
ATOM      6  C   UNL     1      12.334   1.049  -2.205  1.00  0.00    -0.000 C 
BRANCH   6   7
ATOM      7  C   UNL     1      12.758  -0.146  -1.333  1.00  0.00    -0.000 C 
BRANCH   7   8
ATOM      8  C   UNL     1      14.273  -0.403  -1.386  1.00  0.00    -0.000 C 
BRANCH   8   9
ATOM      9  C   UNL     1      14.960  -0.189  -0.030  1.00  0.00    -0.000 C 
BRANCH   9  10
ATOM     10  C   UNL     1      16.448   0.142  -0.219  1.00  0.00    -0.000 C 
BRANCH  10  11
ATOM     11  C   UNL     1      16.778   0.571  -1.658  1.00  0.00    -0.003 C 
ATOM     12  C   UNL     1      18.116   1.303  -1.764  1.00  0.00     0.004 C 
ENDBRANCH  10  11
ENDBRANCH   9  10
ENDBRANCH   8   9
ENDBRANCH   7   8
ENDBRANCH   6   7
ENDBRANCH   5   6
ENDBRANCH   4   5
ENDBRANCH   3   4
ENDBRANCH   2   3
ENDBRANCH   1   2
BRANCH   1  13
ATOM     13  C   UNL     1      14.351   4.572   1.412  1.00  0.00     0.000 C 
BRANCH  13  14
ATOM     14  C   UNL     1      12.841   4.499   1.690  1.00  0.00     0.000 C 
BRANCH  14  15
ATOM     15  C   UNL     1      12.319   3.054   1.728  1.00  0.00     0.000 C 
BRANCH  15  16
ATOM     16  C   UNL     1      11.137   2.873   0.764  1.00  0.00     0.000 C 
BRANCH  16  17
ATOM     17  C   UNL     1      10.838   4.140  -0.059  1.00  0.00     0.000 C 
BRANCH  17  18
ATOM     18  C   UNL     1       9.879   3.931  -1.248  1.00  0.00     0.000 C 
BRANCH  18  19
ATOM     19  C   UNL     1       9.597   5.189  -2.094  1.00  0.00     0.000 C 
BRANCH  19  20
ATOM     20  C   UNL     1       8.471   6.095  -1.558  1.00  0.00     0.006 C 
BRANCH  20  21
ATOM     21  C   UNL     1       8.923   7.518  -1.190  1.00  0.00     0.053 C 
BRANCH  21  22
ATOM     22  C   UNL     1       8.720   8.481  -2.318  1.00  0.00     0.041 C 
ATOM     23  O   UNL     1       9.113   9.672  -2.212  1.00  0.00    -0.550 OA
ATOM     24  O   UNL     1       8.115   8.057  -3.496  1.00  0.00    -0.550 OA
ENDBRANCH  21  22
ENDBRANCH  20  21
ENDBRANCH  19  20
ENDBRANCH  18  19
ENDBRANCH  17  18
ENDBRANCH  16  17
ENDBRANCH  15  16
ENDBRANCH  14  15
ENDBRANCH  13  14
ENDBRANCH   1  13
TORSDOF 20
ENDMDL
MODEL 4
REMARK VINA RESULT:    -4.509      2.738      5.464
REMARK INTER + INTRA:         -13.133
REMARK INTER:                  -9.285
REMARK INTRA:                  -3.848
REMARK UNBOUND:                -3.352
REMARK SMILES CCCCCCCCCCCCCCCCCCCCCC(=O)[O-]
REMARK SMILES IDX 12 1 11 2 10 3 9 4 8 5 7 6 6 7 5 8 4 9 3 10 2 11 1 12 13 13
REMARK SMILES IDX 14 14 15 15 16 16 17 17 18 18 19 19 20 20 21 21 22 22 23 23
REMARK SMILES IDX 24 24
REMARK H PARENT
REMARK Flexibility Score: inf
ROOT
ATOM      1  C   UNL     1      16.470   2.789  -0.361  1.00  0.00     0.000 C 
ENDROOT
BRANCH   1   2
ATOM      2  C   UNL     1      15.624   4.065  -0.275  1.00  0.00     0.000 C 
BRANCH   2   3
ATOM      3  C   UNL     1      14.981   4.211   1.114  1.00  0.00     0.000 C 
BRANCH   3   4
ATOM      4  C   UNL     1      15.187   2.956   1.988  1.00  0.00    -0.000 C 
BRANCH   4   5
ATOM      5  C   UNL     1      13.873   2.282   2.432  1.00  0.00    -0.000 C 
BRANCH   5   6
ATOM      6  C   UNL     1      13.827   0.755   2.247  1.00  0.00    -0.000 C 
BRANCH   6   7
ATOM      7  C   UNL     1      15.202   0.152   1.912  1.00  0.00    -0.000 C 
BRANCH   7   8
ATOM      8  C   UNL     1      15.605  -0.966   2.886  1.00  0.00    -0.000 C 
BRANCH   8   9
ATOM      9  C   UNL     1      15.070  -0.738   4.308  1.00  0.00    -0.000 C 
BRANCH   9  10
ATOM     10  C   UNL     1      16.139  -0.082   5.194  1.00  0.00    -0.000 C 
BRANCH  10  11
ATOM     11  C   UNL     1      15.881   1.417   5.418  1.00  0.00    -0.003 C 
ATOM     12  C   UNL     1      17.141   2.265   5.245  1.00  0.00     0.004 C 
ENDBRANCH  10  11
ENDBRANCH   9  10
ENDBRANCH   8   9
ENDBRANCH   7   8
ENDBRANCH   6   7
ENDBRANCH   5   6
ENDBRANCH   4   5
ENDBRANCH   3   4
ENDBRANCH   2   3
ENDBRANCH   1   2
BRANCH   1  13
ATOM     13  C   UNL     1      16.501   2.249  -1.799  1.00  0.00     0.000 C 
BRANCH  13  14
ATOM     14  C   UNL     1      16.562   0.714  -1.853  1.00  0.00     0.000 C 
BRANCH  14  15
ATOM     15  C   UNL     1      15.341   0.102  -2.556  1.00  0.00     0.000 C 
BRANCH  15  16
ATOM     16  C   UNL     1      14.098   0.173  -1.656  1.00  0.00     0.000 C 
BRANCH  16  17
ATOM     17  C   UNL     1      13.131   1.302  -2.061  1.00  0.00     0.000 C 
BRANCH  17  18
ATOM     18  C   UNL     1      12.363   1.950  -0.891  1.00  0.00     0.000 C 
BRANCH  18  19
ATOM     19  C   UNL     1      12.024   3.443  -1.075  1.00  0.00     0.000 C 
BRANCH  19  20
ATOM     20  C   UNL     1      10.760   3.919  -0.333  1.00  0.00     0.006 C 
BRANCH  20  21
ATOM     21  C   UNL     1      11.029   4.933   0.792  1.00  0.00     0.053 C 
BRANCH  21  22
ATOM     22  C   UNL     1      10.996   4.294   2.145  1.00  0.00     0.041 C 
ATOM     23  O   UNL     1      10.445   3.173   2.303  1.00  0.00    -0.550 OA
ATOM     24  O   UNL     1      11.593   4.926   3.229  1.00  0.00    -0.550 OA
ENDBRANCH  21  22
ENDBRANCH  20  21
ENDBRANCH  19  20
ENDBRANCH  18  19
ENDBRANCH  17  18
ENDBRANCH  16  17
ENDBRANCH  15  16
ENDBRANCH  14  15
ENDBRANCH  13  14
ENDBRANCH   1  13
TORSDOF 20
ENDMDL
MODEL 5
REMARK VINA RESULT:    -4.474      2.579      6.059
REMARK INTER + INTRA:         -13.057
REMARK INTER:                  -9.455
REMARK INTRA:                  -3.602
REMARK UNBOUND:                -3.352
REMARK SMILES CCCCCCCCCCCCCCCCCCCCCC(=O)[O-]
REMARK SMILES IDX 12 1 11 2 10 3 9 4 8 5 7 6 6 7 5 8 4 9 3 10 2 11 1 12 13 13
REMARK SMILES IDX 14 14 15 15 16 16 17 17 18 18 19 19 20 20 21 21 22 22 23 23
REMARK SMILES IDX 24 24
REMARK H PARENT
REMARK Flexibility Score: inf
ROOT
ATOM      1  C   UNL     1      14.786   1.851   1.301  1.00  0.00     0.000 C 
ENDROOT
BRANCH   1   2
ATOM      2  C   UNL     1      15.522   3.107   1.781  1.00  0.00     0.000 C 
BRANCH   2   3
ATOM      3  C   UNL     1      14.770   4.383   1.371  1.00  0.00     0.000 C 
BRANCH   3   4
ATOM      4  C   UNL     1      13.259   4.133   1.177  1.00  0.00    -0.000 C 
BRANCH   4   5
ATOM      5  C   UNL     1      12.366   4.901   2.172  1.00  0.00    -0.000 C 
BRANCH   5   6
ATOM      6  C   UNL     1      10.853   4.700   1.982  1.00  0.00    -0.000 C 
BRANCH   6   7
ATOM      7  C   UNL     1      10.326   5.325   0.679  1.00  0.00    -0.000 C 
BRANCH   7   8
ATOM      8  C   UNL     1       9.068   4.616   0.154  1.00  0.00    -0.000 C 
BRANCH   8   9
ATOM      9  C   UNL     1       9.045   4.499  -1.377  1.00  0.00    -0.000 C 
BRANCH   9  10
ATOM     10  C   UNL     1       9.731   5.710  -2.027  1.00  0.00    -0.000 C 
BRANCH  10  11
ATOM     11  C   UNL     1       8.724   6.752  -2.542  1.00  0.00    -0.003 C 
ATOM     12  C   UNL     1       8.871   8.107  -1.849  1.00  0.00     0.004 C 
ENDBRANCH  10  11
ENDBRANCH   9  10
ENDBRANCH   8   9
ENDBRANCH   7   8
ENDBRANCH   6   7
ENDBRANCH   5   6
ENDBRANCH   4   5
ENDBRANCH   3   4
ENDBRANCH   2   3
ENDBRANCH   1   2
BRANCH   1  13
ATOM     13  C   UNL     1      15.678   1.017   0.369  1.00  0.00     0.000 C 
BRANCH  13  14
ATOM     14  C   UNL     1      16.673   1.878  -0.424  1.00  0.00     0.000 C 
BRANCH  14  15
ATOM     15  C   UNL     1      16.231   2.099  -1.879  1.00  0.00     0.000 C 
BRANCH  15  16
ATOM     16  C   UNL     1      15.338   3.343  -1.997  1.00  0.00     0.000 C 
BRANCH  16  17
ATOM     17  C   UNL     1      13.859   2.995  -2.248  1.00  0.00     0.000 C 
BRANCH  17  18
ATOM     18  C   UNL     1      13.594   1.528  -2.639  1.00  0.00     0.000 C 
BRANCH  18  19
ATOM     19  C   UNL     1      12.328   0.901  -2.020  1.00  0.00     0.000 C 
BRANCH  19  20
ATOM     20  C   UNL     1      11.480   1.861  -1.161  1.00  0.00     0.006 C 
BRANCH  20  21
ATOM     21  C   UNL     1      11.137   1.324   0.238  1.00  0.00     0.053 C 
BRANCH  21  22
ATOM     22  C   UNL     1       9.706   0.896   0.341  1.00  0.00     0.041 C 
ATOM     23  O   UNL     1       8.939   1.005  -0.651  1.00  0.00    -0.550 OA
ATOM     24  O   UNL     1       9.224   0.354   1.527  1.00  0.00    -0.550 OA
ENDBRANCH  21  22
ENDBRANCH  20  21
ENDBRANCH  19  20
ENDBRANCH  18  19
ENDBRANCH  17  18
ENDBRANCH  16  17
ENDBRANCH  15  16
ENDBRANCH  14  15
ENDBRANCH  13  14
ENDBRANCH   1  13
TORSDOF 20
ENDMDL
MODEL 6
REMARK VINA RESULT:    -4.474      2.966      4.244
REMARK INTER + INTRA:         -13.057
REMARK INTER:                  -9.108
REMARK INTRA:                  -3.949
REMARK UNBOUND:                -3.352
REMARK SMILES CCCCCCCCCCCCCCCCCCCCCC(=O)[O-]
REMARK SMILES IDX 12 1 11 2 10 3 9 4 8 5 7 6 6 7 5 8 4 9 3 10 2 11 1 12 13 13
REMARK SMILES IDX 14 14 15 15 16 16 17 17 18 18 19 19 20 20 21 21 22 22 23 23
REMARK SMILES IDX 24 24
REMARK H PARENT
REMARK Flexibility Score: inf
ROOT
ATOM      1  C   UNL     1      12.462   3.595   2.980  1.00  0.00     0.000 C 
ENDROOT
BRANCH   1   2
ATOM      2  C   UNL     1      13.102   3.146   1.661  1.00  0.00     0.000 C 
BRANCH   2   3
ATOM      3  C   UNL     1      14.400   2.362   1.912  1.00  0.00     0.000 C 
BRANCH   3   4
ATOM      4  C   UNL     1      15.572   2.882   1.053  1.00  0.00    -0.000 C 
BRANCH   4   5
ATOM      5  C   UNL     1      15.204   4.077   0.151  1.00  0.00    -0.000 C 
BRANCH   5   6
ATOM      6  C   UNL     1      15.189   3.777  -1.358  1.00  0.00    -0.000 C 
BRANCH   6   7
ATOM      7  C   UNL     1      13.819   3.283  -1.854  1.00  0.00    -0.000 C 
BRANCH   7   8
ATOM      8  C   UNL     1      13.888   1.872  -2.460  1.00  0.00    -0.000 C 
BRANCH   8   9
ATOM      9  C   UNL     1      13.808   0.764  -1.399  1.00  0.00    -0.000 C 
BRANCH   9  10
ATOM     10  C   UNL     1      15.124  -0.026  -1.335  1.00  0.00    -0.000 C 
BRANCH  10  11
ATOM     11  C   UNL     1      16.123   0.405  -2.421  1.00  0.00    -0.003 C 
ATOM     12  C   UNL     1      17.387   1.041  -1.842  1.00  0.00     0.004 C 
ENDBRANCH  10  11
ENDBRANCH   9  10
ENDBRANCH   8   9
ENDBRANCH   7   8
ENDBRANCH   6   7
ENDBRANCH   5   6
ENDBRANCH   4   5
ENDBRANCH   3   4
ENDBRANCH   2   3
ENDBRANCH   1   2
BRANCH   1  13
ATOM     13  C   UNL     1      11.625   4.866   2.778  1.00  0.00     0.000 C 
BRANCH  13  14
ATOM     14  C   UNL     1      11.423   5.212   1.294  1.00  0.00     0.000 C 
BRANCH  14  15
ATOM     15  C   UNL     1       9.952   5.489   0.950  1.00  0.00     0.000 C 
BRANCH  15  16
ATOM     16  C   UNL     1       9.815   6.012  -0.488  1.00  0.00     0.000 C 
BRANCH  16  17
ATOM     17  C   UNL     1       9.862   4.888  -1.540  1.00  0.00     0.000 C 
BRANCH  17  18
ATOM     18  C   UNL     1       9.343   3.520  -1.052  1.00  0.00     0.000 C 
BRANCH  18  19
ATOM     19  C   UNL     1      10.369   2.370  -1.110  1.00  0.00     0.000 C 
BRANCH  19  20
ATOM     20  C   UNL     1      10.243   1.328   0.019  1.00  0.00     0.006 C 
BRANCH  20  21
ATOM     21  C   UNL     1       9.579   1.859   1.300  1.00  0.00     0.053 C 
BRANCH  21  22
ATOM     22  C   UNL     1       9.894   1.008   2.490  1.00  0.00     0.041 C 
ATOM     23  O   UNL     1       9.049   0.870   3.413  1.00  0.00    -0.550 OA
ATOM     24  O   UNL     1      11.116   0.348   2.571  1.00  0.00    -0.550 OA
ENDBRANCH  21  22
ENDBRANCH  20  21
ENDBRANCH  19  20
ENDBRANCH  18  19
ENDBRANCH  17  18
ENDBRANCH  16  17
ENDBRANCH  15  16
ENDBRANCH  14  15
ENDBRANCH  13  14
ENDBRANCH   1  13
TORSDOF 20
ENDMDL
MODEL 7
REMARK VINA RESULT:    -4.421      1.732      3.513
REMARK INTER + INTRA:         -12.941
REMARK INTER:                  -8.821
REMARK INTRA:                  -4.120
REMARK UNBOUND:                -3.352
REMARK SMILES CCCCCCCCCCCCCCCCCCCCCC(=O)[O-]
REMARK SMILES IDX 12 1 11 2 10 3 9 4 8 5 7 6 6 7 5 8 4 9 3 10 2 11 1 12 13 13
REMARK SMILES IDX 14 14 15 15 16 16 17 17 18 18 19 19 20 20 21 21 22 22 23 23
REMARK SMILES IDX 24 24
REMARK H PARENT
REMARK Flexibility Score: inf
ROOT
ATOM      1  C   UNL     1      15.779   3.258  -1.582  1.00  0.00     0.000 C 
ENDROOT
BRANCH   1   2
ATOM      2  C   UNL     1      16.524   2.425  -0.533  1.00  0.00     0.000 C 
BRANCH   2   3
ATOM      3  C   UNL     1      17.032   1.104  -1.132  1.00  0.00     0.000 C 
BRANCH   3   4
ATOM      4  C   UNL     1      16.321   0.751  -2.455  1.00  0.00    -0.000 C 
BRANCH   4   5
ATOM      5  C   UNL     1      15.269  -0.369  -2.320  1.00  0.00    -0.000 C 
BRANCH   5   6
ATOM      6  C   UNL     1      13.848   0.107  -1.972  1.00  0.00    -0.000 C 
BRANCH   6   7
ATOM      7  C   UNL     1      13.289  -0.557  -0.702  1.00  0.00    -0.000 C 
BRANCH   7   8
ATOM      8  C   UNL     1      14.096  -0.194   0.554  1.00  0.00    -0.000 C 
BRANCH   8   9
ATOM      9  C   UNL     1      13.229  -0.128   1.820  1.00  0.00    -0.000 C 
BRANCH   9  10
ATOM     10  C   UNL     1      14.104   0.052   3.071  1.00  0.00    -0.000 C 
BRANCH  10  11
ATOM     11  C   UNL     1      15.533   0.504   2.731  1.00  0.00    -0.003 C 
ATOM     12  C   UNL     1      15.855   1.897   3.271  1.00  0.00     0.004 C 
ENDBRANCH  10  11
ENDBRANCH   9  10
ENDBRANCH   8   9
ENDBRANCH   7   8
ENDBRANCH   6   7
ENDBRANCH   5   6
ENDBRANCH   4   5
ENDBRANCH   3   4
ENDBRANCH   2   3
ENDBRANCH   1   2
BRANCH   1  13
ATOM     13  C   UNL     1      14.391   3.671  -1.069  1.00  0.00     0.000 C 
BRANCH  13  14
ATOM     14  C   UNL     1      14.173   3.304   0.407  1.00  0.00     0.000 C 
BRANCH  14  15
ATOM     15  C   UNL     1      14.032   4.543   1.306  1.00  0.00     0.000 C 
BRANCH  15  16
ATOM     16  C   UNL     1      12.604   4.657   1.861  1.00  0.00     0.000 C 
BRANCH  16  17
ATOM     17  C   UNL     1      12.044   3.308   2.350  1.00  0.00     0.000 C 
BRANCH  17  18
ATOM     18  C   UNL     1      10.690   2.905   1.732  1.00  0.00     0.000 C 
BRANCH  18  19
ATOM     19  C   UNL     1      10.768   2.292   0.319  1.00  0.00     0.000 C 
BRANCH  19  20
ATOM     20  C   UNL     1       9.912   3.003  -0.747  1.00  0.00     0.006 C 
BRANCH  20  21
ATOM     21  C   UNL     1      10.500   4.333  -1.248  1.00  0.00     0.053 C 
BRANCH  21  22
ATOM     22  C   UNL     1       9.654   5.505  -0.856  1.00  0.00     0.041 C 
ATOM     23  O   UNL     1      10.061   6.317   0.014  1.00  0.00    -0.550 OA
ATOM     24  O   UNL     1       8.423   5.711  -1.469  1.00  0.00    -0.550 OA
ENDBRANCH  21  22
ENDBRANCH  20  21
ENDBRANCH  19  20
ENDBRANCH  18  19
ENDBRANCH  17  18
ENDBRANCH  16  17
ENDBRANCH  15  16
ENDBRANCH  14  15
ENDBRANCH  13  14
ENDBRANCH   1  13
TORSDOF 20
ENDMDL
MODEL 8
REMARK VINA RESULT:    -4.395      1.634      4.610
REMARK INTER + INTRA:         -12.885
REMARK INTER:                  -9.517
REMARK INTRA:                  -3.368
REMARK UNBOUND:                -3.352
REMARK SMILES CCCCCCCCCCCCCCCCCCCCCC(=O)[O-]
REMARK SMILES IDX 12 1 11 2 10 3 9 4 8 5 7 6 6 7 5 8 4 9 3 10 2 11 1 12 13 13
REMARK SMILES IDX 14 14 15 15 16 16 17 17 18 18 19 19 20 20 21 21 22 22 23 23
REMARK SMILES IDX 24 24
REMARK H PARENT
REMARK Flexibility Score: inf
ROOT
ATOM      1  C   UNL     1      16.956   1.467  -1.998  1.00  0.00     0.000 C 
ENDROOT
BRANCH   1   2
ATOM      2  C   UNL     1      16.701   2.215  -0.685  1.00  0.00     0.000 C 
BRANCH   2   3
ATOM      3  C   UNL     1      16.025   3.572  -0.942  1.00  0.00     0.000 C 
BRANCH   3   4
ATOM      4  C   UNL     1      15.277   4.097   0.302  1.00  0.00    -0.000 C 
BRANCH   4   5
ATOM      5  C   UNL     1      13.789   3.696   0.351  1.00  0.00    -0.000 C 
BRANCH   5   6
ATOM      6  C   UNL     1      13.043   4.107   1.633  1.00  0.00    -0.000 C 
BRANCH   6   7
ATOM      7  C   UNL     1      12.452   2.905   2.390  1.00  0.00    -0.000 C 
BRANCH   7   8
ATOM      8  C   UNL     1      12.871   1.560   1.776  1.00  0.00    -0.000 C 
BRANCH   8   9
ATOM      9  C   UNL     1      13.765   0.731   2.710  1.00  0.00    -0.000 C 
BRANCH   9  10
ATOM     10  C   UNL     1      15.249   0.967   2.393  1.00  0.00    -0.000 C 
BRANCH  10  11
ATOM     11  C   UNL     1      15.892   2.012   3.320  1.00  0.00    -0.003 C 
ATOM     12  C   UNL     1      16.216   1.452   4.705  1.00  0.00     0.004 C 
ENDBRANCH  10  11
ENDBRANCH   9  10
ENDBRANCH   8   9
ENDBRANCH   7   8
ENDBRANCH   6   7
ENDBRANCH   5   6
ENDBRANCH   4   5
ENDBRANCH   3   4
ENDBRANCH   2   3
ENDBRANCH   1   2
BRANCH   1  13
ATOM     13  C   UNL     1      16.135   0.170  -2.057  1.00  0.00     0.000 C 
BRANCH  13  14
ATOM     14  C   UNL     1      14.741   0.379  -2.670  1.00  0.00     0.000 C 
BRANCH  14  15
ATOM     15  C   UNL     1      13.618   0.274  -1.626  1.00  0.00     0.000 C 
BRANCH  15  16
ATOM     16  C   UNL     1      12.410   1.130  -2.033  1.00  0.00     0.000 C 
BRANCH  16  17
ATOM     17  C   UNL     1      11.064   0.431  -1.763  1.00  0.00     0.000 C 
BRANCH  17  18
ATOM     18  C   UNL     1       9.917   1.371  -1.340  1.00  0.00     0.000 C 
BRANCH  18  19
ATOM     19  C   UNL     1      10.360   2.687  -0.667  1.00  0.00     0.000 C 
BRANCH  19  20
ATOM     20  C   UNL     1       9.326   3.829  -0.729  1.00  0.00     0.006 C 
BRANCH  20  21
ATOM     21  C   UNL     1       9.796   5.144  -0.085  1.00  0.00     0.053 C 
BRANCH  21  22
ATOM     22  C   UNL     1       9.611   6.315  -0.998  1.00  0.00     0.041 C 
ATOM     23  O   UNL     1       9.222   7.421  -0.541  1.00  0.00    -0.550 OA
ATOM     24  O   UNL     1       9.891   6.191  -2.355  1.00  0.00    -0.550 OA
ENDBRANCH  21  22
ENDBRANCH  20  21
ENDBRANCH  19  20
ENDBRANCH  18  19
ENDBRANCH  17  18
ENDBRANCH  16  17
ENDBRANCH  15  16
ENDBRANCH  14  15
ENDBRANCH  13  14
ENDBRANCH   1  13
TORSDOF 20
ENDMDL
MODEL 9
REMARK VINA RESULT:    -4.328      1.604      2.891
REMARK INTER + INTRA:         -12.740
REMARK INTER:                  -8.446
REMARK INTRA:                  -4.295
REMARK UNBOUND:                -3.352
REMARK SMILES CCCCCCCCCCCCCCCCCCCCCC(=O)[O-]
REMARK SMILES IDX 12 1 11 2 10 3 9 4 8 5 7 6 6 7 5 8 4 9 3 10 2 11 1 12 13 13
REMARK SMILES IDX 14 14 15 15 16 16 17 17 18 18 19 19 20 20 21 21 22 22 23 23
REMARK SMILES IDX 24 24
REMARK H PARENT
REMARK Flexibility Score: inf
ROOT
ATOM      1  C   UNL     1      14.378   4.570   1.410  1.00  0.00     0.000 C 
ENDROOT
BRANCH   1   2
ATOM      2  C   UNL     1      14.914   3.760   0.224  1.00  0.00     0.000 C 
BRANCH   2   3
ATOM      3  C   UNL     1      13.770   3.077  -0.543  1.00  0.00     0.000 C 
BRANCH   3   4
ATOM      4  C   UNL     1      14.059   2.977  -2.056  1.00  0.00    -0.000 C 
BRANCH   4   5
ATOM      5  C   UNL     1      13.497   1.703  -2.717  1.00  0.00    -0.000 C 
BRANCH   5   6
ATOM      6  C   UNL     1      13.533   0.440  -1.838  1.00  0.00    -0.000 C 
BRANCH   6   7
ATOM      7  C   UNL     1      14.842  -0.355  -1.988  1.00  0.00    -0.000 C 
BRANCH   7   8
ATOM      8  C   UNL     1      15.367  -0.879  -0.642  1.00  0.00    -0.000 C 
BRANCH   8   9
ATOM      9  C   UNL     1      14.650  -0.252   0.562  1.00  0.00    -0.000 C 
BRANCH   9  10
ATOM     10  C   UNL     1      15.647   0.489   1.465  1.00  0.00    -0.000 C 
BRANCH  10  11
ATOM     11  C   UNL     1      15.126   0.663   2.901  1.00  0.00    -0.003 C 
ATOM     12  C   UNL     1      15.706   1.896   3.594  1.00  0.00     0.004 C 
ENDBRANCH  10  11
ENDBRANCH   9  10
ENDBRANCH   8   9
ENDBRANCH   7   8
ENDBRANCH   6   7
ENDBRANCH   5   6
ENDBRANCH   4   5
ENDBRANCH   3   4
ENDBRANCH   2   3
ENDBRANCH   1   2
BRANCH   1  13
ATOM     13  C   UNL     1      12.843   4.529   1.452  1.00  0.00     0.000 C 
BRANCH  13  14
ATOM     14  C   UNL     1      12.302   3.968   2.776  1.00  0.00     0.000 C 
BRANCH  14  15
ATOM     15  C   UNL     1      11.137   2.988   2.567  1.00  0.00     0.000 C 
BRANCH  15  16
ATOM     16  C   UNL     1      11.650   1.623   2.083  1.00  0.00     0.000 C 
BRANCH  16  17
ATOM     17  C   UNL     1      10.992   1.172   0.765  1.00  0.00     0.000 C 
BRANCH  17  18
ATOM     18  C   UNL     1       9.833   2.064   0.278  1.00  0.00     0.000 C 
BRANCH  18  19
ATOM     19  C   UNL     1       9.968   2.587  -1.167  1.00  0.00     0.000 C 
BRANCH  19  20
ATOM     20  C   UNL     1      10.404   4.061  -1.287  1.00  0.00     0.006 C 
BRANCH  20  21
ATOM     21  C   UNL     1       9.586   5.036  -0.423  1.00  0.00     0.053 C 
BRANCH  21  22
ATOM     22  C   UNL     1       9.233   6.285  -1.168  1.00  0.00     0.041 C 
ATOM     23  O   UNL     1       8.904   6.229  -2.381  1.00  0.00    -0.550 OA
ATOM     24  O   UNL     1       9.246   7.513  -0.515  1.00  0.00    -0.550 OA
ENDBRANCH  21  22
ENDBRANCH  20  21
ENDBRANCH  19  20
ENDBRANCH  18  19
ENDBRANCH  17  18
ENDBRANCH  16  17
ENDBRANCH  15  16
ENDBRANCH  14  15
ENDBRANCH  13  14
ENDBRANCH   1  13
TORSDOF 20
ENDMDL
