MODEL 1
REMARK VINA RESULT:    -6.103      0.000      0.000
REMARK INTER + INTRA:          -9.497
REMARK INTER:                  -8.065
REMARK INTRA:                  -1.432
REMARK UNBOUND:                -1.432
REMARK SMILES CC[C@H](C=C[C@@H](C)[C@H]1CC[C@H]2[C@@H]3CC=C4C[C@H](O)CC[C@]4(C)[C@H]3CC[C@]12C)C(C)C
REMARK SMILES IDX 6 1 7 2 5 3 4 4 3 5 2 6 1 7 28 8 29 9 30 10 8 11 9 12 26 13
REMARK SMILES IDX 10 14 11 15 25 16 27 17 12 18 24 19 23 20 13 21 21 22 14 23
REMARK SMILES IDX 15 24 20 25 22 26 16 27 19 28 17 29 18 30
REMARK H PARENT 18 31
REMARK Flexibility Score: inf
ROOT
ATOM      1  C   UNL     1      14.207  33.669  51.895  1.00  0.00     0.012 C 
ATOM      2  C   UNL     1      13.043  32.905  51.227  1.00  0.00     0.012 C 
ENDROOT
BRANCH   1   3
ATOM      3  C   UNL     1      15.128  34.207  50.821  1.00  0.00    -0.028 C 
ATOM      4  C   UNL     1      15.240  35.492  50.422  1.00  0.00    -0.027 C 
BRANCH   4   5
ATOM      5  C   UNL     1      14.482  36.702  50.954  1.00  0.00     0.014 C 
BRANCH   5   6
ATOM      6  C   UNL     1      15.447  37.889  51.249  1.00  0.00     0.004 C 
ATOM      7  C   UNL     1      16.461  38.115  50.126  1.00  0.00     0.004 C 
ENDBRANCH   5   6
BRANCH   5   8
ATOM      8  C   UNL     1      13.254  37.092  50.070  1.00  0.00    -0.011 C 
ATOM      9  C   UNL     1      13.403  36.567  48.630  1.00  0.00     0.008 C 
ATOM     10  C   UNL     1      11.942  36.550  50.662  1.00  0.00     0.008 C 
ENDBRANCH   5   8
ENDBRANCH   4   5
ENDBRANCH   1   3
BRANCH   1  11
ATOM     11  C   UNL     1      15.014  32.922  53.016  1.00  0.00     0.002 C 
ATOM     12  C   UNL     1      16.455  33.469  53.214  1.00  0.00     0.005 C 
ATOM     13  C   UNL     1      14.441  32.737  54.458  1.00  0.00    -0.026 C 
ATOM     14  C   UNL     1      16.786  33.325  54.706  1.00  0.00     0.005 C 
ATOM     15  C   UNL     1      15.729  32.360  55.214  1.00  0.00    -0.001 C 
ATOM     16  C   UNL     1      13.472  31.542  54.634  1.00  0.00     0.007 C 
ATOM     17  C   UNL     1      13.785  34.049  54.980  1.00  0.00     0.012 C 
ATOM     18  C   UNL     1      15.533  32.206  56.738  1.00  0.00     0.000 C 
ATOM     19  C   UNL     1      13.184  31.267  56.130  1.00  0.00     0.005 C 
ATOM     20  C   UNL     1      14.478  31.087  56.994  1.00  0.00     0.003 C 
ATOM     21  C   UNL     1      16.855  31.815  57.413  1.00  0.00     0.031 C 
ATOM     22  C   UNL     1      14.201  30.901  58.537  1.00  0.00    -0.008 C 
ATOM     23  C   UNL     1      16.667  31.417  58.848  1.00  0.00    -0.027 C 
ATOM     24  C   UNL     1      15.520  30.897  59.335  1.00  0.00    -0.065 C 
ATOM     25  C   UNL     1      13.491  29.527  58.764  1.00  0.00     0.014 C 
ATOM     26  C   UNL     1      13.305  32.045  59.090  1.00  0.00     0.016 C 
ATOM     27  C   UNL     1      15.502  30.416  60.775  1.00  0.00     0.063 C 
ATOM     28  C   UNL     1      13.415  29.102  60.242  1.00  0.00     0.033 C 
ATOM     29  C   UNL     1      14.804  29.054  60.891  1.00  0.00     0.118 C 
BRANCH  29  30
ATOM     30  O   UNL     1      15.577  28.053  60.281  1.00  0.00    -0.393 OA
ATOM     31  H   UNL     1      15.127  27.825  59.426  1.00  0.00     0.210 HD
ENDBRANCH  29  30
ENDBRANCH   1  11
TORSDOF 6
ENDMDL
MODEL 2
REMARK VINA RESULT:    -5.991      2.399      5.430
REMARK INTER + INTRA:          -9.350
REMARK INTER:                  -7.385
REMARK INTRA:                  -1.965
REMARK UNBOUND:                -1.432
REMARK SMILES CC[C@H](C=C[C@@H](C)[C@H]1CC[C@H]2[C@@H]3CC=C4C[C@H](O)CC[C@]4(C)[C@H]3CC[C@]12C)C(C)C
REMARK SMILES IDX 6 1 7 2 5 3 4 4 3 5 2 6 1 7 28 8 29 9 30 10 8 11 9 12 26 13
REMARK SMILES IDX 10 14 11 15 25 16 27 17 12 18 24 19 23 20 13 21 21 22 14 23
REMARK SMILES IDX 15 24 20 25 22 26 16 27 19 28 17 29 18 30
REMARK H PARENT 18 31
REMARK Flexibility Score: inf
ROOT
ATOM      1  C   UNL     1      16.310  37.146  48.862  1.00  0.00     0.012 C 
ATOM      2  C   UNL     1      17.497  38.125  48.996  1.00  0.00     0.012 C 
ENDROOT
BRANCH   1   3
ATOM      3  C   UNL     1      15.401  37.619  47.748  1.00  0.00    -0.028 C 
ATOM      4  C   UNL     1      14.921  36.878  46.727  1.00  0.00    -0.027 C 
BRANCH   4   5
ATOM      5  C   UNL     1      15.168  35.399  46.453  1.00  0.00     0.014 C 
BRANCH   5   6
ATOM      6  C   UNL     1      13.838  34.654  46.130  1.00  0.00     0.004 C 
ATOM      7  C   UNL     1      12.959  34.458  47.366  1.00  0.00     0.004 C 
ENDBRANCH   5   6
BRANCH   5   8
ATOM      8  C   UNL     1      16.300  35.151  45.404  1.00  0.00    -0.011 C 
ATOM      9  C   UNL     1      16.437  36.335  44.429  1.00  0.00     0.008 C 
ATOM     10  C   UNL     1      17.656  34.914  46.089  1.00  0.00     0.008 C 
ENDBRANCH   5   8
ENDBRANCH   4   5
ENDBRANCH   1   3
BRANCH   1  11
ATOM     11  C   UNL     1      15.495  36.814  50.162  1.00  0.00     0.002 C 
ATOM     12  C   UNL     1      13.959  36.981  49.992  1.00  0.00     0.005 C 
ATOM     13  C   UNL     1      15.681  35.466  50.929  1.00  0.00    -0.026 C 
ATOM     14  C   UNL     1      13.294  35.920  50.879  1.00  0.00     0.005 C 
ATOM     15  C   UNL     1      14.413  35.476  51.804  1.00  0.00    -0.001 C 
ATOM     16  C   UNL     1      16.881  35.425  51.908  1.00  0.00     0.007 C 
ATOM     17  C   UNL     1      15.739  34.259  49.948  1.00  0.00     0.012 C 
ATOM     18  C   UNL     1      14.224  34.190  52.638  1.00  0.00     0.000 C 
ATOM     19  C   UNL     1      16.820  34.175  52.820  1.00  0.00     0.005 C 
ATOM     20  C   UNL     1      15.457  34.019  53.577  1.00  0.00     0.003 C 
ATOM     21  C   UNL     1      12.952  34.287  53.492  1.00  0.00     0.031 C 
ATOM     22  C   UNL     1      15.346  32.700  54.437  1.00  0.00    -0.008 C 
ATOM     23  C   UNL     1      12.853  33.176  54.496  1.00  0.00    -0.027 C 
ATOM     24  C   UNL     1      13.926  32.539  55.013  1.00  0.00    -0.065 C 
ATOM     25  C   UNL     1      16.349  32.786  55.632  1.00  0.00     0.014 C 
ATOM     26  C   UNL     1      15.665  31.442  53.580  1.00  0.00     0.016 C 
ATOM     27  C   UNL     1      13.695  31.521  56.116  1.00  0.00     0.063 C 
ATOM     28  C   UNL     1      16.145  31.693  56.697  1.00  0.00     0.033 C 
ATOM     29  C   UNL     1      14.714  31.700  57.250  1.00  0.00     0.118 C 
BRANCH  29  30
ATOM     30  O   UNL     1      14.479  32.901  57.937  1.00  0.00    -0.393 OA
ATOM     31  H   UNL     1      15.345  33.178  58.335  1.00  0.00     0.210 HD
ENDBRANCH  29  30
ENDBRANCH   1  11
TORSDOF 6
ENDMDL
MODEL 3
REMARK VINA RESULT:    -5.838      2.635      5.666
REMARK INTER + INTRA:          -9.148
REMARK INTER:                  -7.203
REMARK INTRA:                  -1.945
REMARK UNBOUND:                -1.432
REMARK SMILES CC[C@H](C=C[C@@H](C)[C@H]1CC[C@H]2[C@@H]3CC=C4C[C@H](O)CC[C@]4(C)[C@H]3CC[C@]12C)C(C)C
REMARK SMILES IDX 6 1 7 2 5 3 4 4 3 5 2 6 1 7 28 8 29 9 30 10 8 11 9 12 26 13
REMARK SMILES IDX 10 14 11 15 25 16 27 17 12 18 24 19 23 20 13 21 21 22 14 23
REMARK SMILES IDX 15 24 20 25 22 26 16 27 19 28 17 29 18 30
REMARK H PARENT 18 31
REMARK Flexibility Score: inf
ROOT
ATOM      1  C   UNL     1      15.498  37.036  49.021  1.00  0.00     0.012 C 
ATOM      2  C   UNL     1      16.514  38.125  49.429  1.00  0.00     0.012 C 
ENDROOT
BRANCH   1   3
ATOM      3  C   UNL     1      14.891  37.399  47.682  1.00  0.00    -0.028 C 
ATOM      4  C   UNL     1      14.785  36.600  46.599  1.00  0.00    -0.027 C 
BRANCH   4   5
ATOM      5  C   UNL     1      15.238  35.152  46.463  1.00  0.00     0.014 C 
BRANCH   5   6
ATOM      6  C   UNL     1      14.109  34.261  45.864  1.00  0.00     0.004 C 
ATOM      7  C   UNL     1      13.040  33.894  46.895  1.00  0.00     0.004 C 
ENDBRANCH   5   6
BRANCH   5   8
ATOM      8  C   UNL     1      16.611  35.006  45.730  1.00  0.00    -0.011 C 
ATOM      9  C   UNL     1      16.863  36.177  44.762  1.00  0.00     0.008 C 
ATOM     10  C   UNL     1      17.775  34.932  46.733  1.00  0.00     0.008 C 
ENDBRANCH   5   8
ENDBRANCH   4   5
ENDBRANCH   1   3
BRANCH   1  11
ATOM     11  C   UNL     1      14.389  36.653  50.065  1.00  0.00     0.002 C 
ATOM     12  C   UNL     1      12.955  36.622  49.466  1.00  0.00     0.005 C 
ATOM     13  C   UNL     1      14.496  35.368  50.946  1.00  0.00    -0.026 C 
ATOM     14  C   UNL     1      12.186  35.520  50.206  1.00  0.00     0.005 C 
ATOM     15  C   UNL     1      13.040  35.252  51.434  1.00  0.00    -0.001 C 
ATOM     16  C   UNL     1      15.367  35.512  52.218  1.00  0.00     0.007 C 
ATOM     17  C   UNL     1      14.961  34.142  50.107  1.00  0.00     0.012 C 
ATOM     18  C   UNL     1      12.764  33.984  52.271  1.00  0.00     0.000 C 
ATOM     19  C   UNL     1      15.187  34.298  53.163  1.00  0.00     0.005 C 
ATOM     20  C   UNL     1      13.692  34.002  53.523  1.00  0.00     0.003 C 
ATOM     21  C   UNL     1      11.299  33.953  52.731  1.00  0.00     0.031 C 
ATOM     22  C   UNL     1      13.487  32.711  54.409  1.00  0.00    -0.008 C 
ATOM     23  C   UNL     1      11.042  32.876  53.744  1.00  0.00    -0.027 C 
ATOM     24  C   UNL     1      11.988  32.396  54.580  1.00  0.00    -0.065 C 
ATOM     25  C   UNL     1      14.095  32.965  55.826  1.00  0.00     0.014 C 
ATOM     26  C   UNL     1      14.170  31.472  53.765  1.00  0.00     0.016 C 
ATOM     27  C   UNL     1      11.567  31.399  55.645  1.00  0.00     0.063 C 
ATOM     28  C   UNL     1      13.719  31.895  56.866  1.00  0.00     0.033 C 
ATOM     29  C   UNL     1      12.198  31.744  57.001  1.00  0.00     0.118 C 
BRANCH  29  30
ATOM     30  O   UNL     1      11.648  32.931  57.511  1.00  0.00    -0.393 OA
ATOM     31  H   UNL     1      10.661  32.825  57.481  1.00  0.00     0.210 HD
ENDBRANCH  29  30
ENDBRANCH   1  11
TORSDOF 6
ENDMDL
MODEL 4
REMARK VINA RESULT:    -5.797      2.267      5.103
REMARK INTER + INTRA:          -9.093
REMARK INTER:                  -7.329
REMARK INTRA:                  -1.764
REMARK UNBOUND:                -1.432
REMARK SMILES CC[C@H](C=C[C@@H](C)[C@H]1CC[C@H]2[C@@H]3CC=C4C[C@H](O)CC[C@]4(C)[C@H]3CC[C@]12C)C(C)C
REMARK SMILES IDX 6 1 7 2 5 3 4 4 3 5 2 6 1 7 28 8 29 9 30 10 8 11 9 12 26 13
REMARK SMILES IDX 10 14 11 15 25 16 27 17 12 18 24 19 23 20 13 21 21 22 14 23
REMARK SMILES IDX 15 24 20 25 22 26 16 27 19 28 17 29 18 30
REMARK H PARENT 18 31
REMARK Flexibility Score: inf
ROOT
ATOM      1  C   UNL     1      16.214  36.804  48.793  1.00  0.00     0.012 C 
ATOM      2  C   UNL     1      17.669  37.313  48.887  1.00  0.00     0.012 C 
ENDROOT
BRANCH   1   3
ATOM      3  C   UNL     1      15.430  37.712  47.870  1.00  0.00    -0.028 C 
ATOM      4  C   UNL     1      14.787  37.353  46.738  1.00  0.00    -0.027 C 
BRANCH   4   5
ATOM      5  C   UNL     1      14.689  35.962  46.124  1.00  0.00     0.014 C 
BRANCH   5   6
ATOM      6  C   UNL     1      16.096  35.413  45.741  1.00  0.00     0.004 C 
ATOM      7  C   UNL     1      16.781  36.252  44.661  1.00  0.00     0.004 C 
ENDBRANCH   5   6
BRANCH   5   8
ATOM      8  C   UNL     1      13.839  34.971  46.984  1.00  0.00    -0.011 C 
ATOM      9  C   UNL     1      12.343  35.336  46.953  1.00  0.00     0.008 C 
ATOM     10  C   UNL     1      14.006  33.522  46.497  1.00  0.00     0.008 C 
ENDBRANCH   5   8
ENDBRANCH   4   5
ENDBRANCH   1   3
BRANCH   1  11
ATOM     11  C   UNL     1      15.445  36.558  50.139  1.00  0.00     0.002 C 
ATOM     12  C   UNL     1      13.912  36.794  50.032  1.00  0.00     0.005 C 
ATOM     13  C   UNL     1      15.602  35.230  50.947  1.00  0.00    -0.026 C 
ATOM     14  C   UNL     1      13.240  35.798  50.987  1.00  0.00     0.005 C 
ATOM     15  C   UNL     1      14.378  35.332  51.876  1.00  0.00    -0.001 C 
ATOM     16  C   UNL     1      16.843  35.163  51.872  1.00  0.00     0.007 C 
ATOM     17  C   UNL     1      15.558  33.988  50.009  1.00  0.00     0.012 C 
ATOM     18  C   UNL     1      14.167  34.087  52.765  1.00  0.00     0.000 C 
ATOM     19  C   UNL     1      16.765  33.951  52.831  1.00  0.00     0.005 C 
ATOM     20  C   UNL     1      15.433  33.888  53.653  1.00  0.00     0.003 C 
ATOM     21  C   UNL     1      12.942  34.275  53.671  1.00  0.00     0.031 C 
ATOM     22  C   UNL     1      15.300  32.605  54.565  1.00  0.00    -0.008 C 
ATOM     23  C   UNL     1      12.837  33.205  54.718  1.00  0.00    -0.027 C 
ATOM     24  C   UNL     1      13.901  32.534  55.210  1.00  0.00    -0.065 C 
ATOM     25  C   UNL     1      16.360  32.684  55.710  1.00  0.00     0.014 C 
ATOM     26  C   UNL     1      15.519  31.305  53.742  1.00  0.00     0.016 C 
ATOM     27  C   UNL     1      13.674  31.568  56.358  1.00  0.00     0.063 C 
ATOM     28  C   UNL     1      16.153  31.639  56.822  1.00  0.00     0.033 C 
ATOM     29  C   UNL     1      14.752  31.735  57.438  1.00  0.00     0.118 C 
BRANCH  29  30
ATOM     30  O   UNL     1      14.605  32.970  58.091  1.00  0.00    -0.393 OA
ATOM     31  H   UNL     1      15.085  33.643  57.541  1.00  0.00     0.210 HD
ENDBRANCH  29  30
ENDBRANCH   1  11
TORSDOF 6
ENDMDL
MODEL 5
REMARK VINA RESULT:    -5.741      2.967      9.276
REMARK INTER + INTRA:          -9.019
REMARK INTER:                  -7.758
REMARK INTRA:                  -1.260
REMARK UNBOUND:                -1.432
REMARK SMILES CC[C@H](C=C[C@@H](C)[C@H]1CC[C@H]2[C@@H]3CC=C4C[C@H](O)CC[C@]4(C)[C@H]3CC[C@]12C)C(C)C
REMARK SMILES IDX 6 1 7 2 5 3 4 4 3 5 2 6 1 7 28 8 29 9 30 10 8 11 9 12 26 13
REMARK SMILES IDX 10 14 11 15 25 16 27 17 12 18 24 19 23 20 13 21 21 22 14 23
REMARK SMILES IDX 15 24 20 25 22 26 16 27 19 28 17 29 18 30
REMARK H PARENT 18 31
REMARK Flexibility Score: inf
ROOT
ATOM      1  C   UNL     1      13.301  31.932  57.373  1.00  0.00     0.012 C 
ATOM      2  C   UNL     1      11.781  32.027  57.114  1.00  0.00     0.012 C 
ENDROOT
BRANCH   1   3
ATOM      3  C   UNL     1      13.566  32.132  58.850  1.00  0.00    -0.028 C 
ATOM      4  C   UNL     1      13.865  31.175  59.754  1.00  0.00    -0.027 C 
BRANCH   4   5
ATOM      5  C   UNL     1      14.014  29.678  59.511  1.00  0.00     0.014 C 
BRANCH   5   6
ATOM      6  C   UNL     1      15.403  29.342  58.890  1.00  0.00     0.004 C 
ATOM      7  C   UNL     1      15.295  28.834  57.451  1.00  0.00     0.004 C 
ENDBRANCH   5   6
BRANCH   5   8
ATOM      8  C   UNL     1      13.660  28.816  60.766  1.00  0.00    -0.011 C 
ATOM      9  C   UNL     1      14.769  27.796  61.083  1.00  0.00     0.008 C 
ATOM     10  C   UNL     1      13.428  29.698  62.004  1.00  0.00     0.008 C 
ENDBRANCH   5   8
ENDBRANCH   4   5
ENDBRANCH   1   3
BRANCH   1  11
ATOM     11  C   UNL     1      14.242  32.833  56.497  1.00  0.00     0.002 C 
ATOM     12  C   UNL     1      15.751  32.493  56.653  1.00  0.00     0.005 C 
ATOM     13  C   UNL     1      14.016  33.011  54.962  1.00  0.00    -0.026 C 
ATOM     14  C   UNL     1      16.410  32.754  55.293  1.00  0.00     0.005 C 
ATOM     15  C   UNL     1      15.383  33.593  54.553  1.00  0.00    -0.001 C 
ATOM     16  C   UNL     1      12.960  34.074  54.569  1.00  0.00     0.007 C 
ATOM     17  C   UNL     1      13.698  31.652  54.274  1.00  0.00     0.012 C 
ATOM     18  C   UNL     1      15.543  33.794  53.030  1.00  0.00     0.000 C 
ATOM     19  C   UNL     1      13.008  34.381  53.053  1.00  0.00     0.005 C 
ATOM     20  C   UNL     1      14.434  34.774  52.538  1.00  0.00     0.003 C 
ATOM     21  C   UNL     1      16.920  34.391  52.709  1.00  0.00     0.031 C 
ATOM     22  C   UNL     1      14.517  34.998  50.977  1.00  0.00    -0.008 C 
ATOM     23  C   UNL     1      17.032  34.830  51.278  1.00  0.00    -0.027 C 
ATOM     24  C   UNL     1      15.976  35.216  50.531  1.00  0.00    -0.065 C 
ATOM     25  C   UNL     1      13.697  36.274  50.603  1.00  0.00     0.014 C 
ATOM     26  C   UNL     1      13.953  33.773  50.203  1.00  0.00     0.016 C 
ATOM     27  C   UNL     1      16.240  35.760  49.139  1.00  0.00     0.063 C 
ATOM     28  C   UNL     1      13.923  36.758  49.159  1.00  0.00     0.033 C 
ATOM     29  C   UNL     1      15.407  37.022  48.874  1.00  0.00     0.118 C 
BRANCH  29  30
ATOM     30  O   UNL     1      15.860  38.086  49.671  1.00  0.00    -0.393 OA
ATOM     31  H   UNL     1      15.071  38.427  50.168  1.00  0.00     0.210 HD
ENDBRANCH  29  30
ENDBRANCH   1  11
TORSDOF 6
ENDMDL
MODEL 6
REMARK VINA RESULT:    -5.715      1.676      3.377
REMARK INTER + INTRA:          -8.985
REMARK INTER:                  -8.424
REMARK INTRA:                  -0.561
REMARK UNBOUND:                -1.432
REMARK SMILES CC[C@H](C=C[C@@H](C)[C@H]1CC[C@H]2[C@@H]3CC=C4C[C@H](O)CC[C@]4(C)[C@H]3CC[C@]12C)C(C)C
REMARK SMILES IDX 6 1 7 2 5 3 4 4 3 5 2 6 1 7 28 8 29 9 30 10 8 11 9 12 26 13
REMARK SMILES IDX 10 14 11 15 25 16 27 17 12 18 24 19 23 20 13 21 21 22 14 23
REMARK SMILES IDX 15 24 20 25 22 26 16 27 19 28 17 29 18 30
REMARK H PARENT 18 31
REMARK Flexibility Score: inf
ROOT
ATOM      1  C   UNL     1      13.826  33.761  53.724  1.00  0.00     0.012 C 
ATOM      2  C   UNL     1      14.945  34.685  53.194  1.00  0.00     0.012 C 
ENDROOT
BRANCH   1   3
ATOM      3  C   UNL     1      12.506  34.182  53.116  1.00  0.00    -0.028 C 
ATOM      4  C   UNL     1      12.318  34.753  51.907  1.00  0.00    -0.027 C 
BRANCH   4   5
ATOM      5  C   UNL     1      13.376  35.102  50.868  1.00  0.00     0.014 C 
BRANCH   5   6
ATOM      6  C   UNL     1      13.421  34.041  49.728  1.00  0.00     0.004 C 
ATOM      7  C   UNL     1      14.730  33.249  49.713  1.00  0.00     0.004 C 
ENDBRANCH   5   6
BRANCH   5   8
ATOM      8  C   UNL     1      13.268  36.574  50.354  1.00  0.00    -0.011 C 
ATOM      9  C   UNL     1      14.498  37.407  50.758  1.00  0.00     0.008 C 
ATOM     10  C   UNL     1      13.116  36.623  48.824  1.00  0.00     0.008 C 
ENDBRANCH   5   8
ENDBRANCH   4   5
ENDBRANCH   1   3
BRANCH   1  11
ATOM     11  C   UNL     1      13.708  33.587  55.280  1.00  0.00     0.002 C 
ATOM     12  C   UNL     1      12.241  33.525  55.789  1.00  0.00     0.005 C 
ATOM     13  C   UNL     1      14.458  32.446  56.040  1.00  0.00    -0.026 C 
ATOM     14  C   UNL     1      12.228  32.580  56.998  1.00  0.00     0.005 C 
ATOM     15  C   UNL     1      13.694  32.465  57.377  1.00  0.00    -0.001 C 
ATOM     16  C   UNL     1      15.938  32.744  56.383  1.00  0.00     0.007 C 
ATOM     17  C   UNL     1      14.339  31.089  55.286  1.00  0.00     0.012 C 
ATOM     18  C   UNL     1      14.126  31.351  58.356  1.00  0.00     0.000 C 
ATOM     19  C   UNL     1      16.509  31.696  57.369  1.00  0.00     0.005 C 
ATOM     20  C   UNL     1      15.645  31.519  58.664  1.00  0.00     0.003 C 
ATOM     21  C   UNL     1      13.332  31.450  59.666  1.00  0.00     0.031 C 
ATOM     22  C   UNL     1      16.163  30.387  59.635  1.00  0.00    -0.008 C 
ATOM     23  C   UNL     1      13.881  30.550  60.735  1.00  0.00    -0.027 C 
ATOM     24  C   UNL     1      15.173  30.164  60.795  1.00  0.00    -0.065 C 
ATOM     25  C   UNL     1      17.534  30.826  60.242  1.00  0.00     0.014 C 
ATOM     26  C   UNL     1      16.337  29.037  58.882  1.00  0.00     0.016 C 
ATOM     27  C   UNL     1      15.628  29.357  61.998  1.00  0.00     0.063 C 
ATOM     28  C   UNL     1      18.010  29.942  61.409  1.00  0.00     0.033 C 
ATOM     29  C   UNL     1      16.969  29.876  62.533  1.00  0.00     0.118 C 
BRANCH  29  30
ATOM     30  O   UNL     1      16.810  31.149  63.106  1.00  0.00    -0.393 OA
ATOM     31  H   UNL     1      16.918  31.037  64.087  1.00  0.00     0.210 HD
ENDBRANCH  29  30
ENDBRANCH   1  11
TORSDOF 6
ENDMDL
MODEL 7
REMARK VINA RESULT:    -5.669      3.298      9.169
REMARK INTER + INTRA:          -8.924
REMARK INTER:                  -7.350
REMARK INTRA:                  -1.575
REMARK UNBOUND:                -1.432
REMARK SMILES CC[C@H](C=C[C@@H](C)[C@H]1CC[C@H]2[C@@H]3CC=C4C[C@H](O)CC[C@]4(C)[C@H]3CC[C@]12C)C(C)C
REMARK SMILES IDX 6 1 7 2 5 3 4 4 3 5 2 6 1 7 28 8 29 9 30 10 8 11 9 12 26 13
REMARK SMILES IDX 10 14 11 15 25 16 27 17 12 18 24 19 23 20 13 21 21 22 14 23
REMARK SMILES IDX 15 24 20 25 22 26 16 27 19 28 17 29 18 30
REMARK H PARENT 18 31
REMARK Flexibility Score: inf
ROOT
ATOM      1  C   UNL     1      14.797  31.819  55.759  1.00  0.00     0.012 C 
ATOM      2  C   UNL     1      16.150  32.160  56.421  1.00  0.00     0.012 C 
ENDROOT
BRANCH   1   3
ATOM      3  C   UNL     1      14.366  30.436  56.197  1.00  0.00    -0.028 C 
ATOM      4  C   UNL     1      13.269  30.122  56.919  1.00  0.00    -0.027 C 
BRANCH   4   5
ATOM      5  C   UNL     1      12.206  31.071  57.458  1.00  0.00     0.014 C 
BRANCH   5   6
ATOM      6  C   UNL     1      12.833  32.153  58.387  1.00  0.00     0.004 C 
ATOM      7  C   UNL     1      13.305  31.577  59.724  1.00  0.00     0.004 C 
ENDBRANCH   5   6
BRANCH   5   8
ATOM      8  C   UNL     1      11.286  31.658  56.339  1.00  0.00    -0.011 C 
ATOM      9  C   UNL     1       9.837  31.156  56.477  1.00  0.00     0.008 C 
ATOM     10  C   UNL     1      11.283  33.195  56.366  1.00  0.00     0.008 C 
ENDBRANCH   5   8
ENDBRANCH   4   5
ENDBRANCH   1   3
BRANCH   1  11
ATOM     11  C   UNL     1      14.691  31.983  54.202  1.00  0.00     0.002 C 
ATOM     12  C   UNL     1      13.470  31.250  53.580  1.00  0.00     0.005 C 
ATOM     13  C   UNL     1      14.721  33.388  53.518  1.00  0.00    -0.026 C 
ATOM     14  C   UNL     1      13.003  32.093  52.387  1.00  0.00     0.005 C 
ATOM     15  C   UNL     1      14.176  33.022  52.124  1.00  0.00    -0.001 C 
ATOM     16  C   UNL     1      16.133  33.979  53.287  1.00  0.00     0.007 C 
ATOM     17  C   UNL     1      13.824  34.408  54.278  1.00  0.00     0.012 C 
ATOM     18  C   UNL     1      13.969  34.239  51.198  1.00  0.00     0.000 C 
ATOM     19  C   UNL     1      16.079  35.220  52.363  1.00  0.00     0.005 C 
ATOM     20  C   UNL     1      15.339  34.958  51.007  1.00  0.00     0.003 C 
ATOM     21  C   UNL     1      13.442  33.789  49.828  1.00  0.00     0.031 C 
ATOM     22  C   UNL     1      15.194  36.239  50.095  1.00  0.00    -0.008 C 
ATOM     23  C   UNL     1      13.456  34.899  48.818  1.00  0.00    -0.027 C 
ATOM     24  C   UNL     1      14.316  35.940  48.864  1.00  0.00    -0.065 C 
ATOM     25  C   UNL     1      16.609  36.667  49.590  1.00  0.00     0.014 C 
ATOM     26  C   UNL     1      14.544  37.415  50.877  1.00  0.00     0.016 C 
ATOM     27  C   UNL     1      14.312  36.927  47.711  1.00  0.00     0.063 C 
ATOM     28  C   UNL     1      16.578  37.729  48.476  1.00  0.00     0.033 C 
ATOM     29  C   UNL     1      15.743  37.268  47.275  1.00  0.00     0.118 C 
BRANCH  29  30
ATOM     30  O   UNL     1      16.353  36.155  46.675  1.00  0.00    -0.393 OA
ATOM     31  H   UNL     1      16.641  36.440  45.768  1.00  0.00     0.210 HD
ENDBRANCH  29  30
ENDBRANCH   1  11
TORSDOF 6
ENDMDL
MODEL 8
REMARK VINA RESULT:    -5.572      3.529      6.552
REMARK INTER + INTRA:          -8.795
REMARK INTER:                  -7.517
REMARK INTRA:                  -1.279
REMARK UNBOUND:                -1.432
REMARK SMILES CC[C@H](C=C[C@@H](C)[C@H]1CC[C@H]2[C@@H]3CC=C4C[C@H](O)CC[C@]4(C)[C@H]3CC[C@]12C)C(C)C
REMARK SMILES IDX 6 1 7 2 5 3 4 4 3 5 2 6 1 7 28 8 29 9 30 10 8 11 9 12 26 13
REMARK SMILES IDX 10 14 11 15 25 16 27 17 12 18 24 19 23 20 13 21 21 22 14 23
REMARK SMILES IDX 15 24 20 25 22 26 16 27 19 28 17 29 18 30
REMARK H PARENT 18 31
REMARK Flexibility Score: inf
ROOT
ATOM      1  C   UNL     1      17.507  36.721  49.278  1.00  0.00     0.012 C 
ATOM      2  C   UNL     1      17.978  38.124  48.838  1.00  0.00     0.012 C 
ENDROOT
BRANCH   1   3
ATOM      3  C   UNL     1      17.651  35.762  48.115  1.00  0.00    -0.028 C 
ATOM      4  C   UNL     1      18.711  34.969  47.848  1.00  0.00    -0.027 C 
BRANCH   4   5
ATOM      5  C   UNL     1      20.002  34.840  48.646  1.00  0.00     0.014 C 
BRANCH   5   6
ATOM      6  C   UNL     1      19.971  33.590  49.575  1.00  0.00     0.004 C 
ATOM      7  C   UNL     1      19.782  33.956  51.048  1.00  0.00     0.004 C 
ENDBRANCH   5   6
BRANCH   5   8
ATOM      8  C   UNL     1      21.284  34.932  47.757  1.00  0.00    -0.011 C 
ATOM      9  C   UNL     1      22.121  36.179  48.097  1.00  0.00     0.008 C 
ATOM     10  C   UNL     1      22.167  33.683  47.916  1.00  0.00     0.008 C 
ENDBRANCH   5   8
ENDBRANCH   4   5
ENDBRANCH   1   3
BRANCH   1  11
ATOM     11  C   UNL     1      16.087  36.608  49.938  1.00  0.00     0.002 C 
ATOM     12  C   UNL     1      14.918  36.704  48.918  1.00  0.00     0.005 C 
ATOM     13  C   UNL     1      15.711  35.424  50.885  1.00  0.00    -0.026 C 
ATOM     14  C   UNL     1      13.792  35.804  49.443  1.00  0.00     0.005 C 
ATOM     15  C   UNL     1      14.177  35.559  50.892  1.00  0.00    -0.001 C 
ATOM     16  C   UNL     1      16.165  35.587  52.357  1.00  0.00     0.007 C 
ATOM     17  C   UNL     1      16.204  34.062  50.314  1.00  0.00     0.012 C 
ATOM     18  C   UNL     1      13.457  34.440  51.675  1.00  0.00     0.000 C 
ATOM     19  C   UNL     1      15.512  34.520  53.269  1.00  0.00     0.005 C 
ATOM     20  C   UNL     1      13.951  34.470  53.153  1.00  0.00     0.003 C 
ATOM     21  C   UNL     1      11.937  34.657  51.647  1.00  0.00     0.031 C 
ATOM     22  C   UNL     1      13.279  33.323  54.006  1.00  0.00    -0.008 C 
ATOM     23  C   UNL     1      11.213  33.742  52.591  1.00  0.00    -0.027 C 
ATOM     24  C   UNL     1      11.769  33.234  53.712  1.00  0.00    -0.065 C 
ATOM     25  C   UNL     1      13.460  33.646  55.524  1.00  0.00     0.014 C 
ATOM     26  C   UNL     1      13.915  31.940  53.690  1.00  0.00     0.016 C 
ATOM     27  C   UNL     1      10.888  32.425  54.648  1.00  0.00     0.063 C 
ATOM     28  C   UNL     1      12.616  32.757  56.456  1.00  0.00     0.033 C 
ATOM     29  C   UNL     1      11.124  32.828  56.110  1.00  0.00     0.118 C 
BRANCH  29  30
ATOM     30  O   UNL     1      10.645  34.127  56.344  1.00  0.00    -0.393 OA
ATOM     31  H   UNL     1      11.373  34.622  56.804  1.00  0.00     0.210 HD
ENDBRANCH  29  30
ENDBRANCH   1  11
TORSDOF 6
ENDMDL
