MODEL 1
REMARK VINA RESULT:    -2.578      0.000      0.000
REMARK INTER + INTRA:          -7.181
REMARK INTER:                  -5.893
REMARK INTRA:                  -1.288
REMARK UNBOUND:                -1.288
REMARK SMILES CCCCCCCCCCCCCCCCCCCCCCCC(=O)[O-]
REMARK SMILES IDX 13 1 14 2 15 3 16 4 17 5 18 6 19 7 20 8 21 9 22 10 23 11
REMARK SMILES IDX 24 12 25 13 26 14 12 15 11 16 10 17 9 18 8 19 7 20 6 21 5 22
REMARK SMILES IDX 4 23 3 24 2 25 1 26
REMARK H PARENT
REMARK Flexibility Score: inf
ROOT
ATOM      1  C   UNL     1     -10.976  -3.202  -2.645  1.00  0.00     0.000 C 
ENDROOT
BRANCH   1   2
ATOM      2  C   UNL     1      -9.735  -3.703  -1.887  1.00  0.00     0.000 C 
BRANCH   2   3
ATOM      3  C   UNL     1      -8.503  -2.806  -2.100  1.00  0.00     0.000 C 
BRANCH   3   4
ATOM      4  C   UNL     1      -8.150  -1.978  -0.854  1.00  0.00     0.000 C 
BRANCH   4   5
ATOM      5  C   UNL     1      -7.546  -0.606  -1.204  1.00  0.00     0.000 C 
BRANCH   5   6
ATOM      6  C   UNL     1      -8.433   0.567  -0.754  1.00  0.00     0.000 C 
BRANCH   6   7
ATOM      7  C   UNL     1      -7.638   1.867  -0.545  1.00  0.00     0.000 C 
BRANCH   7   8
ATOM      8  C   UNL     1      -8.548   3.105  -0.519  1.00  0.00     0.000 C 
BRANCH   8   9
ATOM      9  C   UNL     1      -8.423   3.896   0.791  1.00  0.00     0.000 C 
BRANCH   9  10
ATOM     10  C   UNL     1      -8.832   5.360   0.590  1.00  0.00     0.006 C 
BRANCH  10  11
ATOM     11  C   UNL     1      -8.910   5.710  -0.899  1.00  0.00     0.053 C 
BRANCH  11  12
ATOM     12  C   UNL     1      -9.068   7.186  -1.087  1.00  0.00     0.041 C 
ATOM     13  O   UNL     1      -9.364   7.652  -2.220  1.00  0.00    -0.550 OA
ATOM     14  O   UNL     1      -8.852   8.051  -0.022  1.00  0.00    -0.550 OA
ENDBRANCH  11  12
ENDBRANCH  10  11
ENDBRANCH   9  10
ENDBRANCH   8   9
ENDBRANCH   7   8
ENDBRANCH   6   7
ENDBRANCH   5   6
ENDBRANCH   4   5
ENDBRANCH   3   4
ENDBRANCH   2   3
ENDBRANCH   1   2
BRANCH   1  15
ATOM     15  C   UNL     1     -10.953  -3.530  -4.154  1.00  0.00     0.000 C 
BRANCH  15  16
ATOM     16  C   UNL     1     -10.348  -4.917  -4.436  1.00  0.00     0.000 C 
BRANCH  16  17
ATOM     17  C   UNL     1      -9.961  -5.101  -5.918  1.00  0.00     0.000 C 
BRANCH  17  18
ATOM     18  C   UNL     1      -9.862  -6.572  -6.354  1.00  0.00    -0.000 C 
BRANCH  18  19
ATOM     19  C   UNL     1      -8.843  -6.789  -7.483  1.00  0.00    -0.000 C 
BRANCH  19  20
ATOM     20  C   UNL     1      -8.095  -5.500  -7.868  1.00  0.00    -0.000 C 
BRANCH  20  21
ATOM     21  C   UNL     1      -6.579  -5.516  -7.589  1.00  0.00    -0.000 C 
BRANCH  21  22
ATOM     22  C   UNL     1      -6.212  -5.975  -6.162  1.00  0.00    -0.000 C 
BRANCH  22  23
ATOM     23  C   UNL     1      -4.815  -5.492  -5.736  1.00  0.00    -0.000 C 
BRANCH  23  24
ATOM     24  C   UNL     1      -4.594  -3.991  -5.997  1.00  0.00    -0.000 C 
BRANCH  24  25
ATOM     25  C   UNL     1      -3.262  -3.430  -5.466  1.00  0.00    -0.003 C 
ATOM     26  C   UNL     1      -2.176  -4.496  -5.329  1.00  0.00     0.004 C 
ENDBRANCH  24  25
ENDBRANCH  23  24
ENDBRANCH  22  23
ENDBRANCH  21  22
ENDBRANCH  20  21
ENDBRANCH  19  20
ENDBRANCH  18  19
ENDBRANCH  17  18
ENDBRANCH  16  17
ENDBRANCH  15  16
ENDBRANCH   1  15
TORSDOF 22
ENDMDL
MODEL 2
REMARK VINA RESULT:    -2.566      4.390     10.659
REMARK INTER + INTRA:          -7.154
REMARK INTER:                  -5.662
REMARK INTRA:                  -1.492
REMARK UNBOUND:                -1.288
REMARK SMILES CCCCCCCCCCCCCCCCCCCCCCCC(=O)[O-]
REMARK SMILES IDX 13 1 14 2 15 3 16 4 17 5 18 6 19 7 20 8 21 9 22 10 23 11
REMARK SMILES IDX 24 12 25 13 26 14 12 15 11 16 10 17 9 18 8 19 7 20 6 21 5 22
REMARK SMILES IDX 4 23 3 24 2 25 1 26
REMARK H PARENT
REMARK Flexibility Score: inf
ROOT
ATOM      1  C   UNL     1     -11.125  -4.106  -2.314  1.00  0.00     0.000 C 
ENDROOT
BRANCH   1   2
ATOM      2  C   UNL     1     -10.998  -3.206  -3.555  1.00  0.00     0.000 C 
BRANCH   2   3
ATOM      3  C   UNL     1     -10.973  -4.003  -4.871  1.00  0.00     0.000 C 
BRANCH   3   4
ATOM      4  C   UNL     1     -10.034  -5.218  -4.810  1.00  0.00     0.000 C 
BRANCH   4   5
ATOM      5  C   UNL     1     -10.650  -6.478  -5.444  1.00  0.00     0.000 C 
BRANCH   5   6
ATOM      6  C   UNL     1     -10.958  -6.302  -6.940  1.00  0.00     0.000 C 
BRANCH   6   7
ATOM      7  C   UNL     1      -9.874  -6.911  -7.845  1.00  0.00     0.000 C 
BRANCH   7   8
ATOM      8  C   UNL     1      -8.876  -5.854  -8.346  1.00  0.00     0.000 C 
BRANCH   8   9
ATOM      9  C   UNL     1      -7.417  -6.260  -8.090  1.00  0.00     0.000 C 
BRANCH   9  10
ATOM     10  C   UNL     1      -6.736  -5.280  -7.127  1.00  0.00     0.006 C 
BRANCH  10  11
ATOM     11  C   UNL     1      -5.931  -6.029  -6.061  1.00  0.00     0.053 C 
BRANCH  11  12
ATOM     12  C   UNL     1      -6.810  -6.972  -5.301  1.00  0.00     0.041 C 
ATOM     13  O   UNL     1      -7.194  -6.681  -4.136  1.00  0.00    -0.550 OA
ATOM     14  O   UNL     1      -7.176  -8.189  -5.863  1.00  0.00    -0.550 OA
ENDBRANCH  11  12
ENDBRANCH  10  11
ENDBRANCH   9  10
ENDBRANCH   8   9
ENDBRANCH   7   8
ENDBRANCH   6   7
ENDBRANCH   5   6
ENDBRANCH   4   5
ENDBRANCH   3   4
ENDBRANCH   2   3
ENDBRANCH   1   2
BRANCH   1  15
ATOM     15  C   UNL     1     -10.128  -3.754  -1.189  1.00  0.00     0.000 C 
BRANCH  15  16
ATOM     16  C   UNL     1      -8.743  -3.372  -1.742  1.00  0.00     0.000 C 
BRANCH  16  17
ATOM     17  C   UNL     1      -8.121  -2.174  -0.996  1.00  0.00     0.000 C 
BRANCH  17  18
ATOM     18  C   UNL     1      -7.402  -1.175  -1.919  1.00  0.00    -0.000 C 
BRANCH  18  19
ATOM     19  C   UNL     1      -6.933   0.087  -1.178  1.00  0.00    -0.000 C 
BRANCH  19  20
ATOM     20  C   UNL     1      -8.097   1.012  -0.780  1.00  0.00    -0.000 C 
BRANCH  20  21
ATOM     21  C   UNL     1      -7.698   2.467  -0.466  1.00  0.00    -0.000 C 
BRANCH  21  22
ATOM     22  C   UNL     1      -8.894   3.440  -0.395  1.00  0.00    -0.000 C 
BRANCH  22  23
ATOM     23  C   UNL     1      -8.738   4.473   0.734  1.00  0.00    -0.000 C 
BRANCH  23  24
ATOM     24  C   UNL     1      -8.867   5.925   0.241  1.00  0.00    -0.000 C 
BRANCH  24  25
ATOM     25  C   UNL     1      -9.085   6.077  -1.276  1.00  0.00    -0.003 C 
ATOM     26  C   UNL     1      -9.162   7.536  -1.726  1.00  0.00     0.004 C 
ENDBRANCH  24  25
ENDBRANCH  23  24
ENDBRANCH  22  23
ENDBRANCH  21  22
ENDBRANCH  20  21
ENDBRANCH  19  20
ENDBRANCH  18  19
ENDBRANCH  17  18
ENDBRANCH  16  17
ENDBRANCH  15  16
ENDBRANCH   1  15
TORSDOF 22
ENDMDL
MODEL 3
REMARK VINA RESULT:    -2.429      4.586     10.632
REMARK INTER + INTRA:          -6.841
REMARK INTER:                  -5.464
REMARK INTRA:                  -1.376
REMARK UNBOUND:                -1.288
REMARK SMILES CCCCCCCCCCCCCCCCCCCCCCCC(=O)[O-]
REMARK SMILES IDX 13 1 14 2 15 3 16 4 17 5 18 6 19 7 20 8 21 9 22 10 23 11
REMARK SMILES IDX 24 12 25 13 26 14 12 15 11 16 10 17 9 18 8 19 7 20 6 21 5 22
REMARK SMILES IDX 4 23 3 24 2 25 1 26
REMARK H PARENT
REMARK Flexibility Score: inf
ROOT
ATOM      1  C   UNL     1     -10.999  -4.729  -4.472  1.00  0.00     0.000 C 
ENDROOT
BRANCH   1   2
ATOM      2  C   UNL     1     -10.876  -6.261  -4.408  1.00  0.00     0.000 C 
BRANCH   2   3
ATOM      3  C   UNL     1     -11.123  -6.938  -5.767  1.00  0.00     0.000 C 
BRANCH   3   4
ATOM      4  C   UNL     1     -10.778  -6.025  -6.955  1.00  0.00     0.000 C 
BRANCH   4   5
ATOM      5  C   UNL     1     -10.946  -6.729  -8.314  1.00  0.00     0.000 C 
BRANCH   5   6
ATOM      6  C   UNL     1     -10.790  -5.769  -9.504  1.00  0.00     0.000 C 
BRANCH   6   7
ATOM      7  C   UNL     1      -9.415  -5.081  -9.537  1.00  0.00     0.000 C 
BRANCH   7   8
ATOM      8  C   UNL     1      -8.260  -6.088  -9.420  1.00  0.00     0.000 C 
BRANCH   8   9
ATOM      9  C   UNL     1      -6.914  -5.405  -9.135  1.00  0.00     0.000 C 
BRANCH   9  10
ATOM     10  C   UNL     1      -6.666  -5.289  -7.626  1.00  0.00     0.006 C 
BRANCH  10  11
ATOM     11  C   UNL     1      -7.483  -6.329  -6.853  1.00  0.00     0.053 C 
BRANCH  11  12
ATOM     12  C   UNL     1      -6.785  -6.712  -5.586  1.00  0.00     0.041 C 
ATOM     13  O   UNL     1      -5.529  -6.815  -5.561  1.00  0.00    -0.550 OA
ATOM     14  O   UNL     1      -7.522  -6.992  -4.442  1.00  0.00    -0.550 OA
ENDBRANCH  11  12
ENDBRANCH  10  11
ENDBRANCH   9  10
ENDBRANCH   8   9
ENDBRANCH   7   8
ENDBRANCH   6   7
ENDBRANCH   5   6
ENDBRANCH   4   5
ENDBRANCH   3   4
ENDBRANCH   2   3
ENDBRANCH   1   2
BRANCH   1  15
ATOM     15  C   UNL     1      -9.933  -3.987  -3.638  1.00  0.00     0.000 C 
BRANCH  15  16
ATOM     16  C   UNL     1     -10.366  -3.811  -2.171  1.00  0.00     0.000 C 
BRANCH  16  17
ATOM     17  C   UNL     1      -9.944  -2.445  -1.592  1.00  0.00     0.000 C 
BRANCH  17  18
ATOM     18  C   UNL     1      -8.467  -2.383  -1.166  1.00  0.00    -0.000 C 
BRANCH  18  19
ATOM     19  C   UNL     1      -7.821  -1.020  -1.460  1.00  0.00    -0.000 C 
BRANCH  19  20
ATOM     20  C   UNL     1      -8.306   0.087  -0.507  1.00  0.00    -0.000 C 
BRANCH  20  21
ATOM     21  C   UNL     1      -7.618   1.454  -0.690  1.00  0.00    -0.000 C 
BRANCH  21  22
ATOM     22  C   UNL     1      -8.592   2.651  -0.660  1.00  0.00    -0.000 C 
BRANCH  22  23
ATOM     23  C   UNL     1      -8.514   3.432   0.663  1.00  0.00    -0.000 C 
BRANCH  23  24
ATOM     24  C   UNL     1      -8.493   4.958   0.458  1.00  0.00    -0.000 C 
BRANCH  24  25
ATOM     25  C   UNL     1      -9.013   5.435  -0.910  1.00  0.00    -0.003 C 
ATOM     26  C   UNL     1      -9.208   6.949  -0.981  1.00  0.00     0.004 C 
ENDBRANCH  24  25
ENDBRANCH  23  24
ENDBRANCH  22  23
ENDBRANCH  21  22
ENDBRANCH  20  21
ENDBRANCH  19  20
ENDBRANCH  18  19
ENDBRANCH  17  18
ENDBRANCH  16  17
ENDBRANCH  15  16
ENDBRANCH   1  15
TORSDOF 22
ENDMDL
MODEL 4
REMARK VINA RESULT:    -2.112      4.376     10.656
REMARK INTER + INTRA:          -6.116
REMARK INTER:                  -4.929
REMARK INTRA:                  -1.187
REMARK UNBOUND:                -1.288
REMARK SMILES CCCCCCCCCCCCCCCCCCCCCCCC(=O)[O-]
REMARK SMILES IDX 13 1 14 2 15 3 16 4 17 5 18 6 19 7 20 8 21 9 22 10 23 11
REMARK SMILES IDX 24 12 25 13 26 14 12 15 11 16 10 17 9 18 8 19 7 20 6 21 5 22
REMARK SMILES IDX 4 23 3 24 2 25 1 26
REMARK H PARENT
REMARK Flexibility Score: inf
ROOT
ATOM      1  C   UNL     1     -11.101  -3.925  -2.310  1.00  0.00     0.000 C 
ENDROOT
BRANCH   1   2
ATOM      2  C   UNL     1     -10.783  -3.211  -3.634  1.00  0.00     0.000 C 
BRANCH   2   3
ATOM      3  C   UNL     1     -10.878  -4.144  -4.854  1.00  0.00     0.000 C 
BRANCH   3   4
ATOM      4  C   UNL     1     -10.844  -5.631  -4.466  1.00  0.00     0.000 C 
BRANCH   4   5
ATOM      5  C   UNL     1     -11.107  -6.563  -5.663  1.00  0.00     0.000 C 
BRANCH   5   6
ATOM      6  C   UNL     1     -10.145  -6.311  -6.836  1.00  0.00     0.000 C 
BRANCH   6   7
ATOM      7  C   UNL     1      -8.672  -6.259  -6.396  1.00  0.00     0.000 C 
BRANCH   7   8
ATOM      8  C   UNL     1      -7.712  -6.600  -7.547  1.00  0.00     0.000 C 
BRANCH   8   9
ATOM      9  C   UNL     1      -7.389  -5.380  -8.421  1.00  0.00     0.000 C 
BRANCH   9  10
ATOM     10  C   UNL     1      -8.163  -5.432  -9.744  1.00  0.00     0.006 C 
BRANCH  10  11
ATOM     11  C   UNL     1      -8.707  -4.049 -10.116  1.00  0.00     0.053 C 
BRANCH  11  12
ATOM     12  C   UNL     1     -10.182  -3.981  -9.876  1.00  0.00     0.041 C 
ATOM     13  O   UNL     1     -10.860  -5.040  -9.795  1.00  0.00    -0.550 OA
ATOM     14  O   UNL     1     -10.816  -2.748  -9.780  1.00  0.00    -0.550 OA
ENDBRANCH  11  12
ENDBRANCH  10  11
ENDBRANCH   9  10
ENDBRANCH   8   9
ENDBRANCH   7   8
ENDBRANCH   6   7
ENDBRANCH   5   6
ENDBRANCH   4   5
ENDBRANCH   3   4
ENDBRANCH   2   3
ENDBRANCH   1   2
BRANCH   1  15
ATOM     15  C   UNL     1     -10.066  -3.654  -1.197  1.00  0.00     0.000 C 
BRANCH  15  16
ATOM     16  C   UNL     1      -8.696  -3.242  -1.767  1.00  0.00     0.000 C 
BRANCH  16  17
ATOM     17  C   UNL     1      -7.970  -2.217  -0.872  1.00  0.00     0.000 C 
BRANCH  17  18
ATOM     18  C   UNL     1      -7.638  -0.896  -1.588  1.00  0.00    -0.000 C 
BRANCH  18  19
ATOM     19  C   UNL     1      -7.361   0.256  -0.610  1.00  0.00    -0.000 C 
BRANCH  19  20
ATOM     20  C   UNL     1      -8.294   1.460  -0.828  1.00  0.00    -0.000 C 
BRANCH  20  21
ATOM     21  C   UNL     1      -8.023   2.671   0.088  1.00  0.00    -0.000 C 
BRANCH  21  22
ATOM     22  C   UNL     1      -8.894   3.903  -0.234  1.00  0.00    -0.000 C 
BRANCH  22  23
ATOM     23  C   UNL     1      -8.673   5.051   0.767  1.00  0.00    -0.000 C 
BRANCH  23  24
ATOM     24  C   UNL     1      -8.999   6.433   0.175  1.00  0.00    -0.000 C 
BRANCH  24  25
ATOM     25  C   UNL     1      -8.790   6.553  -1.346  1.00  0.00    -0.003 C 
ATOM     26  C   UNL     1      -9.385   7.833  -1.932  1.00  0.00     0.004 C 
ENDBRANCH  24  25
ENDBRANCH  23  24
ENDBRANCH  22  23
ENDBRANCH  21  22
ENDBRANCH  20  21
ENDBRANCH  19  20
ENDBRANCH  18  19
ENDBRANCH  17  18
ENDBRANCH  16  17
ENDBRANCH  15  16
ENDBRANCH   1  15
TORSDOF 22
ENDMDL
MODEL 5
REMARK VINA RESULT:    -2.092      1.098      2.118
REMARK INTER + INTRA:          -6.071
REMARK INTER:                  -4.308
REMARK INTRA:                  -1.763
REMARK UNBOUND:                -1.288
REMARK SMILES CCCCCCCCCCCCCCCCCCCCCCCC(=O)[O-]
REMARK SMILES IDX 13 1 14 2 15 3 16 4 17 5 18 6 19 7 20 8 21 9 22 10 23 11
REMARK SMILES IDX 24 12 25 13 26 14 12 15 11 16 10 17 9 18 8 19 7 20 6 21 5 22
REMARK SMILES IDX 4 23 3 24 2 25 1 26
REMARK H PARENT
REMARK Flexibility Score: inf
ROOT
ATOM      1  C   UNL     1     -10.588  -3.760  -2.564  1.00  0.00     0.000 C 
ENDROOT
BRANCH   1   2
ATOM      2  C   UNL     1      -9.155  -3.226  -2.729  1.00  0.00     0.000 C 
BRANCH   2   3
ATOM      3  C   UNL     1      -8.535  -2.759  -1.400  1.00  0.00     0.000 C 
BRANCH   3   4
ATOM      4  C   UNL     1      -8.511  -1.229  -1.262  1.00  0.00     0.000 C 
BRANCH   4   5
ATOM      5  C   UNL     1      -7.108  -0.635  -1.480  1.00  0.00     0.000 C 
BRANCH   5   6
ATOM      6  C   UNL     1      -7.029   0.856  -1.111  1.00  0.00     0.000 C 
BRANCH   6   7
ATOM      7  C   UNL     1      -8.297   1.361  -0.402  1.00  0.00     0.000 C 
BRANCH   7   8
ATOM      8  C   UNL     1      -8.491   2.876  -0.569  1.00  0.00     0.000 C 
BRANCH   8   9
ATOM      9  C   UNL     1      -8.612   3.603   0.778  1.00  0.00     0.000 C 
BRANCH   9  10
ATOM     10  C   UNL     1      -8.639   5.123   0.581  1.00  0.00     0.006 C 
BRANCH  10  11
ATOM     11  C   UNL     1      -9.026   5.485  -0.856  1.00  0.00     0.053 C 
BRANCH  11  12
ATOM     12  C   UNL     1      -9.010   6.969  -1.049  1.00  0.00     0.041 C 
ATOM     13  O   UNL     1      -8.997   7.738  -0.050  1.00  0.00    -0.550 OA
ATOM     14  O   UNL     1      -9.048   7.505  -2.330  1.00  0.00    -0.550 OA
ENDBRANCH  11  12
ENDBRANCH  10  11
ENDBRANCH   9  10
ENDBRANCH   8   9
ENDBRANCH   7   8
ENDBRANCH   6   7
ENDBRANCH   5   6
ENDBRANCH   4   5
ENDBRANCH   3   4
ENDBRANCH   2   3
ENDBRANCH   1   2
BRANCH   1  15
ATOM     15  C   UNL     1     -11.056  -4.650  -3.736  1.00  0.00     0.000 C 
BRANCH  15  16
ATOM     16  C   UNL     1     -10.246  -4.390  -5.019  1.00  0.00     0.000 C 
BRANCH  16  17
ATOM     17  C   UNL     1     -11.012  -4.802  -6.293  1.00  0.00     0.000 C 
BRANCH  17  18
ATOM     18  C   UNL     1     -10.759  -3.876  -7.495  1.00  0.00    -0.000 C 
BRANCH  18  19
ATOM     19  C   UNL     1     -10.017  -4.581  -8.640  1.00  0.00    -0.000 C 
BRANCH  19  20
ATOM     20  C   UNL     1     -10.608  -5.961  -8.975  1.00  0.00    -0.000 C 
BRANCH  20  21
ATOM     21  C   UNL     1      -9.696  -7.160  -8.650  1.00  0.00    -0.000 C 
BRANCH  21  22
ATOM     22  C   UNL     1      -8.330  -6.761  -8.054  1.00  0.00    -0.000 C 
BRANCH  22  23
ATOM     23  C   UNL     1      -8.235  -7.075  -6.551  1.00  0.00    -0.000 C 
BRANCH  23  24
ATOM     24  C   UNL     1      -7.188  -6.214  -5.824  1.00  0.00    -0.000 C 
BRANCH  24  25
ATOM     25  C   UNL     1      -6.161  -5.528  -6.743  1.00  0.00    -0.003 C 
ATOM     26  C   UNL     1      -4.840  -5.219  -6.039  1.00  0.00     0.004 C 
ENDBRANCH  24  25
ENDBRANCH  23  24
ENDBRANCH  22  23
ENDBRANCH  21  22
ENDBRANCH  20  21
ENDBRANCH  19  20
ENDBRANCH  18  19
ENDBRANCH  17  18
ENDBRANCH  16  17
ENDBRANCH  15  16
ENDBRANCH   1  15
TORSDOF 22
ENDMDL
MODEL 6
REMARK VINA RESULT:    -1.996      3.757      9.963
REMARK INTER + INTRA:          -5.850
REMARK INTER:                  -4.730
REMARK INTRA:                  -1.120
REMARK UNBOUND:                -1.288
REMARK SMILES CCCCCCCCCCCCCCCCCCCCCCCC(=O)[O-]
REMARK SMILES IDX 13 1 14 2 15 3 16 4 17 5 18 6 19 7 20 8 21 9 22 10 23 11
REMARK SMILES IDX 24 12 25 13 26 14 12 15 11 16 10 17 9 18 8 19 7 20 6 21 5 22
REMARK SMILES IDX 4 23 3 24 2 25 1 26
REMARK H PARENT
REMARK Flexibility Score: inf
ROOT
ATOM      1  C   UNL     1     -11.125  -4.463  -2.899  1.00  0.00     0.000 C 
ENDROOT
BRANCH   1   2
ATOM      2  C   UNL     1     -10.185  -3.990  -4.020  1.00  0.00     0.000 C 
BRANCH   2   3
ATOM      3  C   UNL     1     -10.600  -4.512  -5.407  1.00  0.00     0.000 C 
BRANCH   3   4
ATOM      4  C   UNL     1     -10.398  -6.028  -5.555  1.00  0.00     0.000 C 
BRANCH   4   5
ATOM      5  C   UNL     1      -9.894  -6.427  -6.954  1.00  0.00     0.000 C 
BRANCH   5   6
ATOM      6  C   UNL     1      -8.409  -6.822  -6.961  1.00  0.00     0.000 C 
BRANCH   6   7
ATOM      7  C   UNL     1      -7.939  -7.393  -5.613  1.00  0.00     0.000 C 
BRANCH   7   8
ATOM      8  C   UNL     1      -6.538  -6.891  -5.227  1.00  0.00     0.000 C 
BRANCH   8   9
ATOM      9  C   UNL     1      -5.924  -5.985  -6.304  1.00  0.00     0.000 C 
BRANCH   9  10
ATOM     10  C   UNL     1      -4.551  -5.463  -5.865  1.00  0.00     0.006 C 
BRANCH  10  11
ATOM     11  C   UNL     1      -4.502  -3.933  -5.921  1.00  0.00     0.053 C 
BRANCH  11  12
ATOM     12  C   UNL     1      -3.147  -3.434  -5.528  1.00  0.00     0.041 C 
ATOM     13  O   UNL     1      -2.250  -4.247  -5.176  1.00  0.00    -0.550 OA
ATOM     14  O   UNL     1      -2.884  -2.070  -5.512  1.00  0.00    -0.550 OA
ENDBRANCH  11  12
ENDBRANCH  10  11
ENDBRANCH   9  10
ENDBRANCH   8   9
ENDBRANCH   7   8
ENDBRANCH   6   7
ENDBRANCH   5   6
ENDBRANCH   4   5
ENDBRANCH   3   4
ENDBRANCH   2   3
ENDBRANCH   1   2
BRANCH   1  15
ATOM     15  C   UNL     1     -10.581  -4.192  -1.480  1.00  0.00     0.000 C 
BRANCH  15  16
ATOM     16  C   UNL     1      -9.143  -3.642  -1.506  1.00  0.00     0.000 C 
BRANCH  16  17
ATOM     17  C   UNL     1      -9.101  -2.114  -1.714  1.00  0.00     0.000 C 
BRANCH  17  18
ATOM     18  C   UNL     1      -8.138  -1.385  -0.761  1.00  0.00    -0.000 C 
BRANCH  18  19
ATOM     19  C   UNL     1      -6.965  -0.721  -1.497  1.00  0.00    -0.000 C 
BRANCH  19  20
ATOM     20  C   UNL     1      -6.976   0.814  -1.375  1.00  0.00    -0.000 C 
BRANCH  20  21
ATOM     21  C   UNL     1      -7.994   1.382  -0.367  1.00  0.00    -0.000 C 
BRANCH  21  22
ATOM     22  C   UNL     1      -8.341   2.867  -0.602  1.00  0.00    -0.000 C 
BRANCH  22  23
ATOM     23  C   UNL     1      -8.213   3.706   0.681  1.00  0.00    -0.000 C 
BRANCH  23  24
ATOM     24  C   UNL     1      -8.917   5.071   0.578  1.00  0.00    -0.000 C 
BRANCH  24  25
ATOM     25  C   UNL     1      -9.024   5.638  -0.849  1.00  0.00    -0.003 C 
ATOM     26  C   UNL     1      -9.033   7.166  -0.887  1.00  0.00     0.004 C 
ENDBRANCH  24  25
ENDBRANCH  23  24
ENDBRANCH  22  23
ENDBRANCH  21  22
ENDBRANCH  20  21
ENDBRANCH  19  20
ENDBRANCH  18  19
ENDBRANCH  17  18
ENDBRANCH  16  17
ENDBRANCH  15  16
ENDBRANCH   1  15
TORSDOF 22
ENDMDL
MODEL 7
REMARK VINA RESULT:    -1.310      3.965     10.937
REMARK INTER + INTRA:          -4.283
REMARK INTER:                  -3.045
REMARK INTRA:                  -1.238
REMARK UNBOUND:                -1.288
REMARK SMILES CCCCCCCCCCCCCCCCCCCCCCCC(=O)[O-]
REMARK SMILES IDX 13 1 14 2 15 3 16 4 17 5 18 6 19 7 20 8 21 9 22 10 23 11
REMARK SMILES IDX 24 12 25 13 26 14 12 15 11 16 10 17 9 18 8 19 7 20 6 21 5 22
REMARK SMILES IDX 4 23 3 24 2 25 1 26
REMARK H PARENT
REMARK Flexibility Score: inf
ROOT
ATOM      1  C   UNL     1      -8.794  -3.318  -1.928  1.00  0.00     0.000 C 
ENDROOT
BRANCH   1   2
ATOM      2  C   UNL     1     -10.317  -3.410  -1.739  1.00  0.00     0.000 C 
BRANCH   2   3
ATOM      3  C   UNL     1     -11.004  -4.251  -2.829  1.00  0.00     0.000 C 
BRANCH   3   4
ATOM      4  C   UNL     1     -11.125  -3.504  -4.167  1.00  0.00     0.000 C 
BRANCH   4   5
ATOM      5  C   UNL     1     -10.905  -4.422  -5.382  1.00  0.00     0.000 C 
BRANCH   5   6
ATOM      6  C   UNL     1      -9.872  -5.529  -5.113  1.00  0.00     0.000 C 
BRANCH   6   7
ATOM      7  C   UNL     1      -9.282  -6.119  -6.405  1.00  0.00     0.000 C 
BRANCH   7   8
ATOM      8  C   UNL     1      -7.751  -5.988  -6.456  1.00  0.00     0.000 C 
BRANCH   8   9
ATOM      9  C   UNL     1      -7.052  -6.900  -5.438  1.00  0.00     0.000 C 
BRANCH   9  10
ATOM     10  C   UNL     1      -5.551  -6.592  -5.365  1.00  0.00     0.006 C 
BRANCH  10  11
ATOM     11  C   UNL     1      -5.194  -5.389  -6.243  1.00  0.00     0.053 C 
BRANCH  11  12
ATOM     12  C   UNL     1      -3.944  -4.730  -5.750  1.00  0.00     0.041 C 
ATOM     13  O   UNL     1      -2.964  -5.429  -5.377  1.00  0.00    -0.550 OA
ATOM     14  O   UNL     1      -3.873  -3.345  -5.666  1.00  0.00    -0.550 OA
ENDBRANCH  11  12
ENDBRANCH  10  11
ENDBRANCH   9  10
ENDBRANCH   8   9
ENDBRANCH   7   8
ENDBRANCH   6   7
ENDBRANCH   5   6
ENDBRANCH   4   5
ENDBRANCH   3   4
ENDBRANCH   2   3
ENDBRANCH   1   2
BRANCH   1  15
ATOM     15  C   UNL     1      -8.135  -2.192  -1.102  1.00  0.00     0.000 C 
BRANCH  15  16
ATOM     16  C   UNL     1      -7.376  -1.191  -1.991  1.00  0.00     0.000 C 
BRANCH  16  17
ATOM     17  C   UNL     1      -6.964   0.083  -1.225  1.00  0.00     0.000 C 
BRANCH  17  18
ATOM     18  C   UNL     1      -8.154   0.959  -0.797  1.00  0.00    -0.000 C 
BRANCH  18  19
ATOM     19  C   UNL     1      -7.715   2.252  -0.091  1.00  0.00    -0.000 C 
BRANCH  19  20
ATOM     20  C   UNL     1      -8.791   3.351  -0.136  1.00  0.00    -0.000 C 
BRANCH  20  21
ATOM     21  C   UNL     1      -8.691   4.411   0.979  1.00  0.00    -0.000 C 
BRANCH  21  22
ATOM     22  C   UNL     1      -8.867   5.860   0.479  1.00  0.00    -0.000 C 
BRANCH  22  23
ATOM     23  C   UNL     1      -8.926   5.944  -1.056  1.00  0.00    -0.000 C 
BRANCH  23  24
ATOM     24  C   UNL     1      -9.533   7.265  -1.561  1.00  0.00    -0.000 C 
BRANCH  24  25
ATOM     25  C   UNL     1      -8.712   8.525  -1.229  1.00  0.00    -0.003 C 
ATOM     26  C   UNL     1      -9.349   9.384  -0.138  1.00  0.00     0.004 C 
ENDBRANCH  24  25
ENDBRANCH  23  24
ENDBRANCH  22  23
ENDBRANCH  21  22
ENDBRANCH  20  21
ENDBRANCH  19  20
ENDBRANCH  18  19
ENDBRANCH  17  18
ENDBRANCH  16  17
ENDBRANCH  15  16
ENDBRANCH   1  15
TORSDOF 22
ENDMDL
MODEL 8
REMARK VINA RESULT:    -0.894      3.038      5.139
REMARK INTER + INTRA:          -3.332
REMARK INTER:                  -1.821
REMARK INTRA:                  -1.511
REMARK UNBOUND:                -1.288
REMARK SMILES CCCCCCCCCCCCCCCCCCCCCCCC(=O)[O-]
REMARK SMILES IDX 13 1 14 2 15 3 16 4 17 5 18 6 19 7 20 8 21 9 22 10 23 11
REMARK SMILES IDX 24 12 25 13 26 14 12 15 11 16 10 17 9 18 8 19 7 20 6 21 5 22
REMARK SMILES IDX 4 23 3 24 2 25 1 26
REMARK H PARENT
REMARK Flexibility Score: inf
ROOT
ATOM      1  C   UNL     1     -10.836  -4.508  -6.756  1.00  0.00     0.000 C 
ENDROOT
BRANCH   1   2
ATOM      2  C   UNL     1     -11.061  -6.027  -6.684  1.00  0.00     0.000 C 
BRANCH   2   3
ATOM      3  C   UNL     1     -10.448  -6.662  -5.424  1.00  0.00     0.000 C 
BRANCH   3   4
ATOM      4  C   UNL     1     -11.125  -6.183  -4.129  1.00  0.00     0.000 C 
BRANCH   4   5
ATOM      5  C   UNL     1     -10.902  -4.684  -3.862  1.00  0.00     0.000 C 
BRANCH   5   6
ATOM      6  C   UNL     1      -9.413  -4.307  -3.792  1.00  0.00     0.000 C 
BRANCH   6   7
ATOM      7  C   UNL     1      -8.732  -4.811  -2.509  1.00  0.00     0.000 C 
BRANCH   7   8
ATOM      8  C   UNL     1      -9.321  -4.162  -1.246  1.00  0.00     0.000 C 
BRANCH   8   9
ATOM      9  C   UNL     1      -9.543  -2.652  -1.414  1.00  0.00     0.000 C 
BRANCH   9  10
ATOM     10  C   UNL     1      -8.207  -1.900  -1.452  1.00  0.00     0.006 C 
BRANCH  10  11
ATOM     11  C   UNL     1      -8.191  -0.756  -0.434  1.00  0.00     0.053 C 
BRANCH  11  12
ATOM     12  C   UNL     1      -7.460   0.429  -0.984  1.00  0.00     0.041 C 
ATOM     13  O   UNL     1      -7.846   1.596  -0.708  1.00  0.00    -0.550 OA
ATOM     14  O   UNL     1      -6.375   0.245  -1.832  1.00  0.00    -0.550 OA
ENDBRANCH  11  12
ENDBRANCH  10  11
ENDBRANCH   9  10
ENDBRANCH   8   9
ENDBRANCH   7   8
ENDBRANCH   6   7
ENDBRANCH   5   6
ENDBRANCH   4   5
ENDBRANCH   3   4
ENDBRANCH   2   3
ENDBRANCH   1   2
BRANCH   1  15
ATOM     15  C   UNL     1     -10.734  -3.964  -8.198  1.00  0.00     0.000 C 
BRANCH  15  16
ATOM     16  C   UNL     1     -10.943  -5.070  -9.249  1.00  0.00     0.000 C 
BRANCH  16  17
ATOM     17  C   UNL     1      -9.657  -5.379 -10.043  1.00  0.00     0.000 C 
BRANCH  17  18
ATOM     18  C   UNL     1      -8.457  -4.504  -9.641  1.00  0.00    -0.000 C 
BRANCH  18  19
ATOM     19  C   UNL     1      -7.305  -5.320  -9.035  1.00  0.00    -0.000 C 
BRANCH  19  20
ATOM     20  C   UNL     1      -7.770  -6.665  -8.449  1.00  0.00    -0.000 C 
BRANCH  20  21
ATOM     21  C   UNL     1      -7.743  -6.752  -6.910  1.00  0.00    -0.000 C 
BRANCH  21  22
ATOM     22  C   UNL     1      -7.004  -5.580  -6.232  1.00  0.00    -0.000 C 
BRANCH  22  23
ATOM     23  C   UNL     1      -5.521  -5.899  -5.971  1.00  0.00    -0.000 C 
BRANCH  23  24
ATOM     24  C   UNL     1      -4.583  -4.740  -6.353  1.00  0.00    -0.000 C 
BRANCH  24  25
ATOM     25  C   UNL     1      -3.635  -4.278  -5.232  1.00  0.00    -0.003 C 
ATOM     26  C   UNL     1      -2.159  -4.462  -5.583  1.00  0.00     0.004 C 
ENDBRANCH  24  25
ENDBRANCH  23  24
ENDBRANCH  22  23
ENDBRANCH  21  22
ENDBRANCH  20  21
ENDBRANCH  19  20
ENDBRANCH  18  19
ENDBRANCH  17  18
ENDBRANCH  16  17
ENDBRANCH  15  16
ENDBRANCH   1  15
TORSDOF 22
ENDMDL
