MODEL 1
REMARK VINA RESULT:    -3.589      0.000      0.000
REMARK INTER + INTRA:          -7.654
REMARK INTER:                  -6.107
REMARK INTRA:                  -1.547
REMARK UNBOUND:                -1.547
REMARK SMILES CCCCCCCCCCCCCC(=O)[O-]
REMARK SMILES IDX 8 1 9 2 10 3 11 4 12 5 13 6 14 7 15 8 16 9 7 10 6 11 5 12
REMARK SMILES IDX 4 13 3 14 2 15 1 16
REMARK H PARENT
REMARK Flexibility Score: inf
ROOT
ATOM      1  C   UNL     1      -5.976   1.913  -0.878  1.00  0.00     0.000 C 
ENDROOT
BRANCH   1   2
ATOM      2  C   UNL     1      -5.846   3.396  -1.267  1.00  0.00     0.000 C 
BRANCH   2   3
ATOM      3  C   UNL     1      -4.570   4.049  -0.719  1.00  0.00     0.000 C 
BRANCH   3   4
ATOM      4  C   UNL     1      -3.621   2.998  -0.131  1.00  0.00     0.000 C 
BRANCH   4   5
ATOM      5  C   UNL     1      -3.280   3.322   1.329  1.00  0.00     0.006 C 
BRANCH   5   6
ATOM      6  C   UNL     1      -4.539   3.319   2.201  1.00  0.00     0.053 C 
BRANCH   6   7
ATOM      7  C   UNL     1      -4.630   4.584   2.993  1.00  0.00     0.041 C 
ATOM      8  O   UNL     1      -4.061   4.673   4.113  1.00  0.00    -0.550 OA
ATOM      9  O   UNL     1      -5.385   5.649   2.519  1.00  0.00    -0.550 OA
ENDBRANCH   6   7
ENDBRANCH   5   6
ENDBRANCH   4   5
ENDBRANCH   3   4
ENDBRANCH   2   3
ENDBRANCH   1   2
BRANCH   1  10
ATOM     10  C   UNL     1      -7.054   1.649   0.194  1.00  0.00     0.000 C 
BRANCH  10  11
ATOM     11  C   UNL     1      -6.690   0.462   1.103  1.00  0.00    -0.000 C 
BRANCH  11  12
ATOM     12  C   UNL     1      -5.296  -0.110   0.796  1.00  0.00    -0.000 C 
BRANCH  12  13
ATOM     13  C   UNL     1      -5.298  -1.644   0.712  1.00  0.00    -0.000 C 
BRANCH  13  14
ATOM     14  C   UNL     1      -6.725  -2.197   0.802  1.00  0.00    -0.000 C 
BRANCH  14  15
ATOM     15  C   UNL     1      -7.160  -2.815  -0.533  1.00  0.00    -0.003 C 
ATOM     16  C   UNL     1      -8.490  -2.232  -1.002  1.00  0.00     0.004 C 
ENDBRANCH  14  15
ENDBRANCH  13  14
ENDBRANCH  12  13
ENDBRANCH  11  12
ENDBRANCH  10  11
ENDBRANCH   1  10
TORSDOF 12
ENDMDL
MODEL 2
REMARK VINA RESULT:    -3.547      1.579      3.153
REMARK INTER + INTRA:          -7.583
REMARK INTER:                  -6.107
REMARK INTRA:                  -1.476
REMARK UNBOUND:                -1.547
REMARK SMILES CCCCCCCCCCCCCC(=O)[O-]
REMARK SMILES IDX 8 1 9 2 10 3 11 4 12 5 13 6 14 7 15 8 16 9 7 10 6 11 5 12
REMARK SMILES IDX 4 13 3 14 2 15 1 16
REMARK H PARENT
REMARK Flexibility Score: inf
ROOT
ATOM      1  C   UNL     1      -4.146   4.483   0.259  1.00  0.00     0.000 C 
ENDROOT
BRANCH   1   2
ATOM      2  C   UNL     1      -3.412   3.480   1.166  1.00  0.00     0.000 C 
BRANCH   2   3
ATOM      3  C   UNL     1      -3.744   3.661   2.653  1.00  0.00     0.000 C 
BRANCH   3   4
ATOM      4  C   UNL     1      -5.218   3.343   2.931  1.00  0.00     0.000 C 
BRANCH   4   5
ATOM      5  C   UNL     1      -5.876   4.460   3.751  1.00  0.00     0.006 C 
BRANCH   5   6
ATOM      6  C   UNL     1      -4.821   5.329   4.441  1.00  0.00     0.053 C 
BRANCH   6   7
ATOM      7  C   UNL     1      -4.900   5.169   5.926  1.00  0.00     0.041 C 
ATOM      8  O   UNL     1      -3.909   5.455   6.648  1.00  0.00    -0.550 OA
ATOM      9  O   UNL     1      -6.052   4.658   6.510  1.00  0.00    -0.550 OA
ENDBRANCH   6   7
ENDBRANCH   5   6
ENDBRANCH   4   5
ENDBRANCH   3   4
ENDBRANCH   2   3
ENDBRANCH   1   2
BRANCH   1  10
ATOM     10  C   UNL     1      -4.832   3.828  -0.957  1.00  0.00     0.000 C 
BRANCH  10  11
ATOM     11  C   UNL     1      -5.006   2.309  -0.775  1.00  0.00    -0.000 C 
BRANCH  11  12
ATOM     12  C   UNL     1      -6.462   1.913  -0.480  1.00  0.00    -0.000 C 
BRANCH  12  13
ATOM     13  C   UNL     1      -6.561   0.696   0.452  1.00  0.00    -0.000 C 
BRANCH  13  14
ATOM     14  C   UNL     1      -5.175   0.097   0.721  1.00  0.00    -0.000 C 
BRANCH  14  15
ATOM     15  C   UNL     1      -5.234  -1.435   0.739  1.00  0.00    -0.003 C 
ATOM     16  C   UNL     1      -6.603  -1.939   0.288  1.00  0.00     0.004 C 
ENDBRANCH  14  15
ENDBRANCH  13  14
ENDBRANCH  12  13
ENDBRANCH  11  12
ENDBRANCH  10  11
ENDBRANCH   1  10
TORSDOF 12
ENDMDL
MODEL 3
REMARK VINA RESULT:    -3.547      2.685      4.087
REMARK INTER + INTRA:          -7.583
REMARK INTER:                  -5.895
REMARK INTRA:                  -1.688
REMARK UNBOUND:                -1.547
REMARK SMILES CCCCCCCCCCCCCC(=O)[O-]
REMARK SMILES IDX 8 1 9 2 10 3 11 4 12 5 13 6 14 7 15 8 16 9 7 10 6 11 5 12
REMARK SMILES IDX 4 13 3 14 2 15 1 16
REMARK H PARENT
REMARK Flexibility Score: inf
ROOT
ATOM      1  C   UNL     1      -4.320   3.610   2.759  1.00  0.00     0.000 C 
ENDROOT
BRANCH   1   2
ATOM      2  C   UNL     1      -3.623   4.048   1.459  1.00  0.00     0.000 C 
BRANCH   2   3
ATOM      3  C   UNL     1      -3.036   2.871   0.668  1.00  0.00     0.000 C 
BRANCH   3   4
ATOM      4  C   UNL     1      -3.456   2.932  -0.805  1.00  0.00     0.000 C 
BRANCH   4   5
ATOM      5  C   UNL     1      -4.255   4.209  -1.096  1.00  0.00     0.006 C 
BRANCH   5   6
ATOM      6  C   UNL     1      -4.467   4.394  -2.601  1.00  0.00     0.053 C 
BRANCH   6   7
ATOM      7  C   UNL     1      -3.236   4.951  -3.239  1.00  0.00     0.041 C 
ATOM      8  O   UNL     1      -2.811   6.090  -2.909  1.00  0.00    -0.550 OA
ATOM      9  O   UNL     1      -2.584   4.237  -4.236  1.00  0.00    -0.550 OA
ENDBRANCH   6   7
ENDBRANCH   5   6
ENDBRANCH   4   5
ENDBRANCH   3   4
ENDBRANCH   2   3
ENDBRANCH   1   2
BRANCH   1  10
ATOM     10  C   UNL     1      -5.854   3.507   2.631  1.00  0.00     0.000 C 
BRANCH  10  11
ATOM     11  C   UNL     1      -6.307   2.098   2.207  1.00  0.00    -0.000 C 
BRANCH  11  12
ATOM     12  C   UNL     1      -6.810   2.052   0.756  1.00  0.00    -0.000 C 
BRANCH  12  13
ATOM     13  C   UNL     1      -6.310   0.810   0.001  1.00  0.00    -0.000 C 
BRANCH  13  14
ATOM     14  C   UNL     1      -5.203   0.099   0.788  1.00  0.00    -0.000 C 
BRANCH  14  15
ATOM     15  C   UNL     1      -5.415  -1.420   0.783  1.00  0.00    -0.003 C 
ATOM     16  C   UNL     1      -6.794  -1.782   0.237  1.00  0.00     0.004 C 
ENDBRANCH  14  15
ENDBRANCH  13  14
ENDBRANCH  12  13
ENDBRANCH  11  12
ENDBRANCH  10  11
ENDBRANCH   1  10
TORSDOF 12
ENDMDL
MODEL 4
REMARK VINA RESULT:    -3.505      3.091      5.800
REMARK INTER + INTRA:          -7.511
REMARK INTER:                  -5.809
REMARK INTRA:                  -1.702
REMARK UNBOUND:                -1.547
REMARK SMILES CCCCCCCCCCCCCC(=O)[O-]
REMARK SMILES IDX 8 1 9 2 10 3 11 4 12 5 13 6 14 7 15 8 16 9 7 10 6 11 5 12
REMARK SMILES IDX 4 13 3 14 2 15 1 16
REMARK H PARENT
REMARK Flexibility Score: inf
ROOT
ATOM      1  C   UNL     1      -6.888   3.174  -0.293  1.00  0.00     0.000 C 
ENDROOT
BRANCH   1   2
ATOM      2  C   UNL     1      -7.325   1.799   0.240  1.00  0.00     0.000 C 
BRANCH   2   3
ATOM      3  C   UNL     1      -6.410   0.658  -0.225  1.00  0.00     0.000 C 
BRANCH   3   4
ATOM      4  C   UNL     1      -5.490   0.192   0.909  1.00  0.00     0.000 C 
BRANCH   4   5
ATOM      5  C   UNL     1      -5.333  -1.333   0.899  1.00  0.00     0.006 C 
BRANCH   5   6
ATOM      6  C   UNL     1      -6.631  -2.016   0.458  1.00  0.00     0.053 C 
BRANCH   6   7
ATOM      7  C   UNL     1      -7.438  -2.425   1.649  1.00  0.00     0.041 C 
ATOM      8  O   UNL     1      -7.732  -3.637   1.830  1.00  0.00    -0.550 OA
ATOM      9  O   UNL     1      -7.911  -1.464   2.533  1.00  0.00    -0.550 OA
ENDBRANCH   6   7
ENDBRANCH   5   6
ENDBRANCH   4   5
ENDBRANCH   3   4
ENDBRANCH   2   3
ENDBRANCH   1   2
BRANCH   1  10
ATOM     10  C   UNL     1      -5.893   3.091  -1.469  1.00  0.00     0.000 C 
BRANCH  10  11
ATOM     11  C   UNL     1      -4.569   3.813  -1.159  1.00  0.00    -0.000 C 
BRANCH  11  12
ATOM     12  C   UNL     1      -3.435   2.839  -0.804  1.00  0.00    -0.000 C 
BRANCH  12  13
ATOM     13  C   UNL     1      -3.167   2.778   0.708  1.00  0.00    -0.000 C 
BRANCH  13  14
ATOM     14  C   UNL     1      -3.661   4.051   1.404  1.00  0.00    -0.000 C 
BRANCH  14  15
ATOM     15  C   UNL     1      -4.034   3.768   2.864  1.00  0.00    -0.003 C 
ATOM     16  C   UNL     1      -5.497   3.349   2.987  1.00  0.00     0.004 C 
ENDBRANCH  14  15
ENDBRANCH  13  14
ENDBRANCH  12  13
ENDBRANCH  11  12
ENDBRANCH  10  11
ENDBRANCH   1  10
TORSDOF 12
ENDMDL
MODEL 5
REMARK VINA RESULT:    -3.486      2.986      5.795
REMARK INTER + INTRA:          -7.478
REMARK INTER:                  -5.742
REMARK INTRA:                  -1.736
REMARK UNBOUND:                -1.547
REMARK SMILES CCCCCCCCCCCCCC(=O)[O-]
REMARK SMILES IDX 8 1 9 2 10 3 11 4 12 5 13 6 14 7 15 8 16 9 7 10 6 11 5 12
REMARK SMILES IDX 4 13 3 14 2 15 1 16
REMARK H PARENT
REMARK Flexibility Score: inf
ROOT
ATOM      1  C   UNL     1      -5.811   2.297  -0.850  1.00  0.00     0.000 C 
ENDROOT
BRANCH   1   2
ATOM      2  C   UNL     1      -6.259   1.116   0.029  1.00  0.00     0.000 C 
BRANCH   2   3
ATOM      3  C   UNL     1      -5.089   0.418   0.737  1.00  0.00     0.000 C 
BRANCH   3   4
ATOM      4  C   UNL     1      -5.198  -1.105   0.610  1.00  0.00     0.000 C 
BRANCH   4   5
ATOM      5  C   UNL     1      -6.663  -1.544   0.496  1.00  0.00     0.006 C 
BRANCH   5   6
ATOM      6  C   UNL     1      -7.090  -2.358   1.721  1.00  0.00     0.053 C 
BRANCH   6   7
ATOM      7  C   UNL     1      -8.199  -1.666   2.448  1.00  0.00     0.041 C 
ATOM      8  O   UNL     1      -8.283  -0.409   2.429  1.00  0.00    -0.550 OA
ATOM      9  O   UNL     1      -9.112  -2.405   3.189  1.00  0.00    -0.550 OA
ENDBRANCH   6   7
ENDBRANCH   5   6
ENDBRANCH   4   5
ENDBRANCH   3   4
ENDBRANCH   2   3
ENDBRANCH   1   2
BRANCH   1  10
ATOM     10  C   UNL     1      -4.317   2.648  -0.695  1.00  0.00     0.000 C 
BRANCH  10  11
ATOM     11  C   UNL     1      -4.074   4.168  -0.718  1.00  0.00    -0.000 C 
BRANCH  11  12
ATOM     12  C   UNL     1      -3.792   4.742   0.680  1.00  0.00    -0.000 C 
BRANCH  12  13
ATOM     13  C   UNL     1      -3.401   3.654   1.693  1.00  0.00    -0.000 C 
BRANCH  13  14
ATOM     14  C   UNL     1      -4.290   3.723   2.940  1.00  0.00    -0.000 C 
BRANCH  14  15
ATOM     15  C   UNL     1      -5.762   3.912   2.556  1.00  0.00    -0.003 C 
ATOM     16  C   UNL     1      -6.654   2.907   3.279  1.00  0.00     0.004 C 
ENDBRANCH  14  15
ENDBRANCH  13  14
ENDBRANCH  12  13
ENDBRANCH  11  12
ENDBRANCH  10  11
ENDBRANCH   1  10
TORSDOF 12
ENDMDL
MODEL 6
REMARK VINA RESULT:    -3.453      4.093      6.890
REMARK INTER + INTRA:          -7.422
REMARK INTER:                  -6.069
REMARK INTRA:                  -1.352
REMARK UNBOUND:                -1.547
REMARK SMILES CCCCCCCCCCCCCC(=O)[O-]
REMARK SMILES IDX 8 1 9 2 10 3 11 4 12 5 13 6 14 7 15 8 16 9 7 10 6 11 5 12
REMARK SMILES IDX 4 13 3 14 2 15 1 16
REMARK H PARENT
REMARK Flexibility Score: inf
ROOT
ATOM      1  C   UNL     1      -5.848   1.437  -0.181  1.00  0.00     0.000 C 
ENDROOT
BRANCH   1   2
ATOM      2  C   UNL     1      -5.187   0.244   0.530  1.00  0.00     0.000 C 
BRANCH   2   3
ATOM      3  C   UNL     1      -6.166  -0.903   0.813  1.00  0.00     0.000 C 
BRANCH   3   4
ATOM      4  C   UNL     1      -7.548  -0.608   0.218  1.00  0.00     0.000 C 
BRANCH   4   5
ATOM      5  C   UNL     1      -8.059  -1.799  -0.601  1.00  0.00     0.006 C 
BRANCH   5   6
ATOM      6  C   UNL     1      -7.064  -2.963  -0.559  1.00  0.00     0.053 C 
BRANCH   6   7
ATOM      7  C   UNL     1      -7.109  -3.737  -1.837  1.00  0.00     0.041 C 
ATOM      8  O   UNL     1      -8.134  -3.695  -2.568  1.00  0.00    -0.550 OA
ATOM      9  O   UNL     1      -6.041  -4.548  -2.198  1.00  0.00    -0.550 OA
ENDBRANCH   6   7
ENDBRANCH   5   6
ENDBRANCH   4   5
ENDBRANCH   3   4
ENDBRANCH   2   3
ENDBRANCH   1   2
BRANCH   1  10
ATOM     10  C   UNL     1      -4.873   2.594  -0.480  1.00  0.00     0.000 C 
BRANCH  10  11
ATOM     11  C   UNL     1      -3.432   2.262  -0.054  1.00  0.00    -0.000 C 
BRANCH  11  12
ATOM     12  C   UNL     1      -3.011   2.996   1.229  1.00  0.00    -0.000 C 
BRANCH  12  13
ATOM     13  C   UNL     1      -3.909   4.206   1.534  1.00  0.00    -0.000 C 
BRANCH  13  14
ATOM     14  C   UNL     1      -4.581   4.058   2.904  1.00  0.00    -0.000 C 
BRANCH  14  15
ATOM     15  C   UNL     1      -6.107   3.999   2.763  1.00  0.00    -0.003 C 
ATOM     16  C   UNL     1      -6.647   2.640   3.198  1.00  0.00     0.004 C 
ENDBRANCH  14  15
ENDBRANCH  13  14
ENDBRANCH  12  13
ENDBRANCH  11  12
ENDBRANCH  10  11
ENDBRANCH   1  10
TORSDOF 12
ENDMDL
MODEL 7
REMARK VINA RESULT:    -3.437      1.140      2.371
REMARK INTER + INTRA:          -7.394
REMARK INTER:                  -6.003
REMARK INTRA:                  -1.392
REMARK UNBOUND:                -1.547
REMARK SMILES CCCCCCCCCCCCCC(=O)[O-]
REMARK SMILES IDX 8 1 9 2 10 3 11 4 12 5 13 6 14 7 15 8 16 9 7 10 6 11 5 12
REMARK SMILES IDX 4 13 3 14 2 15 1 16
REMARK H PARENT
REMARK Flexibility Score: inf
ROOT
ATOM      1  C   UNL     1      -6.294   0.720   1.015  1.00  0.00     0.000 C 
ENDROOT
BRANCH   1   2
ATOM      2  C   UNL     1      -7.044   1.160  -0.254  1.00  0.00     0.000 C 
BRANCH   2   3
ATOM      3  C   UNL     1      -6.261   2.181  -1.090  1.00  0.00     0.000 C 
BRANCH   3   4
ATOM      4  C   UNL     1      -5.561   3.208  -0.192  1.00  0.00     0.000 C 
BRANCH   4   5
ATOM      5  C   UNL     1      -4.063   3.284  -0.509  1.00  0.00     0.006 C 
BRANCH   5   6
ATOM      6  C   UNL     1      -3.222   2.947   0.726  1.00  0.00     0.053 C 
BRANCH   6   7
ATOM      7  C   UNL     1      -3.323   4.038   1.742  1.00  0.00     0.041 C 
ATOM      8  O   UNL     1      -3.111   5.235   1.411  1.00  0.00    -0.550 OA
ATOM      9  O   UNL     1      -3.601   3.731   3.068  1.00  0.00    -0.550 OA
ENDBRANCH   6   7
ENDBRANCH   5   6
ENDBRANCH   4   5
ENDBRANCH   3   4
ENDBRANCH   2   3
ENDBRANCH   1   2
BRANCH   1  10
ATOM     10  C   UNL     1      -5.109  -0.226   0.733  1.00  0.00     0.000 C 
BRANCH  10  11
ATOM     11  C   UNL     1      -5.570  -1.673   0.484  1.00  0.00    -0.000 C 
BRANCH  11  12
ATOM     12  C   UNL     1      -6.496  -2.197   1.593  1.00  0.00    -0.000 C 
BRANCH  12  13
ATOM     13  C   UNL     1      -7.765  -2.858   1.033  1.00  0.00    -0.000 C 
BRANCH  13  14
ATOM     14  C   UNL     1      -7.976  -2.482  -0.438  1.00  0.00    -0.000 C 
BRANCH  14  15
ATOM     15  C   UNL     1      -9.313  -1.758  -0.634  1.00  0.00    -0.003 C 
ATOM     16  C   UNL     1      -9.591  -1.505  -2.113  1.00  0.00     0.004 C 
ENDBRANCH  14  15
ENDBRANCH  13  14
ENDBRANCH  12  13
ENDBRANCH  11  12
ENDBRANCH  10  11
ENDBRANCH   1  10
TORSDOF 12
ENDMDL
MODEL 8
REMARK VINA RESULT:    -3.424      3.410      5.327
REMARK INTER + INTRA:          -7.372
REMARK INTER:                  -5.312
REMARK INTRA:                  -2.060
REMARK UNBOUND:                -1.547
REMARK SMILES CCCCCCCCCCCCCC(=O)[O-]
REMARK SMILES IDX 8 1 9 2 10 3 11 4 12 5 13 6 14 7 15 8 16 9 7 10 6 11 5 12
REMARK SMILES IDX 4 13 3 14 2 15 1 16
REMARK H PARENT
REMARK Flexibility Score: inf
ROOT
ATOM      1  C   UNL     1      -6.014   1.386  -0.027  1.00  0.00     0.000 C 
ENDROOT
BRANCH   1   2
ATOM      2  C   UNL     1      -6.097   2.439  -1.147  1.00  0.00     0.000 C 
BRANCH   2   3
ATOM      3  C   UNL     1      -6.879   3.693  -0.734  1.00  0.00     0.000 C 
BRANCH   3   4
ATOM      4  C   UNL     1      -6.221   4.961  -1.290  1.00  0.00     0.000 C 
BRANCH   4   5
ATOM      5  C   UNL     1      -5.220   4.619  -2.401  1.00  0.00     0.006 C 
BRANCH   5   6
ATOM      6  C   UNL     1      -3.863   5.278  -2.140  1.00  0.00     0.053 C 
BRANCH   6   7
ATOM      7  C   UNL     1      -2.981   5.155  -3.342  1.00  0.00     0.041 C 
ATOM      8  O   UNL     1      -2.380   4.074  -3.579  1.00  0.00    -0.550 OA
ATOM      9  O   UNL     1      -2.782   6.249  -4.174  1.00  0.00    -0.550 OA
ENDBRANCH   6   7
ENDBRANCH   5   6
ENDBRANCH   4   5
ENDBRANCH   3   4
ENDBRANCH   2   3
ENDBRANCH   1   2
BRANCH   1  10
ATOM     10  C   UNL     1      -4.577   1.124   0.467  1.00  0.00     0.000 C 
BRANCH  10  11
ATOM     11  C   UNL     1      -3.594   2.210  -0.005  1.00  0.00    -0.000 C 
BRANCH  11  12
ATOM     12  C   UNL     1      -3.030   3.042   1.158  1.00  0.00    -0.000 C 
BRANCH  12  13
ATOM     13  C   UNL     1      -4.003   4.138   1.621  1.00  0.00    -0.000 C 
BRANCH  13  14
ATOM     14  C   UNL     1      -4.413   3.925   3.084  1.00  0.00    -0.000 C 
BRANCH  14  15
ATOM     15  C   UNL     1      -5.821   3.325   3.177  1.00  0.00    -0.003 C 
ATOM     16  C   UNL     1      -6.889   4.388   2.934  1.00  0.00     0.004 C 
ENDBRANCH  14  15
ENDBRANCH  13  14
ENDBRANCH  12  13
ENDBRANCH  11  12
ENDBRANCH  10  11
ENDBRANCH   1  10
TORSDOF 12
ENDMDL
MODEL 9
REMARK VINA RESULT:    -3.358      3.015      6.213
REMARK INTER + INTRA:          -7.261
REMARK INTER:                  -5.493
REMARK INTRA:                  -1.768
REMARK UNBOUND:                -1.547
REMARK SMILES CCCCCCCCCCCCCC(=O)[O-]
REMARK SMILES IDX 8 1 9 2 10 3 11 4 12 5 13 6 14 7 15 8 16 9 7 10 6 11 5 12
REMARK SMILES IDX 4 13 3 14 2 15 1 16
REMARK H PARENT
REMARK Flexibility Score: inf
ROOT
ATOM      1  C   UNL     1      -6.340   0.861   1.236  1.00  0.00     0.000 C 
ENDROOT
BRANCH   1   2
ATOM      2  C   UNL     1      -5.314  -0.008   0.488  1.00  0.00     0.000 C 
BRANCH   2   3
ATOM      3  C   UNL     1      -5.234  -1.441   1.031  1.00  0.00     0.000 C 
BRANCH   3   4
ATOM      4  C   UNL     1      -6.627  -2.075   1.124  1.00  0.00     0.000 C 
BRANCH   4   5
ATOM      5  C   UNL     1      -7.136  -2.487  -0.263  1.00  0.00     0.006 C 
BRANCH   5   6
ATOM      6  C   UNL     1      -8.666  -2.545  -0.292  1.00  0.00     0.053 C 
BRANCH   6   7
ATOM      7  C   UNL     1      -9.241  -1.165  -0.321  1.00  0.00     0.041 C 
ATOM      8  O   UNL     1      -9.802  -0.690   0.703  1.00  0.00    -0.550 OA
ATOM      9  O   UNL     1      -9.205  -0.420  -1.492  1.00  0.00    -0.550 OA
ENDBRANCH   6   7
ENDBRANCH   5   6
ENDBRANCH   4   5
ENDBRANCH   3   4
ENDBRANCH   2   3
ENDBRANCH   1   2
BRANCH   1  10
ATOM     10  C   UNL     1      -7.163   1.778   0.308  1.00  0.00     0.000 C 
BRANCH  10  11
ATOM     11  C   UNL     1      -6.433   2.072  -1.014  1.00  0.00    -0.000 C 
BRANCH  11  12
ATOM     12  C   UNL     1      -6.213   3.575  -1.245  1.00  0.00    -0.000 C 
BRANCH  12  13
ATOM     13  C   UNL     1      -4.851   4.057  -0.721  1.00  0.00    -0.000 C 
BRANCH  13  14
ATOM     14  C   UNL     1      -3.765   3.003  -0.968  1.00  0.00    -0.000 C 
BRANCH  14  15
ATOM     15  C   UNL     1      -3.012   2.676   0.327  1.00  0.00    -0.003 C 
ATOM     16  C   UNL     1      -3.505   3.542   1.483  1.00  0.00     0.004 C 
ENDBRANCH  14  15
ENDBRANCH  13  14
ENDBRANCH  12  13
ENDBRANCH  11  12
ENDBRANCH  10  11
ENDBRANCH   1  10
TORSDOF 12
ENDMDL
