MODEL 1
REMARK VINA RESULT:    -3.884      0.000      0.000
REMARK INTER + INTRA:          -9.201
REMARK INTER:                  -7.064
REMARK INTRA:                  -2.138
REMARK UNBOUND:                -2.138
REMARK SMILES CCCCCCCCCCCCCCCC(=O)[O-]
REMARK SMILES IDX 9 1 10 2 11 3 12 4 13 5 14 6 15 7 16 8 17 9 18 10 8 11 7 12
REMARK SMILES IDX 6 13 5 14 4 15 3 16 2 17 1 18
REMARK H PARENT
REMARK Flexibility Score: inf
ROOT
ATOM      1  C   UNL     1      24.643   1.048  -1.060  1.00  0.00     0.000 C 
ENDROOT
BRANCH   1   2
ATOM      2  C   UNL     1      24.478   0.649   0.417  1.00  0.00     0.000 C 
BRANCH   2   3
ATOM      3  C   UNL     1      23.058   0.912   0.950  1.00  0.00     0.000 C 
BRANCH   3   4
ATOM      4  C   UNL     1      22.643   0.057   2.164  1.00  0.00     0.000 C 
BRANCH   4   5
ATOM      5  C   UNL     1      22.164  -1.367   1.827  1.00  0.00     0.000 C 
BRANCH   5   6
ATOM      6  C   UNL     1      22.834  -2.443   2.693  1.00  0.00     0.006 C 
BRANCH   6   7
ATOM      7  C   UNL     1      24.342  -2.197   2.804  1.00  0.00     0.053 C 
BRANCH   7   8
ATOM      8  C   UNL     1      24.820  -2.486   4.192  1.00  0.00     0.041 C 
ATOM      9  O   UNL     1      24.062  -2.286   5.178  1.00  0.00    -0.550 OA
ATOM     10  O   UNL     1      26.119  -2.930   4.402  1.00  0.00    -0.550 OA
ENDBRANCH   7   8
ENDBRANCH   6   7
ENDBRANCH   5   6
ENDBRANCH   4   5
ENDBRANCH   3   4
ENDBRANCH   2   3
ENDBRANCH   1   2
BRANCH   1  11
ATOM     11  C   UNL     1      25.701   2.147  -1.257  1.00  0.00     0.000 C 
BRANCH  11  12
ATOM     12  C   UNL     1      25.136   3.557  -1.013  1.00  0.00    -0.000 C 
BRANCH  12  13
ATOM     13  C   UNL     1      25.673   4.205   0.277  1.00  0.00    -0.000 C 
BRANCH  13  14
ATOM     14  C   UNL     1      26.814   3.440   0.973  1.00  0.00    -0.000 C 
BRANCH  14  15
ATOM     15  C   UNL     1      26.575   3.247   2.480  1.00  0.00    -0.000 C 
BRANCH  15  16
ATOM     16  C   UNL     1      25.114   3.501   2.893  1.00  0.00    -0.000 C 
BRANCH  16  17
ATOM     17  C   UNL     1      24.580   2.584   4.007  1.00  0.00    -0.003 C 
ATOM     18  C   UNL     1      25.485   1.382   4.280  1.00  0.00     0.004 C 
ENDBRANCH  16  17
ENDBRANCH  15  16
ENDBRANCH  14  15
ENDBRANCH  13  14
ENDBRANCH  12  13
ENDBRANCH  11  12
ENDBRANCH   1  11
TORSDOF 14
ENDMDL
MODEL 2
REMARK VINA RESULT:    -3.877      1.516      3.951
REMARK INTER + INTRA:          -9.188
REMARK INTER:                  -7.826
REMARK INTRA:                  -1.362
REMARK UNBOUND:                -2.138
REMARK SMILES CCCCCCCCCCCCCCCC(=O)[O-]
REMARK SMILES IDX 9 1 10 2 11 3 12 4 13 5 14 6 15 7 16 8 17 9 18 10 8 11 7 12
REMARK SMILES IDX 6 13 5 14 4 15 3 16 2 17 1 18
REMARK H PARENT
REMARK Flexibility Score: inf
ROOT
ATOM      1  C   UNL     1      27.492   3.708   2.587  1.00  0.00     0.000 C 
ENDROOT
BRANCH   1   2
ATOM      2  C   UNL     1      26.218   3.336   3.366  1.00  0.00     0.000 C 
BRANCH   2   3
ATOM      3  C   UNL     1      26.515   2.529   4.642  1.00  0.00     0.000 C 
BRANCH   3   4
ATOM      4  C   UNL     1      25.808   1.161   4.734  1.00  0.00     0.000 C 
BRANCH   4   5
ATOM      5  C   UNL     1      24.627   0.970   3.764  1.00  0.00     0.000 C 
BRANCH   5   6
ATOM      6  C   UNL     1      24.251  -0.505   3.565  1.00  0.00     0.006 C 
BRANCH   6   7
ATOM      7  C   UNL     1      24.783  -1.367   4.715  1.00  0.00     0.053 C 
BRANCH   7   8
ATOM      8  C   UNL     1      24.491  -2.812   4.466  1.00  0.00     0.041 C 
ATOM      9  O   UNL     1      24.199  -3.209   3.307  1.00  0.00    -0.550 OA
ATOM     10  O   UNL     1      24.493  -3.715   5.522  1.00  0.00    -0.550 OA
ENDBRANCH   7   8
ENDBRANCH   6   7
ENDBRANCH   5   6
ENDBRANCH   4   5
ENDBRANCH   3   4
ENDBRANCH   2   3
ENDBRANCH   1   2
BRANCH   1  11
ATOM     11  C   UNL     1      27.289   3.638   1.063  1.00  0.00     0.000 C 
BRANCH  11  12
ATOM     12  C   UNL     1      26.021   2.859   0.674  1.00  0.00    -0.000 C 
BRANCH  12  13
ATOM     13  C   UNL     1      26.012   2.427  -0.805  1.00  0.00    -0.000 C 
BRANCH  13  14
ATOM     14  C   UNL     1      25.069   1.258  -1.144  1.00  0.00    -0.000 C 
BRANCH  14  15
ATOM     15  C   UNL     1      24.184   0.837   0.041  1.00  0.00    -0.000 C 
BRANCH  15  16
ATOM     16  C   UNL     1      22.801   1.512   0.025  1.00  0.00    -0.000 C 
BRANCH  16  17
ATOM     17  C   UNL     1      22.367   2.083  -1.336  1.00  0.00    -0.003 C 
ATOM     18  C   UNL     1      21.091   2.920  -1.257  1.00  0.00     0.004 C 
ENDBRANCH  16  17
ENDBRANCH  15  16
ENDBRANCH  14  15
ENDBRANCH  13  14
ENDBRANCH  12  13
ENDBRANCH  11  12
ENDBRANCH   1  11
TORSDOF 14
ENDMDL
MODEL 3
REMARK VINA RESULT:    -3.872      5.387      7.377
REMARK INTER + INTRA:          -9.178
REMARK INTER:                  -7.350
REMARK INTRA:                  -1.828
REMARK UNBOUND:                -2.138
REMARK SMILES CCCCCCCCCCCCCCCC(=O)[O-]
REMARK SMILES IDX 9 1 10 2 11 3 12 4 13 5 14 6 15 7 16 8 17 9 18 10 8 11 7 12
REMARK SMILES IDX 6 13 5 14 4 15 3 16 2 17 1 18
REMARK H PARENT
REMARK Flexibility Score: inf
ROOT
ATOM      1  C   UNL     1      18.231   3.149   4.657  1.00  0.00     0.000 C 
ENDROOT
BRANCH   1   2
ATOM      2  C   UNL     1      18.724   1.739   4.288  1.00  0.00     0.000 C 
BRANCH   2   3
ATOM      3  C   UNL     1      20.070   1.755   3.543  1.00  0.00     0.000 C 
BRANCH   3   4
ATOM      4  C   UNL     1      20.118   0.910   2.253  1.00  0.00     0.000 C 
BRANCH   4   5
ATOM      5  C   UNL     1      19.223  -0.342   2.259  1.00  0.00     0.000 C 
BRANCH   5   6
ATOM      6  C   UNL     1      19.471  -1.259   1.053  1.00  0.00     0.006 C 
BRANCH   6   7
ATOM      7  C   UNL     1      19.095  -0.558  -0.256  1.00  0.00     0.053 C 
BRANCH   7   8
ATOM      8  C   UNL     1      18.248  -1.452  -1.105  1.00  0.00     0.041 C 
ATOM      9  O   UNL     1      18.759  -2.448  -1.682  1.00  0.00    -0.550 OA
ATOM     10  O   UNL     1      16.904  -1.158  -1.301  1.00  0.00    -0.550 OA
ENDBRANCH   7   8
ENDBRANCH   6   7
ENDBRANCH   5   6
ENDBRANCH   4   5
ENDBRANCH   3   4
ENDBRANCH   2   3
ENDBRANCH   1   2
BRANCH   1  11
ATOM     11  C   UNL     1      18.211   4.100   3.447  1.00  0.00     0.000 C 
BRANCH  11  12
ATOM     12  C   UNL     1      16.973   3.891   2.557  1.00  0.00    -0.000 C 
BRANCH  12  13
ATOM     13  C   UNL     1      17.276   4.067   1.057  1.00  0.00    -0.000 C 
BRANCH  13  14
ATOM     14  C   UNL     1      18.066   2.917   0.404  1.00  0.00    -0.000 C 
BRANCH  14  15
ATOM     15  C   UNL     1      18.798   3.344  -0.879  1.00  0.00    -0.000 C 
BRANCH  15  16
ATOM     16  C   UNL     1      20.283   3.671  -0.641  1.00  0.00    -0.000 C 
BRANCH  16  17
ATOM     17  C   UNL     1      21.275   2.870  -1.503  1.00  0.00    -0.003 C 
ATOM     18  C   UNL     1      22.049   1.818  -0.708  1.00  0.00     0.004 C 
ENDBRANCH  16  17
ENDBRANCH  15  16
ENDBRANCH  14  15
ENDBRANCH  13  14
ENDBRANCH  12  13
ENDBRANCH  11  12
ENDBRANCH   1  11
TORSDOF 14
ENDMDL
MODEL 4
REMARK VINA RESULT:    -3.794      3.318      6.733
REMARK INTER + INTRA:          -9.037
REMARK INTER:                  -7.398
REMARK INTRA:                  -1.639
REMARK UNBOUND:                -2.138
REMARK SMILES CCCCCCCCCCCCCCCC(=O)[O-]
REMARK SMILES IDX 9 1 10 2 11 3 12 4 13 5 14 6 15 7 16 8 17 9 18 10 8 11 7 12
REMARK SMILES IDX 6 13 5 14 4 15 3 16 2 17 1 18
REMARK H PARENT
REMARK Flexibility Score: inf
ROOT
ATOM      1  C   UNL     1      19.204   0.799   3.235  1.00  0.00     0.000 C 
ENDROOT
BRANCH   1   2
ATOM      2  C   UNL     1      19.722   2.059   3.951  1.00  0.00     0.000 C 
BRANCH   2   3
ATOM      3  C   UNL     1      21.038   2.586   3.352  1.00  0.00     0.000 C 
BRANCH   3   4
ATOM      4  C   UNL     1      22.318   1.901   3.873  1.00  0.00     0.000 C 
BRANCH   4   5
ATOM      5  C   UNL     1      23.266   1.372   2.782  1.00  0.00     0.000 C 
BRANCH   5   6
ATOM      6  C   UNL     1      23.462  -0.149   2.848  1.00  0.00     0.006 C 
BRANCH   6   7
ATOM      7  C   UNL     1      24.293  -0.542   4.073  1.00  0.00     0.053 C 
BRANCH   7   8
ATOM      8  C   UNL     1      24.401  -2.030   4.178  1.00  0.00     0.041 C 
ATOM      9  O   UNL     1      24.673  -2.720   3.160  1.00  0.00    -0.550 OA
ATOM     10  O   UNL     1      24.152  -2.662   5.390  1.00  0.00    -0.550 OA
ENDBRANCH   7   8
ENDBRANCH   6   7
ENDBRANCH   5   6
ENDBRANCH   4   5
ENDBRANCH   3   4
ENDBRANCH   2   3
ENDBRANCH   1   2
BRANCH   1  11
ATOM     11  C   UNL     1      19.466   0.837   1.719  1.00  0.00     0.000 C 
BRANCH  11  12
ATOM     12  C   UNL     1      20.193  -0.422   1.216  1.00  0.00    -0.000 C 
BRANCH  12  13
ATOM     13  C   UNL     1      19.880  -1.673   2.059  1.00  0.00    -0.000 C 
BRANCH  13  14
ATOM     14  C   UNL     1      18.514  -2.328   1.783  1.00  0.00    -0.000 C 
BRANCH  14  15
ATOM     15  C   UNL     1      18.590  -3.461   0.745  1.00  0.00    -0.000 C 
BRANCH  15  16
ATOM     16  C   UNL     1      17.767  -3.167  -0.523  1.00  0.00    -0.000 C 
BRANCH  16  17
ATOM     17  C   UNL     1      18.312  -2.032  -1.408  1.00  0.00    -0.003 C 
ATOM     18  C   UNL     1      17.433  -0.782  -1.390  1.00  0.00     0.004 C 
ENDBRANCH  16  17
ENDBRANCH  15  16
ENDBRANCH  14  15
ENDBRANCH  13  14
ENDBRANCH  12  13
ENDBRANCH  11  12
ENDBRANCH   1  11
TORSDOF 14
ENDMDL
MODEL 5
REMARK VINA RESULT:    -3.783      1.429      2.305
REMARK INTER + INTRA:          -9.017
REMARK INTER:                  -6.825
REMARK INTRA:                  -2.192
REMARK UNBOUND:                -2.138
REMARK SMILES CCCCCCCCCCCCCCCC(=O)[O-]
REMARK SMILES IDX 9 1 10 2 11 3 12 4 13 5 14 6 15 7 16 8 17 9 18 10 8 11 7 12
REMARK SMILES IDX 6 13 5 14 4 15 3 16 2 17 1 18
REMARK H PARENT
REMARK Flexibility Score: inf
ROOT
ATOM      1  C   UNL     1      25.508   2.352  -1.258  1.00  0.00     0.000 C 
ENDROOT
BRANCH   1   2
ATOM      2  C   UNL     1      24.605   1.138  -0.976  1.00  0.00     0.000 C 
BRANCH   2   3
ATOM      3  C   UNL     1      23.267   1.530  -0.323  1.00  0.00     0.000 C 
BRANCH   3   4
ATOM      4  C   UNL     1      22.829   0.644   0.861  1.00  0.00     0.000 C 
BRANCH   4   5
ATOM      5  C   UNL     1      23.979   0.047   1.691  1.00  0.00     0.000 C 
BRANCH   5   6
ATOM      6  C   UNL     1      23.502  -0.582   3.007  1.00  0.00     0.006 C 
BRANCH   6   7
ATOM      7  C   UNL     1      23.682  -2.103   2.985  1.00  0.00     0.053 C 
BRANCH   7   8
ATOM      8  C   UNL     1      24.508  -2.551   4.149  1.00  0.00     0.041 C 
ATOM      9  O   UNL     1      24.048  -2.472   5.319  1.00  0.00    -0.550 OA
ATOM     10  O   UNL     1      25.804  -3.010   3.948  1.00  0.00    -0.550 OA
ENDBRANCH   7   8
ENDBRANCH   6   7
ENDBRANCH   5   6
ENDBRANCH   4   5
ENDBRANCH   3   4
ENDBRANCH   2   3
ENDBRANCH   1   2
BRANCH   1  11
ATOM     11  C   UNL     1      26.527   2.599  -0.131  1.00  0.00     0.000 C 
BRANCH  11  12
ATOM     12  C   UNL     1      26.073   3.703   0.840  1.00  0.00    -0.000 C 
BRANCH  12  13
ATOM     13  C   UNL     1      25.710   3.163   2.236  1.00  0.00    -0.000 C 
BRANCH  13  14
ATOM     14  C   UNL     1      24.341   3.609   2.780  1.00  0.00    -0.000 C 
BRANCH  14  15
ATOM     15  C   UNL     1      23.989   2.959   4.129  1.00  0.00    -0.000 C 
BRANCH  15  16
ATOM     16  C   UNL     1      22.495   3.080   4.481  1.00  0.00    -0.000 C 
BRANCH  16  17
ATOM     17  C   UNL     1      21.535   3.036   3.279  1.00  0.00    -0.003 C 
ATOM     18  C   UNL     1      20.429   1.992   3.432  1.00  0.00     0.004 C 
ENDBRANCH  16  17
ENDBRANCH  15  16
ENDBRANCH  14  15
ENDBRANCH  13  14
ENDBRANCH  12  13
ENDBRANCH  11  12
ENDBRANCH   1  11
TORSDOF 14
ENDMDL
MODEL 6
REMARK VINA RESULT:    -3.778      5.504      6.922
REMARK INTER + INTRA:          -9.008
REMARK INTER:                  -6.852
REMARK INTRA:                  -2.156
REMARK UNBOUND:                -2.138
REMARK SMILES CCCCCCCCCCCCCCCC(=O)[O-]
REMARK SMILES IDX 9 1 10 2 11 3 12 4 13 5 14 6 15 7 16 8 17 9 18 10 8 11 7 12
REMARK SMILES IDX 6 13 5 14 4 15 3 16 2 17 1 18
REMARK H PARENT
REMARK Flexibility Score: inf
ROOT
ATOM      1  C   UNL     1      18.307   2.606  -0.989  1.00  0.00     0.000 C 
ENDROOT
BRANCH   1   2
ATOM      2  C   UNL     1      18.627   1.286  -0.267  1.00  0.00     0.000 C 
BRANCH   2   3
ATOM      3  C   UNL     1      20.020   1.288   0.388  1.00  0.00     0.000 C 
BRANCH   3   4
ATOM      4  C   UNL     1      20.415  -0.024   1.097  1.00  0.00     0.000 C 
BRANCH   4   5
ATOM      5  C   UNL     1      19.237  -0.857   1.634  1.00  0.00     0.000 C 
BRANCH   5   6
ATOM      6  C   UNL     1      19.286  -2.322   1.178  1.00  0.00     0.006 C 
BRANCH   6   7
ATOM      7  C   UNL     1      17.936  -2.763   0.604  1.00  0.00     0.053 C 
BRANCH   7   8
ATOM      8  C   UNL     1      17.762  -2.244  -0.788  1.00  0.00     0.041 C 
ATOM      9  O   UNL     1      16.633  -1.848  -1.180  1.00  0.00    -0.550 OA
ATOM     10  O   UNL     1      18.836  -2.243  -1.669  1.00  0.00    -0.550 OA
ENDBRANCH   7   8
ENDBRANCH   6   7
ENDBRANCH   5   6
ENDBRANCH   4   5
ENDBRANCH   3   4
ENDBRANCH   2   3
ENDBRANCH   1   2
BRANCH   1  11
ATOM     11  C   UNL     1      18.700   3.840  -0.158  1.00  0.00     0.000 C 
BRANCH  11  12
ATOM     12  C   UNL     1      17.485   4.519   0.497  1.00  0.00    -0.000 C 
BRANCH  12  13
ATOM     13  C   UNL     1      17.625   4.657   2.025  1.00  0.00    -0.000 C 
BRANCH  13  14
ATOM     14  C   UNL     1      17.216   3.416   2.840  1.00  0.00    -0.000 C 
BRANCH  14  15
ATOM     15  C   UNL     1      18.056   3.230   4.114  1.00  0.00    -0.000 C 
BRANCH  15  16
ATOM     16  C   UNL     1      18.968   1.991   4.056  1.00  0.00    -0.000 C 
BRANCH  16  17
ATOM     17  C   UNL     1      20.476   2.285   4.136  1.00  0.00    -0.003 C 
ATOM     18  C   UNL     1      20.923   3.394   3.183  1.00  0.00     0.004 C 
ENDBRANCH  16  17
ENDBRANCH  15  16
ENDBRANCH  14  15
ENDBRANCH  13  14
ENDBRANCH  12  13
ENDBRANCH  11  12
ENDBRANCH   1  11
TORSDOF 14
ENDMDL
MODEL 7
REMARK VINA RESULT:    -3.742      2.870      4.947
REMARK INTER + INTRA:          -8.943
REMARK INTER:                  -6.715
REMARK INTRA:                  -2.228
REMARK UNBOUND:                -2.138
REMARK SMILES CCCCCCCCCCCCCCCC(=O)[O-]
REMARK SMILES IDX 9 1 10 2 11 3 12 4 13 5 14 6 15 7 16 8 17 9 18 10 8 11 7 12
REMARK SMILES IDX 6 13 5 14 4 15 3 16 2 17 1 18
REMARK H PARENT
REMARK Flexibility Score: inf
ROOT
ATOM      1  C   UNL     1      21.416   3.574   3.536  1.00  0.00     0.000 C 
ENDROOT
BRANCH   1   2
ATOM      2  C   UNL     1      20.118   3.033   2.912  1.00  0.00     0.000 C 
BRANCH   2   3
ATOM      3  C   UNL     1      19.162   2.429   3.955  1.00  0.00     0.000 C 
BRANCH   3   4
ATOM      4  C   UNL     1      18.756   0.962   3.704  1.00  0.00     0.000 C 
BRANCH   4   5
ATOM      5  C   UNL     1      19.388   0.314   2.459  1.00  0.00     0.000 C 
BRANCH   5   6
ATOM      6  C   UNL     1      19.448  -1.217   2.549  1.00  0.00     0.006 C 
BRANCH   6   7
ATOM      7  C   UNL     1      20.062  -1.818   1.281  1.00  0.00     0.053 C 
BRANCH   7   8
ATOM      8  C   UNL     1      21.033  -2.901   1.630  1.00  0.00     0.041 C 
ATOM      9  O   UNL     1      21.541  -3.612   0.723  1.00  0.00    -0.550 OA
ATOM     10  O   UNL     1      21.341  -3.158   2.960  1.00  0.00    -0.550 OA
ENDBRANCH   7   8
ENDBRANCH   6   7
ENDBRANCH   5   6
ENDBRANCH   4   5
ENDBRANCH   3   4
ENDBRANCH   2   3
ENDBRANCH   1   2
BRANCH   1  11
ATOM     11  C   UNL     1      22.205   2.486   4.284  1.00  0.00     0.000 C 
BRANCH  11  12
ATOM     12  C   UNL     1      23.705   2.505   3.941  1.00  0.00    -0.000 C 
BRANCH  12  13
ATOM     13  C   UNL     1      24.237   1.129   3.499  1.00  0.00    -0.000 C 
BRANCH  13  14
ATOM     14  C   UNL     1      23.180   0.164   2.932  1.00  0.00    -0.000 C 
BRANCH  14  15
ATOM     15  C   UNL     1      23.279  -0.008   1.407  1.00  0.00    -0.000 C 
BRANCH  15  16
ATOM     16  C   UNL     1      22.566   1.114   0.631  1.00  0.00    -0.000 C 
BRANCH  16  17
ATOM     17  C   UNL     1      23.468   1.933  -0.310  1.00  0.00    -0.003 C 
ATOM     18  C   UNL     1      24.625   1.120  -0.891  1.00  0.00     0.004 C 
ENDBRANCH  16  17
ENDBRANCH  15  16
ENDBRANCH  14  15
ENDBRANCH  13  14
ENDBRANCH  12  13
ENDBRANCH  11  12
ENDBRANCH   1  11
TORSDOF 14
ENDMDL
MODEL 8
REMARK VINA RESULT:    -3.718      5.059      6.880
REMARK INTER + INTRA:          -8.898
REMARK INTER:                  -6.850
REMARK INTRA:                  -2.048
REMARK UNBOUND:                -2.138
REMARK SMILES CCCCCCCCCCCCCCCC(=O)[O-]
REMARK SMILES IDX 9 1 10 2 11 3 12 4 13 5 14 6 15 7 16 8 17 9 18 10 8 11 7 12
REMARK SMILES IDX 6 13 5 14 4 15 3 16 2 17 1 18
REMARK H PARENT
REMARK Flexibility Score: inf
ROOT
ATOM      1  C   UNL     1      20.354  -0.206   2.108  1.00  0.00     0.000 C 
ENDROOT
BRANCH   1   2
ATOM      2  C   UNL     1      20.206  -0.306   0.580  1.00  0.00     0.000 C 
BRANCH   2   3
ATOM      3  C   UNL     1      19.035   0.532   0.039  1.00  0.00     0.000 C 
BRANCH   3   4
ATOM      4  C   UNL     1      18.063  -0.220  -0.894  1.00  0.00     0.000 C 
BRANCH   4   5
ATOM      5  C   UNL     1      18.409  -1.699  -1.141  1.00  0.00     0.000 C 
BRANCH   5   6
ATOM      6  C   UNL     1      17.342  -2.660  -0.598  1.00  0.00     0.006 C 
BRANCH   6   7
ATOM      7  C   UNL     1      17.971  -3.985  -0.157  1.00  0.00     0.053 C 
BRANCH   7   8
ATOM      8  C   UNL     1      18.964  -3.757   0.938  1.00  0.00     0.041 C 
ATOM      9  O   UNL     1      18.591  -3.281   2.043  1.00  0.00    -0.550 OA
ATOM     10  O   UNL     1      20.311  -4.022   0.723  1.00  0.00    -0.550 OA
ENDBRANCH   7   8
ENDBRANCH   6   7
ENDBRANCH   5   6
ENDBRANCH   4   5
ENDBRANCH   3   4
ENDBRANCH   2   3
ENDBRANCH   1   2
BRANCH   1  11
ATOM     11  C   UNL     1      19.120   0.424   2.777  1.00  0.00     0.000 C 
BRANCH  11  12
ATOM     12  C   UNL     1      19.495   1.515   3.795  1.00  0.00    -0.000 C 
BRANCH  12  13
ATOM     13  C   UNL     1      18.268   2.245   4.373  1.00  0.00    -0.000 C 
BRANCH  13  14
ATOM     14  C   UNL     1      18.063   3.688   3.873  1.00  0.00    -0.000 C 
BRANCH  14  15
ATOM     15  C   UNL     1      17.198   3.767   2.604  1.00  0.00    -0.000 C 
BRANCH  15  16
ATOM     16  C   UNL     1      18.034   3.837   1.313  1.00  0.00    -0.000 C 
BRANCH  16  17
ATOM     17  C   UNL     1      19.408   4.514   1.459  1.00  0.00    -0.003 C 
ATOM     18  C   UNL     1      20.524   3.775   0.721  1.00  0.00     0.004 C 
ENDBRANCH  16  17
ENDBRANCH  15  16
ENDBRANCH  14  15
ENDBRANCH  13  14
ENDBRANCH  12  13
ENDBRANCH  11  12
ENDBRANCH   1  11
TORSDOF 14
ENDMDL
MODEL 9
REMARK VINA RESULT:    -3.705      4.345      5.795
REMARK INTER + INTRA:          -8.876
REMARK INTER:                  -6.621
REMARK INTRA:                  -2.254
REMARK UNBOUND:                -2.138
REMARK SMILES CCCCCCCCCCCCCCCC(=O)[O-]
REMARK SMILES IDX 9 1 10 2 11 3 12 4 13 5 14 6 15 7 16 8 17 9 18 10 8 11 7 12
REMARK SMILES IDX 6 13 5 14 4 15 3 16 2 17 1 18
REMARK H PARENT
REMARK Flexibility Score: inf
ROOT
ATOM      1  C   UNL     1      22.574   1.922   0.598  1.00  0.00     0.000 C 
ENDROOT
BRANCH   1   2
ATOM      2  C   UNL     1      23.684   0.873   0.785  1.00  0.00     0.000 C 
BRANCH   2   3
ATOM      3  C   UNL     1      23.217  -0.350   1.595  1.00  0.00     0.000 C 
BRANCH   3   4
ATOM      4  C   UNL     1      21.737  -0.325   2.030  1.00  0.00     0.000 C 
BRANCH   4   5
ATOM      5  C   UNL     1      20.838  -1.370   1.347  1.00  0.00     0.000 C 
BRANCH   5   6
ATOM      6  C   UNL     1      19.380  -0.908   1.215  1.00  0.00     0.006 C 
BRANCH   6   7
ATOM      7  C   UNL     1      18.977  -0.776  -0.257  1.00  0.00     0.053 C 
BRANCH   7   8
ATOM      8  C   UNL     1      18.249  -2.000  -0.715  1.00  0.00     0.041 C 
ATOM      9  O   UNL     1      18.722  -2.707  -1.643  1.00  0.00    -0.550 OA
ATOM     10  O   UNL     1      17.025  -2.333  -0.150  1.00  0.00    -0.550 OA
ENDBRANCH   7   8
ENDBRANCH   6   7
ENDBRANCH   5   6
ENDBRANCH   4   5
ENDBRANCH   3   4
ENDBRANCH   2   3
ENDBRANCH   1   2
BRANCH   1  11
ATOM     11  C   UNL     1      21.940   1.862  -0.803  1.00  0.00     0.000 C 
BRANCH  11  12
ATOM     12  C   UNL     1      21.263   3.185  -1.199  1.00  0.00    -0.000 C 
BRANCH  12  13
ATOM     13  C   UNL     1      20.273   3.695  -0.134  1.00  0.00    -0.000 C 
BRANCH  13  14
ATOM     14  C   UNL     1      19.000   2.848   0.042  1.00  0.00    -0.000 C 
BRANCH  14  15
ATOM     15  C   UNL     1      18.538   2.756   1.507  1.00  0.00    -0.000 C 
BRANCH  15  16
ATOM     16  C   UNL     1      19.631   3.173   2.507  1.00  0.00    -0.000 C 
BRANCH  16  17
ATOM     17  C   UNL     1      19.863   2.190   3.669  1.00  0.00    -0.003 C 
ATOM     18  C   UNL     1      18.589   1.469   4.109  1.00  0.00     0.004 C 
ENDBRANCH  16  17
ENDBRANCH  15  16
ENDBRANCH  14  15
ENDBRANCH  13  14
ENDBRANCH  12  13
ENDBRANCH  11  12
ENDBRANCH   1  11
TORSDOF 14
ENDMDL
