MODEL 1
REMARK VINA RESULT:    -4.463      0.000      0.000
REMARK INTER + INTRA:         -10.178
REMARK INTER:                  -8.116
REMARK INTRA:                  -2.062
REMARK UNBOUND:                -2.062
REMARK SMILES CCCCCCCCCCCCCCCC(=O)[O-]
REMARK SMILES IDX 9 1 10 2 11 3 12 4 13 5 14 6 15 7 16 8 17 9 18 10 8 11 7 12
REMARK SMILES IDX 6 13 5 14 4 15 3 16 2 17 1 18
REMARK H PARENT
REMARK Flexibility Score: inf
ROOT
ATOM      1  C   UNL     1     205.798 203.221 158.315  1.00  0.00     0.000 C 
ENDROOT
BRANCH   1   2
ATOM      2  C   UNL     1     205.384 204.244 157.243  1.00  0.00     0.000 C 
BRANCH   2   3
ATOM      3  C   UNL     1     203.910 204.660 157.363  1.00  0.00     0.000 C 
BRANCH   3   4
ATOM      4  C   UNL     1     203.669 206.105 156.896  1.00  0.00     0.000 C 
BRANCH   4   5
ATOM      5  C   UNL     1     204.849 206.616 156.062  1.00  0.00     0.000 C 
BRANCH   5   6
ATOM      6  C   UNL     1     205.233 208.046 156.470  1.00  0.00     0.006 C 
BRANCH   6   7
ATOM      7  C   UNL     1     205.134 208.264 157.985  1.00  0.00     0.053 C 
BRANCH   7   8
ATOM      8  C   UNL     1     205.503 209.665 158.369  1.00  0.00     0.041 C 
ATOM      9  O   UNL     1     206.609 210.149 158.016  1.00  0.00    -0.550 OA
ATOM     10  O   UNL     1     204.609 210.445 159.091  1.00  0.00    -0.550 OA
ENDBRANCH   7   8
ENDBRANCH   6   7
ENDBRANCH   5   6
ENDBRANCH   4   5
ENDBRANCH   3   4
ENDBRANCH   2   3
ENDBRANCH   1   2
BRANCH   1  11
ATOM     11  C   UNL     1     206.370 203.902 159.576  1.00  0.00     0.000 C 
BRANCH  11  12
ATOM     12  C   UNL     1     206.654 205.404 159.390  1.00  0.00    -0.000 C 
BRANCH  12  13
ATOM     13  C   UNL     1     208.150 205.710 159.216  1.00  0.00    -0.000 C 
BRANCH  13  14
ATOM     14  C   UNL     1     208.422 206.688 158.062  1.00  0.00    -0.000 C 
BRANCH  14  15
ATOM     15  C   UNL     1     208.671 205.971 156.723  1.00  0.00    -0.000 C 
BRANCH  15  16
ATOM     16  C   UNL     1     208.573 206.917 155.514  1.00  0.00    -0.000 C 
BRANCH  16  17
ATOM     17  C   UNL     1     209.918 207.565 155.125  1.00  0.00    -0.003 C 
ATOM     18  C   UNL     1     211.054 206.544 155.040  1.00  0.00     0.004 C 
ENDBRANCH  16  17
ENDBRANCH  15  16
ENDBRANCH  14  15
ENDBRANCH  13  14
ENDBRANCH  12  13
ENDBRANCH  11  12
ENDBRANCH   1  11
TORSDOF 14
ENDMDL
MODEL 2
REMARK VINA RESULT:    -4.452      2.521      5.023
REMARK INTER + INTRA:         -10.158
REMARK INTER:                  -7.880
REMARK INTRA:                  -2.278
REMARK UNBOUND:                -2.062
REMARK SMILES CCCCCCCCCCCCCCCC(=O)[O-]
REMARK SMILES IDX 9 1 10 2 11 3 12 4 13 5 14 6 15 7 16 8 17 9 18 10 8 11 7 12
REMARK SMILES IDX 6 13 5 14 4 15 3 16 2 17 1 18
REMARK H PARENT
REMARK Flexibility Score: inf
ROOT
ATOM      1  C   UNL     1     206.013 204.105 159.160  1.00  0.00     0.000 C 
ENDROOT
BRANCH   1   2
ATOM      2  C   UNL     1     207.187 204.941 159.698  1.00  0.00     0.000 C 
BRANCH   2   3
ATOM      3  C   UNL     1     208.149 205.390 158.588  1.00  0.00     0.000 C 
BRANCH   3   4
ATOM      4  C   UNL     1     208.856 206.713 158.926  1.00  0.00     0.000 C 
BRANCH   4   5
ATOM      5  C   UNL     1     208.916 207.632 157.700  1.00  0.00     0.000 C 
BRANCH   5   6
ATOM      6  C   UNL     1     208.697 206.836 156.404  1.00  0.00     0.006 C 
BRANCH   6   7
ATOM      7  C   UNL     1     209.478 207.425 155.222  1.00  0.00     0.053 C 
BRANCH   7   8
ATOM      8  C   UNL     1     210.936 207.084 155.296  1.00  0.00     0.041 C 
ATOM      9  O   UNL     1     211.769 207.941 155.689  1.00  0.00    -0.550 OA
ATOM     10  O   UNL     1     211.368 205.808 154.960  1.00  0.00    -0.550 OA
ENDBRANCH   7   8
ENDBRANCH   6   7
ENDBRANCH   5   6
ENDBRANCH   4   5
ENDBRANCH   3   4
ENDBRANCH   2   3
ENDBRANCH   1   2
BRANCH   1  11
ATOM     11  C   UNL     1     206.288 203.567 157.740  1.00  0.00     0.000 C 
BRANCH  11  12
ATOM     12  C   UNL     1     205.319 204.114 156.676  1.00  0.00    -0.000 C 
BRANCH  12  13
ATOM     13  C   UNL     1     204.139 204.888 157.285  1.00  0.00    -0.000 C 
BRANCH  13  14
ATOM     14  C   UNL     1     203.935 206.264 156.629  1.00  0.00    -0.000 C 
BRANCH  14  15
ATOM     15  C   UNL     1     205.129 207.209 156.847  1.00  0.00    -0.000 C 
BRANCH  15  16
ATOM     16  C   UNL     1     205.221 207.729 158.292  1.00  0.00    -0.000 C 
BRANCH  16  17
ATOM     17  C   UNL     1     205.365 209.262 158.389  1.00  0.00    -0.003 C 
ATOM     18  C   UNL     1     206.304 209.828 157.323  1.00  0.00     0.004 C 
ENDBRANCH  16  17
ENDBRANCH  15  16
ENDBRANCH  14  15
ENDBRANCH  13  14
ENDBRANCH  12  13
ENDBRANCH  11  12
ENDBRANCH   1  11
TORSDOF 14
ENDMDL
MODEL 3
REMARK VINA RESULT:    -4.432      1.325      3.455
REMARK INTER + INTRA:         -10.121
REMARK INTER:                  -7.764
REMARK INTRA:                  -2.357
REMARK UNBOUND:                -2.062
REMARK SMILES CCCCCCCCCCCCCCCC(=O)[O-]
REMARK SMILES IDX 9 1 10 2 11 3 12 4 13 5 14 6 15 7 16 8 17 9 18 10 8 11 7 12
REMARK SMILES IDX 6 13 5 14 4 15 3 16 2 17 1 18
REMARK H PARENT
REMARK Flexibility Score: inf
ROOT
ATOM      1  C   UNL     1     208.602 205.959 156.269  1.00  0.00     0.000 C 
ENDROOT
BRANCH   1   2
ATOM      2  C   UNL     1     207.756 206.659 155.192  1.00  0.00     0.000 C 
BRANCH   2   3
ATOM      3  C   UNL     1     206.362 206.031 155.036  1.00  0.00     0.000 C 
BRANCH   3   4
ATOM      4  C   UNL     1     205.233 207.025 155.355  1.00  0.00     0.000 C 
BRANCH   4   5
ATOM      5  C   UNL     1     204.556 206.678 156.686  1.00  0.00     0.000 C 
BRANCH   5   6
ATOM      6  C   UNL     1     204.885 207.726 157.760  1.00  0.00     0.006 C 
BRANCH   6   7
ATOM      7  C   UNL     1     205.579 208.963 157.173  1.00  0.00     0.053 C 
BRANCH   7   8
ATOM      8  C   UNL     1     205.992 209.927 158.242  1.00  0.00     0.041 C 
ATOM      9  O   UNL     1     205.241 210.140 159.229  1.00  0.00    -0.550 OA
ATOM     10  O   UNL     1     207.222 210.567 158.162  1.00  0.00    -0.550 OA
ENDBRANCH   7   8
ENDBRANCH   6   7
ENDBRANCH   5   6
ENDBRANCH   4   5
ENDBRANCH   3   4
ENDBRANCH   2   3
ENDBRANCH   1   2
BRANCH   1  11
ATOM     11  C   UNL     1     208.346 206.541 157.675  1.00  0.00     0.000 C 
BRANCH  11  12
ATOM     12  C   UNL     1     208.313 205.476 158.786  1.00  0.00    -0.000 C 
BRANCH  12  13
ATOM     13  C   UNL     1     206.962 205.416 159.515  1.00  0.00    -0.000 C 
BRANCH  13  14
ATOM     14  C   UNL     1     206.263 204.056 159.352  1.00  0.00    -0.000 C 
BRANCH  14  15
ATOM     15  C   UNL     1     205.918 203.738 157.887  1.00  0.00    -0.000 C 
BRANCH  15  16
ATOM     16  C   UNL     1     206.238 202.283 157.502  1.00  0.00    -0.000 C 
BRANCH  16  17
ATOM     17  C   UNL     1     206.548 202.094 156.003  1.00  0.00    -0.003 C 
ATOM     18  C   UNL     1     207.984 202.483 155.650  1.00  0.00     0.004 C 
ENDBRANCH  16  17
ENDBRANCH  15  16
ENDBRANCH  14  15
ENDBRANCH  13  14
ENDBRANCH  12  13
ENDBRANCH  11  12
ENDBRANCH   1  11
TORSDOF 14
ENDMDL
MODEL 4
REMARK VINA RESULT:    -4.378      3.014      4.950
REMARK INTER + INTRA:         -10.023
REMARK INTER:                  -7.772
REMARK INTRA:                  -2.251
REMARK UNBOUND:                -2.062
REMARK SMILES CCCCCCCCCCCCCCCC(=O)[O-]
REMARK SMILES IDX 9 1 10 2 11 3 12 4 13 5 14 6 15 7 16 8 17 9 18 10 8 11 7 12
REMARK SMILES IDX 6 13 5 14 4 15 3 16 2 17 1 18
REMARK H PARENT
REMARK Flexibility Score: inf
ROOT
ATOM      1  C   UNL     1     205.088 207.380 158.158  1.00  0.00     0.000 C 
ENDROOT
BRANCH   1   2
ATOM      2  C   UNL     1     206.060 206.669 159.116  1.00  0.00     0.000 C 
BRANCH   2   3
ATOM      3  C   UNL     1     206.653 205.387 158.510  1.00  0.00     0.000 C 
BRANCH   3   4
ATOM      4  C   UNL     1     206.354 204.144 159.363  1.00  0.00     0.000 C 
BRANCH   4   5
ATOM      5  C   UNL     1     205.844 202.990 158.492  1.00  0.00     0.000 C 
BRANCH   5   6
ATOM      6  C   UNL     1     206.005 203.314 156.999  1.00  0.00     0.006 C 
BRANCH   6   7
ATOM      7  C   UNL     1     206.774 202.220 156.247  1.00  0.00     0.053 C 
BRANCH   7   8
ATOM      8  C   UNL     1     208.122 202.696 155.800  1.00  0.00     0.041 C 
ATOM      9  O   UNL     1     208.538 203.834 156.139  1.00  0.00    -0.550 OA
ATOM     10  O   UNL     1     208.932 201.868 155.034  1.00  0.00    -0.550 OA
ENDBRANCH   7   8
ENDBRANCH   6   7
ENDBRANCH   5   6
ENDBRANCH   4   5
ENDBRANCH   3   4
ENDBRANCH   2   3
ENDBRANCH   1   2
BRANCH   1  11
ATOM     11  C   UNL     1     204.062 206.405 157.544  1.00  0.00     0.000 C 
BRANCH  11  12
ATOM     12  C   UNL     1     204.130 206.325 156.009  1.00  0.00    -0.000 C 
BRANCH  12  13
ATOM     13  C   UNL     1     205.292 207.141 155.420  1.00  0.00    -0.000 C 
BRANCH  13  14
ATOM     14  C   UNL     1     206.329 206.261 154.704  1.00  0.00    -0.000 C 
BRANCH  14  15
ATOM     15  C   UNL     1     207.728 206.900 154.671  1.00  0.00    -0.000 C 
BRANCH  15  16
ATOM     16  C   UNL     1     208.158 207.464 156.037  1.00  0.00    -0.000 C 
BRANCH  16  17
ATOM     17  C   UNL     1     209.688 207.504 156.234  1.00  0.00    -0.003 C 
ATOM     18  C   UNL     1     210.449 207.047 154.989  1.00  0.00     0.004 C 
ENDBRANCH  16  17
ENDBRANCH  15  16
ENDBRANCH  14  15
ENDBRANCH  13  14
ENDBRANCH  12  13
ENDBRANCH  11  12
ENDBRANCH   1  11
TORSDOF 14
ENDMDL
MODEL 5
REMARK VINA RESULT:    -4.359      3.212      4.728
REMARK INTER + INTRA:          -9.989
REMARK INTER:                  -7.987
REMARK INTRA:                  -2.002
REMARK UNBOUND:                -2.062
REMARK SMILES CCCCCCCCCCCCCCCC(=O)[O-]
REMARK SMILES IDX 9 1 10 2 11 3 12 4 13 5 14 6 15 7 16 8 17 9 18 10 8 11 7 12
REMARK SMILES IDX 6 13 5 14 4 15 3 16 2 17 1 18
REMARK H PARENT
REMARK Flexibility Score: inf
ROOT
ATOM      1  C   UNL     1     205.125 208.440 156.227  1.00  0.00     0.000 C 
ENDROOT
BRANCH   1   2
ATOM      2  C   UNL     1     204.959 206.934 155.956  1.00  0.00     0.000 C 
BRANCH   2   3
ATOM      3  C   UNL     1     203.646 206.374 156.526  1.00  0.00     0.000 C 
BRANCH   3   4
ATOM      4  C   UNL     1     203.829 204.986 157.162  1.00  0.00     0.000 C 
BRANCH   4   5
ATOM      5  C   UNL     1     205.065 204.956 158.068  1.00  0.00     0.000 C 
BRANCH   5   6
ATOM      6  C   UNL     1     205.901 203.693 157.818  1.00  0.00     0.006 C 
BRANCH   6   7
ATOM      7  C   UNL     1     206.110 203.421 156.322  1.00  0.00     0.053 C 
BRANCH   7   8
ATOM      8  C   UNL     1     206.910 202.175 156.091  1.00  0.00     0.041 C 
ATOM      9  O   UNL     1     206.634 201.119 156.717  1.00  0.00    -0.550 OA
ATOM     10  O   UNL     1     207.940 202.174 155.160  1.00  0.00    -0.550 OA
ENDBRANCH   7   8
ENDBRANCH   6   7
ENDBRANCH   5   6
ENDBRANCH   4   5
ENDBRANCH   3   4
ENDBRANCH   2   3
ENDBRANCH   1   2
BRANCH   1  11
ATOM     11  C   UNL     1     205.776 208.713 157.599  1.00  0.00     0.000 C 
BRANCH  11  12
ATOM     12  C   UNL     1     207.106 209.483 157.508  1.00  0.00    -0.000 C 
BRANCH  12  13
ATOM     13  C   UNL     1     208.325 208.608 157.841  1.00  0.00    -0.000 C 
BRANCH  13  14
ATOM     14  C   UNL     1     207.956 207.126 158.023  1.00  0.00    -0.000 C 
BRANCH  14  15
ATOM     15  C   UNL     1     208.722 206.202 157.060  1.00  0.00    -0.000 C 
BRANCH  15  16
ATOM     16  C   UNL     1     208.389 206.474 155.582  1.00  0.00    -0.000 C 
BRANCH  16  17
ATOM     17  C   UNL     1     209.371 207.447 154.898  1.00  0.00    -0.003 C 
ATOM     18  C   UNL     1     210.833 207.072 155.147  1.00  0.00     0.004 C 
ENDBRANCH  16  17
ENDBRANCH  15  16
ENDBRANCH  14  15
ENDBRANCH  13  14
ENDBRANCH  12  13
ENDBRANCH  11  12
ENDBRANCH   1  11
TORSDOF 14
ENDMDL
MODEL 6
REMARK VINA RESULT:    -4.349      3.189      5.709
REMARK INTER + INTRA:          -9.971
REMARK INTER:                  -7.408
REMARK INTRA:                  -2.563
REMARK UNBOUND:                -2.062
REMARK SMILES CCCCCCCCCCCCCCCC(=O)[O-]
REMARK SMILES IDX 9 1 10 2 11 3 12 4 13 5 14 6 15 7 16 8 17 9 18 10 8 11 7 12
REMARK SMILES IDX 6 13 5 14 4 15 3 16 2 17 1 18
REMARK H PARENT
REMARK Flexibility Score: inf
ROOT
ATOM      1  C   UNL     1     208.817 206.416 156.114  1.00  0.00     0.000 C 
ENDROOT
BRANCH   1   2
ATOM      2  C   UNL     1     208.947 207.366 157.317  1.00  0.00     0.000 C 
BRANCH   2   3
ATOM      3  C   UNL     1     208.382 206.759 158.611  1.00  0.00     0.000 C 
BRANCH   3   4
ATOM      4  C   UNL     1     207.926 205.303 158.426  1.00  0.00     0.000 C 
BRANCH   4   5
ATOM      5  C   UNL     1     206.761 204.968 159.365  1.00  0.00     0.000 C 
BRANCH   5   6
ATOM      6  C   UNL     1     205.648 204.221 158.616  1.00  0.00     0.006 C 
BRANCH   6   7
ATOM      7  C   UNL     1     206.200 203.320 157.503  1.00  0.00     0.053 C 
BRANCH   7   8
ATOM      8  C   UNL     1     206.273 201.887 157.934  1.00  0.00     0.041 C 
ATOM      9  O   UNL     1     206.643 200.999 157.123  1.00  0.00    -0.550 OA
ATOM     10  O   UNL     1     205.963 201.539 159.242  1.00  0.00    -0.550 OA
ENDBRANCH   7   8
ENDBRANCH   6   7
ENDBRANCH   5   6
ENDBRANCH   4   5
ENDBRANCH   3   4
ENDBRANCH   2   3
ENDBRANCH   1   2
BRANCH   1  11
ATOM     11  C   UNL     1     208.462 207.171 154.816  1.00  0.00     0.000 C 
BRANCH  11  12
ATOM     12  C   UNL     1     207.097 206.773 154.225  1.00  0.00    -0.000 C 
BRANCH  12  13
ATOM     13  C   UNL     1     206.230 205.975 155.212  1.00  0.00    -0.000 C 
BRANCH  13  14
ATOM     14  C   UNL     1     204.967 206.740 155.639  1.00  0.00    -0.000 C 
BRANCH  14  15
ATOM     15  C   UNL     1     205.150 207.493 156.968  1.00  0.00    -0.000 C 
BRANCH  15  16
ATOM     16  C   UNL     1     205.703 208.916 156.775  1.00  0.00    -0.000 C 
BRANCH  16  17
ATOM     17  C   UNL     1     205.852 209.705 158.093  1.00  0.00    -0.003 C 
ATOM     18  C   UNL     1     207.125 210.551 158.125  1.00  0.00     0.004 C 
ENDBRANCH  16  17
ENDBRANCH  15  16
ENDBRANCH  14  15
ENDBRANCH  13  14
ENDBRANCH  12  13
ENDBRANCH  11  12
ENDBRANCH   1  11
TORSDOF 14
ENDMDL
MODEL 7
REMARK VINA RESULT:    -4.336      1.950      3.514
REMARK INTER + INTRA:          -9.947
REMARK INTER:                  -7.236
REMARK INTRA:                  -2.712
REMARK UNBOUND:                -2.062
REMARK SMILES CCCCCCCCCCCCCCCC(=O)[O-]
REMARK SMILES IDX 9 1 10 2 11 3 12 4 13 5 14 6 15 7 16 8 17 9 18 10 8 11 7 12
REMARK SMILES IDX 6 13 5 14 4 15 3 16 2 17 1 18
REMARK H PARENT
REMARK Flexibility Score: inf
ROOT
ATOM      1  C   UNL     1     207.640 205.493 159.205  1.00  0.00     0.000 C 
ENDROOT
BRANCH   1   2
ATOM      2  C   UNL     1     208.094 205.290 157.749  1.00  0.00     0.000 C 
BRANCH   2   3
ATOM      3  C   UNL     1     208.583 206.593 157.096  1.00  0.00     0.000 C 
BRANCH   3   4
ATOM      4  C   UNL     1     208.139 206.716 155.630  1.00  0.00     0.000 C 
BRANCH   4   5
ATOM      5  C   UNL     1     206.769 206.064 155.414  1.00  0.00     0.000 C 
BRANCH   5   6
ATOM      6  C   UNL     1     205.646 207.110 155.467  1.00  0.00     0.006 C 
BRANCH   6   7
ATOM      7  C   UNL     1     204.843 207.035 156.772  1.00  0.00     0.053 C 
BRANCH   7   8
ATOM      8  C   UNL     1     205.286 208.074 157.757  1.00  0.00     0.041 C 
ATOM      9  O   UNL     1     205.899 209.101 157.363  1.00  0.00    -0.550 OA
ATOM     10  O   UNL     1     204.993 207.923 159.106  1.00  0.00    -0.550 OA
ENDBRANCH   7   8
ENDBRANCH   6   7
ENDBRANCH   5   6
ENDBRANCH   4   5
ENDBRANCH   3   4
ENDBRANCH   2   3
ENDBRANCH   1   2
BRANCH   1  11
ATOM     11  C   UNL     1     206.384 204.662 159.541  1.00  0.00     0.000 C 
BRANCH  11  12
ATOM     12  C   UNL     1     205.830 203.871 158.343  1.00  0.00    -0.000 C 
BRANCH  12  13
ATOM     13  C   UNL     1     205.932 202.349 158.535  1.00  0.00    -0.000 C 
BRANCH  13  14
ATOM     14  C   UNL     1     206.519 201.637 157.304  1.00  0.00    -0.000 C 
BRANCH  14  15
ATOM     15  C   UNL     1     206.329 202.442 156.007  1.00  0.00    -0.000 C 
BRANCH  15  16
ATOM     16  C   UNL     1     207.613 202.523 155.163  1.00  0.00    -0.000 C 
BRANCH  16  17
ATOM     17  C   UNL     1     208.878 202.060 155.917  1.00  0.00    -0.003 C 
ATOM     18  C   UNL     1     210.027 203.062 155.798  1.00  0.00     0.004 C 
ENDBRANCH  16  17
ENDBRANCH  15  16
ENDBRANCH  14  15
ENDBRANCH  13  14
ENDBRANCH  12  13
ENDBRANCH  11  12
ENDBRANCH   1  11
TORSDOF 14
ENDMDL
MODEL 8
REMARK VINA RESULT:    -4.329      1.666      4.338
REMARK INTER + INTRA:          -9.934
REMARK INTER:                  -7.635
REMARK INTRA:                  -2.299
REMARK UNBOUND:                -2.062
REMARK SMILES CCCCCCCCCCCCCCCC(=O)[O-]
REMARK SMILES IDX 9 1 10 2 11 3 12 4 13 5 14 6 15 7 16 8 17 9 18 10 8 11 7 12
REMARK SMILES IDX 6 13 5 14 4 15 3 16 2 17 1 18
REMARK H PARENT
REMARK Flexibility Score: inf
ROOT
ATOM      1  C   UNL     1     206.234 206.406 154.612  1.00  0.00     0.000 C 
ENDROOT
BRANCH   1   2
ATOM      2  C   UNL     1     207.562 206.932 155.182  1.00  0.00     0.000 C 
BRANCH   2   3
ATOM      3  C   UNL     1     207.874 206.363 156.575  1.00  0.00     0.000 C 
BRANCH   3   4
ATOM      4  C   UNL     1     207.424 207.303 157.705  1.00  0.00     0.000 C 
BRANCH   4   5
ATOM      5  C   UNL     1     208.097 208.675 157.579  1.00  0.00     0.000 C 
BRANCH   5   6
ATOM      6  C   UNL     1     207.103 209.806 157.884  1.00  0.00     0.006 C 
BRANCH   6   7
ATOM      7  C   UNL     1     205.649 209.385 157.631  1.00  0.00     0.053 C 
BRANCH   7   8
ATOM      8  C   UNL     1     204.787 209.613 158.835  1.00  0.00     0.041 C 
ATOM      9  O   UNL     1     204.636 208.701 159.689  1.00  0.00    -0.550 OA
ATOM     10  O   UNL     1     204.179 210.846 159.030  1.00  0.00    -0.550 OA
ENDBRANCH   7   8
ENDBRANCH   6   7
ENDBRANCH   5   6
ENDBRANCH   4   5
ENDBRANCH   3   4
ENDBRANCH   2   3
ENDBRANCH   1   2
BRANCH   1  11
ATOM     11  C   UNL     1     205.030 207.258 155.067  1.00  0.00     0.000 C 
BRANCH  11  12
ATOM     12  C   UNL     1     203.855 206.424 155.608  1.00  0.00    -0.000 C 
BRANCH  12  13
ATOM     13  C   UNL     1     203.916 206.227 157.131  1.00  0.00    -0.000 C 
BRANCH  13  14
ATOM     14  C   UNL     1     203.986 204.744 157.532  1.00  0.00    -0.000 C 
BRANCH  14  15
ATOM     15  C   UNL     1     205.168 204.438 158.468  1.00  0.00    -0.000 C 
BRANCH  15  16
ATOM     16  C   UNL     1     206.078 203.319 157.932  1.00  0.00    -0.000 C 
BRANCH  16  17
ATOM     17  C   UNL     1     206.008 203.146 156.401  1.00  0.00    -0.003 C 
ATOM     18  C   UNL     1     206.536 201.787 155.942  1.00  0.00     0.004 C 
ENDBRANCH  16  17
ENDBRANCH  15  16
ENDBRANCH  14  15
ENDBRANCH  13  14
ENDBRANCH  12  13
ENDBRANCH  11  12
ENDBRANCH   1  11
TORSDOF 14
ENDMDL
MODEL 9
REMARK VINA RESULT:    -4.312      3.377      5.936
REMARK INTER + INTRA:          -9.903
REMARK INTER:                  -7.363
REMARK INTRA:                  -2.540
REMARK UNBOUND:                -2.062
REMARK SMILES CCCCCCCCCCCCCCCC(=O)[O-]
REMARK SMILES IDX 9 1 10 2 11 3 12 4 13 5 14 6 15 7 16 8 17 9 18 10 8 11 7 12
REMARK SMILES IDX 6 13 5 14 4 15 3 16 2 17 1 18
REMARK H PARENT
REMARK Flexibility Score: inf
ROOT
ATOM      1  C   UNL     1     207.552 206.741 154.870  1.00  0.00     0.000 C 
ENDROOT
BRANCH   1   2
ATOM      2  C   UNL     1     207.977 207.625 156.056  1.00  0.00     0.000 C 
BRANCH   2   3
ATOM      3  C   UNL     1     208.554 206.809 157.224  1.00  0.00     0.000 C 
BRANCH   3   4
ATOM      4  C   UNL     1     208.247 205.308 157.097  1.00  0.00     0.000 C 
BRANCH   4   5
ATOM      5  C   UNL     1     207.402 204.819 158.279  1.00  0.00     0.000 C 
BRANCH   5   6
ATOM      6  C   UNL     1     206.334 203.818 157.815  1.00  0.00     0.006 C 
BRANCH   6   7
ATOM      7  C   UNL     1     206.389 203.569 156.302  1.00  0.00     0.053 C 
BRANCH   7   8
ATOM      8  C   UNL     1     206.975 202.229 155.981  1.00  0.00     0.041 C 
ATOM      9  O   UNL     1     207.959 202.137 155.202  1.00  0.00    -0.550 OA
ATOM     10  O   UNL     1     206.453 201.084 156.568  1.00  0.00    -0.550 OA
ENDBRANCH   7   8
ENDBRANCH   6   7
ENDBRANCH   5   6
ENDBRANCH   4   5
ENDBRANCH   3   4
ENDBRANCH   2   3
ENDBRANCH   1   2
BRANCH   1  11
ATOM     11  C   UNL     1     206.034 206.815 154.607  1.00  0.00     0.000 C 
BRANCH  11  12
ATOM     12  C   UNL     1     205.251 207.544 155.714  1.00  0.00    -0.000 C 
BRANCH  12  13
ATOM     13  C   UNL     1     204.076 206.716 156.257  1.00  0.00    -0.000 C 
BRANCH  13  14
ATOM     14  C   UNL     1     204.108 206.580 157.788  1.00  0.00    -0.000 C 
BRANCH  14  15
ATOM     15  C   UNL     1     205.126 207.526 158.447  1.00  0.00    -0.000 C 
BRANCH  15  16
ATOM     16  C   UNL     1     204.458 208.620 159.300  1.00  0.00    -0.000 C 
BRANCH  16  17
ATOM     17  C   UNL     1     204.835 210.053 158.871  1.00  0.00    -0.003 C 
ATOM     18  C   UNL     1     206.226 210.127 158.240  1.00  0.00     0.004 C 
ENDBRANCH  16  17
ENDBRANCH  15  16
ENDBRANCH  14  15
ENDBRANCH  13  14
ENDBRANCH  12  13
ENDBRANCH  11  12
ENDBRANCH   1  11
TORSDOF 14
ENDMDL
