MODEL 1
REMARK VINA RESULT:    -6.130      0.000      0.000
REMARK INTER + INTRA:         -10.706
REMARK INTER:                  -8.997
REMARK INTRA:                  -1.709
REMARK UNBOUND:                -1.709
REMARK SMILES O=c1c(O[C@@H]2O[C@H](CO)[C@@H](O)[C@@H](O)[C@@H]2O)c(-c2ccc(O)c(O)c2)oc2cc(O)cc(O)c12
REMARK SMILES IDX 4 1 3 2 16 3 25 4 2 5 26 6 1 7 33 8 27 9 31 10 28 11 30 12
REMARK SMILES IDX 17 13 18 14 19 15 20 16 24 17 22 18 21 19 23 21 32 23 29 25
REMARK SMILES IDX 5 27 14 28 6 29 12 30 7 31 10 32 15 33 13 35 8 37 9 38 11 40
REMARK H PARENT 21 20 23 22 32 24 29 26 15 34 13 36 9 39 11 41
REMARK Flexibility Score: inf
ROOT
ATOM      1  O   UNL     1      12.022  30.788  20.679  1.00  0.00    -0.454 OA
ENDROOT
BRANCH   1   2
ATOM      2  C   UNL     1      10.858  30.017  20.868  1.00  0.00     0.214 A 
ATOM      3  C   UNL     1       9.799  30.539  21.662  1.00  0.00     0.180 A 
ATOM      4  O   UNL     1       8.731  29.791  21.901  1.00  0.00    -0.452 OA
ATOM      5  C   UNL     1      10.684  28.733  20.293  1.00  0.00     0.239 A 
ATOM      6  C   UNL     1       8.546  28.582  21.408  1.00  0.00     0.146 A 
ATOM      7  O   UNL     1      11.586  28.242  19.560  1.00  0.00    -0.285 OA
ATOM      8  C   UNL     1       9.533  27.983  20.594  1.00  0.00     0.111 A 
ATOM      9  C   UNL     1       7.351  27.909  21.686  1.00  0.00     0.094 A 
ATOM     10  C   UNL     1       9.304  26.674  20.092  1.00  0.00     0.134 A 
ATOM     11  C   UNL     1       7.123  26.633  21.162  1.00  0.00     0.123 A 
ATOM     12  C   UNL     1       8.108  26.014  20.397  1.00  0.00     0.093 A 
BRANCH   3  13
ATOM     13  C   UNL     1       9.777  31.929  22.252  1.00  0.00     0.025 A 
ATOM     14  C   UNL     1       9.134  33.029  21.661  1.00  0.00     0.016 A 
ATOM     15  C   UNL     1       9.040  34.256  22.330  1.00  0.00     0.051 A 
ATOM     16  C   UNL     1       9.570  34.412  23.610  1.00  0.00     0.157 A 
ATOM     17  C   UNL     1      10.324  32.103  23.542  1.00  0.00     0.062 A 
ATOM     18  C   UNL     1      10.277  33.346  24.194  1.00  0.00     0.158 A 
BRANCH  16  19
ATOM     19  O   UNL     1       9.419  35.658  24.235  1.00  0.00    -0.504 OA
ATOM     20  H   UNL     1      10.188  36.211  24.584  1.00  0.00     0.293 HD
ENDBRANCH  16  19
BRANCH  18  21
ATOM     21  O   UNL     1      10.916  33.453  25.435  1.00  0.00    -0.504 OA
ATOM     22  H   UNL     1      11.195  32.658  25.993  1.00  0.00     0.293 HD
ENDBRANCH  18  21
ENDBRANCH   3  13
BRANCH  10  23
ATOM     23  O   UNL     1      10.257  26.023  19.309  1.00  0.00    -0.507 OA
ATOM     24  H   UNL     1       9.989  25.501  18.480  1.00  0.00     0.293 HD
ENDBRANCH  10  23
BRANCH  11  25
ATOM     25  O   UNL     1       5.920  25.970  21.391  1.00  0.00    -0.508 OA
ATOM     26  H   UNL     1       5.656  25.664  22.322  1.00  0.00     0.293 HD
ENDBRANCH  11  25
ENDBRANCH   1   2
BRANCH   1  27
ATOM     27  C   UNL     1      13.194  30.869  21.499  1.00  0.00     0.339 C 
ATOM     28  C   UNL     1      14.432  30.424  20.689  1.00  0.00     0.214 C 
ATOM     29  O   UNL     1      13.363  32.156  22.095  1.00  0.00    -0.332 OA
ATOM     30  C   UNL     1      14.846  31.485  19.646  1.00  0.00     0.180 C 
ATOM     31  C   UNL     1      13.740  33.183  21.186  1.00  0.00     0.179 C 
ATOM     32  C   UNL     1      15.022  32.830  20.386  1.00  0.00     0.177 C 
BRANCH  28  33
ATOM     33  O   UNL     1      14.243  29.128  20.163  1.00  0.00    -0.384 OA
ATOM     34  H   UNL     1      13.878  29.171  19.225  1.00  0.00     0.211 HD
ENDBRANCH  28  33
BRANCH  30  35
ATOM     35  O   UNL     1      16.057  31.107  19.065  1.00  0.00    -0.387 OA
ATOM     36  H   UNL     1      16.217  30.167  19.355  1.00  0.00     0.211 HD
ENDBRANCH  30  35
BRANCH  31  37
ATOM     37  C   UNL     1      12.561  33.680  20.333  1.00  0.00     0.191 C 
BRANCH  37  38
ATOM     38  O   UNL     1      12.995  34.428  19.220  1.00  0.00    -0.394 OA
ATOM     39  H   UNL     1      12.729  35.385  19.356  1.00  0.00     0.210 HD
ENDBRANCH  37  38
ENDBRANCH  31  37
BRANCH  32  40
ATOM     40  O   UNL     1      16.131  32.699  21.262  1.00  0.00    -0.387 OA
ATOM     41  H   UNL     1      15.838  33.083  22.134  1.00  0.00     0.211 HD
ENDBRANCH  32  40
ENDBRANCH   1  27
TORSDOF 12
ENDMDL
MODEL 2
REMARK VINA RESULT:    -6.081      1.655      6.137
REMARK INTER + INTRA:         -10.634
REMARK INTER:                  -9.343
REMARK INTRA:                  -1.291
REMARK UNBOUND:                -1.709
REMARK SMILES O=c1c(O[C@@H]2O[C@H](CO)[C@@H](O)[C@@H](O)[C@@H]2O)c(-c2ccc(O)c(O)c2)oc2cc(O)cc(O)c12
REMARK SMILES IDX 4 1 3 2 16 3 25 4 2 5 26 6 1 7 33 8 27 9 31 10 28 11 30 12
REMARK SMILES IDX 17 13 18 14 19 15 20 16 24 17 22 18 21 19 23 21 32 23 29 25
REMARK SMILES IDX 5 27 14 28 6 29 12 30 7 31 10 32 15 33 13 35 8 37 9 38 11 40
REMARK H PARENT 21 20 23 22 32 24 29 26 15 34 13 36 9 39 11 41
REMARK Flexibility Score: inf
ROOT
ATOM      1  O   UNL     1       9.986  30.073  21.532  1.00  0.00    -0.454 OA
ENDROOT
BRANCH   1   2
ATOM      2  C   UNL     1      11.222  30.522  21.028  1.00  0.00     0.214 A 
ATOM      3  C   UNL     1      11.709  31.802  21.416  1.00  0.00     0.180 A 
ATOM      4  O   UNL     1      12.837  32.259  20.891  1.00  0.00    -0.452 OA
ATOM      5  C   UNL     1      12.020  29.749  20.146  1.00  0.00     0.239 A 
ATOM      6  C   UNL     1      13.591  31.582  20.046  1.00  0.00     0.146 A 
ATOM      7  O   UNL     1      11.640  28.597  19.798  1.00  0.00    -0.285 OA
ATOM      8  C   UNL     1      13.201  30.295  19.614  1.00  0.00     0.111 A 
ATOM      9  C   UNL     1      14.791  32.148  19.601  1.00  0.00     0.094 A 
ATOM     10  C   UNL     1      14.032  29.601  18.694  1.00  0.00     0.134 A 
ATOM     11  C   UNL     1      15.616  31.443  18.718  1.00  0.00     0.123 A 
ATOM     12  C   UNL     1      15.220  30.194  18.249  1.00  0.00     0.093 A 
BRANCH   3  13
ATOM     13  C   UNL     1      11.041  32.700  22.428  1.00  0.00     0.025 A 
ATOM     14  C   UNL     1      10.193  33.770  22.099  1.00  0.00     0.016 A 
ATOM     15  C   UNL     1       9.502  34.476  23.092  1.00  0.00     0.051 A 
ATOM     16  C   UNL     1       9.626  34.123  24.435  1.00  0.00     0.157 A 
ATOM     17  C   UNL     1      11.172  32.361  23.793  1.00  0.00     0.062 A 
ATOM     18  C   UNL     1      10.520  33.100  24.795  1.00  0.00     0.158 A 
BRANCH  16  19
ATOM     19  O   UNL     1       8.885  34.854  25.376  1.00  0.00    -0.504 OA
ATOM     20  H   UNL     1       9.231  35.110  26.289  1.00  0.00     0.293 HD
ENDBRANCH  16  19
BRANCH  18  21
ATOM     21  O   UNL     1      10.769  32.749  26.128  1.00  0.00    -0.504 OA
ATOM     22  H   UNL     1      10.088  32.303  26.726  1.00  0.00     0.293 HD
ENDBRANCH  18  21
ENDBRANCH   3  13
BRANCH  10  23
ATOM     23  O   UNL     1      13.681  28.341  18.210  1.00  0.00    -0.507 OA
ATOM     24  H   UNL     1      12.937  27.800  18.642  1.00  0.00     0.293 HD
ENDBRANCH  10  23
BRANCH  11  25
ATOM     25  O   UNL     1      16.835  31.973  18.302  1.00  0.00    -0.508 OA
ATOM     26  H   UNL     1      16.880  32.701  17.597  1.00  0.00     0.293 HD
ENDBRANCH  11  25
ENDBRANCH   1   2
BRANCH   1  27
ATOM     27  C   UNL     1       8.926  29.393  20.851  1.00  0.00     0.339 C 
ATOM     28  C   UNL     1       8.736  27.983  21.452  1.00  0.00     0.214 C 
ATOM     29  O   UNL     1       7.712  30.146  20.825  1.00  0.00    -0.332 OA
ATOM     30  C   UNL     1       8.072  28.039  22.845  1.00  0.00     0.180 C 
ATOM     31  C   UNL     1       7.051  30.242  22.081  1.00  0.00     0.179 C 
ATOM     32  C   UNL     1       6.765  28.852  22.712  1.00  0.00     0.177 C 
BRANCH  28  33
ATOM     33  O   UNL     1       9.945  27.256  21.408  1.00  0.00    -0.384 OA
ATOM     34  H   UNL     1      10.676  27.801  20.978  1.00  0.00     0.211 HD
ENDBRANCH  28  33
BRANCH  30  35
ATOM     35  O   UNL     1       7.776  26.740  23.263  1.00  0.00    -0.387 OA
ATOM     36  H   UNL     1       6.782  26.665  23.237  1.00  0.00     0.211 HD
ENDBRANCH  30  35
BRANCH  31  37
ATOM     37  C   UNL     1       7.717  31.256  23.025  1.00  0.00     0.191 C 
BRANCH  37  38
ATOM     38  O   UNL     1       7.353  31.041  24.370  1.00  0.00    -0.394 OA
ATOM     39  H   UNL     1       8.186  30.875  24.902  1.00  0.00     0.210 HD
ENDBRANCH  37  38
ENDBRANCH  31  37
BRANCH  32  40
ATOM     40  O   UNL     1       5.875  28.110  21.891  1.00  0.00    -0.387 OA
ATOM     41  H   UNL     1       5.931  27.167  22.209  1.00  0.00     0.211 HD
ENDBRANCH  32  40
ENDBRANCH   1  27
TORSDOF 12
ENDMDL
MODEL 3
REMARK VINA RESULT:    -5.883      1.676      1.949
REMARK INTER + INTRA:         -10.343
REMARK INTER:                  -8.557
REMARK INTRA:                  -1.785
REMARK UNBOUND:                -1.709
REMARK SMILES O=c1c(O[C@@H]2O[C@H](CO)[C@@H](O)[C@@H](O)[C@@H]2O)c(-c2ccc(O)c(O)c2)oc2cc(O)cc(O)c12
REMARK SMILES IDX 4 1 3 2 16 3 25 4 2 5 26 6 1 7 33 8 27 9 31 10 28 11 30 12
REMARK SMILES IDX 17 13 18 14 19 15 20 16 24 17 22 18 21 19 23 21 32 23 29 25
REMARK SMILES IDX 5 27 14 28 6 29 12 30 7 31 10 32 15 33 13 35 8 37 9 38 11 40
REMARK H PARENT 21 20 23 22 32 24 29 26 15 34 13 36 9 39 11 41
REMARK Flexibility Score: inf
ROOT
ATOM      1  O   UNL     1      12.973  30.320  19.928  1.00  0.00    -0.454 OA
ENDROOT
BRANCH   1   2
ATOM      2  C   UNL     1      12.072  29.301  20.295  1.00  0.00     0.214 A 
ATOM      3  C   UNL     1      10.810  29.655  20.849  1.00  0.00     0.180 A 
ATOM      4  O   UNL     1       9.987  28.701  21.260  1.00  0.00    -0.452 OA
ATOM      5  C   UNL     1      12.362  27.923  20.131  1.00  0.00     0.239 A 
ATOM      6  C   UNL     1      10.232  27.409  21.152  1.00  0.00     0.146 A 
ATOM      7  O   UNL     1      13.458  27.564  19.618  1.00  0.00    -0.285 OA
ATOM      8  C   UNL     1      11.452  26.958  20.599  1.00  0.00     0.111 A 
ATOM      9  C   UNL     1       9.261  26.494  21.573  1.00  0.00     0.094 A 
ATOM     10  C   UNL     1      11.686  25.560  20.510  1.00  0.00     0.134 A 
ATOM     11  C   UNL     1       9.491  25.120  21.453  1.00  0.00     0.123 A 
ATOM     12  C   UNL     1      10.707  24.663  20.952  1.00  0.00     0.093 A 
BRANCH   3  13
ATOM     13  C   UNL     1      10.303  31.069  20.987  1.00  0.00     0.025 A 
ATOM     14  C   UNL     1       9.416  31.684  20.087  1.00  0.00     0.016 A 
ATOM     15  C   UNL     1       8.883  32.952  20.350  1.00  0.00     0.051 A 
ATOM     16  C   UNL     1       9.207  33.632  21.523  1.00  0.00     0.157 A 
ATOM     17  C   UNL     1      10.637  31.774  22.164  1.00  0.00     0.062 A 
ATOM     18  C   UNL     1      10.144  33.067  22.406  1.00  0.00     0.158 A 
BRANCH  16  19
ATOM     19  O   UNL     1       8.617  34.886  21.738  1.00  0.00    -0.504 OA
ATOM     20  H   UNL     1       7.713  35.153  21.376  1.00  0.00     0.293 HD
ENDBRANCH  16  19
BRANCH  18  21
ATOM     21  O   UNL     1      10.590  33.728  23.558  1.00  0.00    -0.504 OA
ATOM     22  H   UNL     1      10.091  34.490  23.996  1.00  0.00     0.293 HD
ENDBRANCH  18  21
ENDBRANCH   3  13
BRANCH  10  23
ATOM     23  O   UNL     1      12.884  25.059  20.001  1.00  0.00    -0.507 OA
ATOM     24  H   UNL     1      13.325  24.237  20.404  1.00  0.00     0.293 HD
ENDBRANCH  10  23
BRANCH  11  25
ATOM     25  O   UNL     1       8.516  24.197  21.824  1.00  0.00    -0.508 OA
ATOM     26  H   UNL     1       7.612  24.171  21.362  1.00  0.00     0.293 HD
ENDBRANCH  11  25
ENDBRANCH   1   2
BRANCH   1  27
ATOM     27  C   UNL     1      14.099  30.833  20.650  1.00  0.00     0.339 C 
ATOM     28  C   UNL     1      15.373  30.719  19.784  1.00  0.00     0.214 C 
ATOM     29  O   UNL     1      13.885  32.159  21.138  1.00  0.00    -0.332 OA
ATOM     30  C   UNL     1      15.382  31.757  18.640  1.00  0.00     0.180 C 
ATOM     31  C   UNL     1      13.875  33.164  20.132  1.00  0.00     0.179 C 
ATOM     32  C   UNL     1      15.164  33.152  19.265  1.00  0.00     0.177 C 
BRANCH  28  33
ATOM     33  O   UNL     1      15.575  29.386  19.368  1.00  0.00    -0.384 OA
ATOM     34  H   UNL     1      15.716  29.339  18.371  1.00  0.00     0.211 HD
ENDBRANCH  28  33
BRANCH  30  35
ATOM     35  O   UNL     1      16.622  31.719  17.998  1.00  0.00    -0.387 OA
ATOM     36  H   UNL     1      16.945  30.780  18.085  1.00  0.00     0.211 HD
ENDBRANCH  30  35
BRANCH  31  37
ATOM     37  C   UNL     1      12.561  33.193  19.335  1.00  0.00     0.191 C 
BRANCH  37  38
ATOM     38  O   UNL     1      11.986  34.481  19.314  1.00  0.00    -0.394 OA
ATOM     39  H   UNL     1      12.486  35.063  19.959  1.00  0.00     0.210 HD
ENDBRANCH  37  38
ENDBRANCH  31  37
BRANCH  32  40
ATOM     40  O   UNL     1      16.299  33.450  20.064  1.00  0.00    -0.387 OA
ATOM     41  H   UNL     1      16.787  32.589  20.179  1.00  0.00     0.211 HD
ENDBRANCH  32  40
ENDBRANCH   1  27
TORSDOF 12
ENDMDL
MODEL 4
REMARK VINA RESULT:    -5.862      1.870      7.256
REMARK INTER + INTRA:         -10.312
REMARK INTER:                  -9.094
REMARK INTRA:                  -1.218
REMARK UNBOUND:                -1.709
REMARK SMILES O=c1c(O[C@@H]2O[C@H](CO)[C@@H](O)[C@@H](O)[C@@H]2O)c(-c2ccc(O)c(O)c2)oc2cc(O)cc(O)c12
REMARK SMILES IDX 4 1 3 2 16 3 25 4 2 5 26 6 1 7 33 8 27 9 31 10 28 11 30 12
REMARK SMILES IDX 17 13 18 14 19 15 20 16 24 17 22 18 21 19 23 21 32 23 29 25
REMARK SMILES IDX 5 27 14 28 6 29 12 30 7 31 10 32 15 33 13 35 8 37 9 38 11 40
REMARK H PARENT 21 20 23 22 32 24 29 26 15 34 13 36 9 39 11 41
REMARK Flexibility Score: inf
ROOT
ATOM      1  O   UNL     1      10.143  31.345  22.707  1.00  0.00    -0.454 OA
ENDROOT
BRANCH   1   2
ATOM      2  C   UNL     1      11.209  31.283  21.788  1.00  0.00     0.214 A 
ATOM      3  C   UNL     1      11.147  30.354  20.711  1.00  0.00     0.180 A 
ATOM      4  O   UNL     1      12.177  30.242  19.885  1.00  0.00    -0.452 OA
ATOM      5  C   UNL     1      12.353  32.116  21.880  1.00  0.00     0.239 A 
ATOM      6  C   UNL     1      13.270  30.978  19.955  1.00  0.00     0.146 A 
ATOM      7  O   UNL     1      12.438  32.972  22.803  1.00  0.00    -0.285 OA
ATOM      8  C   UNL     1      13.419  31.940  20.979  1.00  0.00     0.111 A 
ATOM      9  C   UNL     1      14.269  30.806  18.991  1.00  0.00     0.094 A 
ATOM     10  C   UNL     1      14.615  32.704  21.030  1.00  0.00     0.134 A 
ATOM     11  C   UNL     1      15.430  31.585  19.034  1.00  0.00     0.123 A 
ATOM     12  C   UNL     1      15.608  32.504  20.065  1.00  0.00     0.093 A 
BRANCH   3  13
ATOM     13  C   UNL     1       9.957  29.477  20.406  1.00  0.00     0.025 A 
ATOM     14  C   UNL     1       8.973  29.783  19.452  1.00  0.00     0.016 A 
ATOM     15  C   UNL     1       7.971  28.860  19.127  1.00  0.00     0.051 A 
ATOM     16  C   UNL     1       7.935  27.604  19.732  1.00  0.00     0.157 A 
ATOM     17  C   UNL     1       9.902  28.209  21.025  1.00  0.00     0.062 A 
ATOM     18  C   UNL     1       8.869  27.301  20.738  1.00  0.00     0.158 A 
BRANCH  16  19
ATOM     19  O   UNL     1       6.921  26.717  19.341  1.00  0.00    -0.504 OA
ATOM     20  H   UNL     1       5.949  26.826  19.591  1.00  0.00     0.293 HD
ENDBRANCH  16  19
BRANCH  18  21
ATOM     21  O   UNL     1       8.842  26.099  21.456  1.00  0.00    -0.504 OA
ATOM     22  H   UNL     1       8.106  25.412  21.372  1.00  0.00     0.293 HD
ENDBRANCH  18  21
ENDBRANCH   3  13
BRANCH  10  23
ATOM     23  O   UNL     1      14.828  33.646  22.037  1.00  0.00    -0.507 OA
ATOM     24  H   UNL     1      14.131  34.353  22.252  1.00  0.00     0.293 HD
ENDBRANCH  10  23
BRANCH  11  25
ATOM     25  O   UNL     1      16.412  31.459  18.055  1.00  0.00    -0.508 OA
ATOM     26  H   UNL     1      16.583  30.572  17.592  1.00  0.00     0.293 HD
ENDBRANCH  11  25
ENDBRANCH   1   2
BRANCH   1  27
ATOM     27  C   UNL     1       9.013  32.225  22.719  1.00  0.00     0.339 C 
ATOM     28  C   UNL     1       7.771  31.475  23.250  1.00  0.00     0.214 C 
ATOM     29  O   UNL     1       9.264  33.439  23.429  1.00  0.00    -0.332 OA
ATOM     30  C   UNL     1       7.854  31.237  24.774  1.00  0.00     0.180 C 
ATOM     31  C   UNL     1       9.359  33.289  24.840  1.00  0.00     0.179 C 
ATOM     32  C   UNL     1       8.107  32.602  25.451  1.00  0.00     0.177 C 
BRANCH  28  33
ATOM     33  O   UNL     1       7.528  30.312  22.489  1.00  0.00    -0.384 OA
ATOM     34  H   UNL     1       8.078  30.315  21.643  1.00  0.00     0.211 HD
ENDBRANCH  28  33
BRANCH  30  35
ATOM     35  O   UNL     1       6.641  30.709  25.222  1.00  0.00    -0.387 OA
ATOM     36  H   UNL     1       6.234  31.413  25.797  1.00  0.00     0.211 HD
ENDBRANCH  30  35
BRANCH  31  37
ATOM     37  C   UNL     1      10.705  32.694  25.284  1.00  0.00     0.191 C 
BRANCH  37  38
ATOM     38  O   UNL     1      10.704  32.351  26.652  1.00  0.00    -0.394 OA
ATOM     39  H   UNL     1      10.077  32.967  27.133  1.00  0.00     0.210 HD
ENDBRANCH  37  38
ENDBRANCH  31  37
BRANCH  32  40
ATOM     40  O   UNL     1       6.955  33.406  25.250  1.00  0.00    -0.387 OA
ATOM     41  H   UNL     1       6.302  33.130  25.951  1.00  0.00     0.211 HD
ENDBRANCH  32  40
ENDBRANCH   1  27
TORSDOF 12
ENDMDL
MODEL 5
REMARK VINA RESULT:    -5.743      2.045      5.217
REMARK INTER + INTRA:         -10.138
REMARK INTER:                  -8.784
REMARK INTRA:                  -1.354
REMARK UNBOUND:                -1.709
REMARK SMILES O=c1c(O[C@@H]2O[C@H](CO)[C@@H](O)[C@@H](O)[C@@H]2O)c(-c2ccc(O)c(O)c2)oc2cc(O)cc(O)c12
REMARK SMILES IDX 4 1 3 2 16 3 25 4 2 5 26 6 1 7 33 8 27 9 31 10 28 11 30 12
REMARK SMILES IDX 17 13 18 14 19 15 20 16 24 17 22 18 21 19 23 21 32 23 29 25
REMARK SMILES IDX 5 27 14 28 6 29 12 30 7 31 10 32 15 33 13 35 8 37 9 38 11 40
REMARK H PARENT 21 20 23 22 32 24 29 26 15 34 13 36 9 39 11 41
REMARK Flexibility Score: inf
ROOT
ATOM      1  O   UNL     1       9.953  31.002  20.924  1.00  0.00    -0.454 OA
ENDROOT
BRANCH   1   2
ATOM      2  C   UNL     1      10.370  29.657  20.914  1.00  0.00     0.214 A 
ATOM      3  C   UNL     1      11.761  29.360  20.858  1.00  0.00     0.180 A 
ATOM      4  O   UNL     1      12.157  28.097  20.778  1.00  0.00    -0.452 OA
ATOM      5  C   UNL     1       9.462  28.569  20.963  1.00  0.00     0.239 A 
ATOM      6  C   UNL     1      11.342  27.061  20.792  1.00  0.00     0.146 A 
ATOM      7  O   UNL     1       8.221  28.786  21.041  1.00  0.00    -0.285 OA
ATOM      8  C   UNL     1       9.944  27.252  20.862  1.00  0.00     0.111 A 
ATOM      9  C   UNL     1      11.881  25.770  20.756  1.00  0.00     0.094 A 
ATOM     10  C   UNL     1       9.097  26.112  20.862  1.00  0.00     0.134 A 
ATOM     11  C   UNL     1      11.039  24.654  20.787  1.00  0.00     0.123 A 
ATOM     12  C   UNL     1       9.658  24.830  20.810  1.00  0.00     0.093 A 
BRANCH   3  13
ATOM     13  C   UNL     1      12.859  30.394  20.912  1.00  0.00     0.025 A 
ATOM     14  C   UNL     1      12.978  31.371  21.915  1.00  0.00     0.016 A 
ATOM     15  C   UNL     1      14.096  32.212  21.976  1.00  0.00     0.051 A 
ATOM     16  C   UNL     1      15.131  32.089  21.050  1.00  0.00     0.157 A 
ATOM     17  C   UNL     1      13.906  30.290  19.970  1.00  0.00     0.062 A 
ATOM     18  C   UNL     1      15.004  31.165  19.998  1.00  0.00     0.158 A 
BRANCH  16  19
ATOM     19  O   UNL     1      16.235  32.944  21.183  1.00  0.00    -0.504 OA
ATOM     20  H   UNL     1      17.195  32.638  21.125  1.00  0.00     0.293 HD
ENDBRANCH  16  19
BRANCH  18  21
ATOM     21  O   UNL     1      15.956  31.046  18.978  1.00  0.00    -0.504 OA
ATOM     22  H   UNL     1      15.738  31.130  17.994  1.00  0.00     0.293 HD
ENDBRANCH  18  21
ENDBRANCH   3  13
BRANCH  10  23
ATOM     23  O   UNL     1       7.709  26.243  20.899  1.00  0.00    -0.507 OA
ATOM     24  H   UNL     1       7.213  26.796  20.205  1.00  0.00     0.293 HD
ENDBRANCH  10  23
BRANCH  11  25
ATOM     25  O   UNL     1      11.562  23.364  20.800  1.00  0.00    -0.508 OA
ATOM     26  H   UNL     1      12.539  23.193  21.017  1.00  0.00     0.293 HD
ENDBRANCH  11  25
ENDBRANCH   1   2
BRANCH   1  27
ATOM     27  C   UNL     1       9.892  31.937  19.841  1.00  0.00     0.339 C 
ATOM     28  C   UNL     1       8.419  32.208  19.464  1.00  0.00     0.214 C 
ATOM     29  O   UNL     1      10.620  33.138  20.105  1.00  0.00    -0.332 OA
ATOM     30  C   UNL     1       7.710  33.083  20.521  1.00  0.00     0.180 C 
ATOM     31  C   UNL     1      10.023  33.988  21.076  1.00  0.00     0.179 C 
ATOM     32  C   UNL     1       8.557  34.359  20.723  1.00  0.00     0.177 C 
BRANCH  28  33
ATOM     33  O   UNL     1       7.753  31.002  19.160  1.00  0.00    -0.384 OA
ATOM     34  H   UNL     1       6.902  30.917  19.695  1.00  0.00     0.211 HD
ENDBRANCH  28  33
BRANCH  30  35
ATOM     35  O   UNL     1       6.442  33.432  20.051  1.00  0.00    -0.387 OA
ATOM     36  H   UNL     1       5.924  32.581  20.008  1.00  0.00     0.211 HD
ENDBRANCH  30  35
BRANCH  31  37
ATOM     37  C   UNL     1      10.235  33.486  22.514  1.00  0.00     0.191 C 
BRANCH  37  38
ATOM     38  O   UNL     1       9.660  34.354  23.465  1.00  0.00    -0.394 OA
ATOM     39  H   UNL     1      10.168  35.217  23.456  1.00  0.00     0.210 HD
ENDBRANCH  37  38
ENDBRANCH  31  37
BRANCH  32  40
ATOM     40  O   UNL     1       8.513  35.103  19.515  1.00  0.00    -0.387 OA
ATOM     41  H   UNL     1       8.990  35.958  19.703  1.00  0.00     0.211 HD
ENDBRANCH  32  40
ENDBRANCH   1  27
TORSDOF 12
ENDMDL
MODEL 6
REMARK VINA RESULT:    -5.656      1.995      3.155
REMARK INTER + INTRA:         -10.010
REMARK INTER:                  -8.954
REMARK INTRA:                  -1.057
REMARK UNBOUND:                -1.709
REMARK SMILES O=c1c(O[C@@H]2O[C@H](CO)[C@@H](O)[C@@H](O)[C@@H]2O)c(-c2ccc(O)c(O)c2)oc2cc(O)cc(O)c12
REMARK SMILES IDX 4 1 3 2 16 3 25 4 2 5 26 6 1 7 33 8 27 9 31 10 28 11 30 12
REMARK SMILES IDX 17 13 18 14 19 15 20 16 24 17 22 18 21 19 23 21 32 23 29 25
REMARK SMILES IDX 5 27 14 28 6 29 12 30 7 31 10 32 15 33 13 35 8 37 9 38 11 40
REMARK H PARENT 21 20 23 22 32 24 29 26 15 34 13 36 9 39 11 41
REMARK Flexibility Score: inf
ROOT
ATOM      1  O   UNL     1      13.191  30.830  20.504  1.00  0.00    -0.454 OA
ENDROOT
BRANCH   1   2
ATOM      2  C   UNL     1      12.370  29.694  20.649  1.00  0.00     0.214 A 
ATOM      3  C   UNL     1      11.015  29.862  21.051  1.00  0.00     0.180 A 
ATOM      4  O   UNL     1      10.257  28.793  21.255  1.00  0.00    -0.452 OA
ATOM      5  C   UNL     1      12.830  28.376  20.403  1.00  0.00     0.239 A 
ATOM      6  C   UNL     1      10.658  27.551  21.066  1.00  0.00     0.146 A 
ATOM      7  O   UNL     1      14.017  28.183  20.018  1.00  0.00    -0.285 OA
ATOM      8  C   UNL     1      11.981  27.283  20.650  1.00  0.00     0.111 A 
ATOM      9  C   UNL     1       9.749  26.506  21.263  1.00  0.00     0.094 A 
ATOM     10  C   UNL     1      12.380  25.932  20.468  1.00  0.00     0.134 A 
ATOM     11  C   UNL     1      10.145  25.181  21.052  1.00  0.00     0.123 A 
ATOM     12  C   UNL     1      11.459  24.901  20.687  1.00  0.00     0.093 A 
BRANCH   3  13
ATOM     13  C   UNL     1      10.339  31.197  21.244  1.00  0.00     0.025 A 
ATOM     14  C   UNL     1      10.835  32.224  22.065  1.00  0.00     0.016 A 
ATOM     15  C   UNL     1      10.227  33.485  22.092  1.00  0.00     0.051 A 
ATOM     16  C   UNL     1       9.120  33.760  21.290  1.00  0.00     0.157 A 
ATOM     17  C   UNL     1       9.208  31.482  20.448  1.00  0.00     0.062 A 
ATOM     18  C   UNL     1       8.565  32.729  20.511  1.00  0.00     0.158 A 
BRANCH  16  19
ATOM     19  O   UNL     1       8.575  35.051  21.344  1.00  0.00    -0.504 OA
ATOM     20  H   UNL     1       8.047  35.407  22.127  1.00  0.00     0.293 HD
ENDBRANCH  16  19
BRANCH  18  21
ATOM     21  O   UNL     1       7.401  32.900  19.751  1.00  0.00    -0.504 OA
ATOM     22  H   UNL     1       7.147  33.769  19.301  1.00  0.00     0.293 HD
ENDBRANCH  18  21
ENDBRANCH   3  13
BRANCH  10  23
ATOM     23  O   UNL     1      13.683  25.607  20.088  1.00  0.00    -0.507 OA
ATOM     24  H   UNL     1      14.082  25.961  19.224  1.00  0.00     0.293 HD
ENDBRANCH  10  23
BRANCH  11  25
ATOM     25  O   UNL     1       9.239  24.133  21.199  1.00  0.00    -0.508 OA
ATOM     26  H   UNL     1       9.556  23.175  21.313  1.00  0.00     0.293 HD
ENDBRANCH  11  25
ENDBRANCH   1   2
BRANCH   1  27
ATOM     27  C   UNL     1      13.949  31.257  19.367  1.00  0.00     0.339 C 
ATOM     28  C   UNL     1      13.321  32.535  18.768  1.00  0.00     0.214 C 
ATOM     29  O   UNL     1      15.339  31.414  19.655  1.00  0.00    -0.332 OA
ATOM     30  C   UNL     1      13.582  33.772  19.657  1.00  0.00     0.180 C 
ATOM     31  C   UNL     1      15.649  32.533  20.476  1.00  0.00     0.179 C 
ATOM     32  C   UNL     1      15.105  33.867  19.896  1.00  0.00     0.177 C 
BRANCH  28  33
ATOM     33  O   UNL     1      11.963  32.320  18.449  1.00  0.00    -0.384 OA
ATOM     34  H   UNL     1      11.766  32.611  17.505  1.00  0.00     0.211 HD
ENDBRANCH  28  33
BRANCH  30  35
ATOM     35  O   UNL     1      13.140  34.916  18.990  1.00  0.00    -0.387 OA
ATOM     36  H   UNL     1      13.950  35.317  18.571  1.00  0.00     0.211 HD
ENDBRANCH  30  35
BRANCH  31  37
ATOM     37  C   UNL     1      15.319  32.290  21.958  1.00  0.00     0.191 C 
BRANCH  37  38
ATOM     38  O   UNL     1      16.474  32.004  22.715  1.00  0.00    -0.394 OA
ATOM     39  H   UNL     1      16.340  31.125  23.178  1.00  0.00     0.210 HD
ENDBRANCH  37  38
ENDBRANCH  31  37
BRANCH  32  40
ATOM     40  O   UNL     1      15.723  34.151  18.649  1.00  0.00    -0.387 OA
ATOM     41  H   UNL     1      14.982  34.211  17.985  1.00  0.00     0.211 HD
ENDBRANCH  32  40
ENDBRANCH   1  27
TORSDOF 12
ENDMDL
MODEL 7
REMARK VINA RESULT:    -5.451      2.149      6.693
REMARK INTER + INTRA:          -9.708
REMARK INTER:                  -7.876
REMARK INTRA:                  -1.832
REMARK UNBOUND:                -1.709
REMARK SMILES O=c1c(O[C@@H]2O[C@H](CO)[C@@H](O)[C@@H](O)[C@@H]2O)c(-c2ccc(O)c(O)c2)oc2cc(O)cc(O)c12
REMARK SMILES IDX 4 1 3 2 16 3 25 4 2 5 26 6 1 7 33 8 27 9 31 10 28 11 30 12
REMARK SMILES IDX 17 13 18 14 19 15 20 16 24 17 22 18 21 19 23 21 32 23 29 25
REMARK SMILES IDX 5 27 14 28 6 29 12 30 7 31 10 32 15 33 13 35 8 37 9 38 11 40
REMARK H PARENT 21 20 23 22 32 24 29 26 15 34 13 36 9 39 11 41
REMARK Flexibility Score: inf
ROOT
ATOM      1  O   UNL     1      11.582  29.511  19.689  1.00  0.00    -0.454 OA
ENDROOT
BRANCH   1   2
ATOM      2  C   UNL     1      12.195  30.769  19.527  1.00  0.00     0.214 A 
ATOM      3  C   UNL     1      11.398  31.946  19.596  1.00  0.00     0.180 A 
ATOM      4  O   UNL     1      11.957  33.127  19.375  1.00  0.00    -0.452 OA
ATOM      5  C   UNL     1      13.586  30.923  19.302  1.00  0.00     0.239 A 
ATOM      6  C   UNL     1      13.241  33.309  19.134  1.00  0.00     0.146 A 
ATOM      7  O   UNL     1      14.336  29.908  19.261  1.00  0.00    -0.285 OA
ATOM      8  C   UNL     1      14.117  32.203  19.063  1.00  0.00     0.111 A 
ATOM      9  C   UNL     1      13.725  34.611  18.970  1.00  0.00     0.094 A 
ATOM     10  C   UNL     1      15.491  32.437  18.789  1.00  0.00     0.134 A 
ATOM     11  C   UNL     1      15.085  34.831  18.730  1.00  0.00     0.123 A 
ATOM     12  C   UNL     1      15.951  33.747  18.612  1.00  0.00     0.093 A 
BRANCH   3  13
ATOM     13  C   UNL     1       9.928  31.964  19.937  1.00  0.00     0.025 A 
ATOM     14  C   UNL     1       8.898  31.709  19.016  1.00  0.00     0.016 A 
ATOM     15  C   UNL     1       7.565  31.611  19.432  1.00  0.00     0.051 A 
ATOM     16  C   UNL     1       7.225  31.747  20.777  1.00  0.00     0.157 A 
ATOM     17  C   UNL     1       9.571  32.117  21.295  1.00  0.00     0.062 A 
ATOM     18  C   UNL     1       8.229  32.069  21.708  1.00  0.00     0.158 A 
BRANCH  16  19
ATOM     19  O   UNL     1       5.875  31.611  21.130  1.00  0.00    -0.504 OA
ATOM     20  H   UNL     1       5.471  30.760  21.494  1.00  0.00     0.293 HD
ENDBRANCH  16  19
BRANCH  18  21
ATOM     21  O   UNL     1       7.956  32.312  23.059  1.00  0.00    -0.504 OA
ATOM     22  H   UNL     1       8.559  32.851  23.665  1.00  0.00     0.293 HD
ENDBRANCH  18  21
ENDBRANCH   3  13
BRANCH  10  23
ATOM     23  O   UNL     1      16.396  31.380  18.678  1.00  0.00    -0.507 OA
ATOM     24  H   UNL     1      16.608  30.962  17.776  1.00  0.00     0.293 HD
ENDBRANCH  10  23
BRANCH  11  25
ATOM     25  O   UNL     1      15.590  36.123  18.612  1.00  0.00    -0.508 OA
ATOM     26  H   UNL     1      16.514  36.362  18.959  1.00  0.00     0.293 HD
ENDBRANCH  11  25
ENDBRANCH   1   2
BRANCH   1  27
ATOM     27  C   UNL     1      11.065  28.623  18.692  1.00  0.00     0.339 C 
ATOM     28  C   UNL     1      11.861  27.299  18.706  1.00  0.00     0.214 C 
ATOM     29  O   UNL     1       9.657  28.417  18.810  1.00  0.00    -0.332 OA
ATOM     30  C   UNL     1      11.513  26.436  19.939  1.00  0.00     0.180 C 
ATOM     31  C   UNL     1       9.267  27.632  19.931  1.00  0.00     0.179 C 
ATOM     32  C   UNL     1       9.980  26.254  19.970  1.00  0.00     0.177 C 
BRANCH  28  33
ATOM     33  O   UNL     1      13.240  27.544  18.534  1.00  0.00    -0.384 OA
ATOM     34  H   UNL     1      13.746  26.681  18.409  1.00  0.00     0.211 HD
ENDBRANCH  28  33
BRANCH  30  35
ATOM     35  O   UNL     1      12.131  25.190  19.814  1.00  0.00    -0.387 OA
ATOM     36  H   UNL     1      12.108  24.970  18.842  1.00  0.00     0.211 HD
ENDBRANCH  30  35
BRANCH  31  37
ATOM     37  C   UNL     1       9.312  28.421  21.250  1.00  0.00     0.191 C 
BRANCH  37  38
ATOM     38  O   UNL     1       8.031  28.563  21.823  1.00  0.00    -0.394 OA
ATOM     39  H   UNL     1       7.361  28.659  21.084  1.00  0.00     0.210 HD
ENDBRANCH  37  38
ENDBRANCH  31  37
BRANCH  32  40
ATOM     40  O   UNL     1       9.613  25.476  18.840  1.00  0.00    -0.387 OA
ATOM     41  H   UNL     1      10.312  25.649  18.151  1.00  0.00     0.211 HD
ENDBRANCH  32  40
ENDBRANCH   1  27
TORSDOF 12
ENDMDL
MODEL 8
REMARK VINA RESULT:    -5.436      2.259      5.123
REMARK INTER + INTRA:          -9.687
REMARK INTER:                  -8.065
REMARK INTRA:                  -1.622
REMARK UNBOUND:                -1.709
REMARK SMILES O=c1c(O[C@@H]2O[C@H](CO)[C@@H](O)[C@@H](O)[C@@H]2O)c(-c2ccc(O)c(O)c2)oc2cc(O)cc(O)c12
REMARK SMILES IDX 4 1 3 2 16 3 25 4 2 5 26 6 1 7 33 8 27 9 31 10 28 11 30 12
REMARK SMILES IDX 17 13 18 14 19 15 20 16 24 17 22 18 21 19 23 21 32 23 29 25
REMARK SMILES IDX 5 27 14 28 6 29 12 30 7 31 10 32 15 33 13 35 8 37 9 38 11 40
REMARK H PARENT 21 20 23 22 32 24 29 26 15 34 13 36 9 39 11 41
REMARK Flexibility Score: inf
ROOT
ATOM      1  O   UNL     1      10.312  31.154  19.945  1.00  0.00    -0.454 OA
ENDROOT
BRANCH   1   2
ATOM      2  C   UNL     1      10.463  29.850  20.458  1.00  0.00     0.214 A 
ATOM      3  C   UNL     1      11.751  29.246  20.455  1.00  0.00     0.180 A 
ATOM      4  O   UNL     1      11.887  27.995  20.872  1.00  0.00    -0.452 OA
ATOM      5  C   UNL     1       9.382  29.104  20.992  1.00  0.00     0.239 A 
ATOM      6  C   UNL     1      10.901  27.259  21.347  1.00  0.00     0.146 A 
ATOM      7  O   UNL     1       8.227  29.612  21.040  1.00  0.00    -0.285 OA
ATOM      8  C   UNL     1       9.588  27.777  21.407  1.00  0.00     0.111 A 
ATOM      9  C   UNL     1      11.177  25.967  21.809  1.00  0.00     0.094 A 
ATOM     10  C   UNL     1       8.550  26.950  21.913  1.00  0.00     0.134 A 
ATOM     11  C   UNL     1      10.152  25.173  22.333  1.00  0.00     0.123 A 
ATOM     12  C   UNL     1       8.846  25.655  22.355  1.00  0.00     0.093 A 
BRANCH   3  13
ATOM     13  C   UNL     1      13.021  29.941  20.027  1.00  0.00     0.025 A 
ATOM     14  C   UNL     1      13.374  30.192  18.691  1.00  0.00     0.016 A 
ATOM     15  C   UNL     1      14.502  30.960  18.374  1.00  0.00     0.051 A 
ATOM     16  C   UNL     1      15.295  31.510  19.380  1.00  0.00     0.157 A 
ATOM     17  C   UNL     1      13.841  30.489  21.038  1.00  0.00     0.062 A 
ATOM     18  C   UNL     1      15.001  31.216  20.723  1.00  0.00     0.158 A 
BRANCH  16  19
ATOM     19  O   UNL     1      16.394  32.292  18.994  1.00  0.00    -0.504 OA
ATOM     20  H   UNL     1      16.969  32.813  19.640  1.00  0.00     0.293 HD
ENDBRANCH  16  19
BRANCH  18  21
ATOM     21  O   UNL     1      15.802  31.655  21.785  1.00  0.00    -0.504 OA
ATOM     22  H   UNL     1      16.593  32.272  21.672  1.00  0.00     0.293 HD
ENDBRANCH  18  21
ENDBRANCH   3  13
BRANCH  10  23
ATOM     23  O   UNL     1       7.230  27.399  21.967  1.00  0.00    -0.507 OA
ATOM     24  H   UNL     1       6.994  28.291  22.393  1.00  0.00     0.293 HD
ENDBRANCH  10  23
BRANCH  11  25
ATOM     25  O   UNL     1      10.419  23.904  22.839  1.00  0.00    -0.508 OA
ATOM     26  H   UNL     1       9.851  23.502  23.579  1.00  0.00     0.293 HD
ENDBRANCH  11  25
ENDBRANCH   1   2
BRANCH   1  27
ATOM     27  C   UNL     1       9.914  32.351  20.623  1.00  0.00     0.339 C 
ATOM     28  C   UNL     1      10.776  33.538  20.141  1.00  0.00     0.214 C 
ATOM     29  O   UNL     1       8.513  32.610  20.512  1.00  0.00    -0.332 OA
ATOM     30  C   UNL     1      10.391  33.982  18.713  1.00  0.00     0.180 C 
ATOM     31  C   UNL     1       8.090  33.018  19.217  1.00  0.00     0.179 C 
ATOM     32  C   UNL     1       8.871  34.256  18.698  1.00  0.00     0.177 C 
BRANCH  28  33
ATOM     33  O   UNL     1      12.148  33.261  20.318  1.00  0.00    -0.384 OA
ATOM     34  H   UNL     1      12.296  32.281  20.501  1.00  0.00     0.211 HD
ENDBRANCH  28  33
BRANCH  30  35
ATOM     35  O   UNL     1      11.081  35.154  18.396  1.00  0.00    -0.387 OA
ATOM     36  H   UNL     1      10.465  35.903  18.622  1.00  0.00     0.211 HD
ENDBRANCH  30  35
BRANCH  31  37
ATOM     37  C   UNL     1       8.002  31.846  18.225  1.00  0.00     0.191 C 
BRANCH  37  38
ATOM     38  O   UNL     1       7.297  30.751  18.766  1.00  0.00    -0.394 OA
ATOM     39  H   UNL     1       7.949  30.157  19.241  1.00  0.00     0.210 HD
ENDBRANCH  37  38
ENDBRANCH  31  37
BRANCH  32  40
ATOM     40  O   UNL     1       8.625  35.380  19.529  1.00  0.00    -0.387 OA
ATOM     41  H   UNL     1       7.713  35.704  19.289  1.00  0.00     0.211 HD
ENDBRANCH  32  40
ENDBRANCH   1  27
TORSDOF 12
ENDMDL
MODEL 9
REMARK VINA RESULT:    -5.336      2.087      5.135
REMARK INTER + INTRA:          -9.540
REMARK INTER:                  -8.244
REMARK INTRA:                  -1.296
REMARK UNBOUND:                -1.709
REMARK SMILES O=c1c(O[C@@H]2O[C@H](CO)[C@@H](O)[C@@H](O)[C@@H]2O)c(-c2ccc(O)c(O)c2)oc2cc(O)cc(O)c12
REMARK SMILES IDX 4 1 3 2 16 3 25 4 2 5 26 6 1 7 33 8 27 9 31 10 28 11 30 12
REMARK SMILES IDX 17 13 18 14 19 15 20 16 24 17 22 18 21 19 23 21 32 23 29 25
REMARK SMILES IDX 5 27 14 28 6 29 12 30 7 31 10 32 15 33 13 35 8 37 9 38 11 40
REMARK H PARENT 21 20 23 22 32 24 29 26 15 34 13 36 9 39 11 41
REMARK Flexibility Score: inf
ROOT
ATOM      1  O   UNL     1      10.409  30.788  20.511  1.00  0.00    -0.454 OA
ENDROOT
BRANCH   1   2
ATOM      2  C   UNL     1      10.530  29.430  20.867  1.00  0.00     0.214 A 
ATOM      3  C   UNL     1      11.773  28.766  20.666  1.00  0.00     0.180 A 
ATOM      4  O   UNL     1      11.873  27.472  20.934  1.00  0.00    -0.452 OA
ATOM      5  C   UNL     1       9.464  28.684  21.431  1.00  0.00     0.239 A 
ATOM      6  C   UNL     1      10.896  26.738  21.431  1.00  0.00     0.146 A 
ATOM      7  O   UNL     1       8.353  29.240  21.652  1.00  0.00    -0.285 OA
ATOM      8  C   UNL     1       9.629  27.311  21.682  1.00  0.00     0.111 A 
ATOM      9  C   UNL     1      11.138  25.392  21.724  1.00  0.00     0.094 A 
ATOM     10  C   UNL     1       8.598  26.486  22.206  1.00  0.00     0.134 A 
ATOM     11  C   UNL     1      10.123  24.597  22.267  1.00  0.00     0.123 A 
ATOM     12  C   UNL     1       8.858  25.138  22.476  1.00  0.00     0.093 A 
BRANCH   3  13
ATOM     13  C   UNL     1      13.034  29.440  20.182  1.00  0.00     0.025 A 
ATOM     14  C   UNL     1      13.480  29.421  18.850  1.00  0.00     0.016 A 
ATOM     15  C   UNL     1      14.587  30.179  18.449  1.00  0.00     0.051 A 
ATOM     16  C   UNL     1      15.265  30.988  19.359  1.00  0.00     0.157 A 
ATOM     17  C   UNL     1      13.738  30.250  21.099  1.00  0.00     0.062 A 
ATOM     18  C   UNL     1      14.879  30.972  20.711  1.00  0.00     0.158 A 
BRANCH  16  19
ATOM     19  O   UNL     1      16.348  31.743  18.885  1.00  0.00    -0.504 OA
ATOM     20  H   UNL     1      17.175  31.946  19.429  1.00  0.00     0.293 HD
ENDBRANCH  16  19
BRANCH  18  21
ATOM     21  O   UNL     1      15.566  31.685  21.701  1.00  0.00    -0.504 OA
ATOM     22  H   UNL     1      15.322  31.659  22.682  1.00  0.00     0.293 HD
ENDBRANCH  18  21
ENDBRANCH   3  13
BRANCH  10  23
ATOM     23  O   UNL     1       7.320  26.992  22.444  1.00  0.00    -0.507 OA
ATOM     24  H   UNL     1       6.784  27.438  21.706  1.00  0.00     0.293 HD
ENDBRANCH  10  23
BRANCH  11  25
ATOM     25  O   UNL     1      10.362  23.268  22.608  1.00  0.00    -0.508 OA
ATOM     26  H   UNL     1      10.565  22.998  23.565  1.00  0.00     0.293 HD
ENDBRANCH  11  25
ENDBRANCH   1   2
BRANCH   1  27
ATOM     27  C   UNL     1       9.322  31.457  19.861  1.00  0.00     0.339 C 
ATOM     28  C   UNL     1       8.711  32.509  20.812  1.00  0.00     0.214 C 
ATOM     29  O   UNL     1       9.690  32.010  18.596  1.00  0.00    -0.332 OA
ATOM     30  C   UNL     1       9.632  33.739  20.974  1.00  0.00     0.180 C 
ATOM     31  C   UNL     1      10.545  33.144  18.674  1.00  0.00     0.179 C 
ATOM     32  C   UNL     1       9.957  34.273  19.562  1.00  0.00     0.177 C 
BRANCH  28  33
ATOM     33  O   UNL     1       8.313  31.912  22.027  1.00  0.00    -0.384 OA
ATOM     34  H   UNL     1       8.744  31.008  22.140  1.00  0.00     0.211 HD
ENDBRANCH  28  33
BRANCH  30  35
ATOM     35  O   UNL     1       8.961  34.721  21.704  1.00  0.00    -0.387 OA
ATOM     36  H   UNL     1       8.015  34.412  21.772  1.00  0.00     0.211 HD
ENDBRANCH  30  35
BRANCH  31  37
ATOM     37  C   UNL     1      12.003  32.766  18.988  1.00  0.00     0.191 C 
BRANCH  37  38
ATOM     38  O   UNL     1      12.746  33.874  19.445  1.00  0.00    -0.394 OA
ATOM     39  H   UNL     1      13.137  33.647  20.339  1.00  0.00     0.210 HD
ENDBRANCH  37  38
ENDBRANCH  31  37
BRANCH  32  40
ATOM     40  O   UNL     1       8.752  34.768  18.998  1.00  0.00    -0.387 OA
ATOM     41  H   UNL     1       8.569  35.633  19.458  1.00  0.00     0.211 HD
ENDBRANCH  32  40
ENDBRANCH   1  27
TORSDOF 12
ENDMDL
