MODEL 1
REMARK VINA RESULT:    -3.560      0.000      0.000
REMARK INTER + INTRA:         -14.671
REMARK INTER:                  -8.972
REMARK INTRA:                  -5.699
REMARK UNBOUND:                -5.699
REMARK SMILES CCCCCCCCCCCCCCCCCCCCCCCCCCCC(=O)[O-]
REMARK SMILES IDX 15 1 16 2 17 3 18 4 19 5 20 6 21 7 22 8 23 9 24 10 25 11
REMARK SMILES IDX 26 12 27 13 28 14 29 15 30 16 14 17 13 18 12 19 11 20 10 21
REMARK SMILES IDX 9 22 8 23 7 24 6 25 5 26 4 27 3 28 2 29 1 30
REMARK H PARENT
REMARK Flexibility Score: inf
ROOT
ATOM      1  C   UNL     1     163.746 163.947 187.616  1.00  0.00     0.000 C 
ENDROOT
BRANCH   1   2
ATOM      2  C   UNL     1     162.781 163.357 188.659  1.00  0.00     0.000 C 
BRANCH   2   3
ATOM      3  C   UNL     1     161.498 164.180 188.892  1.00  0.00     0.000 C 
BRANCH   3   4
ATOM      4  C   UNL     1     160.195 163.522 188.394  1.00  0.00     0.000 C 
BRANCH   4   5
ATOM      5  C   UNL     1     159.892 162.136 188.995  1.00  0.00     0.000 C 
BRANCH   5   6
ATOM      6  C   UNL     1     159.876 161.019 187.938  1.00  0.00     0.000 C 
BRANCH   6   7
ATOM      7  C   UNL     1     159.909 161.568 186.502  1.00  0.00     0.000 C 
BRANCH   7   8
ATOM      8  C   UNL     1     161.152 161.102 185.722  1.00  0.00     0.000 C 
BRANCH   8   9
ATOM      9  C   UNL     1     161.524 162.060 184.579  1.00  0.00     0.000 C 
BRANCH   9  10
ATOM     10  C   UNL     1     161.102 163.513 184.863  1.00  0.00     0.000 C 
BRANCH  10  11
ATOM     11  C   UNL     1     162.182 164.537 184.471  1.00  0.00     0.000 C 
BRANCH  11  12
ATOM     12  C   UNL     1     161.931 165.969 184.976  1.00  0.00     0.006 C 
BRANCH  12  13
ATOM     13  C   UNL     1     160.621 166.106 185.767  1.00  0.00     0.053 C 
BRANCH  13  14
ATOM     14  C   UNL     1     160.583 167.397 186.524  1.00  0.00     0.041 C 
ATOM     15  O   UNL     1     160.573 168.496 185.906  1.00  0.00    -0.550 OA
ATOM     16  O   UNL     1     160.541 167.388 187.914  1.00  0.00    -0.550 OA
ENDBRANCH  13  14
ENDBRANCH  12  13
ENDBRANCH  11  12
ENDBRANCH  10  11
ENDBRANCH   9  10
ENDBRANCH   8   9
ENDBRANCH   7   8
ENDBRANCH   6   7
ENDBRANCH   5   6
ENDBRANCH   4   5
ENDBRANCH   3   4
ENDBRANCH   2   3
ENDBRANCH   1   2
BRANCH   1  17
ATOM     17  C   UNL     1     165.143 164.228 188.189  1.00  0.00     0.000 C 
BRANCH  17  18
ATOM     18  C   UNL     1     165.345 163.488 189.520  1.00  0.00     0.000 C 
BRANCH  18  19
ATOM     19  C   UNL     1     166.700 162.764 189.598  1.00  0.00     0.000 C 
BRANCH  19  20
ATOM     20  C   UNL     1     166.586 161.375 190.252  1.00  0.00     0.000 C 
BRANCH  20  21
ATOM     21  C   UNL     1     166.166 160.283 189.256  1.00  0.00     0.000 C 
BRANCH  21  22
ATOM     22  C   UNL     1     164.637 160.118 189.169  1.00  0.00    -0.000 C 
BRANCH  22  23
ATOM     23  C   UNL     1     164.124 160.131 187.720  1.00  0.00    -0.000 C 
BRANCH  23  24
ATOM     24  C   UNL     1     165.267 160.215 186.692  1.00  0.00    -0.000 C 
BRANCH  24  25
ATOM     25  C   UNL     1     164.899 161.066 185.465  1.00  0.00    -0.000 C 
BRANCH  25  26
ATOM     26  C   UNL     1     165.886 162.217 185.224  1.00  0.00    -0.000 C 
BRANCH  26  27
ATOM     27  C   UNL     1     167.167 162.023 186.046  1.00  0.00    -0.000 C 
BRANCH  27  28
ATOM     28  C   UNL     1     168.208 161.146 185.332  1.00  0.00    -0.000 C 
BRANCH  28  29
ATOM     29  C   UNL     1     169.033 160.263 186.292  1.00  0.00    -0.003 C 
ATOM     30  C   UNL     1     169.444 161.011 187.559  1.00  0.00     0.004 C 
ENDBRANCH  28  29
ENDBRANCH  27  28
ENDBRANCH  26  27
ENDBRANCH  25  26
ENDBRANCH  24  25
ENDBRANCH  23  24
ENDBRANCH  22  23
ENDBRANCH  21  22
ENDBRANCH  20  21
ENDBRANCH  19  20
ENDBRANCH  18  19
ENDBRANCH  17  18
ENDBRANCH   1  17
TORSDOF 26
ENDMDL
MODEL 2
REMARK VINA RESULT:    -3.354      3.082      5.389
REMARK INTER + INTRA:         -14.152
REMARK INTER:                  -8.805
REMARK INTRA:                  -5.346
REMARK UNBOUND:                -5.699
REMARK SMILES CCCCCCCCCCCCCCCCCCCCCCCCCCCC(=O)[O-]
REMARK SMILES IDX 15 1 16 2 17 3 18 4 19 5 20 6 21 7 22 8 23 9 24 10 25 11
REMARK SMILES IDX 26 12 27 13 28 14 29 15 30 16 14 17 13 18 12 19 11 20 10 21
REMARK SMILES IDX 9 22 8 23 7 24 6 25 5 26 4 27 3 28 2 29 1 30
REMARK H PARENT
REMARK Flexibility Score: inf
ROOT
ATOM      1  C   UNL     1     166.135 163.788 188.910  1.00  0.00     0.000 C 
ENDROOT
BRANCH   1   2
ATOM      2  C   UNL     1     164.785 163.631 189.633  1.00  0.00     0.000 C 
BRANCH   2   3
ATOM      3  C   UNL     1     163.572 163.435 188.702  1.00  0.00     0.000 C 
BRANCH   3   4
ATOM      4  C   UNL     1     163.396 162.009 188.141  1.00  0.00     0.000 C 
BRANCH   4   5
ATOM      5  C   UNL     1     162.072 161.317 188.518  1.00  0.00     0.000 C 
BRANCH   5   6
ATOM      6  C   UNL     1     160.910 162.309 188.689  1.00  0.00     0.000 C 
BRANCH   6   7
ATOM      7  C   UNL     1     159.967 162.328 187.475  1.00  0.00     0.000 C 
BRANCH   7   8
ATOM      8  C   UNL     1     160.106 161.067 186.602  1.00  0.00     0.000 C 
BRANCH   8   9
ATOM      9  C   UNL     1     160.596 161.385 185.180  1.00  0.00     0.000 C 
BRANCH   9  10
ATOM     10  C   UNL     1     162.061 160.976 184.953  1.00  0.00     0.000 C 
BRANCH  10  11
ATOM     11  C   UNL     1     162.510 161.146 183.490  1.00  0.00     0.000 C 
BRANCH  11  12
ATOM     12  C   UNL     1     163.595 160.158 183.027  1.00  0.00     0.006 C 
BRANCH  12  13
ATOM     13  C   UNL     1     164.071 160.418 181.590  1.00  0.00     0.053 C 
BRANCH  13  14
ATOM     14  C   UNL     1     165.481 160.921 181.573  1.00  0.00     0.041 C 
ATOM     15  O   UNL     1     166.443 160.113 181.477  1.00  0.00    -0.550 OA
ATOM     16  O   UNL     1     165.733 162.287 181.647  1.00  0.00    -0.550 OA
ENDBRANCH  13  14
ENDBRANCH  12  13
ENDBRANCH  11  12
ENDBRANCH  10  11
ENDBRANCH   9  10
ENDBRANCH   8   9
ENDBRANCH   7   8
ENDBRANCH   6   7
ENDBRANCH   5   6
ENDBRANCH   4   5
ENDBRANCH   3   4
ENDBRANCH   2   3
ENDBRANCH   1   2
BRANCH   1  17
ATOM     17  C   UNL     1     167.230 162.881 189.491  1.00  0.00     0.000 C 
BRANCH  17  18
ATOM     18  C   UNL     1     166.611 161.704 190.259  1.00  0.00     0.000 C 
BRANCH  18  19
ATOM     19  C   UNL     1     166.651 160.388 189.464  1.00  0.00     0.000 C 
BRANCH  19  20
ATOM     20  C   UNL     1     167.499 160.502 188.183  1.00  0.00     0.000 C 
BRANCH  20  21
ATOM     21  C   UNL     1     166.654 160.417 186.903  1.00  0.00     0.000 C 
BRANCH  21  22
ATOM     22  C   UNL     1     166.947 161.569 185.924  1.00  0.00    -0.000 C 
BRANCH  22  23
ATOM     23  C   UNL     1     165.684 162.057 185.193  1.00  0.00    -0.000 C 
BRANCH  23  24
ATOM     24  C   UNL     1     165.380 163.541 185.471  1.00  0.00    -0.000 C 
BRANCH  24  25
ATOM     25  C   UNL     1     164.513 164.182 184.376  1.00  0.00    -0.000 C 
BRANCH  25  26
ATOM     26  C   UNL     1     163.459 165.145 184.942  1.00  0.00    -0.000 C 
BRANCH  26  27
ATOM     27  C   UNL     1     162.050 164.752 184.474  1.00  0.00    -0.000 C 
BRANCH  27  28
ATOM     28  C   UNL     1     160.957 165.136 185.484  1.00  0.00    -0.000 C 
BRANCH  28  29
ATOM     29  C   UNL     1     161.512 165.630 186.836  1.00  0.00    -0.003 C 
ATOM     30  C   UNL     1     160.887 166.954 187.272  1.00  0.00     0.004 C 
ENDBRANCH  28  29
ENDBRANCH  27  28
ENDBRANCH  26  27
ENDBRANCH  25  26
ENDBRANCH  24  25
ENDBRANCH  23  24
ENDBRANCH  22  23
ENDBRANCH  21  22
ENDBRANCH  20  21
ENDBRANCH  19  20
ENDBRANCH  18  19
ENDBRANCH  17  18
ENDBRANCH   1  17
TORSDOF 26
ENDMDL
MODEL 3
REMARK VINA RESULT:    -3.256      2.597      3.806
REMARK INTER + INTRA:         -13.903
REMARK INTER:                  -8.138
REMARK INTRA:                  -5.765
REMARK UNBOUND:                -5.699
REMARK SMILES CCCCCCCCCCCCCCCCCCCCCCCCCCCC(=O)[O-]
REMARK SMILES IDX 15 1 16 2 17 3 18 4 19 5 20 6 21 7 22 8 23 9 24 10 25 11
REMARK SMILES IDX 26 12 27 13 28 14 29 15 30 16 14 17 13 18 12 19 11 20 10 21
REMARK SMILES IDX 9 22 8 23 7 24 6 25 5 26 4 27 3 28 2 29 1 30
REMARK H PARENT
REMARK Flexibility Score: inf
ROOT
ATOM      1  C   UNL     1     163.195 164.567 185.416  1.00  0.00     0.000 C 
ENDROOT
BRANCH   1   2
ATOM      2  C   UNL     1     162.510 165.442 186.481  1.00  0.00     0.000 C 
BRANCH   2   3
ATOM      3  C   UNL     1     161.296 164.790 187.171  1.00  0.00     0.000 C 
BRANCH   3   4
ATOM      4  C   UNL     1     161.582 164.165 188.552  1.00  0.00     0.000 C 
BRANCH   4   5
ATOM      5  C   UNL     1     160.514 163.175 189.055  1.00  0.00     0.000 C 
BRANCH   5   6
ATOM      6  C   UNL     1     160.819 161.720 188.662  1.00  0.00     0.000 C 
BRANCH   6   7
ATOM      7  C   UNL     1     162.321 161.471 188.447  1.00  0.00     0.000 C 
BRANCH   7   8
ATOM      8  C   UNL     1     162.646 161.042 187.004  1.00  0.00     0.000 C 
BRANCH   8   9
ATOM      9  C   UNL     1     161.473 161.282 186.040  1.00  0.00     0.000 C 
BRANCH   9  10
ATOM     10  C   UNL     1     161.823 160.934 184.583  1.00  0.00     0.000 C 
BRANCH  10  11
ATOM     11  C   UNL     1     163.338 160.786 184.351  1.00  0.00     0.000 C 
BRANCH  11  12
ATOM     12  C   UNL     1     163.729 160.162 183.000  1.00  0.00     0.006 C 
BRANCH  12  13
ATOM     13  C   UNL     1     163.375 161.054 181.801  1.00  0.00     0.053 C 
BRANCH  13  14
ATOM     14  C   UNL     1     163.960 162.424 181.958  1.00  0.00     0.041 C 
ATOM     15  O   UNL     1     165.209 162.590 181.918  1.00  0.00    -0.550 OA
ATOM     16  O   UNL     1     163.125 163.521 182.132  1.00  0.00    -0.550 OA
ENDBRANCH  13  14
ENDBRANCH  12  13
ENDBRANCH  11  12
ENDBRANCH  10  11
ENDBRANCH   9  10
ENDBRANCH   8   9
ENDBRANCH   7   8
ENDBRANCH   6   7
ENDBRANCH   5   6
ENDBRANCH   4   5
ENDBRANCH   3   4
ENDBRANCH   2   3
ENDBRANCH   1   2
BRANCH   1  17
ATOM     17  C   UNL     1     164.524 163.970 185.900  1.00  0.00     0.000 C 
BRANCH  17  18
ATOM     18  C   UNL     1     165.027 164.704 187.152  1.00  0.00     0.000 C 
BRANCH  18  19
ATOM     19  C   UNL     1     165.233 163.763 188.351  1.00  0.00     0.000 C 
BRANCH  19  20
ATOM     20  C   UNL     1     166.548 164.046 189.100  1.00  0.00     0.000 C 
BRANCH  20  21
ATOM     21  C   UNL     1     167.240 162.764 189.589  1.00  0.00     0.000 C 
BRANCH  21  22
ATOM     22  C   UNL     1     166.242 161.625 189.873  1.00  0.00    -0.000 C 
BRANCH  22  23
ATOM     23  C   UNL     1     166.461 160.407 188.960  1.00  0.00    -0.000 C 
BRANCH  23  24
ATOM     24  C   UNL     1     167.894 160.342 188.401  1.00  0.00    -0.000 C 
BRANCH  24  25
ATOM     25  C   UNL     1     167.927 160.240 186.867  1.00  0.00    -0.000 C 
BRANCH  25  26
ATOM     26  C   UNL     1     166.577 160.587 186.221  1.00  0.00    -0.000 C 
BRANCH  26  27
ATOM     27  C   UNL     1     166.779 161.371 184.917  1.00  0.00    -0.000 C 
BRANCH  27  28
ATOM     28  C   UNL     1     168.217 161.885 184.745  1.00  0.00    -0.000 C 
BRANCH  28  29
ATOM     29  C   UNL     1     168.334 163.423 184.809  1.00  0.00    -0.003 C 
ATOM     30  C   UNL     1     168.713 163.918 186.204  1.00  0.00     0.004 C 
ENDBRANCH  28  29
ENDBRANCH  27  28
ENDBRANCH  26  27
ENDBRANCH  25  26
ENDBRANCH  24  25
ENDBRANCH  23  24
ENDBRANCH  22  23
ENDBRANCH  21  22
ENDBRANCH  20  21
ENDBRANCH  19  20
ENDBRANCH  18  19
ENDBRANCH  17  18
ENDBRANCH   1  17
TORSDOF 26
ENDMDL
MODEL 4
REMARK VINA RESULT:    -3.214      3.183      6.107
REMARK INTER + INTRA:         -13.798
REMARK INTER:                  -7.842
REMARK INTRA:                  -5.957
REMARK UNBOUND:                -5.699
REMARK SMILES CCCCCCCCCCCCCCCCCCCCCCCCCCCC(=O)[O-]
REMARK SMILES IDX 15 1 16 2 17 3 18 4 19 5 20 6 21 7 22 8 23 9 24 10 25 11
REMARK SMILES IDX 26 12 27 13 28 14 29 15 30 16 14 17 13 18 12 19 11 20 10 21
REMARK SMILES IDX 9 22 8 23 7 24 6 25 5 26 4 27 3 28 2 29 1 30
REMARK H PARENT
REMARK Flexibility Score: inf
ROOT
ATOM      1  C   UNL     1     163.146 164.930 185.627  1.00  0.00     0.000 C 
ENDROOT
BRANCH   1   2
ATOM      2  C   UNL     1     163.942 165.077 186.936  1.00  0.00     0.000 C 
BRANCH   2   3
ATOM      3  C   UNL     1     164.991 163.975 187.183  1.00  0.00     0.000 C 
BRANCH   3   4
ATOM      4  C   UNL     1     165.859 164.165 188.444  1.00  0.00     0.000 C 
BRANCH   4   5
ATOM      5  C   UNL     1     165.456 163.299 189.653  1.00  0.00     0.000 C 
BRANCH   5   6
ATOM      6  C   UNL     1     166.610 162.426 190.171  1.00  0.00     0.000 C 
BRANCH   6   7
ATOM      7  C   UNL     1     166.335 160.923 189.998  1.00  0.00     0.000 C 
BRANCH   7   8
ATOM      8  C   UNL     1     167.212 160.286 188.904  1.00  0.00     0.000 C 
BRANCH   8   9
ATOM      9  C   UNL     1     166.692 160.578 187.487  1.00  0.00     0.000 C 
BRANCH   9  10
ATOM     10  C   UNL     1     167.747 161.259 186.597  1.00  0.00     0.000 C 
BRANCH  10  11
ATOM     11  C   UNL     1     168.962 161.768 187.393  1.00  0.00     0.000 C 
BRANCH  11  12
ATOM     12  C   UNL     1     169.299 163.254 187.180  1.00  0.00     0.006 C 
BRANCH  12  13
ATOM     13  C   UNL     1     168.575 163.867 185.973  1.00  0.00     0.053 C 
BRANCH  13  14
ATOM     14  C   UNL     1     169.531 164.134 184.851  1.00  0.00     0.041 C 
ATOM     15  O   UNL     1     169.101 164.481 183.718  1.00  0.00    -0.550 OA
ATOM     16  O   UNL     1     170.900 164.015 185.060  1.00  0.00    -0.550 OA
ENDBRANCH  13  14
ENDBRANCH  12  13
ENDBRANCH  11  12
ENDBRANCH  10  11
ENDBRANCH   9  10
ENDBRANCH   8   9
ENDBRANCH   7   8
ENDBRANCH   6   7
ENDBRANCH   5   6
ENDBRANCH   4   5
ENDBRANCH   3   4
ENDBRANCH   2   3
ENDBRANCH   1   2
BRANCH   1  17
ATOM     17  C   UNL     1     161.687 164.513 185.861  1.00  0.00     0.000 C 
BRANCH  17  18
ATOM     18  C   UNL     1     161.158 165.096 187.179  1.00  0.00     0.000 C 
BRANCH  18  19
ATOM     19  C   UNL     1     160.151 164.167 187.879  1.00  0.00     0.000 C 
BRANCH  19  20
ATOM     20  C   UNL     1     160.818 163.271 188.939  1.00  0.00     0.000 C 
BRANCH  20  21
ATOM     21  C   UNL     1     161.035 161.831 188.448  1.00  0.00     0.000 C 
BRANCH  21  22
ATOM     22  C   UNL     1     162.508 161.391 188.540  1.00  0.00    -0.000 C 
BRANCH  22  23
ATOM     23  C   UNL     1     163.099 161.019 187.170  1.00  0.00    -0.000 C 
BRANCH  23  24
ATOM     24  C   UNL     1     162.042 161.027 186.051  1.00  0.00    -0.000 C 
BRANCH  24  25
ATOM     25  C   UNL     1     162.666 161.107 184.648  1.00  0.00    -0.000 C 
BRANCH  25  26
ATOM     26  C   UNL     1     164.189 161.300 184.687  1.00  0.00    -0.000 C 
BRANCH  26  27
ATOM     27  C   UNL     1     164.683 162.012 183.420  1.00  0.00    -0.000 C 
BRANCH  27  28
ATOM     28  C   UNL     1     166.134 162.506 183.540  1.00  0.00    -0.000 C 
BRANCH  28  29
ATOM     29  C   UNL     1     167.142 161.659 182.736  1.00  0.00    -0.003 C 
ATOM     30  C   UNL     1     166.451 160.669 181.799  1.00  0.00     0.004 C 
ENDBRANCH  28  29
ENDBRANCH  27  28
ENDBRANCH  26  27
ENDBRANCH  25  26
ENDBRANCH  24  25
ENDBRANCH  23  24
ENDBRANCH  22  23
ENDBRANCH  21  22
ENDBRANCH  20  21
ENDBRANCH  19  20
ENDBRANCH  18  19
ENDBRANCH  17  18
ENDBRANCH   1  17
TORSDOF 26
ENDMDL
MODEL 5
REMARK VINA RESULT:    -3.179      1.403      2.620
REMARK INTER + INTRA:         -13.709
REMARK INTER:                  -8.300
REMARK INTRA:                  -5.409
REMARK UNBOUND:                -5.699
REMARK SMILES CCCCCCCCCCCCCCCCCCCCCCCCCCCC(=O)[O-]
REMARK SMILES IDX 15 1 16 2 17 3 18 4 19 5 20 6 21 7 22 8 23 9 24 10 25 11
REMARK SMILES IDX 26 12 27 13 28 14 29 15 30 16 14 17 13 18 12 19 11 20 10 21
REMARK SMILES IDX 9 22 8 23 7 24 6 25 5 26 4 27 3 28 2 29 1 30
REMARK H PARENT
REMARK Flexibility Score: inf
ROOT
ATOM      1  C   UNL     1     163.333 163.836 187.792  1.00  0.00     0.000 C 
ENDROOT
BRANCH   1   2
ATOM      2  C   UNL     1     162.500 163.127 188.874  1.00  0.00     0.000 C 
BRANCH   2   3
ATOM      3  C   UNL     1     161.057 163.650 189.026  1.00  0.00     0.000 C 
BRANCH   3   4
ATOM      4  C   UNL     1     159.994 162.894 188.203  1.00  0.00     0.000 C 
BRANCH   4   5
ATOM      5  C   UNL     1     160.239 161.380 188.052  1.00  0.00     0.000 C 
BRANCH   5   6
ATOM      6  C   UNL     1     160.824 161.007 186.679  1.00  0.00     0.000 C 
BRANCH   6   7
ATOM      7  C   UNL     1     160.323 161.929 185.556  1.00  0.00     0.000 C 
BRANCH   7   8
ATOM      8  C   UNL     1     161.460 162.744 184.913  1.00  0.00     0.000 C 
BRANCH   8   9
ATOM      9  C   UNL     1     160.979 164.102 184.374  1.00  0.00     0.000 C 
BRANCH   9  10
ATOM     10  C   UNL     1     160.571 165.073 185.495  1.00  0.00     0.000 C 
BRANCH  10  11
ATOM     11  C   UNL     1     161.622 166.169 185.750  1.00  0.00     0.000 C 
BRANCH  11  12
ATOM     12  C   UNL     1     161.486 166.895 187.099  1.00  0.00     0.006 C 
BRANCH  12  13
ATOM     13  C   UNL     1     160.105 167.537 187.300  1.00  0.00     0.053 C 
BRANCH  13  14
ATOM     14  C   UNL     1     160.221 168.855 188.001  1.00  0.00     0.041 C 
ATOM     15  O   UNL     1     160.629 168.908 189.192  1.00  0.00    -0.550 OA
ATOM     16  O   UNL     1     159.893 170.030 187.332  1.00  0.00    -0.550 OA
ENDBRANCH  13  14
ENDBRANCH  12  13
ENDBRANCH  11  12
ENDBRANCH  10  11
ENDBRANCH   9  10
ENDBRANCH   8   9
ENDBRANCH   7   8
ENDBRANCH   6   7
ENDBRANCH   5   6
ENDBRANCH   4   5
ENDBRANCH   3   4
ENDBRANCH   2   3
ENDBRANCH   1   2
BRANCH   1  17
ATOM     17  C   UNL     1     164.730 164.241 188.287  1.00  0.00     0.000 C 
BRANCH  17  18
ATOM     18  C   UNL     1     165.022 163.620 189.660  1.00  0.00     0.000 C 
BRANCH  18  19
ATOM     19  C   UNL     1     166.488 163.176 189.812  1.00  0.00     0.000 C 
BRANCH  19  20
ATOM     20  C   UNL     1     166.613 161.735 190.340  1.00  0.00     0.000 C 
BRANCH  20  21
ATOM     21  C   UNL     1     166.293 160.681 189.268  1.00  0.00     0.000 C 
BRANCH  21  22
ATOM     22  C   UNL     1     164.868 160.114 189.404  1.00  0.00    -0.000 C 
BRANCH  22  23
ATOM     23  C   UNL     1     164.098 160.127 188.073  1.00  0.00    -0.000 C 
BRANCH  23  24
ATOM     24  C   UNL     1     165.035 160.085 186.852  1.00  0.00    -0.000 C 
BRANCH  24  25
ATOM     25  C   UNL     1     164.618 161.076 185.752  1.00  0.00    -0.000 C 
BRANCH  25  26
ATOM     26  C   UNL     1     165.685 162.147 185.483  1.00  0.00    -0.000 C 
BRANCH  26  27
ATOM     27  C   UNL     1     165.348 162.952 184.220  1.00  0.00    -0.000 C 
BRANCH  27  28
ATOM     28  C   UNL     1     164.779 164.345 184.534  1.00  0.00    -0.000 C 
BRANCH  28  29
ATOM     29  C   UNL     1     165.073 165.391 183.437  1.00  0.00    -0.003 C 
ATOM     30  C   UNL     1     164.812 166.819 183.914  1.00  0.00     0.004 C 
ENDBRANCH  28  29
ENDBRANCH  27  28
ENDBRANCH  26  27
ENDBRANCH  25  26
ENDBRANCH  24  25
ENDBRANCH  23  24
ENDBRANCH  22  23
ENDBRANCH  21  22
ENDBRANCH  20  21
ENDBRANCH  19  20
ENDBRANCH  18  19
ENDBRANCH  17  18
ENDBRANCH   1  17
TORSDOF 26
ENDMDL
MODEL 6
REMARK VINA RESULT:    -3.168      3.080      6.451
REMARK INTER + INTRA:         -13.681
REMARK INTER:                  -8.259
REMARK INTRA:                  -5.422
REMARK UNBOUND:                -5.699
REMARK SMILES CCCCCCCCCCCCCCCCCCCCCCCCCCCC(=O)[O-]
REMARK SMILES IDX 15 1 16 2 17 3 18 4 19 5 20 6 21 7 22 8 23 9 24 10 25 11
REMARK SMILES IDX 26 12 27 13 28 14 29 15 30 16 14 17 13 18 12 19 11 20 10 21
REMARK SMILES IDX 9 22 8 23 7 24 6 25 5 26 4 27 3 28 2 29 1 30
REMARK H PARENT
REMARK Flexibility Score: inf
ROOT
ATOM      1  C   UNL     1     163.230 166.076 185.871  1.00  0.00     0.000 C 
ENDROOT
BRANCH   1   2
ATOM      2  C   UNL     1     163.460 164.557 185.776  1.00  0.00     0.000 C 
BRANCH   2   3
ATOM      3  C   UNL     1     164.932 164.116 185.895  1.00  0.00     0.000 C 
BRANCH   3   4
ATOM      4  C   UNL     1     165.452 163.943 187.337  1.00  0.00     0.000 C 
BRANCH   4   5
ATOM      5  C   UNL     1     164.503 163.187 188.287  1.00  0.00     0.000 C 
BRANCH   5   6
ATOM      6  C   UNL     1     165.225 162.113 189.118  1.00  0.00     0.000 C 
BRANCH   6   7
ATOM      7  C   UNL     1     164.687 160.699 188.849  1.00  0.00     0.000 C 
BRANCH   7   8
ATOM      8  C   UNL     1     164.978 160.220 187.415  1.00  0.00     0.000 C 
BRANCH   8   9
ATOM      9  C   UNL     1     166.452 160.406 187.020  1.00  0.00     0.000 C 
BRANCH   9  10
ATOM     10  C   UNL     1     166.629 160.737 185.528  1.00  0.00     0.000 C 
BRANCH  10  11
ATOM     11  C   UNL     1     165.327 160.574 184.721  1.00  0.00     0.000 C 
BRANCH  11  12
ATOM     12  C   UNL     1     165.293 161.340 183.387  1.00  0.00     0.006 C 
BRANCH  12  13
ATOM     13  C   UNL     1     166.519 161.066 182.505  1.00  0.00     0.053 C 
BRANCH  13  14
ATOM     14  C   UNL     1     167.192 162.344 182.107  1.00  0.00     0.041 C 
ATOM     15  O   UNL     1     166.607 163.160 181.345  1.00  0.00    -0.550 OA
ATOM     16  O   UNL     1     168.461 162.642 182.592  1.00  0.00    -0.550 OA
ENDBRANCH  13  14
ENDBRANCH  12  13
ENDBRANCH  11  12
ENDBRANCH  10  11
ENDBRANCH   9  10
ENDBRANCH   8   9
ENDBRANCH   7   8
ENDBRANCH   6   7
ENDBRANCH   5   6
ENDBRANCH   4   5
ENDBRANCH   3   4
ENDBRANCH   2   3
ENDBRANCH   1   2
BRANCH   1  17
ATOM     17  C   UNL     1     161.753 166.443 186.077  1.00  0.00     0.000 C 
BRANCH  17  18
ATOM     18  C   UNL     1     160.858 165.203 185.929  1.00  0.00     0.000 C 
BRANCH  18  19
ATOM     19  C   UNL     1     159.967 164.964 187.160  1.00  0.00     0.000 C 
BRANCH  19  20
ATOM     20  C   UNL     1     160.728 164.281 188.312  1.00  0.00     0.000 C 
BRANCH  20  21
ATOM     21  C   UNL     1     159.931 163.131 188.949  1.00  0.00     0.000 C 
BRANCH  21  22
ATOM     22  C   UNL     1     160.537 161.749 188.640  1.00  0.00    -0.000 C 
BRANCH  22  23
ATOM     23  C   UNL     1     160.436 161.381 187.150  1.00  0.00    -0.000 C 
BRANCH  23  24
ATOM     24  C   UNL     1     161.817 161.181 186.498  1.00  0.00    -0.000 C 
BRANCH  24  25
ATOM     25  C   UNL     1     161.803 161.458 184.986  1.00  0.00    -0.000 C 
BRANCH  25  26
ATOM     26  C   UNL     1     160.393 161.745 184.449  1.00  0.00    -0.000 C 
BRANCH  26  27
ATOM     27  C   UNL     1     160.455 162.616 183.186  1.00  0.00    -0.000 C 
BRANCH  27  28
ATOM     28  C   UNL     1     161.884 163.055 182.832  1.00  0.00    -0.000 C 
BRANCH  28  29
ATOM     29  C   UNL     1     162.399 162.464 181.503  1.00  0.00    -0.003 C 
ATOM     30  C   UNL     1     161.260 162.042 180.576  1.00  0.00     0.004 C 
ENDBRANCH  28  29
ENDBRANCH  27  28
ENDBRANCH  26  27
ENDBRANCH  25  26
ENDBRANCH  24  25
ENDBRANCH  23  24
ENDBRANCH  22  23
ENDBRANCH  21  22
ENDBRANCH  20  21
ENDBRANCH  19  20
ENDBRANCH  18  19
ENDBRANCH  17  18
ENDBRANCH   1  17
TORSDOF 26
ENDMDL
MODEL 7
REMARK VINA RESULT:    -3.147      3.237      6.568
REMARK INTER + INTRA:         -13.629
REMARK INTER:                  -8.523
REMARK INTRA:                  -5.106
REMARK UNBOUND:                -5.699
REMARK SMILES CCCCCCCCCCCCCCCCCCCCCCCCCCCC(=O)[O-]
REMARK SMILES IDX 15 1 16 2 17 3 18 4 19 5 20 6 21 7 22 8 23 9 24 10 25 11
REMARK SMILES IDX 26 12 27 13 28 14 29 15 30 16 14 17 13 18 12 19 11 20 10 21
REMARK SMILES IDX 9 22 8 23 7 24 6 25 5 26 4 27 3 28 2 29 1 30
REMARK H PARENT
REMARK Flexibility Score: inf
ROOT
ATOM      1  C   UNL     1     160.667 162.710 185.463  1.00  0.00     0.000 C 
ENDROOT
BRANCH   1   2
ATOM      2  C   UNL     1     159.905 162.505 184.141  1.00  0.00     0.000 C 
BRANCH   2   3
ATOM      3  C   UNL     1     160.786 162.516 182.877  1.00  0.00     0.000 C 
BRANCH   3   4
ATOM      4  C   UNL     1     162.269 162.873 183.112  1.00  0.00     0.000 C 
BRANCH   4   5
ATOM      5  C   UNL     1     163.282 161.839 182.584  1.00  0.00     0.000 C 
BRANCH   5   6
ATOM      6  C   UNL     1     163.433 160.626 183.515  1.00  0.00     0.000 C 
BRANCH   6   7
ATOM      7  C   UNL     1     164.892 160.385 183.936  1.00  0.00     0.000 C 
BRANCH   7   8
ATOM      8  C   UNL     1     165.784 161.617 183.701  1.00  0.00     0.000 C 
BRANCH   8   9
ATOM      9  C   UNL     1     167.255 161.359 184.068  1.00  0.00     0.000 C 
BRANCH   9  10
ATOM     10  C   UNL     1     167.560 161.669 185.544  1.00  0.00     0.000 C 
BRANCH  10  11
ATOM     11  C   UNL     1     167.804 160.402 186.383  1.00  0.00     0.000 C 
BRANCH  11  12
ATOM     12  C   UNL     1     169.171 160.343 187.087  1.00  0.00     0.006 C 
BRANCH  12  13
ATOM     13  C   UNL     1     170.160 161.396 186.566  1.00  0.00     0.053 C 
BRANCH  13  14
ATOM     14  C   UNL     1     170.548 162.353 187.651  1.00  0.00     0.041 C 
ATOM     15  O   UNL     1     169.692 163.136 188.144  1.00  0.00    -0.550 OA
ATOM     16  O   UNL     1     171.853 162.369 188.130  1.00  0.00    -0.550 OA
ENDBRANCH  13  14
ENDBRANCH  12  13
ENDBRANCH  11  12
ENDBRANCH  10  11
ENDBRANCH   9  10
ENDBRANCH   8   9
ENDBRANCH   7   8
ENDBRANCH   6   7
ENDBRANCH   5   6
ENDBRANCH   4   5
ENDBRANCH   3   4
ENDBRANCH   2   3
ENDBRANCH   1   2
BRANCH   1  17
ATOM     17  C   UNL     1     160.717 161.439 186.324  1.00  0.00     0.000 C 
BRANCH  17  18
ATOM     18  C   UNL     1     160.929 161.792 187.803  1.00  0.00     0.000 C 
BRANCH  18  19
ATOM     19  C   UNL     1     162.299 161.333 188.333  1.00  0.00     0.000 C 
BRANCH  19  20
ATOM     20  C   UNL     1     163.213 160.801 187.214  1.00  0.00     0.000 C 
BRANCH  20  21
ATOM     21  C   UNL     1     164.557 160.278 187.744  1.00  0.00     0.000 C 
BRANCH  21  22
ATOM     22  C   UNL     1     164.710 160.476 189.264  1.00  0.00    -0.000 C 
BRANCH  22  23
ATOM     23  C   UNL     1     166.170 160.346 189.731  1.00  0.00    -0.000 C 
BRANCH  23  24
ATOM     24  C   UNL     1     166.893 161.704 189.784  1.00  0.00    -0.000 C 
BRANCH  24  25
ATOM     25  C   UNL     1     165.919 162.894 189.767  1.00  0.00    -0.000 C 
BRANCH  25  26
ATOM     26  C   UNL     1     166.570 164.186 189.252  1.00  0.00    -0.000 C 
BRANCH  26  27
ATOM     27  C   UNL     1     165.740 164.804 188.118  1.00  0.00    -0.000 C 
BRANCH  27  28
ATOM     28  C   UNL     1     164.272 164.348 188.135  1.00  0.00    -0.000 C 
BRANCH  28  29
ATOM     29  C   UNL     1     163.608 164.357 186.742  1.00  0.00    -0.003 C 
ATOM     30  C   UNL     1     164.635 164.364 185.610  1.00  0.00     0.004 C 
ENDBRANCH  28  29
ENDBRANCH  27  28
ENDBRANCH  26  27
ENDBRANCH  25  26
ENDBRANCH  24  25
ENDBRANCH  23  24
ENDBRANCH  22  23
ENDBRANCH  21  22
ENDBRANCH  20  21
ENDBRANCH  19  20
ENDBRANCH  18  19
ENDBRANCH  17  18
ENDBRANCH   1  17
TORSDOF 26
ENDMDL
MODEL 8
REMARK VINA RESULT:    -3.113      2.880      5.138
REMARK INTER + INTRA:         -13.544
REMARK INTER:                  -8.547
REMARK INTRA:                  -4.997
REMARK UNBOUND:                -5.699
REMARK SMILES CCCCCCCCCCCCCCCCCCCCCCCCCCCC(=O)[O-]
REMARK SMILES IDX 15 1 16 2 17 3 18 4 19 5 20 6 21 7 22 8 23 9 24 10 25 11
REMARK SMILES IDX 26 12 27 13 28 14 29 15 30 16 14 17 13 18 12 19 11 20 10 21
REMARK SMILES IDX 9 22 8 23 7 24 6 25 5 26 4 27 3 28 2 29 1 30
REMARK H PARENT
REMARK Flexibility Score: inf
ROOT
ATOM      1  C   UNL     1     165.695 162.360 189.160  1.00  0.00     0.000 C 
ENDROOT
BRANCH   1   2
ATOM      2  C   UNL     1     164.192 162.283 188.838  1.00  0.00     0.000 C 
BRANCH   2   3
ATOM      3  C   UNL     1     163.450 163.633 188.887  1.00  0.00     0.000 C 
BRANCH   3   4
ATOM      4  C   UNL     1     162.003 163.608 188.351  1.00  0.00     0.000 C 
BRANCH   4   5
ATOM      5  C   UNL     1     160.973 162.939 189.280  1.00  0.00     0.000 C 
BRANCH   5   6
ATOM      6  C   UNL     1     160.053 161.955 188.538  1.00  0.00     0.000 C 
BRANCH   6   7
ATOM      7  C   UNL     1     160.164 162.083 187.010  1.00  0.00     0.000 C 
BRANCH   7   8
ATOM      8  C   UNL     1     161.111 161.034 186.398  1.00  0.00     0.000 C 
BRANCH   8   9
ATOM      9  C   UNL     1     161.065 161.026 184.861  1.00  0.00     0.000 C 
BRANCH   9  10
ATOM     10  C   UNL     1     160.366 162.268 184.282  1.00  0.00     0.000 C 
BRANCH  10  11
ATOM     11  C   UNL     1     160.717 162.517 182.804  1.00  0.00     0.000 C 
BRANCH  11  12
ATOM     12  C   UNL     1     162.216 162.711 182.518  1.00  0.00     0.006 C 
BRANCH  12  13
ATOM     13  C   UNL     1     162.774 161.691 181.515  1.00  0.00     0.053 C 
BRANCH  13  14
ATOM     14  C   UNL     1     162.246 161.947 180.137  1.00  0.00     0.041 C 
ATOM     15  O   UNL     1     161.637 161.039 179.511  1.00  0.00    -0.550 OA
ATOM     16  O   UNL     1     162.412 163.197 179.550  1.00  0.00    -0.550 OA
ENDBRANCH  13  14
ENDBRANCH  12  13
ENDBRANCH  11  12
ENDBRANCH  10  11
ENDBRANCH   9  10
ENDBRANCH   8   9
ENDBRANCH   7   8
ENDBRANCH   6   7
ENDBRANCH   5   6
ENDBRANCH   4   5
ENDBRANCH   3   4
ENDBRANCH   2   3
ENDBRANCH   1   2
BRANCH   1  17
ATOM     17  C   UNL     1     166.227 161.083 189.828  1.00  0.00     0.000 C 
BRANCH  17  18
ATOM     18  C   UNL     1     167.137 160.304 188.868  1.00  0.00     0.000 C 
BRANCH  18  19
ATOM     19  C   UNL     1     167.662 161.172 187.711  1.00  0.00     0.000 C 
BRANCH  19  20
ATOM     20  C   UNL     1     167.432 160.518 186.336  1.00  0.00     0.000 C 
BRANCH  20  21
ATOM     21  C   UNL     1     165.956 160.173 186.083  1.00  0.00     0.000 C 
BRANCH  21  22
ATOM     22  C   UNL     1     165.347 160.991 184.928  1.00  0.00    -0.000 C 
BRANCH  22  23
ATOM     23  C   UNL     1     164.500 162.174 185.427  1.00  0.00    -0.000 C 
BRANCH  23  24
ATOM     24  C   UNL     1     165.285 163.499 185.430  1.00  0.00    -0.000 C 
BRANCH  24  25
ATOM     25  C   UNL     1     164.588 164.601 184.615  1.00  0.00    -0.000 C 
BRANCH  25  26
ATOM     26  C   UNL     1     164.469 165.924 185.386  1.00  0.00    -0.000 C 
BRANCH  26  27
ATOM     27  C   UNL     1     163.074 166.072 186.009  1.00  0.00    -0.000 C 
BRANCH  27  28
ATOM     28  C   UNL     1     161.966 165.441 185.150  1.00  0.00    -0.000 C 
BRANCH  28  29
ATOM     29  C   UNL     1     160.543 165.720 185.678  1.00  0.00    -0.003 C 
ATOM     30  C   UNL     1     160.553 166.553 186.959  1.00  0.00     0.004 C 
ENDBRANCH  28  29
ENDBRANCH  27  28
ENDBRANCH  26  27
ENDBRANCH  25  26
ENDBRANCH  24  25
ENDBRANCH  23  24
ENDBRANCH  22  23
ENDBRANCH  21  22
ENDBRANCH  20  21
ENDBRANCH  19  20
ENDBRANCH  18  19
ENDBRANCH  17  18
ENDBRANCH   1  17
TORSDOF 26
ENDMDL
MODEL 9
REMARK VINA RESULT:    -3.087     13.154     16.228
REMARK INTER + INTRA:         -13.477
REMARK INTER:                  -9.153
REMARK INTRA:                  -4.324
REMARK UNBOUND:                -5.699
REMARK SMILES CCCCCCCCCCCCCCCCCCCCCCCCCCCC(=O)[O-]
REMARK SMILES IDX 15 1 16 2 17 3 18 4 19 5 20 6 21 7 22 8 23 9 24 10 25 11
REMARK SMILES IDX 26 12 27 13 28 14 29 15 30 16 14 17 13 18 12 19 11 20 10 21
REMARK SMILES IDX 9 22 8 23 7 24 6 25 5 26 4 27 3 28 2 29 1 30
REMARK H PARENT
REMARK Flexibility Score: inf
ROOT
ATOM      1  C   UNL     1     176.795 170.800 188.073  1.00  0.00     0.000 C 
ENDROOT
BRANCH   1   2
ATOM      2  C   UNL     1     175.892 171.883 188.689  1.00  0.00     0.000 C 
BRANCH   2   3
ATOM      3  C   UNL     1     176.454 172.547 189.962  1.00  0.00     0.000 C 
BRANCH   3   4
ATOM      4  C   UNL     1     176.227 174.070 190.064  1.00  0.00     0.000 C 
BRANCH   4   5
ATOM      5  C   UNL     1     177.404 174.940 189.583  1.00  0.00     0.000 C 
BRANCH   5   6
ATOM      6  C   UNL     1     178.658 174.114 189.251  1.00  0.00     0.000 C 
BRANCH   6   7
ATOM      7  C   UNL     1     178.909 174.009 187.737  1.00  0.00     0.000 C 
BRANCH   7   8
ATOM      8  C   UNL     1     177.968 174.913 186.920  1.00  0.00     0.000 C 
BRANCH   8   9
ATOM      9  C   UNL     1     177.087 174.116 185.944  1.00  0.00     0.000 C 
BRANCH   9  10
ATOM     10  C   UNL     1     175.780 174.848 185.593  1.00  0.00     0.000 C 
BRANCH  10  11
ATOM     11  C   UNL     1     174.831 174.989 186.797  1.00  0.00     0.000 C 
BRANCH  11  12
ATOM     12  C   UNL     1     174.746 176.406 187.392  1.00  0.00     0.006 C 
BRANCH  12  13
ATOM     13  C   UNL     1     175.228 177.495 186.423  1.00  0.00     0.053 C 
BRANCH  13  14
ATOM     14  C   UNL     1     174.150 178.501 186.164  1.00  0.00     0.041 C 
ATOM     15  O   UNL     1     174.445 179.669 185.796  1.00  0.00    -0.550 OA
ATOM     16  O   UNL     1     172.814 178.142 186.314  1.00  0.00    -0.550 OA
ENDBRANCH  13  14
ENDBRANCH  12  13
ENDBRANCH  11  12
ENDBRANCH  10  11
ENDBRANCH   9  10
ENDBRANCH   8   9
ENDBRANCH   7   8
ENDBRANCH   6   7
ENDBRANCH   5   6
ENDBRANCH   4   5
ENDBRANCH   3   4
ENDBRANCH   2   3
ENDBRANCH   1   2
BRANCH   1  17
ATOM     17  C   UNL     1     178.071 170.552 188.892  1.00  0.00     0.000 C 
BRANCH  17  18
ATOM     18  C   UNL     1     179.161 169.911 188.021  1.00  0.00     0.000 C 
BRANCH  18  19
ATOM     19  C   UNL     1     178.728 169.743 186.554  1.00  0.00     0.000 C 
BRANCH  19  20
ATOM     20  C   UNL     1     178.810 168.279 186.083  1.00  0.00     0.000 C 
BRANCH  20  21
ATOM     21  C   UNL     1     178.973 167.289 187.247  1.00  0.00     0.000 C 
BRANCH  21  22
ATOM     22  C   UNL     1     178.336 165.919 186.951  1.00  0.00    -0.000 C 
BRANCH  22  23
ATOM     23  C   UNL     1     177.975 165.148 188.232  1.00  0.00    -0.000 C 
BRANCH  23  24
ATOM     24  C   UNL     1     177.132 163.892 187.945  1.00  0.00    -0.000 C 
BRANCH  24  25
ATOM     25  C   UNL     1     176.537 163.275 189.221  1.00  0.00    -0.000 C 
BRANCH  25  26
ATOM     26  C   UNL     1     176.078 164.334 190.234  1.00  0.00    -0.000 C 
BRANCH  26  27
ATOM     27  C   UNL     1     174.556 164.527 190.174  1.00  0.00    -0.000 C 
BRANCH  27  28
ATOM     28  C   UNL     1     174.150 165.964 189.810  1.00  0.00    -0.000 C 
BRANCH  28  29
ATOM     29  C   UNL     1     174.152 166.239 188.291  1.00  0.00    -0.003 C 
ATOM     30  C   UNL     1     175.086 167.387 187.911  1.00  0.00     0.004 C 
ENDBRANCH  28  29
ENDBRANCH  27  28
ENDBRANCH  26  27
ENDBRANCH  25  26
ENDBRANCH  24  25
ENDBRANCH  23  24
ENDBRANCH  22  23
ENDBRANCH  21  22
ENDBRANCH  20  21
ENDBRANCH  19  20
ENDBRANCH  18  19
ENDBRANCH  17  18
ENDBRANCH   1  17
TORSDOF 26
ENDMDL
