MODEL 1
REMARK VINA RESULT:    -6.252      0.000      0.000
REMARK INTER + INTRA:         -19.424
REMARK INTER:                 -15.755
REMARK INTRA:                  -3.669
REMARK UNBOUND:                -3.669
REMARK SMILES CCCCCCCCCCCCCCCCCCCCCCCCCCCC(=O)[O-]
REMARK SMILES IDX 15 1 16 2 17 3 18 4 19 5 20 6 21 7 22 8 23 9 24 10 25 11
REMARK SMILES IDX 26 12 27 13 28 14 29 15 30 16 14 17 13 18 12 19 11 20 10 21
REMARK SMILES IDX 9 22 8 23 7 24 6 25 5 26 4 27 3 28 2 29 1 30
REMARK H PARENT
REMARK Flexibility Score: inf
ROOT
ATOM      1  C   UNL     1       3.847   3.822   7.234  1.00  0.00     0.000 C 
ENDROOT
BRANCH   1   2
ATOM      2  C   UNL     1       5.155   3.619   8.027  1.00  0.00     0.000 C 
BRANCH   2   3
ATOM      3  C   UNL     1       6.395   4.325   7.432  1.00  0.00     0.000 C 
BRANCH   3   4
ATOM      4  C   UNL     1       6.994   5.417   8.337  1.00  0.00     0.000 C 
BRANCH   4   5
ATOM      5  C   UNL     1       8.531   5.467   8.374  1.00  0.00     0.000 C 
BRANCH   5   6
ATOM      6  C   UNL     1       9.117   6.526   7.425  1.00  0.00     0.000 C 
BRANCH   6   7
ATOM      7  C   UNL     1       8.100   7.621   7.055  1.00  0.00     0.000 C 
BRANCH   7   8
ATOM      8  C   UNL     1       8.007   7.951   5.550  1.00  0.00     0.000 C 
BRANCH   8   9
ATOM      9  C   UNL     1       6.597   8.297   5.037  1.00  0.00     0.000 C 
BRANCH   9  10
ATOM     10  C   UNL     1       5.624   7.109   5.119  1.00  0.00     0.000 C 
BRANCH  10  11
ATOM     11  C   UNL     1       4.558   7.342   6.197  1.00  0.00     0.000 C 
BRANCH  11  12
ATOM     12  C   UNL     1       4.724   8.726   6.841  1.00  0.00     0.006 C 
BRANCH  12  13
ATOM     13  C   UNL     1       4.176   8.771   8.273  1.00  0.00     0.053 C 
BRANCH  13  14
ATOM     14  C   UNL     1       2.839   9.447   8.337  1.00  0.00     0.041 C 
ATOM     15  O   UNL     1       2.406  10.090   7.344  1.00  0.00    -0.550 OA
ATOM     16  O   UNL     1       2.076   9.370   9.495  1.00  0.00    -0.550 OA
ENDBRANCH  13  14
ENDBRANCH  12  13
ENDBRANCH  11  12
ENDBRANCH  10  11
ENDBRANCH   9  10
ENDBRANCH   8   9
ENDBRANCH   7   8
ENDBRANCH   6   7
ENDBRANCH   5   6
ENDBRANCH   4   5
ENDBRANCH   3   4
ENDBRANCH   2   3
ENDBRANCH   1   2
BRANCH   1  17
ATOM     17  C   UNL     1       2.546   3.412   7.958  1.00  0.00     0.000 C 
BRANCH  17  18
ATOM     18  C   UNL     1       2.129   4.312   9.134  1.00  0.00     0.000 C 
BRANCH  18  19
ATOM     19  C   UNL     1       2.275   5.811   8.817  1.00  0.00     0.000 C 
BRANCH  19  20
ATOM     20  C   UNL     1       1.062   6.370   8.056  1.00  0.00     0.000 C 
BRANCH  20  21
ATOM     21  C   UNL     1      -0.264   5.724   8.492  1.00  0.00     0.000 C 
BRANCH  21  22
ATOM     22  C   UNL     1      -0.862   6.397   9.739  1.00  0.00    -0.000 C 
BRANCH  22  23
ATOM     23  C   UNL     1      -0.899   5.457  10.957  1.00  0.00    -0.000 C 
BRANCH  23  24
ATOM     24  C   UNL     1      -0.411   6.144  12.242  1.00  0.00    -0.000 C 
BRANCH  24  25
ATOM     25  C   UNL     1       0.793   7.069  11.992  1.00  0.00    -0.000 C 
BRANCH  25  26
ATOM     26  C   UNL     1       1.087   7.997  13.181  1.00  0.00    -0.000 C 
BRANCH  26  27
ATOM     27  C   UNL     1       2.407   8.785  13.070  1.00  0.00    -0.000 C 
BRANCH  27  28
ATOM     28  C   UNL     1       3.134   8.964  14.420  1.00  0.00    -0.000 C 
BRANCH  28  29
ATOM     29  C   UNL     1       3.629  10.402  14.625  1.00  0.00    -0.003 C 
ATOM     30  C   UNL     1       5.097  10.428  15.040  1.00  0.00     0.004 C 
ENDBRANCH  28  29
ENDBRANCH  27  28
ENDBRANCH  26  27
ENDBRANCH  25  26
ENDBRANCH  24  25
ENDBRANCH  23  24
ENDBRANCH  22  23
ENDBRANCH  21  22
ENDBRANCH  20  21
ENDBRANCH  19  20
ENDBRANCH  18  19
ENDBRANCH  17  18
ENDBRANCH   1  17
TORSDOF 26
ENDMDL
MODEL 2
REMARK VINA RESULT:    -6.104      2.166      7.717
REMARK INTER + INTRA:         -19.050
REMARK INTER:                 -15.348
REMARK INTRA:                  -3.702
REMARK UNBOUND:                -3.669
REMARK SMILES CCCCCCCCCCCCCCCCCCCCCCCCCCCC(=O)[O-]
REMARK SMILES IDX 15 1 16 2 17 3 18 4 19 5 20 6 21 7 22 8 23 9 24 10 25 11
REMARK SMILES IDX 26 12 27 13 28 14 29 15 30 16 14 17 13 18 12 19 11 20 10 21
REMARK SMILES IDX 9 22 8 23 7 24 6 25 5 26 4 27 3 28 2 29 1 30
REMARK H PARENT
REMARK Flexibility Score: inf
ROOT
ATOM      1  C   UNL     1       5.015   8.330   8.360  1.00  0.00     0.000 C 
ENDROOT
BRANCH   1   2
ATOM      2  C   UNL     1       3.897   9.210   7.762  1.00  0.00     0.000 C 
BRANCH   2   3
ATOM      3  C   UNL     1       2.470   8.874   8.252  1.00  0.00     0.000 C 
BRANCH   3   4
ATOM      4  C   UNL     1       2.053   9.613   9.537  1.00  0.00     0.000 C 
BRANCH   4   5
ATOM      5  C   UNL     1       1.054   8.859  10.431  1.00  0.00     0.000 C 
BRANCH   5   6
ATOM      6  C   UNL     1       1.205   9.210  11.921  1.00  0.00     0.000 C 
BRANCH   6   7
ATOM      7  C   UNL     1       1.588   7.994  12.783  1.00  0.00     0.000 C 
BRANCH   7   8
ATOM      8  C   UNL     1       0.421   7.049  13.142  1.00  0.00     0.000 C 
BRANCH   8   9
ATOM      9  C   UNL     1       0.323   5.771  12.289  1.00  0.00     0.000 C 
BRANCH   9  10
ATOM     10  C   UNL     1      -0.932   5.741  11.401  1.00  0.00     0.000 C 
BRANCH  10  11
ATOM     11  C   UNL     1      -0.741   4.796  10.207  1.00  0.00     0.000 C 
BRANCH  11  12
ATOM     12  C   UNL     1      -0.455   5.588   8.923  1.00  0.00     0.006 C 
BRANCH  12  13
ATOM     13  C   UNL     1       1.044   5.655   8.602  1.00  0.00     0.053 C 
BRANCH  13  14
ATOM     14  C   UNL     1       1.779   4.458   9.126  1.00  0.00     0.041 C 
ATOM     15  O   UNL     1       2.415   4.529  10.211  1.00  0.00    -0.550 OA
ATOM     16  O   UNL     1       1.767   3.267   8.411  1.00  0.00    -0.550 OA
ENDBRANCH  13  14
ENDBRANCH  12  13
ENDBRANCH  11  12
ENDBRANCH  10  11
ENDBRANCH   9  10
ENDBRANCH   8   9
ENDBRANCH   7   8
ENDBRANCH   6   7
ENDBRANCH   5   6
ENDBRANCH   4   5
ENDBRANCH   3   4
ENDBRANCH   2   3
ENDBRANCH   1   2
BRANCH   1  17
ATOM     17  C   UNL     1       4.578   6.943   8.881  1.00  0.00     0.000 C 
BRANCH  17  18
ATOM     18  C   UNL     1       4.796   5.771   7.909  1.00  0.00     0.000 C 
BRANCH  18  19
ATOM     19  C   UNL     1       4.603   6.174   6.437  1.00  0.00     0.000 C 
BRANCH  19  20
ATOM     20  C   UNL     1       5.669   5.558   5.515  1.00  0.00     0.000 C 
BRANCH  20  21
ATOM     21  C   UNL     1       6.236   6.569   4.504  1.00  0.00     0.000 C 
BRANCH  21  22
ATOM     22  C   UNL     1       6.060   8.024   4.967  1.00  0.00    -0.000 C 
BRANCH  22  23
ATOM     23  C   UNL     1       7.393   8.684   5.362  1.00  0.00    -0.000 C 
BRANCH  23  24
ATOM     24  C   UNL     1       8.393   7.677   5.952  1.00  0.00    -0.000 C 
BRANCH  24  25
ATOM     25  C   UNL     1       8.148   7.418   7.449  1.00  0.00    -0.000 C 
BRANCH  25  26
ATOM     26  C   UNL     1       8.995   6.258   7.998  1.00  0.00    -0.000 C 
BRANCH  26  27
ATOM     27  C   UNL     1       8.287   4.890   7.997  1.00  0.00    -0.000 C 
BRANCH  27  28
ATOM     28  C   UNL     1       7.884   4.402   9.405  1.00  0.00    -0.000 C 
BRANCH  28  29
ATOM     29  C   UNL     1       9.036   4.525  10.412  1.00  0.00    -0.003 C 
ATOM     30  C   UNL     1       8.966   3.428  11.469  1.00  0.00     0.004 C 
ENDBRANCH  28  29
ENDBRANCH  27  28
ENDBRANCH  26  27
ENDBRANCH  25  26
ENDBRANCH  24  25
ENDBRANCH  23  24
ENDBRANCH  22  23
ENDBRANCH  21  22
ENDBRANCH  20  21
ENDBRANCH  19  20
ENDBRANCH  18  19
ENDBRANCH  17  18
ENDBRANCH   1  17
TORSDOF 26
ENDMDL
MODEL 3
REMARK VINA RESULT:    -6.079      2.390      7.391
REMARK INTER + INTRA:         -18.988
REMARK INTER:                 -14.145
REMARK INTRA:                  -4.843
REMARK UNBOUND:                -3.669
REMARK SMILES CCCCCCCCCCCCCCCCCCCCCCCCCCCC(=O)[O-]
REMARK SMILES IDX 15 1 16 2 17 3 18 4 19 5 20 6 21 7 22 8 23 9 24 10 25 11
REMARK SMILES IDX 26 12 27 13 28 14 29 15 30 16 14 17 13 18 12 19 11 20 10 21
REMARK SMILES IDX 9 22 8 23 7 24 6 25 5 26 4 27 3 28 2 29 1 30
REMARK H PARENT
REMARK Flexibility Score: inf
ROOT
ATOM      1  C   UNL     1       1.801   6.195   6.748  1.00  0.00     0.000 C 
ENDROOT
BRANCH   1   2
ATOM      2  C   UNL     1       2.535   5.030   7.446  1.00  0.00     0.000 C 
BRANCH   2   3
ATOM      3  C   UNL     1       2.738   5.206   8.968  1.00  0.00     0.000 C 
BRANCH   3   4
ATOM      4  C   UNL     1       1.864   4.279   9.833  1.00  0.00     0.000 C 
BRANCH   4   5
ATOM      5  C   UNL     1       0.362   4.297   9.500  1.00  0.00     0.000 C 
BRANCH   5   6
ATOM      6  C   UNL     1      -0.515   4.616  10.723  1.00  0.00     0.000 C 
BRANCH   6   7
ATOM      7  C   UNL     1      -1.360   5.889  10.535  1.00  0.00     0.000 C 
BRANCH   7   8
ATOM      8  C   UNL     1      -1.122   6.646   9.210  1.00  0.00     0.000 C 
BRANCH   8   9
ATOM      9  C   UNL     1      -0.356   7.974   9.340  1.00  0.00     0.000 C 
BRANCH   9  10
ATOM     10  C   UNL     1       0.918   7.849  10.191  1.00  0.00     0.000 C 
BRANCH  10  11
ATOM     11  C   UNL     1       1.243   9.172  10.896  1.00  0.00     0.000 C 
BRANCH  11  12
ATOM     12  C   UNL     1       1.428   8.957  12.405  1.00  0.00     0.006 C 
BRANCH  12  13
ATOM     13  C   UNL     1       1.024   7.544  12.846  1.00  0.00     0.053 C 
BRANCH  13  14
ATOM     14  C   UNL     1       1.584   7.200  14.193  1.00  0.00     0.041 C 
ATOM     15  O   UNL     1       1.180   6.176  14.805  1.00  0.00    -0.550 OA
ATOM     16  O   UNL     1       2.549   8.013  14.774  1.00  0.00    -0.550 OA
ENDBRANCH  13  14
ENDBRANCH  12  13
ENDBRANCH  11  12
ENDBRANCH  10  11
ENDBRANCH   9  10
ENDBRANCH   8   9
ENDBRANCH   7   8
ENDBRANCH   6   7
ENDBRANCH   5   6
ENDBRANCH   4   5
ENDBRANCH   3   4
ENDBRANCH   2   3
ENDBRANCH   1   2
BRANCH   1  17
ATOM     17  C   UNL     1       2.688   7.369   6.278  1.00  0.00     0.000 C 
BRANCH  17  18
ATOM     18  C   UNL     1       2.379   8.732   6.921  1.00  0.00     0.000 C 
BRANCH  18  19
ATOM     19  C   UNL     1       3.440   9.161   7.949  1.00  0.00     0.000 C 
BRANCH  19  20
ATOM     20  C   UNL     1       4.587   8.143   8.067  1.00  0.00     0.000 C 
BRANCH  20  21
ATOM     21  C   UNL     1       5.953   8.740   7.686  1.00  0.00     0.000 C 
BRANCH  21  22
ATOM     22  C   UNL     1       6.125   8.889   6.166  1.00  0.00    -0.000 C 
BRANCH  22  23
ATOM     23  C   UNL     1       6.998   7.777   5.559  1.00  0.00    -0.000 C 
BRANCH  23  24
ATOM     24  C   UNL     1       6.186   6.804   4.689  1.00  0.00    -0.000 C 
BRANCH  24  25
ATOM     25  C   UNL     1       5.768   5.539   5.459  1.00  0.00    -0.000 C 
BRANCH  25  26
ATOM     26  C   UNL     1       6.566   5.345   6.759  1.00  0.00    -0.000 C 
BRANCH  26  27
ATOM     27  C   UNL     1       6.058   4.202   7.659  1.00  0.00    -0.000 C 
BRANCH  27  28
ATOM     28  C   UNL     1       6.943   3.953   8.899  1.00  0.00    -0.000 C 
BRANCH  28  29
ATOM     29  C   UNL     1       8.205   4.825   8.895  1.00  0.00    -0.003 C 
ATOM     30  C   UNL     1       8.984   4.679  10.198  1.00  0.00     0.004 C 
ENDBRANCH  28  29
ENDBRANCH  27  28
ENDBRANCH  26  27
ENDBRANCH  25  26
ENDBRANCH  24  25
ENDBRANCH  23  24
ENDBRANCH  22  23
ENDBRANCH  21  22
ENDBRANCH  20  21
ENDBRANCH  19  20
ENDBRANCH  18  19
ENDBRANCH  17  18
ENDBRANCH   1  17
TORSDOF 26
ENDMDL
MODEL 4
REMARK VINA RESULT:    -6.053      1.199      2.379
REMARK INTER + INTRA:         -18.922
REMARK INTER:                 -14.809
REMARK INTRA:                  -4.113
REMARK UNBOUND:                -3.669
REMARK SMILES CCCCCCCCCCCCCCCCCCCCCCCCCCCC(=O)[O-]
REMARK SMILES IDX 15 1 16 2 17 3 18 4 19 5 20 6 21 7 22 8 23 9 24 10 25 11
REMARK SMILES IDX 26 12 27 13 28 14 29 15 30 16 14 17 13 18 12 19 11 20 10 21
REMARK SMILES IDX 9 22 8 23 7 24 6 25 5 26 4 27 3 28 2 29 1 30
REMARK H PARENT
REMARK Flexibility Score: inf
ROOT
ATOM      1  C   UNL     1       2.434   5.259   9.863  1.00  0.00     0.000 C 
ENDROOT
BRANCH   1   2
ATOM      2  C   UNL     1       2.799   4.264   8.741  1.00  0.00     0.000 C 
BRANCH   2   3
ATOM      3  C   UNL     1       3.727   4.832   7.643  1.00  0.00     0.000 C 
BRANCH   3   4
ATOM      4  C   UNL     1       5.125   4.186   7.601  1.00  0.00     0.000 C 
BRANCH   4   5
ATOM      5  C   UNL     1       6.232   4.973   8.322  1.00  0.00     0.000 C 
BRANCH   5   6
ATOM      6  C   UNL     1       7.643   4.597   7.838  1.00  0.00     0.000 C 
BRANCH   6   7
ATOM      7  C   UNL     1       8.688   5.686   8.142  1.00  0.00     0.000 C 
BRANCH   7   8
ATOM      8  C   UNL     1       8.341   7.095   7.615  1.00  0.00     0.000 C 
BRANCH   8   9
ATOM      9  C   UNL     1       8.154   7.199   6.091  1.00  0.00     0.000 C 
BRANCH   9  10
ATOM     10  C   UNL     1       7.698   8.596   5.639  1.00  0.00     0.000 C 
BRANCH  10  11
ATOM     11  C   UNL     1       6.325   8.535   4.958  1.00  0.00     0.000 C 
BRANCH  11  12
ATOM     12  C   UNL     1       5.476   7.396   5.540  1.00  0.00     0.006 C 
BRANCH  12  13
ATOM     13  C   UNL     1       4.239   7.913   6.285  1.00  0.00     0.053 C 
BRANCH  13  14
ATOM     14  C   UNL     1       4.589   8.994   7.262  1.00  0.00     0.041 C 
ATOM     15  O   UNL     1       5.344   8.745   8.239  1.00  0.00    -0.550 OA
ATOM     16  O   UNL     1       4.077  10.275   7.096  1.00  0.00    -0.550 OA
ENDBRANCH  13  14
ENDBRANCH  12  13
ENDBRANCH  11  12
ENDBRANCH  10  11
ENDBRANCH   9  10
ENDBRANCH   8   9
ENDBRANCH   7   8
ENDBRANCH   6   7
ENDBRANCH   5   6
ENDBRANCH   4   5
ENDBRANCH   3   4
ENDBRANCH   2   3
ENDBRANCH   1   2
BRANCH   1  17
ATOM     17  C   UNL     1       3.229   6.584   9.878  1.00  0.00     0.000 C 
BRANCH  17  18
ATOM     18  C   UNL     1       2.384   7.865   9.777  1.00  0.00     0.000 C 
BRANCH  18  19
ATOM     19  C   UNL     1       1.176   7.710   8.838  1.00  0.00     0.000 C 
BRANCH  19  20
ATOM     20  C   UNL     1      -0.146   8.119   9.509  1.00  0.00     0.000 C 
BRANCH  20  21
ATOM     21  C   UNL     1      -1.315   7.193   9.134  1.00  0.00     0.000 C 
BRANCH  21  22
ATOM     22  C   UNL     1      -0.845   5.779   8.755  1.00  0.00    -0.000 C 
BRANCH  22  23
ATOM     23  C   UNL     1      -0.980   4.779   9.917  1.00  0.00    -0.000 C 
BRANCH  23  24
ATOM     24  C   UNL     1      -1.339   5.469  11.243  1.00  0.00    -0.000 C 
BRANCH  24  25
ATOM     25  C   UNL     1      -0.145   5.534  12.211  1.00  0.00    -0.000 C 
BRANCH  25  26
ATOM     26  C   UNL     1       0.100   6.950  12.758  1.00  0.00    -0.000 C 
BRANCH  26  27
ATOM     27  C   UNL     1       1.425   7.122  13.525  1.00  0.00    -0.000 C 
BRANCH  27  28
ATOM     28  C   UNL     1       2.005   8.551  13.442  1.00  0.00    -0.000 C 
BRANCH  28  29
ATOM     29  C   UNL     1       2.949   8.861  14.612  1.00  0.00    -0.003 C 
ATOM     30  C   UNL     1       3.664  10.193  14.407  1.00  0.00     0.004 C 
ENDBRANCH  28  29
ENDBRANCH  27  28
ENDBRANCH  26  27
ENDBRANCH  25  26
ENDBRANCH  24  25
ENDBRANCH  23  24
ENDBRANCH  22  23
ENDBRANCH  21  22
ENDBRANCH  20  21
ENDBRANCH  19  20
ENDBRANCH  18  19
ENDBRANCH  17  18
ENDBRANCH   1  17
TORSDOF 26
ENDMDL
MODEL 5
REMARK VINA RESULT:    -6.036      2.658      5.694
REMARK INTER + INTRA:         -18.879
REMARK INTER:                 -14.622
REMARK INTRA:                  -4.257
REMARK UNBOUND:                -3.669
REMARK SMILES CCCCCCCCCCCCCCCCCCCCCCCCCCCC(=O)[O-]
REMARK SMILES IDX 15 1 16 2 17 3 18 4 19 5 20 6 21 7 22 8 23 9 24 10 25 11
REMARK SMILES IDX 26 12 27 13 28 14 29 15 30 16 14 17 13 18 12 19 11 20 10 21
REMARK SMILES IDX 9 22 8 23 7 24 6 25 5 26 4 27 3 28 2 29 1 30
REMARK H PARENT
REMARK Flexibility Score: inf
ROOT
ATOM      1  C   UNL     1       2.386   9.997   9.731  1.00  0.00     0.000 C 
ENDROOT
BRANCH   1   2
ATOM      2  C   UNL     1       2.259   9.834   8.202  1.00  0.00     0.000 C 
BRANCH   2   3
ATOM      3  C   UNL     1       3.571   9.462   7.474  1.00  0.00     0.000 C 
BRANCH   3   4
ATOM      4  C   UNL     1       4.485   8.510   8.268  1.00  0.00     0.000 C 
BRANCH   4   5
ATOM      5  C   UNL     1       4.888   7.222   7.530  1.00  0.00     0.000 C 
BRANCH   5   6
ATOM      6  C   UNL     1       4.460   7.223   6.052  1.00  0.00     0.000 C 
BRANCH   6   7
ATOM      7  C   UNL     1       5.646   7.417   5.089  1.00  0.00     0.000 C 
BRANCH   7   8
ATOM      8  C   UNL     1       6.363   8.780   5.195  1.00  0.00     0.000 C 
BRANCH   8   9
ATOM      9  C   UNL     1       7.823   8.719   5.680  1.00  0.00     0.000 C 
BRANCH   9  10
ATOM     10  C   UNL     1       8.334   7.280   5.858  1.00  0.00     0.000 C 
BRANCH  10  11
ATOM     11  C   UNL     1       8.818   7.040   7.294  1.00  0.00     0.000 C 
BRANCH  11  12
ATOM     12  C   UNL     1       7.840   6.136   8.058  1.00  0.00     0.006 C 
BRANCH  12  13
ATOM     13  C   UNL     1       8.471   4.791   8.444  1.00  0.00     0.053 C 
BRANCH  13  14
ATOM     14  C   UNL     1       8.955   4.790   9.862  1.00  0.00     0.041 C 
ATOM     15  O   UNL     1       9.615   5.766  10.308  1.00  0.00    -0.550 OA
ATOM     16  O   UNL     1       8.681   3.708  10.689  1.00  0.00    -0.550 OA
ENDBRANCH  13  14
ENDBRANCH  12  13
ENDBRANCH  11  12
ENDBRANCH  10  11
ENDBRANCH   9  10
ENDBRANCH   8   9
ENDBRANCH   7   8
ENDBRANCH   6   7
ENDBRANCH   5   6
ENDBRANCH   4   5
ENDBRANCH   3   4
ENDBRANCH   2   3
ENDBRANCH   1   2
BRANCH   1  17
ATOM     17  C   UNL     1       1.353   9.225  10.582  1.00  0.00     0.000 C 
BRANCH  17  18
ATOM     18  C   UNL     1       1.939   8.196  11.564  1.00  0.00     0.000 C 
BRANCH  18  19
ATOM     19  C   UNL     1       1.265   8.240  12.945  1.00  0.00     0.000 C 
BRANCH  19  20
ATOM     20  C   UNL     1       0.453   6.968  13.242  1.00  0.00     0.000 C 
BRANCH  20  21
ATOM     21  C   UNL     1       0.441   5.980  12.062  1.00  0.00     0.000 C 
BRANCH  21  22
ATOM     22  C   UNL     1      -0.979   5.519  11.697  1.00  0.00    -0.000 C 
BRANCH  22  23
ATOM     23  C   UNL     1      -1.168   5.331  10.182  1.00  0.00    -0.000 C 
BRANCH  23  24
ATOM     24  C   UNL     1      -0.715   6.561   9.378  1.00  0.00    -0.000 C 
BRANCH  24  25
ATOM     25  C   UNL     1      -0.099   6.179   8.021  1.00  0.00    -0.000 C 
BRANCH  25  26
ATOM     26  C   UNL     1       1.437   6.253   8.024  1.00  0.00    -0.000 C 
BRANCH  26  27
ATOM     27  C   UNL     1       2.120   5.365   9.080  1.00  0.00    -0.000 C 
BRANCH  27  28
ATOM     28  C   UNL     1       2.099   3.861   8.730  1.00  0.00    -0.000 C 
BRANCH  28  29
ATOM     29  C   UNL     1       2.885   3.554   7.448  1.00  0.00    -0.003 C 
ATOM     30  C   UNL     1       4.383   3.750   7.658  1.00  0.00     0.004 C 
ENDBRANCH  28  29
ENDBRANCH  27  28
ENDBRANCH  26  27
ENDBRANCH  25  26
ENDBRANCH  24  25
ENDBRANCH  23  24
ENDBRANCH  22  23
ENDBRANCH  21  22
ENDBRANCH  20  21
ENDBRANCH  19  20
ENDBRANCH  18  19
ENDBRANCH  17  18
ENDBRANCH   1  17
TORSDOF 26
ENDMDL
MODEL 6
REMARK VINA RESULT:    -6.027      1.889      3.669
REMARK INTER + INTRA:         -18.858
REMARK INTER:                 -15.017
REMARK INTRA:                  -3.840
REMARK UNBOUND:                -3.669
REMARK SMILES CCCCCCCCCCCCCCCCCCCCCCCCCCCC(=O)[O-]
REMARK SMILES IDX 15 1 16 2 17 3 18 4 19 5 20 6 21 7 22 8 23 9 24 10 25 11
REMARK SMILES IDX 26 12 27 13 28 14 29 15 30 16 14 17 13 18 12 19 11 20 10 21
REMARK SMILES IDX 9 22 8 23 7 24 6 25 5 26 4 27 3 28 2 29 1 30
REMARK H PARENT
REMARK Flexibility Score: inf
ROOT
ATOM      1  C   UNL     1       3.933   8.902   7.187  1.00  0.00     0.000 C 
ENDROOT
BRANCH   1   2
ATOM      2  C   UNL     1       3.589   7.774   6.191  1.00  0.00     0.000 C 
BRANCH   2   3
ATOM      3  C   UNL     1       4.676   7.488   5.130  1.00  0.00     0.000 C 
BRANCH   3   4
ATOM      4  C   UNL     1       5.975   8.293   5.323  1.00  0.00     0.000 C 
BRANCH   4   5
ATOM      5  C   UNL     1       7.273   7.523   5.025  1.00  0.00     0.000 C 
BRANCH   5   6
ATOM      6  C   UNL     1       8.400   7.849   6.019  1.00  0.00     0.000 C 
BRANCH   6   7
ATOM      7  C   UNL     1       8.087   7.377   7.450  1.00  0.00     0.000 C 
BRANCH   7   8
ATOM      8  C   UNL     1       8.667   5.998   7.830  1.00  0.00     0.000 C 
BRANCH   8   9
ATOM      9  C   UNL     1       7.737   5.101   8.667  1.00  0.00     0.000 C 
BRANCH   9  10
ATOM     10  C   UNL     1       7.010   4.042   7.824  1.00  0.00     0.000 C 
BRANCH  10  11
ATOM     11  C   UNL     1       5.730   4.614   7.201  1.00  0.00     0.000 C 
BRANCH  11  12
ATOM     12  C   UNL     1       4.894   5.355   8.254  1.00  0.00     0.006 C 
BRANCH  12  13
ATOM     13  C   UNL     1       3.661   4.552   8.690  1.00  0.00     0.053 C 
BRANCH  13  14
ATOM     14  C   UNL     1       2.903   4.015   7.514  1.00  0.00     0.041 C 
ATOM     15  O   UNL     1       2.197   4.784   6.809  1.00  0.00    -0.550 OA
ATOM     16  O   UNL     1       2.973   2.663   7.200  1.00  0.00    -0.550 OA
ENDBRANCH  13  14
ENDBRANCH  12  13
ENDBRANCH  11  12
ENDBRANCH  10  11
ENDBRANCH   9  10
ENDBRANCH   8   9
ENDBRANCH   7   8
ENDBRANCH   6   7
ENDBRANCH   5   6
ENDBRANCH   4   5
ENDBRANCH   3   4
ENDBRANCH   2   3
ENDBRANCH   1   2
BRANCH   1  17
ATOM     17  C   UNL     1       2.736   9.709   7.735  1.00  0.00     0.000 C 
BRANCH  17  18
ATOM     18  C   UNL     1       2.359   9.425   9.200  1.00  0.00     0.000 C 
BRANCH  18  19
ATOM     19  C   UNL     1       2.290   7.921   9.516  1.00  0.00     0.000 C 
BRANCH  19  20
ATOM     20  C   UNL     1       1.104   7.229   8.823  1.00  0.00     0.000 C 
BRANCH  20  21
ATOM     21  C   UNL     1      -0.258   7.731   9.333  1.00  0.00     0.000 C 
BRANCH  21  22
ATOM     22  C   UNL     1      -1.337   6.636   9.298  1.00  0.00    -0.000 C 
BRANCH  22  23
ATOM     23  C   UNL     1      -0.966   5.414  10.157  1.00  0.00    -0.000 C 
BRANCH  23  24
ATOM     24  C   UNL     1      -0.941   5.740  11.659  1.00  0.00    -0.000 C 
BRANCH  24  25
ATOM     25  C   UNL     1       0.491   5.871  12.206  1.00  0.00    -0.000 C 
BRANCH  25  26
ATOM     26  C   UNL     1       0.615   6.951  13.293  1.00  0.00    -0.000 C 
BRANCH  26  27
ATOM     27  C   UNL     1       0.838   8.378  12.758  1.00  0.00    -0.000 C 
BRANCH  27  28
ATOM     28  C   UNL     1       2.289   8.880  12.923  1.00  0.00    -0.000 C 
BRANCH  28  29
ATOM     29  C   UNL     1       2.739   8.877  14.391  1.00  0.00    -0.003 C 
ATOM     30  C   UNL     1       3.742   9.993  14.664  1.00  0.00     0.004 C 
ENDBRANCH  28  29
ENDBRANCH  27  28
ENDBRANCH  26  27
ENDBRANCH  25  26
ENDBRANCH  24  25
ENDBRANCH  23  24
ENDBRANCH  22  23
ENDBRANCH  21  22
ENDBRANCH  20  21
ENDBRANCH  19  20
ENDBRANCH  18  19
ENDBRANCH  17  18
ENDBRANCH   1  17
TORSDOF 26
ENDMDL
MODEL 7
REMARK VINA RESULT:    -5.958      2.049      6.976
REMARK INTER + INTRA:         -18.683
REMARK INTER:                 -14.573
REMARK INTRA:                  -4.110
REMARK UNBOUND:                -3.669
REMARK SMILES CCCCCCCCCCCCCCCCCCCCCCCCCCCC(=O)[O-]
REMARK SMILES IDX 15 1 16 2 17 3 18 4 19 5 20 6 21 7 22 8 23 9 24 10 25 11
REMARK SMILES IDX 26 12 27 13 28 14 29 15 30 16 14 17 13 18 12 19 11 20 10 21
REMARK SMILES IDX 9 22 8 23 7 24 6 25 5 26 4 27 3 28 2 29 1 30
REMARK H PARENT
REMARK Flexibility Score: inf
ROOT
ATOM      1  C   UNL     1       6.455   4.217   8.708  1.00  0.00     0.000 C 
ENDROOT
BRANCH   1   2
ATOM      2  C   UNL     1       5.280   3.548   7.966  1.00  0.00     0.000 C 
BRANCH   2   3
ATOM      3  C   UNL     1       4.422   4.504   7.106  1.00  0.00     0.000 C 
BRANCH   3   4
ATOM      4  C   UNL     1       2.942   4.095   6.992  1.00  0.00     0.000 C 
BRANCH   4   5
ATOM      5  C   UNL     1       2.363   3.380   8.226  1.00  0.00     0.000 C 
BRANCH   5   6
ATOM      6  C   UNL     1       1.605   4.333   9.166  1.00  0.00     0.000 C 
BRANCH   6   7
ATOM      7  C   UNL     1       0.625   5.254   8.416  1.00  0.00     0.000 C 
BRANCH   7   8
ATOM      8  C   UNL     1      -0.687   5.568   9.167  1.00  0.00     0.000 C 
BRANCH   8   9
ATOM      9  C   UNL     1      -0.924   4.747  10.447  1.00  0.00     0.000 C 
BRANCH   9  10
ATOM     10  C   UNL     1      -0.993   5.619  11.711  1.00  0.00     0.000 C 
BRANCH  10  11
ATOM     11  C   UNL     1       0.095   6.701  11.696  1.00  0.00     0.000 C 
BRANCH  11  12
ATOM     12  C   UNL     1       0.893   6.694  13.007  1.00  0.00     0.006 C 
BRANCH  12  13
ATOM     13  C   UNL     1       1.512   8.062  13.320  1.00  0.00     0.053 C 
BRANCH  13  14
ATOM     14  C   UNL     1       2.403   8.008  14.524  1.00  0.00     0.041 C 
ATOM     15  O   UNL     1       3.254   8.915  14.724  1.00  0.00    -0.550 OA
ATOM     16  O   UNL     1       2.297   6.952  15.420  1.00  0.00    -0.550 OA
ENDBRANCH  13  14
ENDBRANCH  12  13
ENDBRANCH  11  12
ENDBRANCH  10  11
ENDBRANCH   9  10
ENDBRANCH   8   9
ENDBRANCH   7   8
ENDBRANCH   6   7
ENDBRANCH   5   6
ENDBRANCH   4   5
ENDBRANCH   3   4
ENDBRANCH   2   3
ENDBRANCH   1   2
BRANCH   1  17
ATOM     17  C   UNL     1       7.621   4.712   7.823  1.00  0.00     0.000 C 
BRANCH  17  18
ATOM     18  C   UNL     1       8.607   5.676   8.504  1.00  0.00     0.000 C 
BRANCH  18  19
ATOM     19  C   UNL     1       8.953   6.892   7.628  1.00  0.00     0.000 C 
BRANCH  19  20
ATOM     20  C   UNL     1       8.077   6.975   6.367  1.00  0.00     0.000 C 
BRANCH  20  21
ATOM     21  C   UNL     1       8.027   8.392   5.769  1.00  0.00     0.000 C 
BRANCH  21  22
ATOM     22  C   UNL     1       6.728   8.655   4.990  1.00  0.00    -0.000 C 
BRANCH  22  23
ATOM     23  C   UNL     1       5.739   7.479   5.078  1.00  0.00    -0.000 C 
BRANCH  23  24
ATOM     24  C   UNL     1       4.527   7.799   5.968  1.00  0.00    -0.000 C 
BRANCH  24  25
ATOM     25  C   UNL     1       4.723   9.089   6.784  1.00  0.00    -0.000 C 
BRANCH  25  26
ATOM     26  C   UNL     1       4.929   8.818   8.283  1.00  0.00    -0.000 C 
BRANCH  26  27
ATOM     27  C   UNL     1       4.486   7.417   8.749  1.00  0.00    -0.000 C 
BRANCH  27  28
ATOM     28  C   UNL     1       3.189   7.426   9.586  1.00  0.00    -0.000 C 
BRANCH  28  29
ATOM     29  C   UNL     1       2.195   8.490   9.103  1.00  0.00    -0.003 C 
ATOM     30  C   UNL     1       2.038   9.608  10.128  1.00  0.00     0.004 C 
ENDBRANCH  28  29
ENDBRANCH  27  28
ENDBRANCH  26  27
ENDBRANCH  25  26
ENDBRANCH  24  25
ENDBRANCH  23  24
ENDBRANCH  22  23
ENDBRANCH  21  22
ENDBRANCH  20  21
ENDBRANCH  19  20
ENDBRANCH  18  19
ENDBRANCH  17  18
ENDBRANCH   1  17
TORSDOF 26
ENDMDL
MODEL 8
REMARK VINA RESULT:    -5.945      1.922      7.288
REMARK INTER + INTRA:         -18.650
REMARK INTER:                 -14.452
REMARK INTRA:                  -4.198
REMARK UNBOUND:                -3.669
REMARK SMILES CCCCCCCCCCCCCCCCCCCCCCCCCCCC(=O)[O-]
REMARK SMILES IDX 15 1 16 2 17 3 18 4 19 5 20 6 21 7 22 8 23 9 24 10 25 11
REMARK SMILES IDX 26 12 27 13 28 14 29 15 30 16 14 17 13 18 12 19 11 20 10 21
REMARK SMILES IDX 9 22 8 23 7 24 6 25 5 26 4 27 3 28 2 29 1 30
REMARK H PARENT
REMARK Flexibility Score: inf
ROOT
ATOM      1  C   UNL     1       4.251   6.836   9.205  1.00  0.00     0.000 C 
ENDROOT
BRANCH   1   2
ATOM      2  C   UNL     1       4.460   8.050   8.276  1.00  0.00     0.000 C 
BRANCH   2   3
ATOM      3  C   UNL     1       3.406   8.203   7.156  1.00  0.00     0.000 C 
BRANCH   3   4
ATOM      4  C   UNL     1       2.373   9.317   7.408  1.00  0.00     0.000 C 
BRANCH   4   5
ATOM      5  C   UNL     1       2.370   9.897   8.833  1.00  0.00     0.000 C 
BRANCH   5   6
ATOM      6  C   UNL     1       1.303   9.254   9.736  1.00  0.00     0.000 C 
BRANCH   6   7
ATOM      7  C   UNL     1       1.633   9.385  11.234  1.00  0.00     0.000 C 
BRANCH   7   8
ATOM      8  C   UNL     1       1.964   8.060  11.953  1.00  0.00     0.000 C 
BRANCH   8   9
ATOM      9  C   UNL     1       1.171   7.797  13.246  1.00  0.00     0.000 C 
BRANCH   9  10
ATOM     10  C   UNL     1       0.083   6.726  13.072  1.00  0.00     0.000 C 
BRANCH  10  11
ATOM     11  C   UNL     1       0.289   5.934  11.775  1.00  0.00     0.000 C 
BRANCH  11  12
ATOM     12  C   UNL     1      -0.995   5.191  11.377  1.00  0.00     0.006 C 
BRANCH  12  13
ATOM     13  C   UNL     1      -1.001   4.792   9.896  1.00  0.00     0.053 C 
BRANCH  13  14
ATOM     14  C   UNL     1      -0.931   5.988   8.996  1.00  0.00     0.041 C 
ATOM     15  O   UNL     1      -1.517   7.057   9.315  1.00  0.00    -0.550 OA
ATOM     16  O   UNL     1      -0.223   5.921   7.803  1.00  0.00    -0.550 OA
ENDBRANCH  13  14
ENDBRANCH  12  13
ENDBRANCH  11  12
ENDBRANCH  10  11
ENDBRANCH   9  10
ENDBRANCH   8   9
ENDBRANCH   7   8
ENDBRANCH   6   7
ENDBRANCH   5   6
ENDBRANCH   4   5
ENDBRANCH   3   4
ENDBRANCH   2   3
ENDBRANCH   1   2
BRANCH   1  17
ATOM     17  C   UNL     1       2.829   6.232   9.220  1.00  0.00     0.000 C 
BRANCH  17  18
ATOM     18  C   UNL     1       2.747   4.737   9.573  1.00  0.00     0.000 C 
BRANCH  18  19
ATOM     19  C   UNL     1       2.425   3.853   8.356  1.00  0.00     0.000 C 
BRANCH  19  20
ATOM     20  C   UNL     1       2.938   4.460   7.039  1.00  0.00     0.000 C 
BRANCH  20  21
ATOM     21  C   UNL     1       4.459   4.304   6.865  1.00  0.00     0.000 C 
BRANCH  21  22
ATOM     22  C   UNL     1       5.054   3.258   7.821  1.00  0.00    -0.000 C 
BRANCH  22  23
ATOM     23  C   UNL     1       6.426   3.679   8.378  1.00  0.00    -0.000 C 
BRANCH  23  24
ATOM     24  C   UNL     1       6.968   4.948   7.701  1.00  0.00    -0.000 C 
BRANCH  24  25
ATOM     25  C   UNL     1       8.408   5.273   8.134  1.00  0.00    -0.000 C 
BRANCH  25  26
ATOM     26  C   UNL     1       8.897   6.630   7.601  1.00  0.00    -0.000 C 
BRANCH  26  27
ATOM     27  C   UNL     1       7.774   7.587   7.156  1.00  0.00    -0.000 C 
BRANCH  27  28
ATOM     28  C   UNL     1       7.906   8.053   5.690  1.00  0.00    -0.000 C 
BRANCH  28  29
ATOM     29  C   UNL     1       6.540   8.303   5.036  1.00  0.00    -0.003 C 
ATOM     30  C   UNL     1       5.865   6.991   4.647  1.00  0.00     0.004 C 
ENDBRANCH  28  29
ENDBRANCH  27  28
ENDBRANCH  26  27
ENDBRANCH  25  26
ENDBRANCH  24  25
ENDBRANCH  23  24
ENDBRANCH  22  23
ENDBRANCH  21  22
ENDBRANCH  20  21
ENDBRANCH  19  20
ENDBRANCH  18  19
ENDBRANCH  17  18
ENDBRANCH   1  17
TORSDOF 26
ENDMDL
MODEL 9
REMARK VINA RESULT:    -5.937      1.538      3.315
REMARK INTER + INTRA:         -18.629
REMARK INTER:                 -14.425
REMARK INTRA:                  -4.204
REMARK UNBOUND:                -3.669
REMARK SMILES CCCCCCCCCCCCCCCCCCCCCCCCCCCC(=O)[O-]
REMARK SMILES IDX 15 1 16 2 17 3 18 4 19 5 20 6 21 7 22 8 23 9 24 10 25 11
REMARK SMILES IDX 26 12 27 13 28 14 29 15 30 16 14 17 13 18 12 19 11 20 10 21
REMARK SMILES IDX 9 22 8 23 7 24 6 25 5 26 4 27 3 28 2 29 1 30
REMARK H PARENT
REMARK Flexibility Score: inf
ROOT
ATOM      1  C   UNL     1       3.764   3.715   7.697  1.00  0.00     0.000 C 
ENDROOT
BRANCH   1   2
ATOM      2  C   UNL     1       5.210   4.019   7.251  1.00  0.00     0.000 C 
BRANCH   2   3
ATOM      3  C   UNL     1       6.120   4.612   8.350  1.00  0.00     0.000 C 
BRANCH   3   4
ATOM      4  C   UNL     1       7.626   4.415   8.096  1.00  0.00     0.000 C 
BRANCH   4   5
ATOM      5  C   UNL     1       8.556   5.282   8.962  1.00  0.00     0.000 C 
BRANCH   5   6
ATOM      6  C   UNL     1       9.293   6.361   8.151  1.00  0.00     0.000 C 
BRANCH   6   7
ATOM      7  C   UNL     1       8.334   7.378   7.504  1.00  0.00     0.000 C 
BRANCH   7   8
ATOM      8  C   UNL     1       8.353   7.409   5.961  1.00  0.00     0.000 C 
BRANCH   8   9
ATOM      9  C   UNL     1       7.971   8.758   5.325  1.00  0.00     0.000 C 
BRANCH   9  10
ATOM     10  C   UNL     1       6.478   8.852   4.973  1.00  0.00     0.000 C 
BRANCH  10  11
ATOM     11  C   UNL     1       5.867   7.457   4.784  1.00  0.00     0.000 C 
BRANCH  11  12
ATOM     12  C   UNL     1       4.660   7.258   5.713  1.00  0.00     0.006 C 
BRANCH  12  13
ATOM     13  C   UNL     1       4.726   8.157   6.954  1.00  0.00     0.053 C 
BRANCH  13  14
ATOM     14  C   UNL     1       3.645   9.195   6.947  1.00  0.00     0.041 C 
ATOM     15  O   UNL     1       3.906  10.386   7.266  1.00  0.00    -0.550 OA
ATOM     16  O   UNL     1       2.348   8.846   6.595  1.00  0.00    -0.550 OA
ENDBRANCH  13  14
ENDBRANCH  12  13
ENDBRANCH  11  12
ENDBRANCH  10  11
ENDBRANCH   9  10
ENDBRANCH   8   9
ENDBRANCH   7   8
ENDBRANCH   6   7
ENDBRANCH   5   6
ENDBRANCH   4   5
ENDBRANCH   3   4
ENDBRANCH   2   3
ENDBRANCH   1   2
BRANCH   1  17
ATOM     17  C   UNL     1       2.666   4.622   7.097  1.00  0.00     0.000 C 
BRANCH  17  18
ATOM     18  C   UNL     1       1.981   5.577   8.089  1.00  0.00     0.000 C 
BRANCH  18  19
ATOM     19  C   UNL     1       2.695   5.636   9.450  1.00  0.00     0.000 C 
BRANCH  19  20
ATOM     20  C   UNL     1       2.842   7.075   9.974  1.00  0.00     0.000 C 
BRANCH  20  21
ATOM     21  C   UNL     1       1.699   7.995   9.513  1.00  0.00     0.000 C 
BRANCH  21  22
ATOM     22  C   UNL     1       1.509   9.205  10.442  1.00  0.00    -0.000 C 
BRANCH  22  23
ATOM     23  C   UNL     1       2.300   9.072  11.755  1.00  0.00    -0.000 C 
BRANCH  23  24
ATOM     24  C   UNL     1       1.382   8.941  12.981  1.00  0.00    -0.000 C 
BRANCH  24  25
ATOM     25  C   UNL     1       1.357   7.509  13.544  1.00  0.00    -0.000 C 
BRANCH  25  26
ATOM     26  C   UNL     1       0.070   6.750  13.182  1.00  0.00    -0.000 C 
BRANCH  26  27
ATOM     27  C   UNL     1       0.197   5.818  11.962  1.00  0.00    -0.000 C 
BRANCH  27  28
ATOM     28  C   UNL     1      -1.161   5.405  11.356  1.00  0.00    -0.000 C 
BRANCH  28  29
ATOM     29  C   UNL     1      -1.117   5.345   9.823  1.00  0.00    -0.003 C 
ATOM     30  C   UNL     1      -1.424   6.706   9.207  1.00  0.00     0.004 C 
ENDBRANCH  28  29
ENDBRANCH  27  28
ENDBRANCH  26  27
ENDBRANCH  25  26
ENDBRANCH  24  25
ENDBRANCH  23  24
ENDBRANCH  22  23
ENDBRANCH  21  22
ENDBRANCH  20  21
ENDBRANCH  19  20
ENDBRANCH  18  19
ENDBRANCH  17  18
ENDBRANCH   1  17
TORSDOF 26
ENDMDL
