MODEL 1
REMARK VINA RESULT:    29.391      0.000      0.000
REMARK INTER + INTRA:          72.330
REMARK INTER:                  74.065
REMARK INTRA:                  -1.735
REMARK UNBOUND:                -1.735
REMARK SMILES CCCCCCCCCCCCCCCCCCCCCCCCCCCC(=O)[O-]
REMARK SMILES IDX 15 1 16 2 17 3 18 4 19 5 20 6 21 7 22 8 23 9 24 10 25 11
REMARK SMILES IDX 26 12 27 13 28 14 29 15 30 16 14 17 13 18 12 19 11 20 10 21
REMARK SMILES IDX 9 22 8 23 7 24 6 25 5 26 4 27 3 28 2 29 1 30
REMARK H PARENT
REMARK Flexibility Score: inf
ROOT
ATOM      1  C   UNL     1      -9.130 -13.637  18.525  1.00  0.00     0.000 C 
ENDROOT
BRANCH   1   2
ATOM      2  C   UNL     1      -8.440 -13.369  19.874  1.00  0.00     0.000 C 
BRANCH   2   3
ATOM      3  C   UNL     1      -9.445 -13.208  21.030  1.00  0.00     0.000 C 
BRANCH   3   4
ATOM      4  C   UNL     1      -8.866 -12.411  22.211  1.00  0.00     0.000 C 
BRANCH   4   5
ATOM      5  C   UNL     1      -7.338 -12.250  22.132  1.00  0.00     0.000 C 
BRANCH   5   6
ATOM      6  C   UNL     1      -6.612 -12.918  23.311  1.00  0.00     0.000 C 
BRANCH   6   7
ATOM      7  C   UNL     1      -6.494 -12.055  24.582  1.00  0.00     0.000 C 
BRANCH   7   8
ATOM      8  C   UNL     1      -6.216 -12.866  25.865  1.00  0.00     0.000 C 
BRANCH   8   9
ATOM      9  C   UNL     1      -5.116 -13.925  25.668  1.00  0.00     0.000 C 
BRANCH   9  10
ATOM     10  C   UNL     1      -5.186 -15.052  26.712  1.00  0.00     0.000 C 
BRANCH  10  11
ATOM     11  C   UNL     1      -4.641 -16.390  26.181  1.00  0.00     0.000 C 
BRANCH  11  12
ATOM     12  C   UNL     1      -5.712 -17.500  26.170  1.00  0.00     0.006 C 
BRANCH  12  13
ATOM     13  C   UNL     1      -5.393 -18.658  25.212  1.00  0.00     0.053 C 
BRANCH  13  14
ATOM     14  C   UNL     1      -5.667 -18.313  23.781  1.00  0.00     0.041 C 
ATOM     15  O   UNL     1      -4.896 -17.536  23.158  1.00  0.00    -0.550 OA
ATOM     16  O   UNL     1      -6.771 -18.856  23.134  1.00  0.00    -0.550 OA
ENDBRANCH  13  14
ENDBRANCH  12  13
ENDBRANCH  11  12
ENDBRANCH  10  11
ENDBRANCH   9  10
ENDBRANCH   8   9
ENDBRANCH   7   8
ENDBRANCH   6   7
ENDBRANCH   5   6
ENDBRANCH   4   5
ENDBRANCH   3   4
ENDBRANCH   2   3
ENDBRANCH   1   2
BRANCH   1  17
ATOM     17  C   UNL     1      -8.384 -14.681  17.681  1.00  0.00     0.000 C 
BRANCH  17  18
ATOM     18  C   UNL     1      -9.364 -15.671  17.033  1.00  0.00     0.000 C 
BRANCH  18  19
ATOM     19  C   UNL     1     -10.085 -16.567  18.059  1.00  0.00     0.000 C 
BRANCH  19  20
ATOM     20  C   UNL     1     -10.250 -18.040  17.643  1.00  0.00     0.000 C 
BRANCH  20  21
ATOM     21  C   UNL     1      -8.941 -18.841  17.735  1.00  0.00     0.000 C 
BRANCH  21  22
ATOM     22  C   UNL     1      -8.419 -19.283  16.359  1.00  0.00    -0.000 C 
BRANCH  22  23
ATOM     23  C   UNL     1      -6.882 -19.347  16.295  1.00  0.00    -0.000 C 
BRANCH  23  24
ATOM     24  C   UNL     1      -6.375 -20.629  15.614  1.00  0.00    -0.000 C 
BRANCH  24  25
ATOM     25  C   UNL     1      -6.409 -20.537  14.079  1.00  0.00    -0.000 C 
BRANCH  25  26
ATOM     26  C   UNL     1      -5.764 -19.245  13.551  1.00  0.00    -0.000 C 
BRANCH  26  27
ATOM     27  C   UNL     1      -6.472 -18.702  12.297  1.00  0.00    -0.000 C 
BRANCH  27  28
ATOM     28  C   UNL     1      -7.675 -17.807  12.637  1.00  0.00    -0.000 C 
BRANCH  28  29
ATOM     29  C   UNL     1      -9.015 -18.429  12.209  1.00  0.00    -0.003 C 
ATOM     30  C   UNL     1      -9.404 -19.580  13.131  1.00  0.00     0.004 C 
ENDBRANCH  28  29
ENDBRANCH  27  28
ENDBRANCH  26  27
ENDBRANCH  25  26
ENDBRANCH  24  25
ENDBRANCH  23  24
ENDBRANCH  22  23
ENDBRANCH  21  22
ENDBRANCH  20  21
ENDBRANCH  19  20
ENDBRANCH  18  19
ENDBRANCH  17  18
ENDBRANCH   1  17
TORSDOF 26
ENDMDL
MODEL 2
REMARK VINA RESULT:    29.481      2.800      3.699
REMARK INTER + INTRA:          72.556
REMARK INTER:                  73.439
REMARK INTRA:                  -0.884
REMARK UNBOUND:                -1.735
REMARK SMILES CCCCCCCCCCCCCCCCCCCCCCCCCCCC(=O)[O-]
REMARK SMILES IDX 15 1 16 2 17 3 18 4 19 5 20 6 21 7 22 8 23 9 24 10 25 11
REMARK SMILES IDX 26 12 27 13 28 14 29 15 30 16 14 17 13 18 12 19 11 20 10 21
REMARK SMILES IDX 9 22 8 23 7 24 6 25 5 26 4 27 3 28 2 29 1 30
REMARK H PARENT
REMARK Flexibility Score: inf
ROOT
ATOM      1  C   UNL     1      -9.242 -15.043  17.550  1.00  0.00     0.000 C 
ENDROOT
BRANCH   1   2
ATOM      2  C   UNL     1      -9.098 -13.747  18.368  1.00  0.00     0.000 C 
BRANCH   2   3
ATOM      3  C   UNL     1      -8.054 -13.871  19.493  1.00  0.00     0.000 C 
BRANCH   3   4
ATOM      4  C   UNL     1      -8.696 -14.016  20.883  1.00  0.00     0.000 C 
BRANCH   4   5
ATOM      5  C   UNL     1      -8.719 -12.695  21.673  1.00  0.00     0.000 C 
BRANCH   5   6
ATOM      6  C   UNL     1      -7.363 -12.371  22.322  1.00  0.00     0.000 C 
BRANCH   6   7
ATOM      7  C   UNL     1      -7.403 -12.163  23.848  1.00  0.00     0.000 C 
BRANCH   7   8
ATOM      8  C   UNL     1      -6.037 -12.357  24.541  1.00  0.00     0.000 C 
BRANCH   8   9
ATOM      9  C   UNL     1      -6.142 -13.194  25.829  1.00  0.00     0.000 C 
BRANCH   9  10
ATOM     10  C   UNL     1      -5.055 -14.278  25.922  1.00  0.00     0.000 C 
BRANCH  10  11
ATOM     11  C   UNL     1      -5.518 -15.635  25.362  1.00  0.00     0.000 C 
BRANCH  11  12
ATOM     12  C   UNL     1      -5.385 -16.775  26.392  1.00  0.00     0.006 C 
BRANCH  12  13
ATOM     13  C   UNL     1      -4.773 -18.061  25.816  1.00  0.00     0.053 C 
BRANCH  13  14
ATOM     14  C   UNL     1      -5.157 -18.291  24.388  1.00  0.00     0.041 C 
ATOM     15  O   UNL     1      -4.496 -17.755  23.459  1.00  0.00    -0.550 OA
ATOM     16  O   UNL     1      -6.243 -19.104  24.081  1.00  0.00    -0.550 OA
ENDBRANCH  13  14
ENDBRANCH  12  13
ENDBRANCH  11  12
ENDBRANCH  10  11
ENDBRANCH   9  10
ENDBRANCH   8   9
ENDBRANCH   7   8
ENDBRANCH   6   7
ENDBRANCH   5   6
ENDBRANCH   4   5
ENDBRANCH   3   4
ENDBRANCH   2   3
ENDBRANCH   1   2
BRANCH   1  17
ATOM     17  C   UNL     1      -9.409 -16.284  18.440  1.00  0.00     0.000 C 
BRANCH  17  18
ATOM     18  C   UNL     1     -10.073 -17.433  17.665  1.00  0.00     0.000 C 
BRANCH  18  19
ATOM     19  C   UNL     1      -9.139 -18.641  17.458  1.00  0.00     0.000 C 
BRANCH  19  20
ATOM     20  C   UNL     1      -8.450 -18.712  16.083  1.00  0.00     0.000 C 
BRANCH  20  21
ATOM     21  C   UNL     1      -8.300 -20.149  15.559  1.00  0.00     0.000 C 
BRANCH  21  22
ATOM     22  C   UNL     1      -8.297 -20.222  14.024  1.00  0.00    -0.000 C 
BRANCH  22  23
ATOM     23  C   UNL     1      -9.694 -20.007  13.412  1.00  0.00    -0.000 C 
BRANCH  23  24
ATOM     24  C   UNL     1     -10.457 -21.326  13.214  1.00  0.00    -0.000 C 
BRANCH  24  25
ATOM     25  C   UNL     1      -9.582 -22.430  12.595  1.00  0.00    -0.000 C 
BRANCH  25  26
ATOM     26  C   UNL     1     -10.401 -23.449  11.787  1.00  0.00    -0.000 C 
BRANCH  26  27
ATOM     27  C   UNL     1      -9.522 -24.534  11.140  1.00  0.00    -0.000 C 
BRANCH  27  28
ATOM     28  C   UNL     1      -9.129 -25.645  12.127  1.00  0.00    -0.000 C 
BRANCH  28  29
ATOM     29  C   UNL     1      -9.295 -27.052  11.531  1.00  0.00    -0.003 C 
ATOM     30  C   UNL     1      -9.219 -27.014  10.008  1.00  0.00     0.004 C 
ENDBRANCH  28  29
ENDBRANCH  27  28
ENDBRANCH  26  27
ENDBRANCH  25  26
ENDBRANCH  24  25
ENDBRANCH  23  24
ENDBRANCH  22  23
ENDBRANCH  21  22
ENDBRANCH  20  21
ENDBRANCH  19  20
ENDBRANCH  18  19
ENDBRANCH  17  18
ENDBRANCH   1  17
TORSDOF 26
ENDMDL
MODEL 3
REMARK VINA RESULT:    29.514      3.511      4.883
REMARK INTER + INTRA:          72.640
REMARK INTER:                  73.727
REMARK INTRA:                  -1.087
REMARK UNBOUND:                -1.735
REMARK SMILES CCCCCCCCCCCCCCCCCCCCCCCCCCCC(=O)[O-]
REMARK SMILES IDX 15 1 16 2 17 3 18 4 19 5 20 6 21 7 22 8 23 9 24 10 25 11
REMARK SMILES IDX 26 12 27 13 28 14 29 15 30 16 14 17 13 18 12 19 11 20 10 21
REMARK SMILES IDX 9 22 8 23 7 24 6 25 5 26 4 27 3 28 2 29 1 30
REMARK H PARENT
REMARK Flexibility Score: inf
ROOT
ATOM      1  C   UNL     1      -8.149 -14.005  18.932  1.00  0.00     0.000 C 
ENDROOT
BRANCH   1   2
ATOM      2  C   UNL     1      -8.858 -14.401  20.239  1.00  0.00     0.000 C 
BRANCH   2   3
ATOM      3  C   UNL     1      -9.136 -13.191  21.149  1.00  0.00     0.000 C 
BRANCH   3   4
ATOM      4  C   UNL     1      -7.855 -12.434  21.536  1.00  0.00     0.000 C 
BRANCH   4   5
ATOM      5  C   UNL     1      -7.252 -12.917  22.867  1.00  0.00     0.000 C 
BRANCH   5   6
ATOM      6  C   UNL     1      -6.405 -11.837  23.560  1.00  0.00     0.000 C 
BRANCH   6   7
ATOM      7  C   UNL     1      -6.375 -11.916  25.098  1.00  0.00     0.000 C 
BRANCH   7   8
ATOM      8  C   UNL     1      -6.400 -13.357  25.650  1.00  0.00     0.000 C 
BRANCH   8   9
ATOM      9  C   UNL     1      -4.989 -13.933  25.866  1.00  0.00     0.000 C 
BRANCH   9  10
ATOM     10  C   UNL     1      -4.983 -15.150  26.808  1.00  0.00     0.000 C 
BRANCH  10  11
ATOM     11  C   UNL     1      -4.674 -16.467  26.075  1.00  0.00     0.000 C 
BRANCH  11  12
ATOM     12  C   UNL     1      -5.817 -17.495  26.203  1.00  0.00     0.006 C 
BRANCH  12  13
ATOM     13  C   UNL     1      -5.607 -18.762  25.359  1.00  0.00     0.053 C 
BRANCH  13  14
ATOM     14  C   UNL     1      -5.639 -18.486  23.889  1.00  0.00     0.041 C 
ATOM     15  O   UNL     1      -4.760 -17.753  23.362  1.00  0.00    -0.550 OA
ATOM     16  O   UNL     1      -6.636 -19.044  23.097  1.00  0.00    -0.550 OA
ENDBRANCH  13  14
ENDBRANCH  12  13
ENDBRANCH  11  12
ENDBRANCH  10  11
ENDBRANCH   9  10
ENDBRANCH   8   9
ENDBRANCH   7   8
ENDBRANCH   6   7
ENDBRANCH   5   6
ENDBRANCH   4   5
ENDBRANCH   3   4
ENDBRANCH   2   3
ENDBRANCH   1   2
BRANCH   1  17
ATOM     17  C   UNL     1      -8.941 -14.424  17.684  1.00  0.00     0.000 C 
BRANCH  17  18
ATOM     18  C   UNL     1     -10.026 -13.389  17.345  1.00  0.00     0.000 C 
BRANCH  18  19
ATOM     19  C   UNL     1     -11.241 -14.001  16.621  1.00  0.00     0.000 C 
BRANCH  19  20
ATOM     20  C   UNL     1     -11.146 -14.027  15.085  1.00  0.00     0.000 C 
BRANCH  20  21
ATOM     21  C   UNL     1     -12.520 -14.012  14.398  1.00  0.00     0.000 C 
BRANCH  21  22
ATOM     22  C   UNL     1     -12.667 -15.118  13.341  1.00  0.00    -0.000 C 
BRANCH  22  23
ATOM     23  C   UNL     1     -11.604 -15.029  12.230  1.00  0.00    -0.000 C 
BRANCH  23  24
ATOM     24  C   UNL     1     -11.821 -13.821  11.305  1.00  0.00    -0.000 C 
BRANCH  24  25
ATOM     25  C   UNL     1     -10.977 -12.602  11.714  1.00  0.00    -0.000 C 
BRANCH  25  26
ATOM     26  C   UNL     1      -9.484 -12.939  11.856  1.00  0.00    -0.000 C 
BRANCH  26  27
ATOM     27  C   UNL     1      -8.825 -12.213  13.041  1.00  0.00    -0.000 C 
BRANCH  27  28
ATOM     28  C   UNL     1      -9.817 -11.344  13.831  1.00  0.00    -0.000 C 
BRANCH  28  29
ATOM     29  C   UNL     1     -10.179 -10.044  13.096  1.00  0.00    -0.003 C 
ATOM     30  C   UNL     1      -8.981  -9.104  13.022  1.00  0.00     0.004 C 
ENDBRANCH  28  29
ENDBRANCH  27  28
ENDBRANCH  26  27
ENDBRANCH  25  26
ENDBRANCH  24  25
ENDBRANCH  23  24
ENDBRANCH  22  23
ENDBRANCH  21  22
ENDBRANCH  20  21
ENDBRANCH  19  20
ENDBRANCH  18  19
ENDBRANCH  17  18
ENDBRANCH   1  17
TORSDOF 26
ENDMDL
MODEL 4
REMARK VINA RESULT:    30.143      3.939     11.391
REMARK INTER + INTRA:          74.224
REMARK INTER:                  75.640
REMARK INTRA:                  -1.416
REMARK UNBOUND:                -1.735
REMARK SMILES CCCCCCCCCCCCCCCCCCCCCCCCCCCC(=O)[O-]
REMARK SMILES IDX 15 1 16 2 17 3 18 4 19 5 20 6 21 7 22 8 23 9 24 10 25 11
REMARK SMILES IDX 26 12 27 13 28 14 29 15 30 16 14 17 13 18 12 19 11 20 10 21
REMARK SMILES IDX 9 22 8 23 7 24 6 25 5 26 4 27 3 28 2 29 1 30
REMARK H PARENT
REMARK Flexibility Score: inf
ROOT
ATOM      1  C   UNL     1      -8.973 -14.396  17.329  1.00  0.00     0.000 C 
ENDROOT
BRANCH   1   2
ATOM      2  C   UNL     1      -9.586 -15.765  16.987  1.00  0.00     0.000 C 
BRANCH   2   3
ATOM      3  C   UNL     1      -9.704 -16.682  18.218  1.00  0.00     0.000 C 
BRANCH   3   4
ATOM      4  C   UNL     1     -10.189 -18.096  17.858  1.00  0.00     0.000 C 
BRANCH   4   5
ATOM      5  C   UNL     1      -9.043 -19.032  17.434  1.00  0.00     0.000 C 
BRANCH   5   6
ATOM      6  C   UNL     1      -8.523 -18.728  16.019  1.00  0.00     0.000 C 
BRANCH   6   7
ATOM      7  C   UNL     1      -7.429 -19.682  15.505  1.00  0.00     0.000 C 
BRANCH   7   8
ATOM      8  C   UNL     1      -7.756 -20.333  14.144  1.00  0.00     0.000 C 
BRANCH   8   9
ATOM      9  C   UNL     1      -8.709 -19.474  13.293  1.00  0.00     0.000 C 
BRANCH   9  10
ATOM     10  C   UNL     1     -10.136 -20.046  13.242  1.00  0.00     0.000 C 
BRANCH  10  11
ATOM     11  C   UNL     1     -10.203 -21.521  13.679  1.00  0.00     0.000 C 
BRANCH  11  12
ATOM     12  C   UNL     1     -10.432 -22.478  12.491  1.00  0.00     0.006 C 
BRANCH  12  13
ATOM     13  C   UNL     1      -9.134 -23.043  11.892  1.00  0.00     0.053 C 
BRANCH  13  14
ATOM     14  C   UNL     1      -9.373 -24.242  11.030  1.00  0.00     0.041 C 
ATOM     15  O   UNL     1      -9.403 -24.126   9.776  1.00  0.00    -0.550 OA
ATOM     16  O   UNL     1      -9.557 -25.492  11.612  1.00  0.00    -0.550 OA
ENDBRANCH  13  14
ENDBRANCH  12  13
ENDBRANCH  11  12
ENDBRANCH  10  11
ENDBRANCH   9  10
ENDBRANCH   8   9
ENDBRANCH   7   8
ENDBRANCH   6   7
ENDBRANCH   5   6
ENDBRANCH   4   5
ENDBRANCH   3   4
ENDBRANCH   2   3
ENDBRANCH   1   2
BRANCH   1  17
ATOM     17  C   UNL     1      -9.576 -13.782  18.601  1.00  0.00     0.000 C 
BRANCH  17  18
ATOM     18  C   UNL     1      -8.491 -13.117  19.462  1.00  0.00     0.000 C 
BRANCH  18  19
ATOM     19  C   UNL     1      -8.892 -12.985  20.944  1.00  0.00     0.000 C 
BRANCH  19  20
ATOM     20  C   UNL     1      -7.789 -13.343  21.957  1.00  0.00     0.000 C 
BRANCH  20  21
ATOM     21  C   UNL     1      -7.437 -12.180  22.898  1.00  0.00     0.000 C 
BRANCH  21  22
ATOM     22  C   UNL     1      -6.174 -12.453  23.731  1.00  0.00    -0.000 C 
BRANCH  22  23
ATOM     23  C   UNL     1      -6.369 -12.154  25.229  1.00  0.00    -0.000 C 
BRANCH  23  24
ATOM     24  C   UNL     1      -6.401 -13.430  26.084  1.00  0.00    -0.000 C 
BRANCH  24  25
ATOM     25  C   UNL     1      -5.241 -14.388  25.760  1.00  0.00    -0.000 C 
BRANCH  25  26
ATOM     26  C   UNL     1      -4.893 -15.313  26.937  1.00  0.00    -0.000 C 
BRANCH  26  27
ATOM     27  C   UNL     1      -4.824 -16.794  26.524  1.00  0.00    -0.000 C 
BRANCH  27  28
ATOM     28  C   UNL     1      -4.906 -16.989  25.002  1.00  0.00    -0.000 C 
BRANCH  28  29
ATOM     29  C   UNL     1      -5.590 -18.309  24.611  1.00  0.00    -0.003 C 
ATOM     30  C   UNL     1      -5.825 -18.380  23.106  1.00  0.00     0.004 C 
ENDBRANCH  28  29
ENDBRANCH  27  28
ENDBRANCH  26  27
ENDBRANCH  25  26
ENDBRANCH  24  25
ENDBRANCH  23  24
ENDBRANCH  22  23
ENDBRANCH  21  22
ENDBRANCH  20  21
ENDBRANCH  19  20
ENDBRANCH  18  19
ENDBRANCH  17  18
ENDBRANCH   1  17
TORSDOF 26
ENDMDL
MODEL 5
REMARK VINA RESULT:    30.268      4.251      5.667
REMARK INTER + INTRA:          74.539
REMARK INTER:                  74.429
REMARK INTRA:                   0.109
REMARK UNBOUND:                -1.735
REMARK SMILES CCCCCCCCCCCCCCCCCCCCCCCCCCCC(=O)[O-]
REMARK SMILES IDX 15 1 16 2 17 3 18 4 19 5 20 6 21 7 22 8 23 9 24 10 25 11
REMARK SMILES IDX 26 12 27 13 28 14 29 15 30 16 14 17 13 18 12 19 11 20 10 21
REMARK SMILES IDX 9 22 8 23 7 24 6 25 5 26 4 27 3 28 2 29 1 30
REMARK H PARENT
REMARK Flexibility Score: inf
ROOT
ATOM      1  C   UNL     1      -8.930 -14.162  17.879  1.00  0.00     0.000 C 
ENDROOT
BRANCH   1   2
ATOM      2  C   UNL     1      -8.795 -14.669  19.325  1.00  0.00     0.000 C 
BRANCH   2   3
ATOM      3  C   UNL     1      -9.063 -13.566  20.366  1.00  0.00     0.000 C 
BRANCH   3   4
ATOM      4  C   UNL     1      -8.009 -13.539  21.485  1.00  0.00     0.000 C 
BRANCH   4   5
ATOM      5  C   UNL     1      -7.750 -12.124  22.030  1.00  0.00     0.000 C 
BRANCH   5   6
ATOM      6  C   UNL     1      -7.382 -12.123  23.523  1.00  0.00     0.000 C 
BRANCH   6   7
ATOM      7  C   UNL     1      -6.058 -12.832  23.870  1.00  0.00     0.000 C 
BRANCH   7   8
ATOM      8  C   UNL     1      -5.946 -13.256  25.350  1.00  0.00     0.000 C 
BRANCH   8   9
ATOM      9  C   UNL     1      -4.756 -14.199  25.606  1.00  0.00     0.000 C 
BRANCH   9  10
ATOM     10  C   UNL     1      -4.895 -14.986  26.920  1.00  0.00     0.000 C 
BRANCH  10  11
ATOM     11  C   UNL     1      -5.905 -16.143  26.817  1.00  0.00     0.000 C 
BRANCH  11  12
ATOM     12  C   UNL     1      -5.231 -17.483  26.458  1.00  0.00     0.006 C 
BRANCH  12  13
ATOM     13  C   UNL     1      -4.552 -17.483  25.079  1.00  0.00     0.053 C 
BRANCH  13  14
ATOM     14  C   UNL     1      -5.391 -18.132  24.024  1.00  0.00     0.041 C 
ATOM     15  O   UNL     1      -5.709 -19.347  24.125  1.00  0.00    -0.550 OA
ATOM     16  O   UNL     1      -5.830 -17.393  22.931  1.00  0.00    -0.550 OA
ENDBRANCH  13  14
ENDBRANCH  12  13
ENDBRANCH  11  12
ENDBRANCH  10  11
ENDBRANCH   9  10
ENDBRANCH   8   9
ENDBRANCH   7   8
ENDBRANCH   6   7
ENDBRANCH   5   6
ENDBRANCH   4   5
ENDBRANCH   3   4
ENDBRANCH   2   3
ENDBRANCH   1   2
BRANCH   1  17
ATOM     17  C   UNL     1     -10.221 -14.648  17.204  1.00  0.00     0.000 C 
BRANCH  17  18
ATOM     18  C   UNL     1     -10.623 -13.719  16.048  1.00  0.00     0.000 C 
BRANCH  18  19
ATOM     19  C   UNL     1      -9.414 -13.081  15.337  1.00  0.00     0.000 C 
BRANCH  19  20
ATOM     20  C   UNL     1      -9.690 -12.549  13.918  1.00  0.00     0.000 C 
BRANCH  20  21
ATOM     21  C   UNL     1      -8.817 -13.218  12.845  1.00  0.00     0.000 C 
BRANCH  21  22
ATOM     22  C   UNL     1      -9.460 -13.180  11.450  1.00  0.00    -0.000 C 
BRANCH  22  23
ATOM     23  C   UNL     1     -10.966 -12.864  11.493  1.00  0.00    -0.000 C 
BRANCH  23  24
ATOM     24  C   UNL     1     -11.658 -13.115  10.145  1.00  0.00    -0.000 C 
BRANCH  24  25
ATOM     25  C   UNL     1     -13.108 -13.605  10.306  1.00  0.00    -0.000 C 
BRANCH  25  26
ATOM     26  C   UNL     1     -13.446 -14.767   9.358  1.00  0.00    -0.000 C 
BRANCH  26  27
ATOM     27  C   UNL     1     -13.033 -14.482   7.903  1.00  0.00    -0.000 C 
BRANCH  27  28
ATOM     28  C   UNL     1     -13.164 -12.997   7.530  1.00  0.00    -0.000 C 
BRANCH  28  29
ATOM     29  C   UNL     1     -11.804 -12.286   7.446  1.00  0.00    -0.003 C 
ATOM     30  C   UNL     1     -11.954 -10.880   6.875  1.00  0.00     0.004 C 
ENDBRANCH  28  29
ENDBRANCH  27  28
ENDBRANCH  26  27
ENDBRANCH  25  26
ENDBRANCH  24  25
ENDBRANCH  23  24
ENDBRANCH  22  23
ENDBRANCH  21  22
ENDBRANCH  20  21
ENDBRANCH  19  20
ENDBRANCH  18  19
ENDBRANCH  17  18
ENDBRANCH   1  17
TORSDOF 26
ENDMDL
MODEL 6
REMARK VINA RESULT:    30.273      1.981      2.738
REMARK INTER + INTRA:          74.553
REMARK INTER:                  76.290
REMARK INTRA:                  -1.737
REMARK UNBOUND:                -1.735
REMARK SMILES CCCCCCCCCCCCCCCCCCCCCCCCCCCC(=O)[O-]
REMARK SMILES IDX 15 1 16 2 17 3 18 4 19 5 20 6 21 7 22 8 23 9 24 10 25 11
REMARK SMILES IDX 26 12 27 13 28 14 29 15 30 16 14 17 13 18 12 19 11 20 10 21
REMARK SMILES IDX 9 22 8 23 7 24 6 25 5 26 4 27 3 28 2 29 1 30
REMARK H PARENT
REMARK Flexibility Score: inf
ROOT
ATOM      1  C   UNL     1      -8.756 -13.769  18.779  1.00  0.00     0.000 C 
ENDROOT
BRANCH   1   2
ATOM      2  C   UNL     1      -9.303 -13.830  20.216  1.00  0.00     0.000 C 
BRANCH   2   3
ATOM      3  C   UNL     1      -8.186 -13.780  21.275  1.00  0.00     0.000 C 
BRANCH   3   4
ATOM      4  C   UNL     1      -8.322 -12.575  22.221  1.00  0.00     0.000 C 
BRANCH   4   5
ATOM      5  C   UNL     1      -6.995 -11.823  22.427  1.00  0.00     0.000 C 
BRANCH   5   6
ATOM      6  C   UNL     1      -6.209 -12.334  23.645  1.00  0.00     0.000 C 
BRANCH   6   7
ATOM      7  C   UNL     1      -6.505 -11.603  24.969  1.00  0.00     0.000 C 
BRANCH   7   8
ATOM      8  C   UNL     1      -6.911 -12.543  26.124  1.00  0.00     0.000 C 
BRANCH   8   9
ATOM      9  C   UNL     1      -6.458 -13.996  25.891  1.00  0.00     0.000 C 
BRANCH   9  10
ATOM     10  C   UNL     1      -5.100 -14.305  26.544  1.00  0.00     0.000 C 
BRANCH  10  11
ATOM     11  C   UNL     1      -4.210 -15.205  25.667  1.00  0.00     0.000 C 
BRANCH  11  12
ATOM     12  C   UNL     1      -4.746 -16.648  25.570  1.00  0.00     0.006 C 
BRANCH  12  13
ATOM     13  C   UNL     1      -4.606 -17.267  24.170  1.00  0.00     0.053 C 
BRANCH  13  14
ATOM     14  C   UNL     1      -5.675 -18.272  23.876  1.00  0.00     0.041 C 
ATOM     15  O   UNL     1      -5.863 -19.243  24.656  1.00  0.00    -0.550 OA
ATOM     16  O   UNL     1      -6.470 -18.132  22.744  1.00  0.00    -0.550 OA
ENDBRANCH  13  14
ENDBRANCH  12  13
ENDBRANCH  11  12
ENDBRANCH  10  11
ENDBRANCH   9  10
ENDBRANCH   8   9
ENDBRANCH   7   8
ENDBRANCH   6   7
ENDBRANCH   5   6
ENDBRANCH   4   5
ENDBRANCH   3   4
ENDBRANCH   2   3
ENDBRANCH   1   2
BRANCH   1  17
ATOM     17  C   UNL     1      -9.871 -13.816  17.724  1.00  0.00     0.000 C 
BRANCH  17  18
ATOM     18  C   UNL     1      -9.646 -14.969  16.733  1.00  0.00     0.000 C 
BRANCH  18  19
ATOM     19  C   UNL     1      -8.950 -16.187  17.371  1.00  0.00     0.000 C 
BRANCH  19  20
ATOM     20  C   UNL     1      -9.892 -17.208  18.036  1.00  0.00     0.000 C 
BRANCH  20  21
ATOM     21  C   UNL     1     -10.052 -18.499  17.217  1.00  0.00     0.000 C 
BRANCH  21  22
ATOM     22  C   UNL     1      -8.723 -19.245  17.021  1.00  0.00    -0.000 C 
BRANCH  22  23
ATOM     23  C   UNL     1      -8.469 -19.640  15.554  1.00  0.00    -0.000 C 
BRANCH  23  24
ATOM     24  C   UNL     1      -9.760 -19.663  14.721  1.00  0.00    -0.000 C 
BRANCH  24  25
ATOM     25  C   UNL     1      -9.616 -20.488  13.430  1.00  0.00    -0.000 C 
BRANCH  25  26
ATOM     26  C   UNL     1     -10.543 -21.713  13.406  1.00  0.00    -0.000 C 
BRANCH  26  27
ATOM     27  C   UNL     1     -10.417 -22.524  12.104  1.00  0.00    -0.000 C 
BRANCH  27  28
ATOM     28  C   UNL     1      -9.572 -23.796  12.278  1.00  0.00    -0.000 C 
BRANCH  28  29
ATOM     29  C   UNL     1      -9.448 -24.606  10.977  1.00  0.00    -0.003 C 
ATOM     30  C   UNL     1      -9.215 -23.690   9.781  1.00  0.00     0.004 C 
ENDBRANCH  28  29
ENDBRANCH  27  28
ENDBRANCH  26  27
ENDBRANCH  25  26
ENDBRANCH  24  25
ENDBRANCH  23  24
ENDBRANCH  22  23
ENDBRANCH  21  22
ENDBRANCH  20  21
ENDBRANCH  19  20
ENDBRANCH  18  19
ENDBRANCH  17  18
ENDBRANCH   1  17
TORSDOF 26
ENDMDL
MODEL 7
REMARK VINA RESULT:    30.444      3.585      5.036
REMARK INTER + INTRA:          74.982
REMARK INTER:                  76.450
REMARK INTRA:                  -1.468
REMARK UNBOUND:                -1.735
REMARK SMILES CCCCCCCCCCCCCCCCCCCCCCCCCCCC(=O)[O-]
REMARK SMILES IDX 15 1 16 2 17 3 18 4 19 5 20 6 21 7 22 8 23 9 24 10 25 11
REMARK SMILES IDX 26 12 27 13 28 14 29 15 30 16 14 17 13 18 12 19 11 20 10 21
REMARK SMILES IDX 9 22 8 23 7 24 6 25 5 26 4 27 3 28 2 29 1 30
REMARK H PARENT
REMARK Flexibility Score: inf
ROOT
ATOM      1  C   UNL     1      -9.919 -14.093  17.021  1.00  0.00     0.000 C 
ENDROOT
BRANCH   1   2
ATOM      2  C   UNL     1      -9.719 -13.222  18.274  1.00  0.00     0.000 C 
BRANCH   2   3
ATOM      3  C   UNL     1      -8.802 -13.887  19.316  1.00  0.00     0.000 C 
BRANCH   3   4
ATOM      4  C   UNL     1      -9.129 -13.455  20.755  1.00  0.00     0.000 C 
BRANCH   4   5
ATOM      5  C   UNL     1      -7.930 -13.595  21.710  1.00  0.00     0.000 C 
BRANCH   5   6
ATOM      6  C   UNL     1      -7.543 -12.263  22.372  1.00  0.00     0.000 C 
BRANCH   6   7
ATOM      7  C   UNL     1      -6.399 -12.352  23.401  1.00  0.00     0.000 C 
BRANCH   7   8
ATOM      8  C   UNL     1      -6.830 -12.021  24.845  1.00  0.00     0.000 C 
BRANCH   8   9
ATOM      9  C   UNL     1      -5.966 -12.737  25.899  1.00  0.00     0.000 C 
BRANCH   9  10
ATOM     10  C   UNL     1      -6.101 -14.268  25.835  1.00  0.00     0.000 C 
BRANCH  10  11
ATOM     11  C   UNL     1      -4.918 -14.997  26.498  1.00  0.00     0.000 C 
BRANCH  11  12
ATOM     12  C   UNL     1      -4.365 -16.140  25.621  1.00  0.00     0.006 C 
BRANCH  12  13
ATOM     13  C   UNL     1      -5.128 -17.464  25.777  1.00  0.00     0.053 C 
BRANCH  13  14
ATOM     14  C   UNL     1      -5.305 -18.183  24.476  1.00  0.00     0.041 C 
ATOM     15  O   UNL     1      -5.762 -19.356  24.456  1.00  0.00    -0.550 OA
ATOM     16  O   UNL     1      -4.972 -17.552  23.282  1.00  0.00    -0.550 OA
ENDBRANCH  13  14
ENDBRANCH  12  13
ENDBRANCH  11  12
ENDBRANCH  10  11
ENDBRANCH   9  10
ENDBRANCH   8   9
ENDBRANCH   7   8
ENDBRANCH   6   7
ENDBRANCH   5   6
ENDBRANCH   4   5
ENDBRANCH   3   4
ENDBRANCH   2   3
ENDBRANCH   1   2
BRANCH   1  17
ATOM     17  C   UNL     1      -9.272 -15.479  17.160  1.00  0.00     0.000 C 
BRANCH  17  18
ATOM     18  C   UNL     1      -7.864 -15.495  16.545  1.00  0.00     0.000 C 
BRANCH  18  19
ATOM     19  C   UNL     1      -7.506 -14.184  15.820  1.00  0.00     0.000 C 
BRANCH  19  20
ATOM     20  C   UNL     1      -7.059 -14.343  14.355  1.00  0.00     0.000 C 
BRANCH  20  21
ATOM     21  C   UNL     1      -8.177 -14.029  13.348  1.00  0.00     0.000 C 
BRANCH  21  22
ATOM     22  C   UNL     1      -8.783 -12.632  13.553  1.00  0.00    -0.000 C 
BRANCH  22  23
ATOM     23  C   UNL     1      -9.799 -12.255  12.459  1.00  0.00    -0.000 C 
BRANCH  23  24
ATOM     24  C   UNL     1     -10.212 -13.460  11.600  1.00  0.00    -0.000 C 
BRANCH  24  25
ATOM     25  C   UNL     1     -11.734 -13.688  11.592  1.00  0.00    -0.000 C 
BRANCH  25  26
ATOM     26  C   UNL     1     -12.461 -12.785  10.583  1.00  0.00    -0.000 C 
BRANCH  26  27
ATOM     27  C   UNL     1     -12.304 -13.274   9.133  1.00  0.00    -0.000 C 
BRANCH  27  28
ATOM     28  C   UNL     1     -13.370 -14.308   8.737  1.00  0.00    -0.000 C 
BRANCH  28  29
ATOM     29  C   UNL     1     -12.760 -15.654   8.313  1.00  0.00    -0.003 C 
ATOM     30  C   UNL     1     -13.749 -16.466   7.482  1.00  0.00     0.004 C 
ENDBRANCH  28  29
ENDBRANCH  27  28
ENDBRANCH  26  27
ENDBRANCH  25  26
ENDBRANCH  24  25
ENDBRANCH  23  24
ENDBRANCH  22  23
ENDBRANCH  21  22
ENDBRANCH  20  21
ENDBRANCH  19  20
ENDBRANCH  18  19
ENDBRANCH  17  18
ENDBRANCH   1  17
TORSDOF 26
ENDMDL
MODEL 8
REMARK VINA RESULT:    30.477      3.334      4.636
REMARK INTER + INTRA:          75.066
REMARK INTER:                  75.561
REMARK INTRA:                  -0.495
REMARK UNBOUND:                -1.735
REMARK SMILES CCCCCCCCCCCCCCCCCCCCCCCCCCCC(=O)[O-]
REMARK SMILES IDX 15 1 16 2 17 3 18 4 19 5 20 6 21 7 22 8 23 9 24 10 25 11
REMARK SMILES IDX 26 12 27 13 28 14 29 15 30 16 14 17 13 18 12 19 11 20 10 21
REMARK SMILES IDX 9 22 8 23 7 24 6 25 5 26 4 27 3 28 2 29 1 30
REMARK H PARENT
REMARK Flexibility Score: inf
ROOT
ATOM      1  C   UNL     1      -9.211 -14.394  19.749  1.00  0.00     0.000 C 
ENDROOT
BRANCH   1   2
ATOM      2  C   UNL     1      -8.387 -13.887  20.945  1.00  0.00     0.000 C 
BRANCH   2   3
ATOM      3  C   UNL     1      -8.991 -12.624  21.586  1.00  0.00     0.000 C 
BRANCH   3   4
ATOM      4  C   UNL     1      -7.950 -11.797  22.359  1.00  0.00     0.000 C 
BRANCH   4   5
ATOM      5  C   UNL     1      -6.708 -12.615  22.755  1.00  0.00     0.000 C 
BRANCH   5   6
ATOM      6  C   UNL     1      -6.123 -12.183  24.109  1.00  0.00     0.000 C 
BRANCH   6   7
ATOM      7  C   UNL     1      -7.036 -12.428  25.325  1.00  0.00     0.000 C 
BRANCH   7   8
ATOM      8  C   UNL     1      -6.364 -13.229  26.460  1.00  0.00     0.000 C 
BRANCH   8   9
ATOM      9  C   UNL     1      -5.091 -13.959  25.995  1.00  0.00     0.000 C 
BRANCH   9  10
ATOM     10  C   UNL     1      -4.897 -15.316  26.693  1.00  0.00     0.000 C 
BRANCH  10  11
ATOM     11  C   UNL     1      -4.501 -16.436  25.715  1.00  0.00     0.000 C 
BRANCH  11  12
ATOM     12  C   UNL     1      -4.859 -17.839  26.249  1.00  0.00     0.006 C 
BRANCH  12  13
ATOM     13  C   UNL     1      -5.975 -18.536  25.456  1.00  0.00     0.053 C 
BRANCH  13  14
ATOM     14  C   UNL     1      -5.735 -18.509  23.979  1.00  0.00     0.041 C 
ATOM     15  O   UNL     1      -6.443 -19.210  23.209  1.00  0.00    -0.550 OA
ATOM     16  O   UNL     1      -4.731 -17.704  23.452  1.00  0.00    -0.550 OA
ENDBRANCH  13  14
ENDBRANCH  12  13
ENDBRANCH  11  12
ENDBRANCH  10  11
ENDBRANCH   9  10
ENDBRANCH   8   9
ENDBRANCH   7   8
ENDBRANCH   6   7
ENDBRANCH   5   6
ENDBRANCH   4   5
ENDBRANCH   3   4
ENDBRANCH   2   3
ENDBRANCH   1   2
BRANCH   1  17
ATOM     17  C   UNL     1      -8.456 -14.263  18.418  1.00  0.00     0.000 C 
BRANCH  17  18
ATOM     18  C   UNL     1      -9.374 -14.587  17.228  1.00  0.00     0.000 C 
BRANCH  18  19
ATOM     19  C   UNL     1     -10.539 -13.590  17.075  1.00  0.00     0.000 C 
BRANCH  19  20
ATOM     20  C   UNL     1     -10.637 -12.899  15.702  1.00  0.00     0.000 C 
BRANCH  20  21
ATOM     21  C   UNL     1      -9.599 -11.780  15.518  1.00  0.00     0.000 C 
BRANCH  21  22
ATOM     22  C   UNL     1      -9.905 -10.882  14.309  1.00  0.00    -0.000 C 
BRANCH  22  23
ATOM     23  C   UNL     1      -9.320 -11.429  12.994  1.00  0.00    -0.000 C 
BRANCH  23  24
ATOM     24  C   UNL     1      -8.542 -12.739  13.197  1.00  0.00    -0.000 C 
BRANCH  24  25
ATOM     25  C   UNL     1      -8.631 -13.675  11.979  1.00  0.00    -0.000 C 
BRANCH  25  26
ATOM     26  C   UNL     1      -9.935 -14.487  11.953  1.00  0.00    -0.000 C 
BRANCH  26  27
ATOM     27  C   UNL     1     -11.186 -13.593  11.881  1.00  0.00    -0.000 C 
BRANCH  27  28
ATOM     28  C   UNL     1     -11.631 -13.311  10.437  1.00  0.00    -0.000 C 
BRANCH  28  29
ATOM     29  C   UNL     1     -13.029 -13.870  10.129  1.00  0.00    -0.003 C 
ATOM     30  C   UNL     1     -13.259 -13.974   8.625  1.00  0.00     0.004 C 
ENDBRANCH  28  29
ENDBRANCH  27  28
ENDBRANCH  26  27
ENDBRANCH  25  26
ENDBRANCH  24  25
ENDBRANCH  23  24
ENDBRANCH  22  23
ENDBRANCH  21  22
ENDBRANCH  20  21
ENDBRANCH  19  20
ENDBRANCH  18  19
ENDBRANCH  17  18
ENDBRANCH   1  17
TORSDOF 26
ENDMDL
MODEL 9
REMARK VINA RESULT:    30.625      4.550     10.816
REMARK INTER + INTRA:          75.438
REMARK INTER:                  76.679
REMARK INTRA:                  -1.241
REMARK UNBOUND:                -1.735
REMARK SMILES CCCCCCCCCCCCCCCCCCCCCCCCCCCC(=O)[O-]
REMARK SMILES IDX 15 1 16 2 17 3 18 4 19 5 20 6 21 7 22 8 23 9 24 10 25 11
REMARK SMILES IDX 26 12 27 13 28 14 29 15 30 16 14 17 13 18 12 19 11 20 10 21
REMARK SMILES IDX 9 22 8 23 7 24 6 25 5 26 4 27 3 28 2 29 1 30
REMARK H PARENT
REMARK Flexibility Score: inf
ROOT
ATOM      1  C   UNL     1      -6.532 -13.255  23.372  1.00  0.00     0.000 C 
ENDROOT
BRANCH   1   2
ATOM      2  C   UNL     1      -7.470 -12.549  22.378  1.00  0.00     0.000 C 
BRANCH   2   3
ATOM      3  C   UNL     1      -8.280 -13.542  21.523  1.00  0.00     0.000 C 
BRANCH   3   4
ATOM      4  C   UNL     1      -8.788 -12.917  20.213  1.00  0.00     0.000 C 
BRANCH   4   5
ATOM      5  C   UNL     1      -8.337 -13.696  18.964  1.00  0.00     0.000 C 
BRANCH   5   6
ATOM      6  C   UNL     1      -9.498 -13.989  18.000  1.00  0.00     0.000 C 
BRANCH   6   7
ATOM      7  C   UNL     1      -9.481 -15.392  17.363  1.00  0.00     0.000 C 
BRANCH   7   8
ATOM      8  C   UNL     1      -9.587 -16.543  18.385  1.00  0.00     0.000 C 
BRANCH   8   9
ATOM      9  C   UNL     1     -10.511 -17.677  17.904  1.00  0.00     0.000 C 
BRANCH   9  10
ATOM     10  C   UNL     1      -9.731 -18.891  17.370  1.00  0.00     0.000 C 
BRANCH  10  11
ATOM     11  C   UNL     1      -8.211 -18.757  17.571  1.00  0.00     0.000 C 
BRANCH  11  12
ATOM     12  C   UNL     1      -7.405 -19.445  16.451  1.00  0.00     0.006 C 
BRANCH  12  13
ATOM     13  C   UNL     1      -7.198 -18.566  15.208  1.00  0.00     0.053 C 
BRANCH  13  14
ATOM     14  C   UNL     1      -6.726 -19.348  14.022  1.00  0.00     0.041 C 
ATOM     15  O   UNL     1      -7.395 -19.347  12.955  1.00  0.00    -0.550 OA
ATOM     16  O   UNL     1      -5.541 -20.073  14.093  1.00  0.00    -0.550 OA
ENDBRANCH  13  14
ENDBRANCH  12  13
ENDBRANCH  11  12
ENDBRANCH  10  11
ENDBRANCH   9  10
ENDBRANCH   8   9
ENDBRANCH   7   8
ENDBRANCH   6   7
ENDBRANCH   5   6
ENDBRANCH   4   5
ENDBRANCH   3   4
ENDBRANCH   2   3
ENDBRANCH   1   2
BRANCH   1  17
ATOM     17  C   UNL     1      -6.386 -12.484  24.692  1.00  0.00     0.000 C 
BRANCH  17  18
ATOM     18  C   UNL     1      -6.802 -11.014  24.522  1.00  0.00     0.000 C 
BRANCH  18  19
ATOM     19  C   UNL     1      -5.669 -10.125  23.974  1.00  0.00     0.000 C 
BRANCH  19  20
ATOM     20  C   UNL     1      -5.105  -9.093  24.968  1.00  0.00     0.000 C 
BRANCH  20  21
ATOM     21  C   UNL     1      -3.805  -8.436  24.479  1.00  0.00     0.000 C 
BRANCH  21  22
ATOM     22  C   UNL     1      -2.554  -9.030  25.145  1.00  0.00    -0.000 C 
BRANCH  22  23
ATOM     23  C   UNL     1      -1.318  -9.007  24.226  1.00  0.00    -0.000 C 
BRANCH  23  24
ATOM     24  C   UNL     1      -1.246 -10.236  23.307  1.00  0.00    -0.000 C 
BRANCH  24  25
ATOM     25  C   UNL     1      -0.734  -9.891  21.897  1.00  0.00    -0.000 C 
BRANCH  25  26
ATOM     26  C   UNL     1      -0.465  -8.389  21.719  1.00  0.00    -0.000 C 
BRANCH  26  27
ATOM     27  C   UNL     1      -1.756  -7.577  21.519  1.00  0.00    -0.000 C 
BRANCH  27  28
ATOM     28  C   UNL     1      -2.208  -7.534  20.050  1.00  0.00    -0.000 C 
BRANCH  28  29
ATOM     29  C   UNL     1      -3.655  -7.040  19.890  1.00  0.00    -0.003 C 
ATOM     30  C   UNL     1      -4.414  -7.886  18.874  1.00  0.00     0.004 C 
ENDBRANCH  28  29
ENDBRANCH  27  28
ENDBRANCH  26  27
ENDBRANCH  25  26
ENDBRANCH  24  25
ENDBRANCH  23  24
ENDBRANCH  22  23
ENDBRANCH  21  22
ENDBRANCH  20  21
ENDBRANCH  19  20
ENDBRANCH  18  19
ENDBRANCH  17  18
ENDBRANCH   1  17
TORSDOF 26
ENDMDL
