MODEL 1
REMARK VINA RESULT:    -7.449      0.000      0.000
REMARK INTER + INTRA:          -7.960
REMARK INTER:                  -8.102
REMARK INTRA:                   0.142
REMARK UNBOUND:                 0.142
REMARK SMILES C[C@@H]1[C@H](C)CC[C@@]2(C(=O)[O-])CC[C@]3(C)C(=CC[C@@H]4[C@@]5(C)CC[C@H](O)C(C)(C)[C@@H]5CC[C@@]43C)[C@@H]12
REMARK SMILES IDX 7 1 6 2 11 3 33 4 5 5 12 6 15 7 2 8 3 9 13 10 16 11 1 12
REMARK SMILES IDX 4 13 14 14 31 15 17 16 18 17 30 18 32 19 19 20 29 21 28 22
REMARK SMILES IDX 21 23 20 24 25 25 22 26 23 27 26 28 27 29 8 30 9 31 10 32
REMARK SMILES IDX 24 33
REMARK H PARENT 24 34
REMARK Flexibility Score: inf
ROOT
ATOM      1  C   UNL     1     172.611 171.644 174.924  1.00  0.00     0.017 C 
ATOM      2  C   UNL     1     172.621 173.001 174.166  1.00  0.00     0.014 C 
ATOM      3  C   UNL     1     172.660 170.485 173.867  1.00  0.00     0.014 C 
ATOM      4  C   UNL     1     173.820 171.604 175.949  1.00  0.00     0.030 C 
ATOM      5  C   UNL     1     172.531 174.202 175.116  1.00  0.00     0.004 C 
ATOM      6  C   UNL     1     174.056 170.104 173.320  1.00  0.00     0.013 C 
ATOM      7  C   UNL     1     175.124 171.233 175.211  1.00  0.00    -0.063 C 
ATOM      8  C   UNL     1     173.895 172.891 176.864  1.00  0.00    -0.003 C 
ATOM      9  C   UNL     1     173.731 174.231 176.066  1.00  0.00    -0.011 C 
ATOM     10  C   UNL     1     175.138 169.916 174.423  1.00  0.00    -0.006 C 
ATOM     11  C   UNL     1     176.047 172.172 174.929  1.00  0.00    -0.027 C 
ATOM     12  C   UNL     1     172.912 172.799 178.056  1.00  0.00     0.008 C 
ATOM     13  C   UNL     1     173.674 175.470 176.974  1.00  0.00     0.008 C 
ATOM     14  C   UNL     1     174.673 168.747 175.362  1.00  0.00     0.017 C 
ATOM     15  C   UNL     1     176.627 169.577 173.843  1.00  0.00    -0.020 C 
ATOM     16  C   UNL     1     176.724 172.196 173.599  1.00  0.00     0.032 C 
ATOM     17  C   UNL     1     177.419 170.858 173.304  1.00  0.00     0.006 C 
ATOM     18  C   UNL     1     176.555 168.483 172.729  1.00  0.00     0.008 C 
ATOM     19  C   UNL     1     177.497 168.969 174.999  1.00  0.00     0.012 C 
ATOM     20  C   UNL     1     178.045 170.750 171.841  1.00  0.00    -0.025 C 
ATOM     21  C   UNL     1     177.901 168.149 172.059  1.00  0.00     0.005 C 
ATOM     22  C   UNL     1     178.816 169.381 171.779  1.00  0.00     0.003 C 
ATOM     23  C   UNL     1     179.077 171.915 171.663  1.00  0.00     0.010 C 
ATOM     24  C   UNL     1     176.957 170.857 170.720  1.00  0.00     0.012 C 
ATOM     25  C   UNL     1     179.815 169.194 170.564  1.00  0.00    -0.006 C 
ATOM     26  C   UNL     1     180.019 171.751 170.466  1.00  0.00     0.033 C 
ATOM     27  C   UNL     1     180.778 170.420 170.519  1.00  0.00     0.120 C 
ATOM     28  C   UNL     1     180.679 167.930 170.814  1.00  0.00     0.014 C 
ATOM     29  C   UNL     1     179.118 169.006 169.186  1.00  0.00     0.014 C 
ENDROOT
BRANCH   1  30
ATOM     30  C   UNL     1     171.280 171.463 175.650  1.00  0.00     0.048 C 
ATOM     31  O   UNL     1     171.024 170.382 176.250  1.00  0.00    -0.550 OA
ATOM     32  O   UNL     1     170.279 172.425 175.553  1.00  0.00    -0.550 OA
ENDBRANCH   1  30
BRANCH  27  33
ATOM     33  O   UNL     1     181.631 170.340 169.400  1.00  0.00    -0.393 OA
ATOM     34  H   UNL     1     181.871 169.383 169.271  1.00  0.00     0.210 HD
ENDBRANCH  27  33
TORSDOF 2
ENDMDL
MODEL 2
REMARK VINA RESULT:    -7.427      1.732      3.120
REMARK INTER + INTRA:          -7.936
REMARK INTER:                  -8.009
REMARK INTRA:                   0.073
REMARK UNBOUND:                 0.142
REMARK SMILES C[C@@H]1[C@H](C)CC[C@@]2(C(=O)[O-])CC[C@]3(C)C(=CC[C@@H]4[C@@]5(C)CC[C@H](O)C(C)(C)[C@@H]5CC[C@@]43C)[C@@H]12
REMARK SMILES IDX 7 1 6 2 11 3 33 4 5 5 12 6 15 7 2 8 3 9 13 10 16 11 1 12
REMARK SMILES IDX 4 13 14 14 31 15 17 16 18 17 30 18 32 19 19 20 29 21 28 22
REMARK SMILES IDX 21 23 20 24 25 25 22 26 23 27 26 28 27 29 8 30 9 31 10 32
REMARK SMILES IDX 24 33
REMARK H PARENT 24 34
REMARK Flexibility Score: inf
ROOT
ATOM      1  C   UNL     1     173.487 174.227 175.796  1.00  0.00     0.017 C 
ATOM      2  C   UNL     1     174.645 174.399 176.819  1.00  0.00     0.014 C 
ATOM      3  C   UNL     1     174.021 174.613 174.372  1.00  0.00     0.014 C 
ATOM      4  C   UNL     1     172.934 172.743 175.874  1.00  0.00     0.030 C 
ATOM      5  C   UNL     1     174.208 174.086 178.256  1.00  0.00     0.004 C 
ATOM      6  C   UNL     1     174.790 173.516 173.600  1.00  0.00     0.013 C 
ATOM      7  C   UNL     1     173.847 171.797 175.066  1.00  0.00    -0.063 C 
ATOM      8  C   UNL     1     172.608 172.282 177.350  1.00  0.00    -0.003 C 
ATOM      9  C   UNL     1     173.743 172.632 178.374  1.00  0.00    -0.011 C 
ATOM     10  C   UNL     1     174.077 172.133 173.585  1.00  0.00    -0.006 C 
ATOM     11  C   UNL     1     174.712 170.975 175.689  1.00  0.00    -0.027 C 
ATOM     12  C   UNL     1     171.225 172.797 177.815  1.00  0.00     0.008 C 
ATOM     13  C   UNL     1     173.367 172.301 179.828  1.00  0.00     0.008 C 
ATOM     14  C   UNL     1     172.688 172.313 172.875  1.00  0.00     0.017 C 
ATOM     15  C   UNL     1     174.918 170.958 172.824  1.00  0.00    -0.020 C 
ATOM     16  C   UNL     1     176.100 170.798 175.171  1.00  0.00     0.032 C 
ATOM     17  C   UNL     1     176.093 170.327 173.709  1.00  0.00     0.006 C 
ATOM     18  C   UNL     1     175.489 171.473 171.464  1.00  0.00     0.008 C 
ATOM     19  C   UNL     1     173.943 169.779 172.473  1.00  0.00     0.012 C 
ATOM     20  C   UNL     1     177.536 170.252 173.033  1.00  0.00    -0.025 C 
ATOM     21  C   UNL     1     176.369 170.463 170.704  1.00  0.00     0.005 C 
ATOM     22  C   UNL     1     177.334 169.630 171.603  1.00  0.00     0.003 C 
ATOM     23  C   UNL     1     178.422 169.278 173.882  1.00  0.00     0.010 C 
ATOM     24  C   UNL     1     178.235 171.651 172.968  1.00  0.00     0.012 C 
ATOM     25  C   UNL     1     178.642 169.124 170.868  1.00  0.00    -0.006 C 
ATOM     26  C   UNL     1     179.706 168.817 173.184  1.00  0.00     0.033 C 
ATOM     27  C   UNL     1     179.412 168.166 171.828  1.00  0.00     0.120 C 
ATOM     28  C   UNL     1     178.231 168.302 169.618  1.00  0.00     0.014 C 
ATOM     29  C   UNL     1     179.581 170.263 170.378  1.00  0.00     0.014 C 
ENDROOT
BRANCH   1  30
ATOM     30  C   UNL     1     172.378 175.234 176.091  1.00  0.00     0.048 C 
ATOM     31  O   UNL     1     171.261 175.139 175.511  1.00  0.00    -0.550 OA
ATOM     32  O   UNL     1     172.618 176.343 176.896  1.00  0.00    -0.550 OA
ENDBRANCH   1  30
BRANCH  27  33
ATOM     33  O   UNL     1     180.631 167.758 171.249  1.00  0.00    -0.393 OA
ATOM     34  H   UNL     1     181.326 167.780 171.960  1.00  0.00     0.210 HD
ENDBRANCH  27  33
TORSDOF 2
ENDMDL
MODEL 3
REMARK VINA RESULT:    -7.371      4.730      9.041
REMARK INTER + INTRA:          -7.875
REMARK INTER:                  -7.953
REMARK INTRA:                   0.077
REMARK UNBOUND:                 0.142
REMARK SMILES C[C@@H]1[C@H](C)CC[C@@]2(C(=O)[O-])CC[C@]3(C)C(=CC[C@@H]4[C@@]5(C)CC[C@H](O)C(C)(C)[C@@H]5CC[C@@]43C)[C@@H]12
REMARK SMILES IDX 7 1 6 2 11 3 33 4 5 5 12 6 15 7 2 8 3 9 13 10 16 11 1 12
REMARK SMILES IDX 4 13 14 14 31 15 17 16 18 17 30 18 32 19 19 20 29 21 28 22
REMARK SMILES IDX 21 23 20 24 25 25 22 26 23 27 26 28 27 29 8 30 9 31 10 32
REMARK SMILES IDX 24 33
REMARK H PARENT 24 34
REMARK Flexibility Score: inf
ROOT
ATOM      1  C   UNL     1     172.997 172.173 175.737  1.00  0.00     0.017 C 
ATOM      2  C   UNL     1     171.832 171.950 176.741  1.00  0.00     0.014 C 
ATOM      3  C   UNL     1     172.485 171.818 174.296  1.00  0.00     0.014 C 
ATOM      4  C   UNL     1     173.521 173.664 175.863  1.00  0.00     0.030 C 
ATOM      5  C   UNL     1     172.248 172.229 178.192  1.00  0.00     0.004 C 
ATOM      6  C   UNL     1     171.703 172.922 173.548  1.00  0.00     0.013 C 
ATOM      7  C   UNL     1     172.598 174.615 175.072  1.00  0.00    -0.063 C 
ATOM      8  C   UNL     1     173.823 174.088 177.356  1.00  0.00    -0.003 C 
ATOM      9  C   UNL     1     172.684 173.687 178.357  1.00  0.00    -0.011 C 
ATOM     10  C   UNL     1     172.391 174.318 173.580  1.00  0.00    -0.006 C 
ATOM     11  C   UNL     1     171.712 175.403 175.710  1.00  0.00    -0.027 C 
ATOM     12  C   UNL     1     175.210 173.585 177.821  1.00  0.00     0.008 C 
ATOM     13  C   UNL     1     173.038 173.983 179.823  1.00  0.00     0.008 C 
ATOM     14  C   UNL     1     173.790 174.184 172.880  1.00  0.00     0.017 C 
ATOM     15  C   UNL     1     171.535 175.499 172.845  1.00  0.00    -0.020 C 
ATOM     16  C   UNL     1     170.326 175.569 175.182  1.00  0.00     0.032 C 
ATOM     17  C   UNL     1     170.340 176.082 173.734  1.00  0.00     0.006 C 
ATOM     18  C   UNL     1     170.988 175.013 171.464  1.00  0.00     0.008 C 
ATOM     19  C   UNL     1     172.491 176.705 172.537  1.00  0.00     0.012 C 
ATOM     20  C   UNL     1     168.902 176.150 173.045  1.00  0.00    -0.025 C 
ATOM     21  C   UNL     1     170.097 176.028 170.724  1.00  0.00     0.005 C 
ATOM     22  C   UNL     1     169.107 176.816 171.636  1.00  0.00     0.003 C 
ATOM     23  C   UNL     1     167.989 177.082 173.912  1.00  0.00     0.010 C 
ATOM     24  C   UNL     1     168.231 174.740 172.932  1.00  0.00     0.012 C 
ATOM     25  C   UNL     1     167.797 177.318 170.901  1.00  0.00    -0.006 C 
ATOM     26  C   UNL     1     166.704 177.539 173.213  1.00  0.00     0.033 C 
ATOM     27  C   UNL     1     166.999 178.234 171.880  1.00  0.00     0.120 C 
ATOM     28  C   UNL     1     168.206 178.184 169.680  1.00  0.00     0.014 C 
ATOM     29  C   UNL     1     166.885 176.177 170.368  1.00  0.00     0.014 C 
ENDROOT
BRANCH   1  30
ATOM     30  C   UNL     1     174.121 171.179 176.015  1.00  0.00     0.048 C 
ATOM     31  O   UNL     1     175.254 171.332 175.480  1.00  0.00    -0.550 OA
ATOM     32  O   UNL     1     173.884 170.021 176.751  1.00  0.00    -0.550 OA
ENDBRANCH   1  30
BRANCH  27  33
ATOM     33  O   UNL     1     165.779 178.636 171.299  1.00  0.00    -0.393 OA
ATOM     34  H   UNL     1     165.486 177.914 170.682  1.00  0.00     0.210 HD
ENDBRANCH  27  33
TORSDOF 2
ENDMDL
MODEL 4
REMARK VINA RESULT:    -7.269      5.082      9.961
REMARK INTER + INTRA:          -7.765
REMARK INTER:                  -7.876
REMARK INTRA:                   0.111
REMARK UNBOUND:                 0.142
REMARK SMILES C[C@@H]1[C@H](C)CC[C@@]2(C(=O)[O-])CC[C@]3(C)C(=CC[C@@H]4[C@@]5(C)CC[C@H](O)C(C)(C)[C@@H]5CC[C@@]43C)[C@@H]12
REMARK SMILES IDX 7 1 6 2 11 3 33 4 5 5 12 6 15 7 2 8 3 9 13 10 16 11 1 12
REMARK SMILES IDX 4 13 14 14 31 15 17 16 18 17 30 18 32 19 19 20 29 21 28 22
REMARK SMILES IDX 21 23 20 24 25 25 22 26 23 27 26 28 27 29 8 30 9 31 10 32
REMARK SMILES IDX 24 33
REMARK H PARENT 24 34
REMARK Flexibility Score: inf
ROOT
ATOM      1  C   UNL     1     173.664 174.744 174.949  1.00  0.00     0.017 C 
ATOM      2  C   UNL     1     173.677 173.402 174.166  1.00  0.00     0.014 C 
ATOM      3  C   UNL     1     173.645 175.923 173.913  1.00  0.00     0.014 C 
ATOM      4  C   UNL     1     172.426 174.764 175.938  1.00  0.00     0.030 C 
ATOM      5  C   UNL     1     173.742 172.183 175.094  1.00  0.00     0.004 C 
ATOM      6  C   UNL     1     172.265 176.313 173.333  1.00  0.00     0.013 C 
ATOM      7  C   UNL     1     171.143 175.148 175.170  1.00  0.00    -0.063 C 
ATOM      8  C   UNL     1     172.325 173.460 176.827  1.00  0.00    -0.003 C 
ATOM      9  C   UNL     1     172.514 172.135 176.008  1.00  0.00    -0.011 C 
ATOM     10  C   UNL     1     171.151 176.481 174.407  1.00  0.00    -0.006 C 
ATOM     11  C   UNL     1     170.230 174.214 174.843  1.00  0.00    -0.027 C 
ATOM     12  C   UNL     1     173.273 173.529 178.048  1.00  0.00     0.008 C 
ATOM     13  C   UNL     1     172.546 170.879 176.893  1.00  0.00     0.008 C 
ATOM     14  C   UNL     1     171.588 177.631 175.381  1.00  0.00     0.017 C 
ATOM     15  C   UNL     1     169.680 176.829 173.790  1.00  0.00    -0.020 C 
ATOM     16  C   UNL     1     169.593 174.216 173.494  1.00  0.00     0.032 C 
ATOM     17  C   UNL     1     168.905 175.558 173.204  1.00  0.00     0.006 C 
ATOM     18  C   UNL     1     169.783 177.944 172.700  1.00  0.00     0.008 C 
ATOM     19  C   UNL     1     168.775 177.415 174.931  1.00  0.00     0.012 C 
ATOM     20  C   UNL     1     168.322 175.695 171.725  1.00  0.00    -0.025 C 
ATOM     21  C   UNL     1     168.457 178.290 171.997  1.00  0.00     0.005 C 
ATOM     22  C   UNL     1     167.552 177.064 171.667  1.00  0.00     0.003 C 
ATOM     23  C   UNL     1     167.297 174.533 171.495  1.00  0.00     0.010 C 
ATOM     24  C   UNL     1     169.443 175.609 170.635  1.00  0.00     0.012 C 
ATOM     25  C   UNL     1     166.589 177.274 170.427  1.00  0.00    -0.006 C 
ATOM     26  C   UNL     1     166.390 174.719 170.274  1.00  0.00     0.033 C 
ATOM     27  C   UNL     1     165.629 176.048 170.331  1.00  0.00     0.120 C 
ATOM     28  C   UNL     1     165.716 178.532 170.676  1.00  0.00     0.014 C 
ATOM     29  C   UNL     1     167.326 177.488 169.074  1.00  0.00     0.014 C 
ENDROOT
BRANCH   1  30
ATOM     30  C   UNL     1     174.973 174.912 175.717  1.00  0.00     0.048 C 
ATOM     31  O   UNL     1     175.182 175.953 176.399  1.00  0.00    -0.550 OA
ATOM     32  O   UNL     1     176.006 173.990 175.574  1.00  0.00    -0.550 OA
ENDBRANCH   1  30
BRANCH  27  33
ATOM     33  O   UNL     1     164.809 176.149 169.189  1.00  0.00    -0.393 OA
ATOM     34  H   UNL     1     164.931 177.060 168.809  1.00  0.00     0.210 HD
ENDBRANCH  27  33
TORSDOF 2
ENDMDL
MODEL 5
REMARK VINA RESULT:    -7.250      1.963      7.922
REMARK INTER + INTRA:          -7.744
REMARK INTER:                  -7.824
REMARK INTRA:                   0.080
REMARK UNBOUND:                 0.142
REMARK SMILES C[C@@H]1[C@H](C)CC[C@@]2(C(=O)[O-])CC[C@]3(C)C(=CC[C@@H]4[C@@]5(C)CC[C@H](O)C(C)(C)[C@@H]5CC[C@@]43C)[C@@H]12
REMARK SMILES IDX 7 1 6 2 11 3 33 4 5 5 12 6 15 7 2 8 3 9 13 10 16 11 1 12
REMARK SMILES IDX 4 13 14 14 31 15 17 16 18 17 30 18 32 19 19 20 29 21 28 22
REMARK SMILES IDX 21 23 20 24 25 25 22 26 23 27 26 28 27 29 8 30 9 31 10 32
REMARK SMILES IDX 24 33
REMARK H PARENT 24 34
REMARK Flexibility Score: inf
ROOT
ATOM      1  C   UNL     1     178.296 169.317 172.361  1.00  0.00     0.017 C 
ATOM      2  C   UNL     1     179.247 170.546 172.385  1.00  0.00     0.014 C 
ATOM      3  C   UNL     1     178.003 168.886 173.841  1.00  0.00     0.014 C 
ATOM      4  C   UNL     1     176.985 169.682 171.547  1.00  0.00     0.030 C 
ATOM      5  C   UNL     1     179.631 171.018 170.976  1.00  0.00     0.004 C 
ATOM      6  C   UNL     1     176.889 169.663 174.581  1.00  0.00     0.013 C 
ATOM      7  C   UNL     1     176.011 170.474 172.444  1.00  0.00    -0.063 C 
ATOM      8  C   UNL     1     177.294 170.328 170.137  1.00  0.00    -0.003 C 
ATOM      9  C   UNL     1     178.387 171.452 170.195  1.00  0.00    -0.011 C 
ATOM     10  C   UNL     1     175.574 169.818 173.762  1.00  0.00    -0.006 C 
ATOM     11  C   UNL     1     175.869 171.805 172.301  1.00  0.00    -0.027 C 
ATOM     12  C   UNL     1     177.624 169.250 169.077  1.00  0.00     0.008 C 
ATOM     13  C   UNL     1     178.778 171.986 168.808  1.00  0.00     0.008 C 
ATOM     14  C   UNL     1     175.019 168.380 173.463  1.00  0.00     0.017 C 
ATOM     15  C   UNL     1     174.420 170.692 174.516  1.00  0.00    -0.020 C 
ATOM     16  C   UNL     1     175.791 172.694 173.497  1.00  0.00     0.032 C 
ATOM     17  C   UNL     1     174.645 172.274 174.429  1.00  0.00     0.006 C 
ATOM     18  C   UNL     1     174.275 170.253 176.009  1.00  0.00     0.008 C 
ATOM     19  C   UNL     1     173.035 170.401 173.837  1.00  0.00     0.012 C 
ATOM     20  C   UNL     1     174.581 173.083 175.802  1.00  0.00    -0.025 C 
ATOM     21  C   UNL     1     173.265 171.074 176.833  1.00  0.00     0.005 C 
ATOM     22  C   UNL     1     173.281 172.607 176.548  1.00  0.00     0.003 C 
ATOM     23  C   UNL     1     174.436 174.606 175.466  1.00  0.00     0.010 C 
ATOM     24  C   UNL     1     175.864 172.872 176.675  1.00  0.00     0.012 C 
ATOM     25  C   UNL     1     172.801 173.505 177.761  1.00  0.00    -0.006 C 
ATOM     26  C   UNL     1     174.007 175.479 176.650  1.00  0.00     0.033 C 
ATOM     27  C   UNL     1     172.699 174.983 177.275  1.00  0.00     0.120 C 
ATOM     28  C   UNL     1     171.379 173.054 178.188  1.00  0.00     0.014 C 
ATOM     29  C   UNL     1     173.708 173.414 179.022  1.00  0.00     0.014 C 
ENDROOT
BRANCH   1  30
ATOM     30  C   UNL     1     179.007 168.121 171.732  1.00  0.00     0.048 C 
ATOM     31  O   UNL     1     178.351 167.099 171.387  1.00  0.00    -0.550 OA
ATOM     32  O   UNL     1     180.396 168.079 171.650  1.00  0.00    -0.550 OA
ENDBRANCH   1  30
BRANCH  27  33
ATOM     33  O   UNL     1     172.358 175.835 178.346  1.00  0.00    -0.393 OA
ATOM     34  H   UNL     1     171.778 175.320 178.969  1.00  0.00     0.210 HD
ENDBRANCH  27  33
TORSDOF 2
ENDMDL
MODEL 6
REMARK VINA RESULT:    -7.223      5.818      8.891
REMARK INTER + INTRA:          -7.715
REMARK INTER:                  -7.793
REMARK INTRA:                   0.078
REMARK UNBOUND:                 0.142
REMARK SMILES C[C@@H]1[C@H](C)CC[C@@]2(C(=O)[O-])CC[C@]3(C)C(=CC[C@@H]4[C@@]5(C)CC[C@H](O)C(C)(C)[C@@H]5CC[C@@]43C)[C@@H]12
REMARK SMILES IDX 7 1 6 2 11 3 33 4 5 5 12 6 15 7 2 8 3 9 13 10 16 11 1 12
REMARK SMILES IDX 4 13 14 14 31 15 17 16 18 17 30 18 32 19 19 20 29 21 28 22
REMARK SMILES IDX 21 23 20 24 25 25 22 26 23 27 26 28 27 29 8 30 9 31 10 32
REMARK SMILES IDX 24 33
REMARK H PARENT 24 34
REMARK Flexibility Score: inf
ROOT
ATOM      1  C   UNL     1     168.167 177.083 172.381  1.00  0.00     0.017 C 
ATOM      2  C   UNL     1     167.219 175.852 172.394  1.00  0.00     0.014 C 
ATOM      3  C   UNL     1     168.445 177.513 173.864  1.00  0.00     0.014 C 
ATOM      4  C   UNL     1     169.486 176.721 171.579  1.00  0.00     0.030 C 
ATOM      5  C   UNL     1     166.849 175.381 170.982  1.00  0.00     0.004 C 
ATOM      6  C   UNL     1     169.554 176.738 174.613  1.00  0.00     0.013 C 
ATOM      7  C   UNL     1     170.453 175.931 172.485  1.00  0.00    -0.063 C 
ATOM      8  C   UNL     1     169.192 176.076 170.166  1.00  0.00    -0.003 C 
ATOM      9  C   UNL     1     168.102 174.950 170.213  1.00  0.00    -0.011 C 
ATOM     10  C   UNL     1     170.877 176.587 173.807  1.00  0.00    -0.006 C 
ATOM     11  C   UNL     1     170.600 174.600 172.341  1.00  0.00    -0.027 C 
ATOM     12  C   UNL     1     168.870 177.155 169.104  1.00  0.00     0.008 C 
ATOM     13  C   UNL     1     167.725 174.417 168.821  1.00  0.00     0.008 C 
ATOM     14  C   UNL     1     171.432 178.026 173.515  1.00  0.00     0.017 C 
ATOM     15  C   UNL     1     172.026 175.714 174.571  1.00  0.00    -0.020 C 
ATOM     16  C   UNL     1     170.669 173.710 173.537  1.00  0.00     0.032 C 
ATOM     17  C   UNL     1     171.805 174.132 174.480  1.00  0.00     0.006 C 
ATOM     18  C   UNL     1     172.156 176.152 176.066  1.00  0.00     0.008 C 
ATOM     19  C   UNL     1     173.416 176.009 173.906  1.00  0.00     0.012 C 
ATOM     20  C   UNL     1     171.857 173.322 175.854  1.00  0.00    -0.025 C 
ATOM     21  C   UNL     1     173.160 175.333 176.898  1.00  0.00     0.005 C 
ATOM     22  C   UNL     1     173.149 173.800 176.612  1.00  0.00     0.003 C 
ATOM     23  C   UNL     1     172.009 171.800 175.517  1.00  0.00     0.010 C 
ATOM     24  C   UNL     1     170.566 173.529 176.714  1.00  0.00     0.012 C 
ATOM     25  C   UNL     1     173.620 172.902 177.829  1.00  0.00    -0.006 C 
ATOM     26  C   UNL     1     172.428 170.926 176.704  1.00  0.00     0.033 C 
ATOM     27  C   UNL     1     173.730 171.424 177.342  1.00  0.00     0.120 C 
ATOM     28  C   UNL     1     175.037 173.355 178.270  1.00  0.00     0.014 C 
ATOM     29  C   UNL     1     172.701 172.989 179.081  1.00  0.00     0.014 C 
ENDROOT
BRANCH   1  30
ATOM     30  C   UNL     1     167.460 178.278 171.746  1.00  0.00     0.048 C 
ATOM     31  O   UNL     1     168.115 179.307 171.421  1.00  0.00    -0.550 OA
ATOM     32  O   UNL     1     166.072 178.311 171.638  1.00  0.00    -0.550 OA
ENDBRANCH   1  30
BRANCH  27  33
ATOM     33  O   UNL     1     174.062 170.572 178.415  1.00  0.00    -0.393 OA
ATOM     34  H   UNL     1     173.215 170.297 178.856  1.00  0.00     0.210 HD
ENDBRANCH  27  33
TORSDOF 2
ENDMDL
MODEL 7
REMARK VINA RESULT:    -7.200      5.449      8.548
REMARK INTER + INTRA:          -7.689
REMARK INTER:                  -7.760
REMARK INTRA:                   0.071
REMARK UNBOUND:                 0.142
REMARK SMILES C[C@@H]1[C@H](C)CC[C@@]2(C(=O)[O-])CC[C@]3(C)C(=CC[C@@H]4[C@@]5(C)CC[C@H](O)C(C)(C)[C@@H]5CC[C@@]43C)[C@@H]12
REMARK SMILES IDX 7 1 6 2 11 3 33 4 5 5 12 6 15 7 2 8 3 9 13 10 16 11 1 12
REMARK SMILES IDX 4 13 14 14 31 15 17 16 18 17 30 18 32 19 19 20 29 21 28 22
REMARK SMILES IDX 21 23 20 24 25 25 22 26 23 27 26 28 27 29 8 30 9 31 10 32
REMARK SMILES IDX 24 33
REMARK H PARENT 24 34
REMARK Flexibility Score: inf
ROOT
ATOM      1  C   UNL     1     172.707 176.491 170.336  1.00  0.00     0.017 C 
ATOM      2  C   UNL     1     174.087 175.867 169.988  1.00  0.00     0.014 C 
ATOM      3  C   UNL     1     171.787 175.364 170.925  1.00  0.00     0.014 C 
ATOM      4  C   UNL     1     172.915 177.708 171.330  1.00  0.00     0.030 C 
ATOM      5  C   UNL     1     175.049 176.885 169.361  1.00  0.00     0.004 C 
ATOM      6  C   UNL     1     171.958 175.046 172.428  1.00  0.00     0.013 C 
ATOM      7  C   UNL     1     173.092 177.187 172.772  1.00  0.00    -0.063 C 
ATOM      8  C   UNL     1     174.015 178.730 170.832  1.00  0.00    -0.003 C 
ATOM      9  C   UNL     1     175.329 178.033 170.335  1.00  0.00    -0.011 C 
ATOM     10  C   UNL     1     171.975 176.304 173.345  1.00  0.00    -0.006 C 
ATOM     11  C   UNL     1     174.308 177.157 173.349  1.00  0.00    -0.027 C 
ATOM     12  C   UNL     1     173.444 179.714 169.783  1.00  0.00     0.008 C 
ATOM     13  C   UNL     1     176.343 179.019 169.731  1.00  0.00     0.008 C 
ATOM     14  C   UNL     1     170.598 177.040 173.180  1.00  0.00     0.017 C 
ATOM     15  C   UNL     1     172.219 175.973 174.925  1.00  0.00    -0.020 C 
ATOM     16  C   UNL     1     174.736 175.976 174.156  1.00  0.00     0.032 C 
ATOM     17  C   UNL     1     173.750 175.696 175.299  1.00  0.00     0.006 C 
ATOM     18  C   UNL     1     171.329 174.774 175.387  1.00  0.00     0.008 C 
ATOM     19  C   UNL     1     171.768 177.209 175.780  1.00  0.00     0.012 C 
ATOM     20  C   UNL     1     174.056 174.365 176.123  1.00  0.00    -0.025 C 
ATOM     21  C   UNL     1     171.545 174.330 176.846  1.00  0.00     0.005 C 
ATOM     22  C   UNL     1     173.032 174.325 177.315  1.00  0.00     0.003 C 
ATOM     23  C   UNL     1     175.504 174.475 176.710  1.00  0.00     0.010 C 
ATOM     24  C   UNL     1     173.963 173.081 175.232  1.00  0.00     0.012 C 
ATOM     25  C   UNL     1     173.350 173.297 178.477  1.00  0.00    -0.006 C 
ATOM     26  C   UNL     1     175.823 173.457 177.809  1.00  0.00     0.033 C 
ATOM     27  C   UNL     1     174.815 173.530 178.960  1.00  0.00     0.120 C 
ATOM     28  C   UNL     1     172.410 173.588 179.677  1.00  0.00     0.014 C 
ATOM     29  C   UNL     1     173.144 171.806 178.086  1.00  0.00     0.014 C 
ENDROOT
BRANCH   1  30
ATOM     30  C   UNL     1     172.006 176.949 169.059  1.00  0.00     0.048 C 
ATOM     31  O   UNL     1     170.953 177.641 169.124  1.00  0.00    -0.550 OA
ATOM     32  O   UNL     1     172.435 176.504 167.812  1.00  0.00    -0.550 OA
ENDBRANCH   1  30
BRANCH  27  33
ATOM     33  O   UNL     1     175.172 172.579 179.937  1.00  0.00    -0.393 OA
ATOM     34  H   UNL     1     175.304 171.707 179.476  1.00  0.00     0.210 HD
ENDBRANCH  27  33
TORSDOF 2
ENDMDL
MODEL 8
REMARK VINA RESULT:    -7.160      3.133      8.037
REMARK INTER + INTRA:          -7.645
REMARK INTER:                  -7.721
REMARK INTRA:                   0.075
REMARK UNBOUND:                 0.142
REMARK SMILES C[C@@H]1[C@H](C)CC[C@@]2(C(=O)[O-])CC[C@]3(C)C(=CC[C@@H]4[C@@]5(C)CC[C@H](O)C(C)(C)[C@@H]5CC[C@@]43C)[C@@H]12
REMARK SMILES IDX 7 1 6 2 11 3 33 4 5 5 12 6 15 7 2 8 3 9 13 10 16 11 1 12
REMARK SMILES IDX 4 13 14 14 31 15 17 16 18 17 30 18 32 19 19 20 29 21 28 22
REMARK SMILES IDX 21 23 20 24 25 25 22 26 23 27 26 28 27 29 8 30 9 31 10 32
REMARK SMILES IDX 24 33
REMARK H PARENT 24 34
REMARK Flexibility Score: inf
ROOT
ATOM      1  C   UNL     1     173.581 169.896 170.373  1.00  0.00     0.017 C 
ATOM      2  C   UNL     1     172.175 170.478 170.061  1.00  0.00     0.014 C 
ATOM      3  C   UNL     1     174.489 171.055 170.917  1.00  0.00     0.014 C 
ATOM      4  C   UNL     1     173.437 168.687 171.389  1.00  0.00     0.030 C 
ATOM      5  C   UNL     1     171.221 169.426 169.478  1.00  0.00     0.004 C 
ATOM      6  C   UNL     1     174.357 171.389 172.421  1.00  0.00     0.013 C 
ATOM      7  C   UNL     1     173.291 169.223 172.828  1.00  0.00    -0.063 C 
ATOM      8  C   UNL     1     172.350 167.630 170.940  1.00  0.00    -0.003 C 
ATOM      9  C   UNL     1     171.003 168.285 170.475  1.00  0.00    -0.011 C 
ATOM     10  C   UNL     1     174.403 170.144 173.354  1.00  0.00    -0.006 C 
ATOM     11  C   UNL     1     172.094 169.230 173.443  1.00  0.00    -0.027 C 
ATOM     12  C   UNL     1     172.914 166.647 169.886  1.00  0.00     0.008 C 
ATOM     13  C   UNL     1     169.997 167.264 169.917  1.00  0.00     0.008 C 
ATOM     14  C   UNL     1     175.793 169.442 173.155  1.00  0.00     0.017 C 
ATOM     15  C   UNL     1     174.199 170.490 174.937  1.00  0.00    -0.020 C 
ATOM     16  C   UNL     1     171.660 170.410 174.248  1.00  0.00     0.032 C 
ATOM     17  C   UNL     1     172.674 170.732 175.356  1.00  0.00     0.006 C 
ATOM     18  C   UNL     1     175.071 171.719 175.355  1.00  0.00     0.008 C 
ATOM     19  C   UNL     1     174.710 169.279 175.793  1.00  0.00     0.012 C 
ATOM     20  C   UNL     1     172.358 172.066 176.171  1.00  0.00    -0.025 C 
ATOM     21  C   UNL     1     174.889 172.178 176.813  1.00  0.00     0.005 C 
ATOM     22  C   UNL     1     173.418 172.150 177.330  1.00  0.00     0.003 C 
ATOM     23  C   UNL     1     170.933 171.925 176.805  1.00  0.00     0.010 C 
ATOM     24  C   UNL     1     172.388 173.339 175.261  1.00  0.00     0.012 C 
ATOM     25  C   UNL     1     173.109 173.185 178.488  1.00  0.00    -0.006 C 
ATOM     26  C   UNL     1     170.622 172.951 177.900  1.00  0.00     0.033 C 
ATOM     27  C   UNL     1     171.668 172.920 179.020  1.00  0.00     0.120 C 
ATOM     28  C   UNL     1     174.094 172.936 179.661  1.00  0.00     0.014 C 
ATOM     29  C   UNL     1     173.263 174.676 178.071  1.00  0.00     0.014 C 
ENDROOT
BRANCH   1  30
ATOM     30  C   UNL     1     174.253 169.438 169.080  1.00  0.00     0.048 C 
ATOM     31  O   UNL     1     175.328 168.777 169.120  1.00  0.00    -0.550 OA
ATOM     32  O   UNL     1     173.772 169.852 167.841  1.00  0.00    -0.550 OA
ENDBRANCH   1  30
BRANCH  27  33
ATOM     33  O   UNL     1     171.315 173.875 179.995  1.00  0.00    -0.393 OA
ATOM     34  H   UNL     1     172.154 174.185 180.432  1.00  0.00     0.210 HD
ENDBRANCH  27  33
TORSDOF 2
ENDMDL
MODEL 9
REMARK VINA RESULT:    -6.960      4.182      6.161
REMARK INTER + INTRA:          -7.428
REMARK INTER:                  -7.502
REMARK INTRA:                   0.074
REMARK UNBOUND:                 0.142
REMARK SMILES C[C@@H]1[C@H](C)CC[C@@]2(C(=O)[O-])CC[C@]3(C)C(=CC[C@@H]4[C@@]5(C)CC[C@H](O)C(C)(C)[C@@H]5CC[C@@]43C)[C@@H]12
REMARK SMILES IDX 7 1 6 2 11 3 33 4 5 5 12 6 15 7 2 8 3 9 13 10 16 11 1 12
REMARK SMILES IDX 4 13 14 14 31 15 17 16 18 17 30 18 32 19 19 20 29 21 28 22
REMARK SMILES IDX 21 23 20 24 25 25 22 26 23 27 26 28 27 29 8 30 9 31 10 32
REMARK SMILES IDX 24 33
REMARK H PARENT 24 34
REMARK Flexibility Score: inf
ROOT
ATOM      1  C   UNL     1     174.701 172.855 176.309  1.00  0.00     0.017 C 
ATOM      2  C   UNL     1     174.216 171.687 177.213  1.00  0.00     0.014 C 
ATOM      3  C   UNL     1     175.600 172.260 175.169  1.00  0.00     0.014 C 
ATOM      4  C   UNL     1     173.445 173.652 175.761  1.00  0.00     0.030 C 
ATOM      5  C   UNL     1     173.361 172.174 178.390  1.00  0.00     0.004 C 
ATOM      6  C   UNL     1     174.865 171.686 173.935  1.00  0.00     0.013 C 
ATOM      7  C   UNL     1     172.836 172.910 174.552  1.00  0.00    -0.063 C 
ATOM      8  C   UNL     1     172.424 174.055 176.900  1.00  0.00    -0.003 C 
ATOM      9  C   UNL     1     172.099 172.879 177.885  1.00  0.00    -0.011 C 
ATOM     10  C   UNL     1     173.763 172.624 173.361  1.00  0.00    -0.006 C 
ATOM     11  C   UNL     1     171.701 172.199 174.680  1.00  0.00    -0.027 C 
ATOM     12  C   UNL     1     172.879 175.331 177.646  1.00  0.00     0.008 C 
ATOM     13  C   UNL     1     171.211 173.308 179.065  1.00  0.00     0.008 C 
ATOM     14  C   UNL     1     174.453 173.961 172.910  1.00  0.00     0.017 C 
ATOM     15  C   UNL     1     172.942 171.992 172.099  1.00  0.00    -0.020 C 
ATOM     16  C   UNL     1     171.567 170.860 174.036  1.00  0.00     0.032 C 
ATOM     17  C   UNL     1     171.811 170.943 172.521  1.00  0.00     0.006 C 
ATOM     18  C   UNL     1     173.921 171.339 171.069  1.00  0.00     0.008 C 
ATOM     19  C   UNL     1     172.212 173.152 171.334  1.00  0.00     0.012 C 
ATOM     20  C   UNL     1     171.828 169.533 171.777  1.00  0.00    -0.025 C 
ATOM     21  C   UNL     1     173.239 170.641 169.878  1.00  0.00     0.005 C 
ATOM     22  C   UNL     1     171.955 169.833 170.240  1.00  0.00     0.003 C 
ATOM     23  C   UNL     1     170.454 168.826 172.038  1.00  0.00     0.010 C 
ATOM     24  C   UNL     1     172.983 168.607 172.288  1.00  0.00     0.012 C 
ATOM     25  C   UNL     1     171.641 168.628 169.261  1.00  0.00    -0.006 C 
ATOM     26  C   UNL     1     170.168 167.637 171.115  1.00  0.00     0.033 C 
ATOM     27  C   UNL     1     170.249 168.034 169.637  1.00  0.00     0.120 C 
ATOM     28  C   UNL     1     171.542 169.170 167.811  1.00  0.00     0.014 C 
ATOM     29  C   UNL     1     172.721 167.509 169.259  1.00  0.00     0.014 C 
ENDROOT
BRANCH   1  30
ATOM     30  C   UNL     1     175.623 173.778 177.102  1.00  0.00     0.048 C 
ATOM     31  O   UNL     1     176.006 174.874 176.606  1.00  0.00    -0.550 OA
ATOM     32  O   UNL     1     176.163 173.373 178.319  1.00  0.00    -0.550 OA
ENDBRANCH   1  30
BRANCH  27  33
ATOM     33  O   UNL     1     169.964 166.901 168.848  1.00  0.00    -0.393 OA
ATOM     34  H   UNL     1     169.409 166.283 169.395  1.00  0.00     0.210 HD
ENDBRANCH  27  33
TORSDOF 2
ENDMDL
