MODEL 1
REMARK VINA RESULT:    -5.966      0.000      0.000
REMARK INTER + INTRA:          -7.330
REMARK INTER:                  -7.186
REMARK INTRA:                  -0.143
REMARK UNBOUND:                -0.143
REMARK SMILES O=c1c(O)c(-c2ccc(O)c(O)c2)oc2cc(O)cc(O)c12
REMARK SMILES IDX 5 1 3 2 2 3 1 4 22 5 20 6 19 7 17 8 16 9 15 10 14 11 6 12
REMARK SMILES IDX 7 13 8 14 9 15 13 16 11 17 10 18 12 20 4 22 21 24 18 26
REMARK H PARENT 10 19 12 21 4 23 21 25 18 27
REMARK Flexibility Score: inf
ROOT
ATOM      1  C   UNL     1     -11.261  -1.114  -9.726  1.00  0.00     0.180 A 
ATOM      2  C   UNL     1     -12.531  -1.092 -10.328  1.00  0.00     0.208 A 
ATOM      3  C   UNL     1     -13.250   0.114 -10.357  1.00  0.00     0.238 A 
ATOM      4  O   UNL     1     -14.362   0.141 -10.945  1.00  0.00    -0.285 OA
ATOM      5  C   UNL     1     -12.697   1.278  -9.770  1.00  0.00     0.111 A 
ATOM      6  C   UNL     1     -13.355   2.543  -9.706  1.00  0.00     0.134 A 
ATOM      7  C   UNL     1     -12.660   3.657  -9.217  1.00  0.00     0.093 A 
ATOM      8  C   UNL     1     -11.359   3.539  -8.731  1.00  0.00     0.123 A 
ATOM      9  C   UNL     1     -10.729   2.294  -8.734  1.00  0.00     0.094 A 
ATOM     10  C   UNL     1     -11.382   1.171  -9.248  1.00  0.00     0.146 A 
ATOM     11  O   UNL     1     -10.743   0.007  -9.241  1.00  0.00    -0.452 OA
ENDROOT
BRANCH   1  12
ATOM     12  C   UNL     1     -10.455  -2.353  -9.634  1.00  0.00     0.025 A 
ATOM     13  C   UNL     1      -9.995  -3.016 -10.785  1.00  0.00     0.016 A 
ATOM     14  C   UNL     1      -9.256  -4.197 -10.674  1.00  0.00     0.051 A 
ATOM     15  C   UNL     1      -8.977  -4.739  -9.413  1.00  0.00     0.157 A 
ATOM     16  C   UNL     1     -10.190  -2.913  -8.373  1.00  0.00     0.062 A 
ATOM     17  C   UNL     1      -9.450  -4.095  -8.257  1.00  0.00     0.158 A 
BRANCH  15  18
ATOM     18  O   UNL     1      -8.238  -5.916  -9.305  1.00  0.00    -0.504 OA
ATOM     19  H   UNL     1      -8.135  -6.552 -10.087  1.00  0.00     0.293 HD
ENDBRANCH  15  18
BRANCH  17  20
ATOM     20  O   UNL     1      -9.196  -4.614  -6.989  1.00  0.00    -0.504 OA
ATOM     21  H   UNL     1      -9.549  -4.175  -6.146  1.00  0.00     0.293 HD
ENDBRANCH  17  20
ENDBRANCH   1  12
BRANCH   2  22
ATOM     22  O   UNL     1     -13.048  -2.247 -10.921  1.00  0.00    -0.502 OA
ATOM     23  H   UNL     1     -14.037  -2.368 -11.106  1.00  0.00     0.293 HD
ENDBRANCH   2  22
BRANCH   6  24
ATOM     24  O   UNL     1     -14.686   2.752 -10.080  1.00  0.00    -0.507 OA
ATOM     25  H   UNL     1     -15.091   3.653 -10.280  1.00  0.00     0.293 HD
ENDBRANCH   6  24
BRANCH   8  26
ATOM     26  O   UNL     1     -10.705   4.666  -8.238  1.00  0.00    -0.508 OA
ATOM     27  H   UNL     1      -9.701   4.677  -8.099  1.00  0.00     0.293 HD
ENDBRANCH   8  26
TORSDOF 6
ENDMDL
MODEL 2
REMARK VINA RESULT:    -5.327     16.902     19.051
REMARK INTER + INTRA:          -6.561
REMARK INTER:                  -6.234
REMARK INTRA:                  -0.327
REMARK UNBOUND:                -0.143
REMARK SMILES O=c1c(O)c(-c2ccc(O)c(O)c2)oc2cc(O)cc(O)c12
REMARK SMILES IDX 5 1 3 2 2 3 1 4 22 5 20 6 19 7 17 8 16 9 15 10 14 11 6 12
REMARK SMILES IDX 7 13 8 14 9 15 13 16 11 17 10 18 12 20 4 22 21 24 18 26
REMARK H PARENT 10 19 12 21 4 23 21 25 18 27
REMARK Flexibility Score: inf
ROOT
ATOM      1  C   UNL     1      -9.079   9.078   5.921  1.00  0.00     0.180 A 
ATOM      2  C   UNL     1     -10.349   9.655   5.750  1.00  0.00     0.208 A 
ATOM      3  C   UNL     1     -11.479   8.821   5.735  1.00  0.00     0.238 A 
ATOM      4  O   UNL     1     -12.618   9.347   5.636  1.00  0.00    -0.285 OA
ATOM      5  C   UNL     1     -11.323   7.421   5.876  1.00  0.00     0.111 A 
ATOM      6  C   UNL     1     -12.395   6.478   5.835  1.00  0.00     0.134 A 
ATOM      7  C   UNL     1     -12.138   5.130   6.115  1.00  0.00     0.093 A 
ATOM      8  C   UNL     1     -10.843   4.680   6.370  1.00  0.00     0.123 A 
ATOM      9  C   UNL     1      -9.780   5.584   6.353  1.00  0.00     0.094 A 
ATOM     10  C   UNL     1     -10.009   6.941   6.112  1.00  0.00     0.146 A 
ATOM     11  O   UNL     1      -8.971   7.769   6.114  1.00  0.00    -0.452 OA
ENDROOT
BRANCH   1  12
ATOM     12  C   UNL     1      -7.839   9.889   5.921  1.00  0.00     0.025 A 
ATOM     13  C   UNL     1      -7.200  10.251   4.723  1.00  0.00     0.016 A 
ATOM     14  C   UNL     1      -6.018  10.996   4.749  1.00  0.00     0.051 A 
ATOM     15  C   UNL     1      -5.452  11.380   5.971  1.00  0.00     0.157 A 
ATOM     16  C   UNL     1      -7.256  10.258   7.144  1.00  0.00     0.062 A 
ATOM     17  C   UNL     1      -6.073  11.005   7.175  1.00  0.00     0.158 A 
BRANCH  15  18
ATOM     18  O   UNL     1      -4.274  12.125   5.995  1.00  0.00    -0.504 OA
ATOM     19  H   UNL     1      -4.116  12.888   5.346  1.00  0.00     0.293 HD
ENDBRANCH  15  18
BRANCH  17  20
ATOM     20  O   UNL     1      -5.530  11.364   8.407  1.00  0.00    -0.504 OA
ATOM     21  H   UNL     1      -5.637  10.786   9.233  1.00  0.00     0.293 HD
ENDBRANCH  17  20
ENDBRANCH   1  12
BRANCH   2  22
ATOM     22  O   UNL     1     -10.483  11.041   5.635  1.00  0.00    -0.502 OA
ATOM     23  H   UNL     1     -10.636  11.641   6.436  1.00  0.00     0.293 HD
ENDBRANCH   2  22
BRANCH   6  24
ATOM     24  O   UNL     1     -13.711   6.807   5.500  1.00  0.00    -0.507 OA
ATOM     25  H   UNL     1     -14.258   6.339   4.793  1.00  0.00     0.293 HD
ENDBRANCH   6  24
BRANCH   8  26
ATOM     26  O   UNL     1     -10.624   3.329   6.629  1.00  0.00    -0.508 OA
ATOM     27  H   UNL     1      -9.918   2.802   6.127  1.00  0.00     0.293 HD
ENDBRANCH   8  26
TORSDOF 6
ENDMDL
MODEL 3
REMARK VINA RESULT:    -4.491      1.366      6.650
REMARK INTER + INTRA:          -5.553
REMARK INTER:                  -5.980
REMARK INTRA:                   0.426
REMARK UNBOUND:                -0.143
REMARK SMILES O=c1c(O)c(-c2ccc(O)c(O)c2)oc2cc(O)cc(O)c12
REMARK SMILES IDX 5 1 3 2 2 3 1 4 22 5 20 6 19 7 17 8 16 9 15 10 14 11 6 12
REMARK SMILES IDX 7 13 8 14 9 15 13 16 11 17 10 18 12 20 4 22 21 24 18 26
REMARK H PARENT 10 19 12 21 4 23 21 25 18 27
REMARK Flexibility Score: inf
ROOT
ATOM      1  C   UNL     1     -12.048   0.063  -9.538  1.00  0.00     0.180 A 
ATOM      2  C   UNL     1     -12.852  -0.829 -10.268  1.00  0.00     0.208 A 
ATOM      3  C   UNL     1     -12.376  -2.126 -10.518  1.00  0.00     0.238 A 
ATOM      4  O   UNL     1     -13.122  -2.938 -11.125  1.00  0.00    -0.285 OA
ATOM      5  C   UNL     1     -11.096  -2.509 -10.049  1.00  0.00     0.111 A 
ATOM      6  C   UNL     1     -10.497  -3.785 -10.279  1.00  0.00     0.134 A 
ATOM      7  C   UNL     1      -9.282  -4.098  -9.658  1.00  0.00     0.093 A 
ATOM      8  C   UNL     1      -8.613  -3.163  -8.869  1.00  0.00     0.123 A 
ATOM      9  C   UNL     1      -9.161  -1.893  -8.686  1.00  0.00     0.094 A 
ATOM     10  C   UNL     1     -10.389  -1.562  -9.264  1.00  0.00     0.146 A 
ATOM     11  O   UNL     1     -10.880  -0.346  -9.057  1.00  0.00    -0.452 OA
ENDROOT
BRANCH   1  12
ATOM     12  C   UNL     1     -12.470   1.455  -9.257  1.00  0.00     0.025 A 
ATOM     13  C   UNL     1     -13.801   1.868  -9.440  1.00  0.00     0.016 A 
ATOM     14  C   UNL     1     -14.171   3.192  -9.192  1.00  0.00     0.051 A 
ATOM     15  C   UNL     1     -13.216   4.126  -8.770  1.00  0.00     0.157 A 
ATOM     16  C   UNL     1     -11.512   2.400  -8.854  1.00  0.00     0.062 A 
ATOM     17  C   UNL     1     -11.879   3.727  -8.604  1.00  0.00     0.158 A 
BRANCH  15  18
ATOM     18  O   UNL     1     -13.588   5.446  -8.521  1.00  0.00    -0.504 OA
ATOM     19  H   UNL     1     -14.562   5.716  -8.441  1.00  0.00     0.293 HD
ENDBRANCH  15  18
BRANCH  17  20
ATOM     20  O   UNL     1     -10.903   4.633  -8.192  1.00  0.00    -0.504 OA
ATOM     21  H   UNL     1      -9.942   4.572  -8.509  1.00  0.00     0.293 HD
ENDBRANCH  17  20
ENDBRANCH   1  12
BRANCH   2  22
ATOM     22  O   UNL     1     -14.121  -0.438 -10.703  1.00  0.00    -0.502 OA
ATOM     23  H   UNL     1     -14.287  -0.057 -11.626  1.00  0.00     0.293 HD
ENDBRANCH   2  22
BRANCH   6  24
ATOM     24  O   UNL     1     -11.036  -4.759 -11.125  1.00  0.00    -0.507 OA
ATOM     25  H   UNL     1     -10.812  -5.741 -11.084  1.00  0.00     0.293 HD
ENDBRANCH   6  24
BRANCH   8  26
ATOM     26  O   UNL     1      -7.398  -3.505  -8.279  1.00  0.00    -0.508 OA
ATOM     27  H   UNL     1      -6.771  -4.174  -8.710  1.00  0.00     0.293 HD
ENDBRANCH   8  26
TORSDOF 6
ENDMDL
MODEL 4
REMARK VINA RESULT:    -3.842     17.776     19.425
REMARK INTER + INTRA:          -4.771
REMARK INTER:                  -4.448
REMARK INTRA:                  -0.323
REMARK UNBOUND:                -0.143
REMARK SMILES O=c1c(O)c(-c2ccc(O)c(O)c2)oc2cc(O)cc(O)c12
REMARK SMILES IDX 5 1 3 2 2 3 1 4 22 5 20 6 19 7 17 8 16 9 15 10 14 11 6 12
REMARK SMILES IDX 7 13 8 14 9 15 13 16 11 17 10 18 12 20 4 22 21 24 18 26
REMARK H PARENT 10 19 12 21 4 23 21 25 18 27
REMARK Flexibility Score: inf
ROOT
ATOM      1  C   UNL     1      -9.147  10.076   5.861  1.00  0.00     0.180 A 
ATOM      2  C   UNL     1      -9.416   8.699   5.952  1.00  0.00     0.208 A 
ATOM      3  C   UNL     1     -10.735   8.250   5.774  1.00  0.00     0.238 A 
ATOM      4  O   UNL     1     -10.961   7.013   5.801  1.00  0.00    -0.285 OA
ATOM      5  C   UNL     1     -11.770   9.184   5.525  1.00  0.00     0.111 A 
ATOM      6  C   UNL     1     -13.148   8.845   5.369  1.00  0.00     0.134 A 
ATOM      7  C   UNL     1     -14.064   9.836   4.998  1.00  0.00     0.093 A 
ATOM      8  C   UNL     1     -13.667  11.163   4.840  1.00  0.00     0.123 A 
ATOM      9  C   UNL     1     -12.333  11.516   5.048  1.00  0.00     0.094 A 
ATOM     10  C   UNL     1     -11.388  10.544   5.385  1.00  0.00     0.146 A 
ATOM     11  O   UNL     1     -10.127  10.920   5.564  1.00  0.00    -0.452 OA
ENDROOT
BRANCH   1  12
ATOM     12  C   UNL     1      -7.787  10.627   6.063  1.00  0.00     0.025 A 
ATOM     13  C   UNL     1      -6.896  10.788   4.988  1.00  0.00     0.016 A 
ATOM     14  C   UNL     1      -5.609  11.288   5.206  1.00  0.00     0.051 A 
ATOM     15  C   UNL     1      -5.190  11.622   6.501  1.00  0.00     0.157 A 
ATOM     16  C   UNL     1      -7.355  10.943   7.361  1.00  0.00     0.062 A 
ATOM     17  C   UNL     1      -6.068  11.445   7.583  1.00  0.00     0.158 A 
BRANCH  15  18
ATOM     18  O   UNL     1      -3.907  12.122   6.715  1.00  0.00    -0.504 OA
ATOM     19  H   UNL     1      -3.745  12.934   7.299  1.00  0.00     0.293 HD
ENDBRANCH  15  18
BRANCH  17  20
ATOM     20  O   UNL     1      -5.679  11.760   8.885  1.00  0.00    -0.504 OA
ATOM     21  H   UNL     1      -4.928  11.270   9.357  1.00  0.00     0.293 HD
ENDBRANCH  17  20
ENDBRANCH   1  12
BRANCH   2  22
ATOM     22  O   UNL     1      -8.377   7.792   6.176  1.00  0.00    -0.502 OA
ATOM     23  H   UNL     1      -7.435   7.952   5.842  1.00  0.00     0.293 HD
ENDBRANCH   2  22
BRANCH   6  24
ATOM     24  O   UNL     1     -13.667   7.566   5.594  1.00  0.00    -0.507 OA
ATOM     25  H   UNL     1     -14.641   7.319   5.508  1.00  0.00     0.293 HD
ENDBRANCH   6  24
BRANCH   8  26
ATOM     26  O   UNL     1     -14.610  12.125   4.484  1.00  0.00    -0.508 OA
ATOM     27  H   UNL     1     -15.214  12.002   3.680  1.00  0.00     0.293 HD
ENDBRANCH   8  26
TORSDOF 6
ENDMDL
MODEL 5
REMARK VINA RESULT:    -3.762     17.221     19.892
REMARK INTER + INTRA:          -4.676
REMARK INTER:                  -5.006
REMARK INTRA:                   0.331
REMARK UNBOUND:                -0.143
REMARK SMILES O=c1c(O)c(-c2ccc(O)c(O)c2)oc2cc(O)cc(O)c12
REMARK SMILES IDX 5 1 3 2 2 3 1 4 22 5 20 6 19 7 17 8 16 9 15 10 14 11 6 12
REMARK SMILES IDX 7 13 8 14 9 15 13 16 11 17 10 18 12 20 4 22 21 24 18 26
REMARK H PARENT 10 19 12 21 4 23 21 25 18 27
REMARK Flexibility Score: inf
ROOT
ATOM      1  C   UNL     1     -10.129  11.775   5.914  1.00  0.00     0.180 A 
ATOM      2  C   UNL     1     -11.278  11.625   6.710  1.00  0.00     0.208 A 
ATOM      3  C   UNL     1     -12.540  11.655   6.094  1.00  0.00     0.238 A 
ATOM      4  O   UNL     1     -13.563  11.466   6.803  1.00  0.00    -0.285 OA
ATOM      5  C   UNL     1     -12.637  11.850   4.695  1.00  0.00     0.111 A 
ATOM      6  C   UNL     1     -13.866  11.937   3.973  1.00  0.00     0.134 A 
ATOM      7  C   UNL     1     -13.840  12.001   2.574  1.00  0.00     0.093 A 
ATOM      8  C   UNL     1     -12.633  12.046   1.877  1.00  0.00     0.123 A 
ATOM      9  C   UNL     1     -11.427  12.022   2.577  1.00  0.00     0.094 A 
ATOM     10  C   UNL     1     -11.420  11.922   3.970  1.00  0.00     0.146 A 
ATOM     11  O   UNL     1     -10.250  11.892   4.598  1.00  0.00    -0.452 OA
ENDROOT
BRANCH   1  12
ATOM     12  C   UNL     1      -8.766  11.780   6.494  1.00  0.00     0.025 A 
ATOM     13  C   UNL     1      -8.545  12.103   7.844  1.00  0.00     0.016 A 
ATOM     14  C   UNL     1      -7.247  12.125   8.362  1.00  0.00     0.051 A 
ATOM     15  C   UNL     1      -6.152  11.838   7.538  1.00  0.00     0.157 A 
ATOM     16  C   UNL     1      -7.662  11.515   5.667  1.00  0.00     0.062 A 
ATOM     17  C   UNL     1      -6.362  11.535   6.182  1.00  0.00     0.158 A 
BRANCH  15  18
ATOM     18  O   UNL     1      -4.859  11.859   8.058  1.00  0.00    -0.504 OA
ATOM     19  H   UNL     1      -4.450  12.709   8.428  1.00  0.00     0.293 HD
ENDBRANCH  15  18
BRANCH  17  20
ATOM     20  O   UNL     1      -5.292  11.253   5.334  1.00  0.00    -0.504 OA
ATOM     21  H   UNL     1      -5.235  11.629   4.394  1.00  0.00     0.293 HD
ENDBRANCH  17  20
ENDBRANCH   1  12
BRANCH   2  22
ATOM     22  O   UNL     1     -11.159  11.412   8.085  1.00  0.00    -0.502 OA
ATOM     23  H   UNL     1     -10.278  11.505   8.576  1.00  0.00     0.293 HD
ENDBRANCH   2  22
BRANCH   6  24
ATOM     24  O   UNL     1     -15.125  11.992   4.577  1.00  0.00    -0.507 OA
ATOM     25  H   UNL     1     -15.664  11.187   4.855  1.00  0.00     0.293 HD
ENDBRANCH   6  24
BRANCH   8  26
ATOM     26  O   UNL     1     -12.647  12.125   0.486  1.00  0.00    -0.508 OA
ATOM     27  H   UNL     1     -12.161  12.865  -0.007  1.00  0.00     0.293 HD
ENDBRANCH   8  26
TORSDOF 6
ENDMDL
MODEL 6
REMARK VINA RESULT:    -3.580     17.071     18.727
REMARK INTER + INTRA:          -4.456
REMARK INTER:                  -4.241
REMARK INTRA:                  -0.215
REMARK UNBOUND:                -0.143
REMARK SMILES O=c1c(O)c(-c2ccc(O)c(O)c2)oc2cc(O)cc(O)c12
REMARK SMILES IDX 5 1 3 2 2 3 1 4 22 5 20 6 19 7 17 8 16 9 15 10 14 11 6 12
REMARK SMILES IDX 7 13 8 14 9 15 13 16 11 17 10 18 12 20 4 22 21 24 18 26
REMARK H PARENT 10 19 12 21 4 23 21 25 18 27
REMARK Flexibility Score: inf
ROOT
ATOM      1  C   UNL     1      -9.299   8.132   6.037  1.00  0.00     0.180 A 
ATOM      2  C   UNL     1      -9.089   6.829   6.520  1.00  0.00     0.208 A 
ATOM      3  C   UNL     1     -10.179   5.946   6.591  1.00  0.00     0.238 A 
ATOM      4  O   UNL     1      -9.976   4.764   6.973  1.00  0.00    -0.285 OA
ATOM      5  C   UNL     1     -11.466   6.382   6.194  1.00  0.00     0.111 A 
ATOM      6  C   UNL     1     -12.649   5.584   6.262  1.00  0.00     0.134 A 
ATOM      7  C   UNL     1     -13.843   6.075   5.721  1.00  0.00     0.093 A 
ATOM      8  C   UNL     1     -13.915   7.356   5.174  1.00  0.00     0.123 A 
ATOM      9  C   UNL     1     -12.779   8.166   5.157  1.00  0.00     0.094 A 
ATOM     10  C   UNL     1     -11.564   7.692   5.657  1.00  0.00     0.146 A 
ATOM     11  O   UNL     1     -10.504   8.491   5.612  1.00  0.00    -0.452 OA
ENDROOT
BRANCH   1  12
ATOM     12  C   UNL     1      -8.205   9.128   5.957  1.00  0.00     0.025 A 
ATOM     13  C   UNL     1      -7.665   9.526   4.722  1.00  0.00     0.016 A 
ATOM     14  C   UNL     1      -6.617  10.449   4.673  1.00  0.00     0.051 A 
ATOM     15  C   UNL     1      -6.085  10.977   5.856  1.00  0.00     0.157 A 
ATOM     16  C   UNL     1      -7.654   9.645   7.141  1.00  0.00     0.062 A 
ATOM     17  C   UNL     1      -6.605  10.570   7.096  1.00  0.00     0.158 A 
BRANCH  15  18
ATOM     18  O   UNL     1      -5.041  11.899   5.804  1.00  0.00    -0.504 OA
ATOM     19  H   UNL     1      -5.214  12.898   5.810  1.00  0.00     0.293 HD
ENDBRANCH  15  18
BRANCH  17  20
ATOM     20  O   UNL     1      -6.093  11.071   8.291  1.00  0.00    -0.504 OA
ATOM     21  H   UNL     1      -5.198  11.547   8.337  1.00  0.00     0.293 HD
ENDBRANCH  17  20
ENDBRANCH   1  12
BRANCH   2  22
ATOM     22  O   UNL     1      -7.807   6.412   6.885  1.00  0.00    -0.502 OA
ATOM     23  H   UNL     1      -7.370   5.588   6.491  1.00  0.00     0.293 HD
ENDBRANCH   2  22
BRANCH   6  24
ATOM     24  O   UNL     1     -12.709   4.327   6.870  1.00  0.00    -0.507 OA
ATOM     25  H   UNL     1     -11.976   3.635   6.831  1.00  0.00     0.293 HD
ENDBRANCH   6  24
BRANCH   8  26
ATOM     26  O   UNL     1     -15.125   7.816   4.659  1.00  0.00    -0.508 OA
ATOM     27  H   UNL     1     -15.205   8.735   4.239  1.00  0.00     0.293 HD
ENDBRANCH   8  26
TORSDOF 6
ENDMDL
MODEL 7
REMARK VINA RESULT:    -3.302     17.018     18.266
REMARK INTER + INTRA:          -4.121
REMARK INTER:                  -3.802
REMARK INTRA:                  -0.319
REMARK UNBOUND:                -0.143
REMARK SMILES O=c1c(O)c(-c2ccc(O)c(O)c2)oc2cc(O)cc(O)c12
REMARK SMILES IDX 5 1 3 2 2 3 1 4 22 5 20 6 19 7 17 8 16 9 15 10 14 11 6 12
REMARK SMILES IDX 7 13 8 14 9 15 13 16 11 17 10 18 12 20 4 22 21 24 18 26
REMARK H PARENT 10 19 12 21 4 23 21 25 18 27
REMARK Flexibility Score: inf
ROOT
ATOM      1  C   UNL     1     -10.969   7.687   6.532  1.00  0.00     0.180 A 
ATOM      2  C   UNL     1      -9.834   8.320   5.997  1.00  0.00     0.208 A 
ATOM      3  C   UNL     1      -9.982   9.571   5.376  1.00  0.00     0.238 A 
ATOM      4  O   UNL     1      -8.955  10.158   4.947  1.00  0.00    -0.285 OA
ATOM      5  C   UNL     1     -11.264  10.164   5.282  1.00  0.00     0.111 A 
ATOM      6  C   UNL     1     -11.536  11.409   4.638  1.00  0.00     0.134 A 
ATOM      7  C   UNL     1     -12.820  11.961   4.719  1.00  0.00     0.093 A 
ATOM      8  C   UNL     1     -13.856  11.286   5.364  1.00  0.00     0.123 A 
ATOM      9  C   UNL     1     -13.615  10.041   5.945  1.00  0.00     0.094 A 
ATOM     10  C   UNL     1     -12.336   9.480   5.911  1.00  0.00     0.146 A 
ATOM     11  O   UNL     1     -12.147   8.297   6.486  1.00  0.00    -0.452 OA
ENDROOT
BRANCH   1  12
ATOM     12  C   UNL     1     -10.897   6.357   7.179  1.00  0.00     0.025 A 
ATOM     13  C   UNL     1     -10.577   6.220   8.541  1.00  0.00     0.016 A 
ATOM     14  C   UNL     1     -10.491   4.953   9.124  1.00  0.00     0.051 A 
ATOM     15  C   UNL     1     -10.711   3.804   8.353  1.00  0.00     0.157 A 
ATOM     16  C   UNL     1     -11.096   5.201   6.406  1.00  0.00     0.062 A 
ATOM     17  C   UNL     1     -11.011   3.930   6.986  1.00  0.00     0.158 A 
BRANCH  15  18
ATOM     18  O   UNL     1     -10.627   2.542   8.938  1.00  0.00    -0.504 OA
ATOM     19  H   UNL     1      -9.737   2.148   9.223  1.00  0.00     0.293 HD
ENDBRANCH  15  18
BRANCH  17  20
ATOM     20  O   UNL     1     -11.228   2.806   6.191  1.00  0.00    -0.504 OA
ATOM     21  H   UNL     1     -12.157   2.443   6.013  1.00  0.00     0.293 HD
ENDBRANCH  17  20
ENDBRANCH   1  12
BRANCH   2  22
ATOM     22  O   UNL     1      -8.574   7.728   6.120  1.00  0.00    -0.502 OA
ATOM     23  H   UNL     1      -8.420   6.740   5.961  1.00  0.00     0.293 HD
ENDBRANCH   2  22
BRANCH   6  24
ATOM     24  O   UNL     1     -10.596  12.122   3.888  1.00  0.00    -0.507 OA
ATOM     25  H   UNL     1      -9.663  11.799   3.680  1.00  0.00     0.293 HD
ENDBRANCH   6  24
BRANCH   8  26
ATOM     26  O   UNL     1     -15.125  11.860   5.412  1.00  0.00    -0.508 OA
ATOM     27  H   UNL     1     -15.839  11.623   4.733  1.00  0.00     0.293 HD
ENDBRANCH   8  26
TORSDOF 6
ENDMDL
MODEL 8
REMARK VINA RESULT:    -3.261     14.936     17.463
REMARK INTER + INTRA:          -4.072
REMARK INTER:                  -4.138
REMARK INTRA:                   0.066
REMARK UNBOUND:                -0.143
REMARK SMILES O=c1c(O)c(-c2ccc(O)c(O)c2)oc2cc(O)cc(O)c12
REMARK SMILES IDX 5 1 3 2 2 3 1 4 22 5 20 6 19 7 17 8 16 9 15 10 14 11 6 12
REMARK SMILES IDX 7 13 8 14 9 15 13 16 11 17 10 18 12 20 4 22 21 24 18 26
REMARK H PARENT 10 19 12 21 4 23 21 25 18 27
REMARK Flexibility Score: inf
ROOT
ATOM      1  C   UNL     1     -12.610   7.690   5.655  1.00  0.00     0.180 A 
ATOM      2  C   UNL     1     -12.733   8.988   6.182  1.00  0.00     0.208 A 
ATOM      3  C   UNL     1     -13.148  10.029   5.336  1.00  0.00     0.238 A 
ATOM      4  O   UNL     1     -13.309  11.178   5.825  1.00  0.00    -0.285 OA
ATOM      5  C   UNL     1     -13.417   9.764   3.972  1.00  0.00     0.111 A 
ATOM      6  C   UNL     1     -13.805  10.751   3.016  1.00  0.00     0.134 A 
ATOM      7  C   UNL     1     -14.172  10.353   1.724  1.00  0.00     0.093 A 
ATOM      8  C   UNL     1     -14.104   9.016   1.335  1.00  0.00     0.123 A 
ATOM      9  C   UNL     1     -13.670   8.051   2.244  1.00  0.00     0.094 A 
ATOM     10  C   UNL     1     -13.330   8.412   3.551  1.00  0.00     0.146 A 
ATOM     11  O   UNL     1     -12.931   7.461   4.388  1.00  0.00    -0.452 OA
ENDROOT
BRANCH   1  12
ATOM     12  C   UNL     1     -12.153   6.546   6.478  1.00  0.00     0.025 A 
ATOM     13  C   UNL     1     -12.857   5.330   6.497  1.00  0.00     0.016 A 
ATOM     14  C   UNL     1     -12.421   4.273   7.300  1.00  0.00     0.051 A 
ATOM     15  C   UNL     1     -11.283   4.419   8.104  1.00  0.00     0.157 A 
ATOM     16  C   UNL     1     -11.026   6.695   7.302  1.00  0.00     0.062 A 
ATOM     17  C   UNL     1     -10.585   5.638   8.106  1.00  0.00     0.158 A 
BRANCH  15  18
ATOM     18  O   UNL     1     -10.849   3.362   8.902  1.00  0.00    -0.504 OA
ATOM     19  H   UNL     1     -10.689   2.438   8.518  1.00  0.00     0.293 HD
ENDBRANCH  15  18
BRANCH  17  20
ATOM     20  O   UNL     1      -9.454   5.818   8.901  1.00  0.00    -0.504 OA
ATOM     21  H   UNL     1      -9.209   5.173   9.644  1.00  0.00     0.293 HD
ENDBRANCH  17  20
ENDBRANCH   1  12
BRANCH   2  22
ATOM     22  O   UNL     1     -12.483   9.224   7.536  1.00  0.00    -0.502 OA
ATOM     23  H   UNL     1     -12.766   8.577   8.262  1.00  0.00     0.293 HD
ENDBRANCH   2  22
BRANCH   6  24
ATOM     24  O   UNL     1     -13.818  12.125   3.273  1.00  0.00    -0.507 OA
ATOM     25  H   UNL     1     -14.564  12.751   3.011  1.00  0.00     0.293 HD
ENDBRANCH   6  24
BRANCH   8  26
ATOM     26  O   UNL     1     -14.463   8.659   0.037  1.00  0.00    -0.508 OA
ATOM     27  H   UNL     1     -14.178   7.774  -0.366  1.00  0.00     0.293 HD
ENDBRANCH   8  26
TORSDOF 6
ENDMDL
