MODEL 1
REMARK VINA RESULT:    -6.976      0.000      0.000
REMARK INTER + INTRA:          -8.815
REMARK INTER:                  -8.403
REMARK INTRA:                  -0.412
REMARK UNBOUND:                -0.412
REMARK SMILES O=c1c(O)c(-c2ccc(O)cc2O)oc2cc(O)cc(O)c12
REMARK SMILES IDX 5 1 3 2 2 3 1 4 22 5 20 6 19 7 17 8 16 9 15 10 14 11 6 12
REMARK SMILES IDX 8 13 7 14 9 15 11 16 12 17 10 18 13 20 4 22 21 24 18 26
REMARK H PARENT 10 19 13 21 4 23 21 25 18 27
REMARK Flexibility Score: inf
ROOT
ATOM      1  C   UNL     1     -21.311  -2.719 -49.985  1.00  0.00     0.184 A 
ATOM      2  C   UNL     1     -20.845  -1.584 -50.670  1.00  0.00     0.208 A 
ATOM      3  C   UNL     1     -21.676  -0.456 -50.760  1.00  0.00     0.238 A 
ATOM      4  O   UNL     1     -21.264   0.572 -51.362  1.00  0.00    -0.285 OA
ATOM      5  C   UNL     1     -22.962  -0.493 -50.181  1.00  0.00     0.111 A 
ATOM      6  C   UNL     1     -23.863   0.599 -50.229  1.00  0.00     0.134 A 
ATOM      7  C   UNL     1     -25.129   0.481 -49.637  1.00  0.00     0.093 A 
ATOM      8  C   UNL     1     -25.512  -0.702 -49.000  1.00  0.00     0.123 A 
ATOM      9  C   UNL     1     -24.626  -1.783 -48.949  1.00  0.00     0.094 A 
ATOM     10  C   UNL     1     -23.359  -1.686 -49.532  1.00  0.00     0.146 A 
ATOM     11  O   UNL     1     -22.535  -2.726 -49.465  1.00  0.00    -0.451 OA
ENDROOT
BRANCH   1  12
ATOM     12  C   UNL     1     -20.483  -3.936 -49.845  1.00  0.00     0.063 A 
ATOM     13  C   UNL     1     -19.694  -6.032 -50.791  1.00  0.00     0.047 A 
ATOM     14  C   UNL     1     -20.462  -4.868 -50.893  1.00  0.00     0.020 A 
ATOM     15  C   UNL     1     -18.950  -6.283 -49.633  1.00  0.00     0.119 A 
ATOM     16  C   UNL     1     -18.985  -5.370 -48.573  1.00  0.00     0.093 A 
ATOM     17  C   UNL     1     -19.757  -4.204 -48.666  1.00  0.00     0.130 A 
BRANCH  15  18
ATOM     18  O   UNL     1     -18.178  -7.437 -49.521  1.00  0.00    -0.508 OA
ATOM     19  H   UNL     1     -18.367  -8.258 -50.084  1.00  0.00     0.293 HD
ENDBRANCH  15  18
BRANCH  17  20
ATOM     20  O   UNL     1     -19.821  -3.326 -47.583  1.00  0.00    -0.507 OA
ATOM     21  H   UNL     1     -19.474  -2.376 -47.647  1.00  0.00     0.293 HD
ENDBRANCH  17  20
ENDBRANCH   1  12
BRANCH   2  22
ATOM     22  O   UNL     1     -19.584  -1.596 -51.272  1.00  0.00    -0.502 OA
ATOM     23  H   UNL     1     -19.462  -1.568 -52.277  1.00  0.00     0.293 HD
ENDBRANCH   2  22
BRANCH   6  24
ATOM     24  O   UNL     1     -23.510   1.793 -50.858  1.00  0.00    -0.507 OA
ATOM     25  H   UNL     1     -23.668   1.939 -51.849  1.00  0.00     0.293 HD
ENDBRANCH   6  24
BRANCH   8  26
ATOM     26  O   UNL     1     -26.775  -0.792 -48.421  1.00  0.00    -0.508 OA
ATOM     27  H   UNL     1     -27.198  -0.002 -47.946  1.00  0.00     0.293 HD
ENDBRANCH   8  26
TORSDOF 6
ENDMDL
MODEL 2
REMARK VINA RESULT:    -6.969      2.475      6.546
REMARK INTER + INTRA:          -8.807
REMARK INTER:                  -8.392
REMARK INTRA:                  -0.415
REMARK UNBOUND:                -0.412
REMARK SMILES O=c1c(O)c(-c2ccc(O)cc2O)oc2cc(O)cc(O)c12
REMARK SMILES IDX 5 1 3 2 2 3 1 4 22 5 20 6 19 7 17 8 16 9 15 10 14 11 6 12
REMARK SMILES IDX 8 13 7 14 9 15 11 16 12 17 10 18 13 20 4 22 21 24 18 26
REMARK H PARENT 10 19 13 21 4 23 21 25 18 27
REMARK Flexibility Score: inf
ROOT
ATOM      1  C   UNL     1     -22.447  -0.364 -49.691  1.00  0.00     0.184 A 
ATOM      2  C   UNL     1     -23.758  -0.859 -49.799  1.00  0.00     0.208 A 
ATOM      3  C   UNL     1     -23.983  -2.231 -49.604  1.00  0.00     0.238 A 
ATOM      4  O   UNL     1     -25.156  -2.685 -49.687  1.00  0.00    -0.285 OA
ATOM      5  C   UNL     1     -22.893  -3.082 -49.327  1.00  0.00     0.111 A 
ATOM      6  C   UNL     1     -23.033  -4.476 -49.122  1.00  0.00     0.134 A 
ATOM      7  C   UNL     1     -21.897  -5.257 -48.860  1.00  0.00     0.093 A 
ATOM      8  C   UNL     1     -20.629  -4.674 -48.800  1.00  0.00     0.123 A 
ATOM      9  C   UNL     1     -20.485  -3.298 -49.000  1.00  0.00     0.094 A 
ATOM     10  C   UNL     1     -21.604  -2.501 -49.262  1.00  0.00     0.146 A 
ATOM     11  O   UNL     1     -21.440  -1.196 -49.445  1.00  0.00    -0.451 OA
ENDROOT
BRANCH   1  12
ATOM     12  C   UNL     1     -22.143   1.071 -49.873  1.00  0.00     0.063 A 
ATOM     13  C   UNL     1     -21.694   2.924 -51.382  1.00  0.00     0.047 A 
ATOM     14  C   UNL     1     -21.989   1.574 -51.174  1.00  0.00     0.020 A 
ATOM     15  C   UNL     1     -21.538   3.786 -50.290  1.00  0.00     0.119 A 
ATOM     16  C   UNL     1     -21.666   3.287 -48.989  1.00  0.00     0.093 A 
ATOM     17  C   UNL     1     -21.955   1.932 -48.772  1.00  0.00     0.130 A 
BRANCH  15  18
ATOM     18  O   UNL     1     -21.249   5.134 -50.484  1.00  0.00    -0.508 OA
ATOM     19  H   UNL     1     -21.813   5.714 -51.093  1.00  0.00     0.293 HD
ENDBRANCH  15  18
BRANCH  17  20
ATOM     20  O   UNL     1     -22.032   1.439 -47.469  1.00  0.00    -0.507 OA
ATOM     21  H   UNL     1     -21.400   0.722 -47.134  1.00  0.00     0.293 HD
ENDBRANCH  17  20
ENDBRANCH   1  12
BRANCH   2  22
ATOM     22  O   UNL     1     -24.811   0.002 -50.119  1.00  0.00    -0.502 OA
ATOM     23  H   UNL     1     -25.577  -0.277 -50.721  1.00  0.00     0.293 HD
ENDBRANCH   2  22
BRANCH   6  24
ATOM     24  O   UNL     1     -24.285  -5.088 -49.177  1.00  0.00    -0.507 OA
ATOM     25  H   UNL     1     -24.628  -5.523 -50.026  1.00  0.00     0.293 HD
ENDBRANCH   6  24
BRANCH   8  26
ATOM     26  O   UNL     1     -19.518  -5.473 -48.538  1.00  0.00    -0.508 OA
ATOM     27  H   UNL     1     -19.088  -5.499 -47.621  1.00  0.00     0.293 HD
ENDBRANCH   8  26
TORSDOF 6
ENDMDL
MODEL 3
REMARK VINA RESULT:    -6.949      6.970      8.466
REMARK INTER + INTRA:          -8.783
REMARK INTER:                  -8.564
REMARK INTRA:                  -0.220
REMARK UNBOUND:                -0.412
REMARK SMILES O=c1c(O)c(-c2ccc(O)cc2O)oc2cc(O)cc(O)c12
REMARK SMILES IDX 5 1 3 2 2 3 1 4 22 5 20 6 19 7 17 8 16 9 15 10 14 11 6 12
REMARK SMILES IDX 8 13 7 14 9 15 11 16 12 17 10 18 13 20 4 22 21 24 18 26
REMARK H PARENT 10 19 13 21 4 23 21 25 18 27
REMARK Flexibility Score: inf
ROOT
ATOM      1  C   UNL     1     -17.592  -3.814 -43.121  1.00  0.00     0.184 A 
ATOM      2  C   UNL     1     -18.951  -3.522 -42.912  1.00  0.00     0.208 A 
ATOM      3  C   UNL     1     -19.452  -2.282 -43.341  1.00  0.00     0.238 A 
ATOM      4  O   UNL     1     -20.672  -2.014 -43.170  1.00  0.00    -0.285 OA
ATOM      5  C   UNL     1     -18.583  -1.354 -43.951  1.00  0.00     0.111 A 
ATOM      6  C   UNL     1     -19.007  -0.082 -44.407  1.00  0.00     0.134 A 
ATOM      7  C   UNL     1     -18.078   0.789 -44.995  1.00  0.00     0.093 A 
ATOM      8  C   UNL     1     -16.739   0.417 -45.134  1.00  0.00     0.123 A 
ATOM      9  C   UNL     1     -16.315  -0.838 -44.686  1.00  0.00     0.094 A 
ATOM     10  C   UNL     1     -17.224  -1.722 -44.097  1.00  0.00     0.146 A 
ATOM     11  O   UNL     1     -16.796  -2.909 -43.684  1.00  0.00    -0.451 OA
ENDROOT
BRANCH   1  12
ATOM     12  C   UNL     1     -17.003  -5.103 -42.704  1.00  0.00     0.063 A 
ATOM     13  C   UNL     1     -16.624  -6.743 -40.949  1.00  0.00     0.047 A 
ATOM     14  C   UNL     1     -17.173  -5.532 -41.378  1.00  0.00     0.020 A 
ATOM     15  C   UNL     1     -15.886  -7.534 -41.837  1.00  0.00     0.119 A 
ATOM     16  C   UNL     1     -15.691  -7.103 -43.153  1.00  0.00     0.093 A 
ATOM     17  C   UNL     1     -16.234  -5.886 -43.590  1.00  0.00     0.130 A 
BRANCH  15  18
ATOM     18  O   UNL     1     -15.338  -8.745 -41.422  1.00  0.00    -0.508 OA
ATOM     19  H   UNL     1     -15.523  -9.609 -41.918  1.00  0.00     0.293 HD
ENDBRANCH  15  18
BRANCH  17  20
ATOM     20  O   UNL     1     -15.991  -5.446 -44.891  1.00  0.00    -0.507 OA
ATOM     21  H   UNL     1     -15.715  -4.491 -45.086  1.00  0.00     0.293 HD
ENDBRANCH  17  20
ENDBRANCH   1  12
BRANCH   2  22
ATOM     22  O   UNL     1     -19.777  -4.445 -42.265  1.00  0.00    -0.502 OA
ATOM     23  H   UNL     1     -19.964  -5.365 -42.645  1.00  0.00     0.293 HD
ENDBRANCH   2  22
BRANCH   6  24
ATOM     24  O   UNL     1     -20.337   0.319 -44.282  1.00  0.00    -0.507 OA
ATOM     25  H   UNL     1     -20.977  -0.150 -43.651  1.00  0.00     0.293 HD
ENDBRANCH   6  24
BRANCH   8  26
ATOM     26  O   UNL     1     -15.837   1.302 -45.721  1.00  0.00    -0.508 OA
ATOM     27  H   UNL     1     -15.789   2.274 -45.439  1.00  0.00     0.293 HD
ENDBRANCH   8  26
TORSDOF 6
ENDMDL
MODEL 4
REMARK VINA RESULT:    -6.933      5.814      7.462
REMARK INTER + INTRA:          -8.764
REMARK INTER:                  -8.396
REMARK INTRA:                  -0.368
REMARK UNBOUND:                -0.412
REMARK SMILES O=c1c(O)c(-c2ccc(O)cc2O)oc2cc(O)cc(O)c12
REMARK SMILES IDX 5 1 3 2 2 3 1 4 22 5 20 6 19 7 17 8 16 9 15 10 14 11 6 12
REMARK SMILES IDX 8 13 7 14 9 15 11 16 12 17 10 18 13 20 4 22 21 24 18 26
REMARK H PARENT 10 19 13 21 4 23 21 25 18 27
REMARK Flexibility Score: inf
ROOT
ATOM      1  C   UNL     1     -17.171  -3.703 -43.792  1.00  0.00     0.184 A 
ATOM      2  C   UNL     1     -16.251  -2.702 -44.148  1.00  0.00     0.208 A 
ATOM      3  C   UNL     1     -16.729  -1.517 -44.729  1.00  0.00     0.238 A 
ATOM      4  O   UNL     1     -15.914  -0.607 -45.042  1.00  0.00    -0.285 OA
ATOM      5  C   UNL     1     -18.112  -1.364 -44.960  1.00  0.00     0.111 A 
ATOM      6  C   UNL     1     -18.675  -0.204 -45.544  1.00  0.00     0.134 A 
ATOM      7  C   UNL     1     -20.061  -0.132 -45.750  1.00  0.00     0.093 A 
ATOM      8  C   UNL     1     -20.892  -1.193 -45.386  1.00  0.00     0.123 A 
ATOM      9  C   UNL     1     -20.342  -2.342 -44.808  1.00  0.00     0.094 A 
ATOM     10  C   UNL     1     -18.963  -2.434 -44.593  1.00  0.00     0.146 A 
ATOM     11  O   UNL     1     -18.467  -3.533 -44.038  1.00  0.00    -0.451 OA
ENDROOT
BRANCH   1  12
ATOM     12  C   UNL     1     -16.736  -4.970 -43.167  1.00  0.00     0.063 A 
ATOM     13  C   UNL     1     -15.507  -7.059 -43.346  1.00  0.00     0.047 A 
ATOM     14  C   UNL     1     -15.931  -5.850 -43.904  1.00  0.00     0.020 A 
ATOM     15  C   UNL     1     -15.895  -7.408 -42.047  1.00  0.00     0.119 A 
ATOM     16  C   UNL     1     -16.718  -6.547 -41.313  1.00  0.00     0.093 A 
ATOM     17  C   UNL     1     -17.152  -5.335 -41.869  1.00  0.00     0.130 A 
BRANCH  15  18
ATOM     18  O   UNL     1     -15.475  -8.608 -41.478  1.00  0.00    -0.508 OA
ATOM     19  H   UNL     1     -14.706  -9.139 -41.869  1.00  0.00     0.293 HD
ENDBRANCH  15  18
BRANCH  17  20
ATOM     20  O   UNL     1     -18.012  -4.508 -41.145  1.00  0.00    -0.507 OA
ATOM     21  H   UNL     1     -18.120  -4.602 -40.142  1.00  0.00     0.293 HD
ENDBRANCH  17  20
ENDBRANCH   1  12
BRANCH   2  22
ATOM     22  O   UNL     1     -14.883  -2.902 -43.947  1.00  0.00    -0.502 OA
ATOM     23  H   UNL     1     -14.178  -2.403 -44.478  1.00  0.00     0.293 HD
ENDBRANCH   2  22
BRANCH   6  24
ATOM     24  O   UNL     1     -17.871   0.873 -45.920  1.00  0.00    -0.507 OA
ATOM     25  H   UNL     1     -18.086   1.822 -45.635  1.00  0.00     0.293 HD
ENDBRANCH   6  24
BRANCH   8  26
ATOM     26  O   UNL     1     -22.264  -1.097 -45.601  1.00  0.00    -0.508 OA
ATOM     27  H   UNL     1     -22.932  -1.296 -44.865  1.00  0.00     0.293 HD
ENDBRANCH   8  26
TORSDOF 6
ENDMDL
MODEL 5
REMARK VINA RESULT:    -6.825      5.764      7.791
REMARK INTER + INTRA:          -8.634
REMARK INTER:                  -8.226
REMARK INTRA:                  -0.408
REMARK UNBOUND:                -0.412
REMARK SMILES O=c1c(O)c(-c2ccc(O)cc2O)oc2cc(O)cc(O)c12
REMARK SMILES IDX 5 1 3 2 2 3 1 4 22 5 20 6 19 7 17 8 16 9 15 10 14 11 6 12
REMARK SMILES IDX 8 13 7 14 9 15 11 16 12 17 10 18 13 20 4 22 21 24 18 26
REMARK H PARENT 10 19 13 21 4 23 21 25 18 27
REMARK Flexibility Score: inf
ROOT
ATOM      1  C   UNL     1     -17.075  -3.890 -44.278  1.00  0.00     0.184 A 
ATOM      2  C   UNL     1     -17.555  -3.960 -45.597  1.00  0.00     0.208 A 
ATOM      3  C   UNL     1     -17.869  -2.767 -46.268  1.00  0.00     0.238 A 
ATOM      4  O   UNL     1     -18.289  -2.815 -47.455  1.00  0.00    -0.285 OA
ATOM      5  C   UNL     1     -17.717  -1.533 -45.601  1.00  0.00     0.111 A 
ATOM      6  C   UNL     1     -18.015  -0.287 -46.204  1.00  0.00     0.134 A 
ATOM      7  C   UNL     1     -17.846   0.897 -45.471  1.00  0.00     0.093 A 
ATOM      8  C   UNL     1     -17.388   0.860 -44.152  1.00  0.00     0.123 A 
ATOM      9  C   UNL     1     -17.091  -0.368 -43.552  1.00  0.00     0.094 A 
ATOM     10  C   UNL     1     -17.252  -1.560 -44.265  1.00  0.00     0.146 A 
ATOM     11  O   UNL     1     -16.959  -2.712 -43.673  1.00  0.00    -0.451 OA
ENDROOT
BRANCH   1  12
ATOM     12  C   UNL     1     -16.715  -5.106 -43.519  1.00  0.00     0.063 A 
ATOM     13  C   UNL     1     -15.213  -6.993 -43.208  1.00  0.00     0.047 A 
ATOM     14  C   UNL     1     -15.578  -5.835 -43.900  1.00  0.00     0.020 A 
ATOM     15  C   UNL     1     -15.989  -7.443 -42.133  1.00  0.00     0.119 A 
ATOM     16  C   UNL     1     -17.138  -6.736 -41.762  1.00  0.00     0.093 A 
ATOM     17  C   UNL     1     -17.514  -5.577 -42.455  1.00  0.00     0.130 A 
BRANCH  15  18
ATOM     18  O   UNL     1     -15.633  -8.593 -41.433  1.00  0.00    -0.508 OA
ATOM     19  H   UNL     1     -15.516  -9.484 -41.901  1.00  0.00     0.293 HD
ENDBRANCH  15  18
BRANCH  17  20
ATOM     20  O   UNL     1     -18.688  -4.909 -42.105  1.00  0.00    -0.507 OA
ATOM     21  H   UNL     1     -18.669  -4.010 -41.638  1.00  0.00     0.293 HD
ENDBRANCH  17  20
ENDBRANCH   1  12
BRANCH   2  22
ATOM     22  O   UNL     1     -17.737  -5.200 -46.215  1.00  0.00    -0.502 OA
ATOM     23  H   UNL     1     -17.316  -6.050 -45.859  1.00  0.00     0.293 HD
ENDBRANCH   2  22
BRANCH   6  24
ATOM     24  O   UNL     1     -18.475  -0.217 -47.519  1.00  0.00    -0.507 OA
ATOM     25  H   UNL     1     -18.414   0.639 -48.059  1.00  0.00     0.293 HD
ENDBRANCH   6  24
BRANCH   8  26
ATOM     26  O   UNL     1     -17.229   2.050 -43.446  1.00  0.00    -0.508 OA
ATOM     27  H   UNL     1     -17.793   2.262 -42.630  1.00  0.00     0.293 HD
ENDBRANCH   8  26
TORSDOF 6
ENDMDL
MODEL 6
REMARK VINA RESULT:    -6.795      2.863      6.504
REMARK INTER + INTRA:          -8.597
REMARK INTER:                  -8.231
REMARK INTRA:                  -0.367
REMARK UNBOUND:                -0.412
REMARK SMILES O=c1c(O)c(-c2ccc(O)cc2O)oc2cc(O)cc(O)c12
REMARK SMILES IDX 5 1 3 2 2 3 1 4 22 5 20 6 19 7 17 8 16 9 15 10 14 11 6 12
REMARK SMILES IDX 8 13 7 14 9 15 11 16 12 17 10 18 13 20 4 22 21 24 18 26
REMARK H PARENT 10 19 13 21 4 23 21 25 18 27
REMARK Flexibility Score: inf
ROOT
ATOM      1  C   UNL     1     -21.972  -0.645 -49.778  1.00  0.00     0.184 A 
ATOM      2  C   UNL     1     -21.494  -1.334 -50.906  1.00  0.00     0.208 A 
ATOM      3  C   UNL     1     -20.108  -1.430 -51.105  1.00  0.00     0.238 A 
ATOM      4  O   UNL     1     -19.666  -2.055 -52.106  1.00  0.00    -0.285 OA
ATOM      5  C   UNL     1     -19.229  -0.820 -50.185  1.00  0.00     0.111 A 
ATOM      6  C   UNL     1     -17.820  -0.866 -50.314  1.00  0.00     0.134 A 
ATOM      7  C   UNL     1     -17.014  -0.225 -49.362  1.00  0.00     0.093 A 
ATOM      8  C   UNL     1     -17.586   0.460 -48.287  1.00  0.00     0.123 A 
ATOM      9  C   UNL     1     -18.977   0.508 -48.154  1.00  0.00     0.094 A 
ATOM     10  C   UNL     1     -19.799  -0.125 -49.092  1.00  0.00     0.146 A 
ATOM     11  O   UNL     1     -21.117  -0.067 -48.940  1.00  0.00    -0.451 OA
ENDROOT
BRANCH   1  12
ATOM     12  C   UNL     1     -23.419  -0.516 -49.504  1.00  0.00     0.063 A 
ATOM     13  C   UNL     1     -25.541  -1.590 -49.000  1.00  0.00     0.047 A 
ATOM     14  C   UNL     1     -24.170  -1.675 -49.257  1.00  0.00     0.020 A 
ATOM     15  C   UNL     1     -26.180  -0.344 -49.000  1.00  0.00     0.119 A 
ATOM     16  C   UNL     1     -25.443   0.814 -49.270  1.00  0.00     0.093 A 
ATOM     17  C   UNL     1     -24.068   0.736 -49.534  1.00  0.00     0.130 A 
BRANCH  15  18
ATOM     18  O   UNL     1     -27.545  -0.246 -48.741  1.00  0.00    -0.508 OA
ATOM     19  H   UNL     1     -28.069   0.591 -48.970  1.00  0.00     0.293 HD
ENDBRANCH  15  18
BRANCH  17  20
ATOM     20  O   UNL     1     -23.355   1.893 -49.849  1.00  0.00    -0.507 OA
ATOM     21  H   UNL     1     -23.284   2.667 -49.198  1.00  0.00     0.293 HD
ENDBRANCH  17  20
ENDBRANCH   1  12
BRANCH   2  22
ATOM     22  O   UNL     1     -22.391  -1.890 -51.823  1.00  0.00    -0.502 OA
ATOM     23  H   UNL     1     -22.317  -1.728 -52.820  1.00  0.00     0.293 HD
ENDBRANCH   2  22
BRANCH   6  24
ATOM     24  O   UNL     1     -17.218  -1.541 -51.377  1.00  0.00    -0.507 OA
ATOM     25  H   UNL     1     -17.621  -2.385 -51.768  1.00  0.00     0.293 HD
ENDBRANCH   6  24
BRANCH   8  26
ATOM     26  O   UNL     1     -16.763   1.088 -47.356  1.00  0.00    -0.508 OA
ATOM     27  H   UNL     1     -17.073   1.901 -46.837  1.00  0.00     0.293 HD
ENDBRANCH   8  26
TORSDOF 6
ENDMDL
MODEL 7
REMARK VINA RESULT:    -6.790      1.475      3.405
REMARK INTER + INTRA:          -8.592
REMARK INTER:                  -8.171
REMARK INTRA:                  -0.421
REMARK UNBOUND:                -0.412
REMARK SMILES O=c1c(O)c(-c2ccc(O)cc2O)oc2cc(O)cc(O)c12
REMARK SMILES IDX 5 1 3 2 2 3 1 4 22 5 20 6 19 7 17 8 16 9 15 10 14 11 6 12
REMARK SMILES IDX 8 13 7 14 9 15 11 16 12 17 10 18 13 20 4 22 21 24 18 26
REMARK H PARENT 10 19 13 21 4 23 21 25 18 27
REMARK Flexibility Score: inf
ROOT
ATOM      1  C   UNL     1     -21.293  -2.699 -50.157  1.00  0.00     0.184 A 
ATOM      2  C   UNL     1     -22.607  -2.575 -49.674  1.00  0.00     0.208 A 
ATOM      3  C   UNL     1     -23.306  -1.380 -49.909  1.00  0.00     0.238 A 
ATOM      4  O   UNL     1     -24.489  -1.261 -49.491  1.00  0.00    -0.285 OA
ATOM      5  C   UNL     1     -22.672  -0.328 -50.602  1.00  0.00     0.111 A 
ATOM      6  C   UNL     1     -23.304   0.909 -50.876  1.00  0.00     0.134 A 
ATOM      7  C   UNL     1     -22.602   1.911 -51.564  1.00  0.00     0.093 A 
ATOM      8  C   UNL     1     -21.286   1.701 -51.980  1.00  0.00     0.123 A 
ATOM      9  C   UNL     1     -20.657   0.481 -51.713  1.00  0.00     0.094 A 
ATOM     10  C   UNL     1     -21.338  -0.531 -51.030  1.00  0.00     0.146 A 
ATOM     11  O   UNL     1     -20.719  -1.681 -50.793  1.00  0.00    -0.451 OA
ENDROOT
BRANCH   1  12
ATOM     12  C   UNL     1     -20.505  -3.933 -49.955  1.00  0.00     0.063 A 
ATOM     13  C   UNL     1     -19.237  -5.364 -48.453  1.00  0.00     0.047 A 
ATOM     14  C   UNL     1     -19.992  -4.210 -48.679  1.00  0.00     0.020 A 
ATOM     15  C   UNL     1     -18.976  -6.250 -49.506  1.00  0.00     0.119 A 
ATOM     16  C   UNL     1     -19.465  -5.969 -50.786  1.00  0.00     0.093 A 
ATOM     17  C   UNL     1     -20.217  -4.810 -51.022  1.00  0.00     0.130 A 
BRANCH  15  18
ATOM     18  O   UNL     1     -18.230  -7.406 -49.293  1.00  0.00    -0.508 OA
ATOM     19  H   UNL     1     -17.223  -7.415 -49.404  1.00  0.00     0.293 HD
ENDBRANCH  15  18
BRANCH  17  20
ATOM     20  O   UNL     1     -20.657  -4.517 -52.313  1.00  0.00    -0.507 OA
ATOM     21  H   UNL     1     -21.011  -3.601 -52.559  1.00  0.00     0.293 HD
ENDBRANCH  17  20
ENDBRANCH   1  12
BRANCH   2  22
ATOM     22  O   UNL     1     -23.192  -3.618 -48.952  1.00  0.00    -0.502 OA
ATOM     23  H   UNL     1     -22.725  -4.067 -48.172  1.00  0.00     0.293 HD
ENDBRANCH   2  22
BRANCH   6  24
ATOM     24  O   UNL     1     -24.618   1.149 -50.472  1.00  0.00    -0.507 OA
ATOM     25  H   UNL     1     -25.343   1.392 -51.138  1.00  0.00     0.293 HD
ENDBRANCH   6  24
BRANCH   8  26
ATOM     26  O   UNL     1     -20.612   2.712 -52.660  1.00  0.00    -0.508 OA
ATOM     27  H   UNL     1     -19.762   3.125 -52.291  1.00  0.00     0.293 HD
ENDBRANCH   8  26
TORSDOF 6
ENDMDL
MODEL 8
REMARK VINA RESULT:    -6.774      6.687      8.203
REMARK INTER + INTRA:          -8.572
REMARK INTER:                  -8.275
REMARK INTRA:                  -0.297
REMARK UNBOUND:                -0.412
REMARK SMILES O=c1c(O)c(-c2ccc(O)cc2O)oc2cc(O)cc(O)c12
REMARK SMILES IDX 5 1 3 2 2 3 1 4 22 5 20 6 19 7 17 8 16 9 15 10 14 11 6 12
REMARK SMILES IDX 8 13 7 14 9 15 11 16 12 17 10 18 13 20 4 22 21 24 18 26
REMARK H PARENT 10 19 13 21 4 23 21 25 18 27
REMARK Flexibility Score: inf
ROOT
ATOM      1  C   UNL     1     -16.089  -3.698 -44.900  1.00  0.00     0.184 A 
ATOM      2  C   UNL     1     -16.222  -2.390 -44.405  1.00  0.00     0.208 A 
ATOM      3  C   UNL     1     -16.236  -1.319 -45.313  1.00  0.00     0.238 A 
ATOM      4  O   UNL     1     -16.366  -0.142 -44.881  1.00  0.00    -0.285 OA
ATOM      5  C   UNL     1     -16.099  -1.575 -46.693  1.00  0.00     0.111 A 
ATOM      6  C   UNL     1     -16.100  -0.554 -47.673  1.00  0.00     0.134 A 
ATOM      7  C   UNL     1     -15.949  -0.890 -49.027  1.00  0.00     0.093 A 
ATOM      8  C   UNL     1     -15.796  -2.222 -49.419  1.00  0.00     0.123 A 
ATOM      9  C   UNL     1     -15.795  -3.235 -48.455  1.00  0.00     0.094 A 
ATOM     10  C   UNL     1     -15.945  -2.922 -47.100  1.00  0.00     0.146 A 
ATOM     11  O   UNL     1     -15.945  -3.904 -46.206  1.00  0.00    -0.451 OA
ENDROOT
BRANCH   1  12
ATOM     12  C   UNL     1     -16.077  -4.871 -44.000  1.00  0.00     0.063 A 
ATOM     13  C   UNL     1     -14.875  -6.778 -43.090  1.00  0.00     0.047 A 
ATOM     14  C   UNL     1     -14.919  -5.659 -43.926  1.00  0.00     0.020 A 
ATOM     15  C   UNL     1     -15.996  -7.130 -42.328  1.00  0.00     0.119 A 
ATOM     16  C   UNL     1     -17.163  -6.363 -42.414  1.00  0.00     0.093 A 
ATOM     17  C   UNL     1     -17.216  -5.243 -43.255  1.00  0.00     0.130 A 
BRANCH  15  18
ATOM     18  O   UNL     1     -15.963  -8.240 -41.488  1.00  0.00    -0.508 OA
ATOM     19  H   UNL     1     -16.295  -8.191 -40.531  1.00  0.00     0.293 HD
ENDBRANCH  15  18
BRANCH  17  20
ATOM     20  O   UNL     1     -18.401  -4.516 -43.368  1.00  0.00    -0.507 OA
ATOM     21  H   UNL     1     -19.118  -4.769 -44.038  1.00  0.00     0.293 HD
ENDBRANCH  17  20
ENDBRANCH   1  12
BRANCH   2  22
ATOM     22  O   UNL     1     -16.311  -2.165 -43.029  1.00  0.00    -0.502 OA
ATOM     23  H   UNL     1     -17.056  -1.616 -42.615  1.00  0.00     0.293 HD
ENDBRANCH   2  22
BRANCH   6  24
ATOM     24  O   UNL     1     -16.249   0.786 -47.314  1.00  0.00    -0.507 OA
ATOM     25  H   UNL     1     -15.518   1.291 -46.825  1.00  0.00     0.293 HD
ENDBRANCH   6  24
BRANCH   8  26
ATOM     26  O   UNL     1     -15.647  -2.528 -50.769  1.00  0.00    -0.508 OA
ATOM     27  H   UNL     1     -14.845  -3.046 -51.110  1.00  0.00     0.293 HD
ENDBRANCH   8  26
TORSDOF 6
ENDMDL
MODEL 9
REMARK VINA RESULT:    -6.634      2.379      7.243
REMARK INTER + INTRA:          -8.404
REMARK INTER:                  -7.988
REMARK INTRA:                  -0.416
REMARK UNBOUND:                -0.412
REMARK SMILES O=c1c(O)c(-c2ccc(O)cc2O)oc2cc(O)cc(O)c12
REMARK SMILES IDX 5 1 3 2 2 3 1 4 22 5 20 6 19 7 17 8 16 9 15 10 14 11 6 12
REMARK SMILES IDX 8 13 7 14 9 15 11 16 12 17 10 18 13 20 4 22 21 24 18 26
REMARK H PARENT 10 19 13 21 4 23 21 25 18 27
REMARK Flexibility Score: inf
ROOT
ATOM      1  C   UNL     1     -20.495  -1.116 -50.417  1.00  0.00     0.184 A 
ATOM      2  C   UNL     1     -21.404  -2.169 -50.218  1.00  0.00     0.208 A 
ATOM      3  C   UNL     1     -20.908  -3.439 -49.881  1.00  0.00     0.238 A 
ATOM      4  O   UNL     1     -21.714  -4.388 -49.689  1.00  0.00    -0.285 OA
ATOM      5  C   UNL     1     -19.515  -3.634 -49.769  1.00  0.00     0.111 A 
ATOM      6  C   UNL     1     -18.935  -4.882 -49.436  1.00  0.00     0.134 A 
ATOM      7  C   UNL     1     -17.539  -4.998 -49.353  1.00  0.00     0.093 A 
ATOM      8  C   UNL     1     -16.716  -3.896 -49.596  1.00  0.00     0.123 A 
ATOM      9  C   UNL     1     -17.284  -2.661 -49.923  1.00  0.00     0.094 A 
ATOM     10  C   UNL     1     -18.673  -2.523 -50.011  1.00  0.00     0.146 A 
ATOM     11  O   UNL     1     -19.187  -1.338 -50.319  1.00  0.00    -0.451 OA
ENDROOT
BRANCH   1  12
ATOM     12  C   UNL     1     -20.950   0.247 -50.764  1.00  0.00     0.063 A 
ATOM     13  C   UNL     1     -21.916   2.359 -50.046  1.00  0.00     0.047 A 
ATOM     14  C   UNL     1     -21.471   1.068 -49.752  1.00  0.00     0.020 A 
ATOM     15  C   UNL     1     -21.858   2.841 -51.359  1.00  0.00     0.119 A 
ATOM     16  C   UNL     1     -21.362   2.021 -52.378  1.00  0.00     0.093 A 
ATOM     17  C   UNL     1     -20.919   0.721 -52.092  1.00  0.00     0.130 A 
BRANCH  15  18
ATOM     18  O   UNL     1     -22.294   4.128 -51.664  1.00  0.00    -0.508 OA
ATOM     19  H   UNL     1     -22.944   4.301 -52.422  1.00  0.00     0.293 HD
ENDBRANCH  15  18
BRANCH  17  20
ATOM     20  O   UNL     1     -20.472  -0.103 -53.125  1.00  0.00    -0.507 OA
ATOM     21  H   UNL     1     -20.236   0.269 -54.038  1.00  0.00     0.293 HD
ENDBRANCH  17  20
ENDBRANCH   1  12
BRANCH   2  22
ATOM     22  O   UNL     1     -22.775  -1.954 -50.381  1.00  0.00    -0.502 OA
ATOM     23  H   UNL     1     -23.195  -1.791 -51.288  1.00  0.00     0.293 HD
ENDBRANCH   2  22
BRANCH   6  24
ATOM     24  O   UNL     1     -19.729  -6.001 -49.189  1.00  0.00    -0.507 OA
ATOM     25  H   UNL     1     -19.762  -6.440 -48.276  1.00  0.00     0.293 HD
ENDBRANCH   6  24
BRANCH   8  26
ATOM     26  O   UNL     1     -15.333  -4.038 -49.507  1.00  0.00    -0.508 OA
ATOM     27  H   UNL     1     -14.891  -4.950 -49.539  1.00  0.00     0.293 HD
ENDBRANCH   8  26
TORSDOF 6
ENDMDL
