MODEL 1
REMARK VINA RESULT:    13.350      0.000      0.000
REMARK INTER + INTRA:          23.931
REMARK INTER:                  25.057
REMARK INTRA:                  -1.127
REMARK UNBOUND:                -1.127
REMARK SMILES CCCCCCCCC=CCCCCCCCC(=O)[O-]
REMARK SMILES IDX 10 1 9 2 11 3 12 4 13 5 14 6 15 7 16 8 17 9 18 10 19 11
REMARK SMILES IDX 20 12 8 13 7 14 6 15 5 16 4 17 3 18 2 19 1 20
REMARK H PARENT
REMARK Flexibility Score: inf
ROOT
ATOM      1  C   UNL     1       9.034  76.461   4.618  1.00  0.00    -0.031 C 
ATOM      2  C   UNL     1       9.948  77.266   4.045  1.00  0.00    -0.031 C 
ENDROOT
BRANCH   1   3
ATOM      3  C   UNL     1       9.353  75.391   5.632  1.00  0.00     0.027 C 
BRANCH   3   4
ATOM      4  C   UNL     1       9.527  74.028   4.945  1.00  0.00     0.004 C 
BRANCH   4   5
ATOM      5  C   UNL     1       9.204  72.848   5.876  1.00  0.00     0.000 C 
BRANCH   5   6
ATOM      6  C   UNL     1      10.127  71.641   5.640  1.00  0.00     0.000 C 
BRANCH   6   7
ATOM      7  C   UNL     1       9.399  70.293   5.787  1.00  0.00     0.000 C 
BRANCH   7   8
ATOM      8  C   UNL     1       9.113  69.549   4.467  1.00  0.00     0.006 C 
BRANCH   8   9
ATOM      9  C   UNL     1      10.301  69.531   3.487  1.00  0.00     0.053 C 
BRANCH   9  10
ATOM     10  C   UNL     1       9.901  69.090   2.111  1.00  0.00     0.041 C 
ATOM     11  O   UNL     1       9.935  67.871   1.800  1.00  0.00    -0.550 OA
ATOM     12  O   UNL     1       9.527  70.029   1.157  1.00  0.00    -0.550 OA
ENDBRANCH   9  10
ENDBRANCH   8   9
ENDBRANCH   7   8
ENDBRANCH   6   7
ENDBRANCH   5   6
ENDBRANCH   4   5
ENDBRANCH   3   4
ENDBRANCH   1   3
BRANCH   2  13
ATOM     13  C   UNL     1      11.416  77.289   4.397  1.00  0.00     0.027 C 
BRANCH  13  14
ATOM     14  C   UNL     1      12.312  77.230   3.148  1.00  0.00     0.004 C 
BRANCH  14  15
ATOM     15  C   UNL     1      11.616  76.674   1.892  1.00  0.00     0.000 C 
BRANCH  15  16
ATOM     16  C   UNL     1      12.127  75.282   1.493  1.00  0.00     0.000 C 
BRANCH  16  17
ATOM     17  C   UNL     1      12.225  75.151  -0.035  1.00  0.00    -0.000 C 
BRANCH  17  18
ATOM     18  C   UNL     1      11.031  74.400  -0.650  1.00  0.00    -0.000 C 
BRANCH  18  19
ATOM     19  C   UNL     1       9.745  74.422   0.196  1.00  0.00    -0.003 C 
ATOM     20  C   UNL     1       8.529  74.934  -0.577  1.00  0.00     0.004 C 
ENDBRANCH  18  19
ENDBRANCH  17  18
ENDBRANCH  16  17
ENDBRANCH  15  16
ENDBRANCH  14  15
ENDBRANCH  13  14
ENDBRANCH   2  13
TORSDOF 15
ENDMDL
MODEL 2
REMARK VINA RESULT:    13.540      0.822      1.272
REMARK INTER + INTRA:          24.287
REMARK INTER:                  25.405
REMARK INTRA:                  -1.119
REMARK UNBOUND:                -1.127
REMARK SMILES CCCCCCCCC=CCCCCCCCC(=O)[O-]
REMARK SMILES IDX 10 1 9 2 11 3 12 4 13 5 14 6 15 7 16 8 17 9 18 10 19 11
REMARK SMILES IDX 20 12 8 13 7 14 6 15 5 16 4 17 3 18 2 19 1 20
REMARK H PARENT
REMARK Flexibility Score: inf
ROOT
ATOM      1  C   UNL     1      11.126  76.453   5.561  1.00  0.00    -0.031 C 
ATOM      2  C   UNL     1      12.182  76.917   4.868  1.00  0.00    -0.031 C 
ENDROOT
BRANCH   1   3
ATOM      3  C   UNL     1       9.686  76.707   5.197  1.00  0.00     0.027 C 
BRANCH   3   4
ATOM      4  C   UNL     1       8.978  75.392   4.834  1.00  0.00     0.004 C 
BRANCH   4   5
ATOM      5  C   UNL     1       9.433  74.212   5.707  1.00  0.00     0.000 C 
BRANCH   5   6
ATOM      6  C   UNL     1       9.778  72.963   4.878  1.00  0.00     0.000 C 
BRANCH   6   7
ATOM      7  C   UNL     1       9.642  71.657   5.680  1.00  0.00     0.000 C 
BRANCH   7   8
ATOM      8  C   UNL     1       9.116  70.445   4.884  1.00  0.00     0.006 C 
BRANCH   8   9
ATOM      9  C   UNL     1      10.223  69.569   4.269  1.00  0.00     0.053 C 
BRANCH   9  10
ATOM     10  C   UNL     1      10.031  69.355   2.797  1.00  0.00     0.041 C 
ATOM     11  O   UNL     1      10.581  68.382   2.220  1.00  0.00    -0.550 OA
ATOM     12  O   UNL     1       9.277  70.255   2.054  1.00  0.00    -0.550 OA
ENDBRANCH   9  10
ENDBRANCH   8   9
ENDBRANCH   7   8
ENDBRANCH   6   7
ENDBRANCH   5   6
ENDBRANCH   4   5
ENDBRANCH   3   4
ENDBRANCH   1   3
BRANCH   2  13
ATOM     13  C   UNL     1      12.089  77.682   3.569  1.00  0.00     0.027 C 
BRANCH  13  14
ATOM     14  C   UNL     1      11.402  76.865   2.462  1.00  0.00     0.004 C 
BRANCH  14  15
ATOM     15  C   UNL     1      12.298  75.791   1.817  1.00  0.00     0.000 C 
BRANCH  15  16
ATOM     16  C   UNL     1      12.188  75.763   0.285  1.00  0.00     0.000 C 
BRANCH  16  17
ATOM     17  C   UNL     1      12.080  74.320  -0.230  1.00  0.00    -0.000 C 
BRANCH  17  18
ATOM     18  C   UNL     1      10.663  73.959  -0.710  1.00  0.00    -0.000 C 
BRANCH  18  19
ATOM     19  C   UNL     1       9.523  74.474   0.187  1.00  0.00    -0.003 C 
ATOM     20  C   UNL     1       8.371  75.091  -0.605  1.00  0.00     0.004 C 
ENDBRANCH  18  19
ENDBRANCH  17  18
ENDBRANCH  16  17
ENDBRANCH  15  16
ENDBRANCH  14  15
ENDBRANCH  13  14
ENDBRANCH   2  13
TORSDOF 15
ENDMDL
MODEL 3
REMARK VINA RESULT:    13.936      3.872      8.693
REMARK INTER + INTRA:          25.031
REMARK INTER:                  24.065
REMARK INTRA:                   0.966
REMARK UNBOUND:                -1.127
REMARK SMILES CCCCCCCCC=CCCCCCCCC(=O)[O-]
REMARK SMILES IDX 10 1 9 2 11 3 12 4 13 5 14 6 15 7 16 8 17 9 18 10 19 11
REMARK SMILES IDX 20 12 8 13 7 14 6 15 5 16 4 17 3 18 2 19 1 20
REMARK H PARENT
REMARK Flexibility Score: inf
ROOT
ATOM      1  C   UNL     1      11.021  70.897   5.609  1.00  0.00    -0.031 C 
ATOM      2  C   UNL     1      11.129  69.991   4.620  1.00  0.00    -0.031 C 
ENDROOT
BRANCH   1   3
ATOM      3  C   UNL     1       9.758  71.649   5.944  1.00  0.00     0.027 C 
BRANCH   3   4
ATOM      4  C   UNL     1       9.528  72.795   4.946  1.00  0.00     0.004 C 
BRANCH   4   5
ATOM      5  C   UNL     1       9.564  74.179   5.612  1.00  0.00     0.000 C 
BRANCH   5   6
ATOM      6  C   UNL     1       8.794  75.241   4.809  1.00  0.00     0.000 C 
BRANCH   6   7
ATOM      7  C   UNL     1       9.501  76.608   4.791  1.00  0.00     0.000 C 
BRANCH   7   8
ATOM      8  C   UNL     1      10.071  77.039   3.425  1.00  0.00     0.006 C 
BRANCH   8   9
ATOM      9  C   UNL     1      11.609  77.016   3.350  1.00  0.00     0.053 C 
BRANCH   9  10
ATOM     10  C   UNL     1      12.250  77.189   4.694  1.00  0.00     0.041 C 
ATOM     11  O   UNL     1      13.096  78.101   4.881  1.00  0.00    -0.550 OA
ATOM     12  O   UNL     1      11.944  76.315   5.731  1.00  0.00    -0.550 OA
ENDBRANCH   9  10
ENDBRANCH   8   9
ENDBRANCH   7   8
ENDBRANCH   6   7
ENDBRANCH   5   6
ENDBRANCH   4   5
ENDBRANCH   3   4
ENDBRANCH   1   3
BRANCH   2  13
ATOM     13  C   UNL     1       9.984  69.518   3.757  1.00  0.00     0.027 C 
BRANCH  13  14
ATOM     14  C   UNL     1       8.654  69.479   4.528  1.00  0.00     0.004 C 
BRANCH  14  15
ATOM     15  C   UNL     1       8.346  68.127   5.196  1.00  0.00     0.000 C 
BRANCH  15  16
ATOM     16  C   UNL     1       9.357  67.758   6.292  1.00  0.00     0.000 C 
BRANCH  16  17
ATOM     17  C   UNL     1       8.856  66.566   7.122  1.00  0.00    -0.000 C 
BRANCH  17  18
ATOM     18  C   UNL     1       9.858  66.127   8.205  1.00  0.00    -0.000 C 
BRANCH  18  19
ATOM     19  C   UNL     1      10.051  64.605   8.330  1.00  0.00    -0.003 C 
ATOM     20  C   UNL     1       8.826  63.807   7.883  1.00  0.00     0.004 C 
ENDBRANCH  18  19
ENDBRANCH  17  18
ENDBRANCH  16  17
ENDBRANCH  15  16
ENDBRANCH  14  15
ENDBRANCH  13  14
ENDBRANCH   2  13
TORSDOF 15
ENDMDL
MODEL 4
REMARK VINA RESULT:    14.245      2.077      5.771
REMARK INTER + INTRA:          25.609
REMARK INTER:                  26.495
REMARK INTRA:                  -0.886
REMARK UNBOUND:                -1.127
REMARK SMILES CCCCCCCCC=CCCCCCCCC(=O)[O-]
REMARK SMILES IDX 10 1 9 2 11 3 12 4 13 5 14 6 15 7 16 8 17 9 18 10 19 11
REMARK SMILES IDX 20 12 8 13 7 14 6 15 5 16 4 17 3 18 2 19 1 20
REMARK H PARENT
REMARK Flexibility Score: inf
ROOT
ATOM      1  C   UNL     1      10.004  77.001   4.461  1.00  0.00    -0.031 C 
ATOM      2  C   UNL     1       9.086  76.243   5.089  1.00  0.00    -0.031 C 
ENDROOT
BRANCH   1   3
ATOM      3  C   UNL     1      11.495  76.832   4.606  1.00  0.00     0.027 C 
BRANCH   3   4
ATOM      4  C   UNL     1      12.199  77.054   3.259  1.00  0.00     0.004 C 
BRANCH   4   5
ATOM      5  C   UNL     1      11.401  76.492   2.071  1.00  0.00     0.000 C 
BRANCH   5   6
ATOM      6  C   UNL     1      12.267  76.304   0.814  1.00  0.00     0.000 C 
BRANCH   6   7
ATOM      7  C   UNL     1      12.359  74.836   0.365  1.00  0.00     0.000 C 
BRANCH   7   8
ATOM      8  C   UNL     1      11.459  74.452  -0.827  1.00  0.00     0.006 C 
BRANCH   8   9
ATOM      9  C   UNL     1      10.133  73.782  -0.423  1.00  0.00     0.053 C 
BRANCH   9  10
ATOM     10  C   UNL     1       9.091  74.778  -0.009  1.00  0.00     0.041 C 
ATOM     11  O   UNL     1       8.929  75.059   1.207  1.00  0.00    -0.550 OA
ATOM     12  O   UNL     1       8.270  75.366  -0.963  1.00  0.00    -0.550 OA
ENDBRANCH   9  10
ENDBRANCH   8   9
ENDBRANCH   7   8
ENDBRANCH   6   7
ENDBRANCH   5   6
ENDBRANCH   4   5
ENDBRANCH   3   4
ENDBRANCH   1   3
BRANCH   2  13
ATOM     13  C   UNL     1       9.403  75.050   5.959  1.00  0.00     0.027 C 
BRANCH  13  14
ATOM     14  C   UNL     1       9.651  73.778   5.130  1.00  0.00     0.004 C 
BRANCH  14  15
ATOM     15  C   UNL     1       9.289  72.469   5.855  1.00  0.00     0.000 C 
BRANCH  15  16
ATOM     16  C   UNL     1      10.145  71.277   5.399  1.00  0.00     0.000 C 
BRANCH  16  17
ATOM     17  C   UNL     1       9.295  70.255   4.629  1.00  0.00    -0.000 C 
BRANCH  17  18
ATOM     18  C   UNL     1      10.128  69.097   4.050  1.00  0.00    -0.000 C 
BRANCH  18  19
ATOM     19  C   UNL     1      10.137  69.009   2.514  1.00  0.00    -0.003 C 
ATOM     20  C   UNL     1       9.364  70.145   1.845  1.00  0.00     0.004 C 
ENDBRANCH  18  19
ENDBRANCH  17  18
ENDBRANCH  16  17
ENDBRANCH  15  16
ENDBRANCH  14  15
ENDBRANCH  13  14
ENDBRANCH   2  13
TORSDOF 15
ENDMDL
MODEL 5
REMARK VINA RESULT:    14.365      3.255      5.354
REMARK INTER + INTRA:          25.836
REMARK INTER:                  25.999
REMARK INTRA:                  -0.164
REMARK UNBOUND:                -1.127
REMARK SMILES CCCCCCCCC=CCCCCCCCC(=O)[O-]
REMARK SMILES IDX 10 1 9 2 11 3 12 4 13 5 14 6 15 7 16 8 17 9 18 10 19 11
REMARK SMILES IDX 20 12 8 13 7 14 6 15 5 16 4 17 3 18 2 19 1 20
REMARK H PARENT
REMARK Flexibility Score: inf
ROOT
ATOM      1  C   UNL     1       9.620  71.341   5.859  1.00  0.00    -0.031 C 
ATOM      2  C   UNL     1       9.205  72.620   5.919  1.00  0.00    -0.031 C 
ENDROOT
BRANCH   1   3
ATOM      3  C   UNL     1      10.598  70.807   4.843  1.00  0.00     0.027 C 
BRANCH   3   4
ATOM      4  C   UNL     1       9.915  69.789   3.916  1.00  0.00     0.004 C 
BRANCH   4   5
ATOM      5  C   UNL     1       8.700  69.112   4.570  1.00  0.00     0.000 C 
BRANCH   5   6
ATOM      6  C   UNL     1       9.093  67.906   5.439  1.00  0.00     0.000 C 
BRANCH   6   7
ATOM      7  C   UNL     1       7.884  67.055   5.865  1.00  0.00     0.000 C 
BRANCH   7   8
ATOM      8  C   UNL     1       8.094  66.192   7.125  1.00  0.00     0.006 C 
BRANCH   8   9
ATOM      9  C   UNL     1       9.396  66.501   7.889  1.00  0.00     0.053 C 
BRANCH   9  10
ATOM     10  C   UNL     1      10.198  65.267   8.175  1.00  0.00     0.041 C 
ATOM     11  O   UNL     1       9.620  64.172   8.399  1.00  0.00    -0.550 OA
ATOM     12  O   UNL     1      11.584  65.335   8.237  1.00  0.00    -0.550 OA
ENDBRANCH   9  10
ENDBRANCH   8   9
ENDBRANCH   7   8
ENDBRANCH   6   7
ENDBRANCH   5   6
ENDBRANCH   4   5
ENDBRANCH   3   4
ENDBRANCH   1   3
BRANCH   2  13
ATOM     13  C   UNL     1       9.722  73.735   5.042  1.00  0.00     0.027 C 
BRANCH  13  14
ATOM     14  C   UNL     1       9.445  75.123   5.645  1.00  0.00     0.004 C 
BRANCH  14  15
ATOM     15  C   UNL     1       8.640  76.064   4.730  1.00  0.00     0.000 C 
BRANCH  15  16
ATOM     16  C   UNL     1       9.452  77.281   4.262  1.00  0.00     0.000 C 
BRANCH  16  17
ATOM     17  C   UNL     1      10.271  76.945   3.006  1.00  0.00    -0.000 C 
BRANCH  17  18
ATOM     18  C   UNL     1      11.783  76.861   3.281  1.00  0.00    -0.000 C 
BRANCH  18  19
ATOM     19  C   UNL     1      12.229  77.441   4.635  1.00  0.00    -0.003 C 
ATOM     20  C   UNL     1      12.059  76.456   5.793  1.00  0.00     0.004 C 
ENDBRANCH  18  19
ENDBRANCH  17  18
ENDBRANCH  16  17
ENDBRANCH  15  16
ENDBRANCH  14  15
ENDBRANCH  13  14
ENDBRANCH   2  13
TORSDOF 15
ENDMDL
MODEL 6
REMARK VINA RESULT:    14.558      4.222      8.872
REMARK INTER + INTRA:          26.197
REMARK INTER:                  26.742
REMARK INTRA:                  -0.546
REMARK UNBOUND:                -1.127
REMARK SMILES CCCCCCCCC=CCCCCCCCC(=O)[O-]
REMARK SMILES IDX 10 1 9 2 11 3 12 4 13 5 14 6 15 7 16 8 17 9 18 10 19 11
REMARK SMILES IDX 20 12 8 13 7 14 6 15 5 16 4 17 3 18 2 19 1 20
REMARK H PARENT
REMARK Flexibility Score: inf
ROOT
ATOM      1  C   UNL     1       9.564  72.486   5.989  1.00  0.00    -0.031 C 
ATOM      2  C   UNL     1       9.607  71.164   5.741  1.00  0.00    -0.031 C 
ENDROOT
BRANCH   1   3
ATOM      3  C   UNL     1       9.603  73.556   4.927  1.00  0.00     0.027 C 
BRANCH   3   4
ATOM      4  C   UNL     1       9.446  74.949   5.556  1.00  0.00     0.004 C 
BRANCH   4   5
ATOM      5  C   UNL     1       8.648  75.916   4.667  1.00  0.00     0.000 C 
BRANCH   5   6
ATOM      6  C   UNL     1       9.400  77.231   4.402  1.00  0.00     0.000 C 
BRANCH   6   7
ATOM      7  C   UNL     1      10.461  77.102   3.296  1.00  0.00     0.000 C 
BRANCH   7   8
ATOM      8  C   UNL     1      11.880  76.744   3.780  1.00  0.00     0.006 C 
BRANCH   8   9
ATOM      9  C   UNL     1      12.134  77.055   5.267  1.00  0.00     0.053 C 
BRANCH   9  10
ATOM     10  C   UNL     1      12.964  78.289   5.460  1.00  0.00     0.041 C 
ATOM     11  O   UNL     1      12.935  78.909   6.555  1.00  0.00    -0.550 OA
ATOM     12  O   UNL     1      13.739  78.779   4.416  1.00  0.00    -0.550 OA
ENDBRANCH   9  10
ENDBRANCH   8   9
ENDBRANCH   7   8
ENDBRANCH   6   7
ENDBRANCH   5   6
ENDBRANCH   4   5
ENDBRANCH   3   4
ENDBRANCH   1   3
BRANCH   2  13
ATOM     13  C   UNL     1       9.604  70.546   4.364  1.00  0.00     0.027 C 
BRANCH  13  14
ATOM     14  C   UNL     1       9.726  69.013   4.415  1.00  0.00     0.004 C 
BRANCH  14  15
ATOM     15  C   UNL     1       8.790  68.336   5.433  1.00  0.00     0.000 C 
BRANCH  15  16
ATOM     16  C   UNL     1       9.550  67.562   6.521  1.00  0.00     0.000 C 
BRANCH  16  17
ATOM     17  C   UNL     1       8.578  66.780   7.417  1.00  0.00    -0.000 C 
BRANCH  17  18
ATOM     18  C   UNL     1       9.105  65.385   7.799  1.00  0.00    -0.000 C 
BRANCH  18  19
ATOM     19  C   UNL     1      10.366  65.388   8.682  1.00  0.00    -0.003 C 
ATOM     20  C   UNL     1      11.661  65.473   7.874  1.00  0.00     0.004 C 
ENDBRANCH  18  19
ENDBRANCH  17  18
ENDBRANCH  16  17
ENDBRANCH  15  16
ENDBRANCH  14  15
ENDBRANCH  13  14
ENDBRANCH   2  13
TORSDOF 15
ENDMDL
MODEL 7
REMARK VINA RESULT:    14.686      3.149      8.148
REMARK INTER + INTRA:          26.437
REMARK INTER:                  27.233
REMARK INTRA:                  -0.797
REMARK UNBOUND:                -1.127
REMARK SMILES CCCCCCCCC=CCCCCCCCC(=O)[O-]
REMARK SMILES IDX 10 1 9 2 11 3 12 4 13 5 14 6 15 7 16 8 17 9 18 10 19 11
REMARK SMILES IDX 20 12 8 13 7 14 6 15 5 16 4 17 3 18 2 19 1 20
REMARK H PARENT
REMARK Flexibility Score: inf
ROOT
ATOM      1  C   UNL     1       9.496  72.626   5.984  1.00  0.00    -0.031 C 
ATOM      2  C   UNL     1       9.578  71.299   5.777  1.00  0.00    -0.031 C 
ENDROOT
BRANCH   1   3
ATOM      3  C   UNL     1       9.381  73.656   4.888  1.00  0.00     0.027 C 
BRANCH   3   4
ATOM      4  C   UNL     1       9.821  75.038   5.395  1.00  0.00     0.004 C 
BRANCH   4   5
ATOM      5  C   UNL     1       8.979  76.182   4.810  1.00  0.00     0.000 C 
BRANCH   5   6
ATOM      6  C   UNL     1       9.840  77.270   4.147  1.00  0.00     0.000 C 
BRANCH   6   7
ATOM      7  C   UNL     1      11.313  76.853   3.987  1.00  0.00     0.000 C 
BRANCH   7   8
ATOM      8  C   UNL     1      11.730  76.438   2.562  1.00  0.00     0.006 C 
BRANCH   8   9
ATOM      9  C   UNL     1      10.557  75.999   1.666  1.00  0.00     0.053 C 
BRANCH   9  10
ATOM     10  C   UNL     1      11.000  75.132   0.526  1.00  0.00     0.041 C 
ATOM     11  O   UNL     1      10.154  74.499  -0.157  1.00  0.00    -0.550 OA
ATOM     12  O   UNL     1      12.353  74.991   0.242  1.00  0.00    -0.550 OA
ENDBRANCH   9  10
ENDBRANCH   8   9
ENDBRANCH   7   8
ENDBRANCH   6   7
ENDBRANCH   5   6
ENDBRANCH   4   5
ENDBRANCH   3   4
ENDBRANCH   1   3
BRANCH   2  13
ATOM     13  C   UNL     1       9.475  70.630   4.427  1.00  0.00     0.027 C 
BRANCH  13  14
ATOM     14  C   UNL     1       9.788  69.125   4.500  1.00  0.00     0.004 C 
BRANCH  14  15
ATOM     15  C   UNL     1       8.822  68.318   5.386  1.00  0.00     0.000 C 
BRANCH  15  16
ATOM     16  C   UNL     1       9.408  67.997   6.769  1.00  0.00     0.000 C 
BRANCH  16  17
ATOM     17  C   UNL     1       9.129  66.536   7.156  1.00  0.00    -0.000 C 
BRANCH  17  18
ATOM     18  C   UNL     1      10.227  65.934   8.053  1.00  0.00    -0.000 C 
BRANCH  18  19
ATOM     19  C   UNL     1       9.947  64.504   8.548  1.00  0.00    -0.003 C 
ATOM     20  C   UNL     1       8.662  63.911   7.970  1.00  0.00     0.004 C 
ENDBRANCH  18  19
ENDBRANCH  17  18
ENDBRANCH  16  17
ENDBRANCH  15  16
ENDBRANCH  14  15
ENDBRANCH  13  14
ENDBRANCH   2  13
TORSDOF 15
ENDMDL
MODEL 8
REMARK VINA RESULT:    14.823      2.283      3.301
REMARK INTER + INTRA:          26.694
REMARK INTER:                  27.822
REMARK INTRA:                  -1.128
REMARK UNBOUND:                -1.127
REMARK SMILES CCCCCCCCC=CCCCCCCCC(=O)[O-]
REMARK SMILES IDX 10 1 9 2 11 3 12 4 13 5 14 6 15 7 16 8 17 9 18 10 19 11
REMARK SMILES IDX 20 12 8 13 7 14 6 15 5 16 4 17 3 18 2 19 1 20
REMARK H PARENT
REMARK Flexibility Score: inf
ROOT
ATOM      1  C   UNL     1      11.246  76.763   4.640  1.00  0.00    -0.031 C 
ATOM      2  C   UNL     1      11.930  76.632   3.489  1.00  0.00    -0.031 C 
ENDROOT
BRANCH   1   3
ATOM      3  C   UNL     1       9.776  77.084   4.729  1.00  0.00     0.027 C 
BRANCH   3   4
ATOM      4  C   UNL     1       8.937  75.797   4.694  1.00  0.00     0.004 C 
BRANCH   4   5
ATOM      5  C   UNL     1       9.476  74.711   5.639  1.00  0.00     0.000 C 
BRANCH   5   6
ATOM      6  C   UNL     1       9.507  73.321   4.983  1.00  0.00     0.000 C 
BRANCH   6   7
ATOM      7  C   UNL     1       9.634  72.179   6.007  1.00  0.00     0.000 C 
BRANCH   7   8
ATOM      8  C   UNL     1       9.271  70.776   5.480  1.00  0.00     0.006 C 
BRANCH   8   9
ATOM      9  C   UNL     1       9.406  70.624   3.953  1.00  0.00     0.053 C 
BRANCH   9  10
ATOM     10  C   UNL     1      10.409  69.577   3.570  1.00  0.00     0.041 C 
ATOM     11  O   UNL     1      10.181  68.803   2.604  1.00  0.00    -0.550 OA
ATOM     12  O   UNL     1      11.579  69.429   4.305  1.00  0.00    -0.550 OA
ENDBRANCH   9  10
ENDBRANCH   8   9
ENDBRANCH   7   8
ENDBRANCH   6   7
ENDBRANCH   5   6
ENDBRANCH   4   5
ENDBRANCH   3   4
ENDBRANCH   1   3
BRANCH   2  13
ATOM     13  C   UNL     1      11.315  76.691   2.111  1.00  0.00     0.027 C 
BRANCH  13  14
ATOM     14  C   UNL     1      11.926  75.649   1.158  1.00  0.00     0.004 C 
BRANCH  14  15
ATOM     15  C   UNL     1      12.613  76.249  -0.082  1.00  0.00     0.000 C 
BRANCH  15  16
ATOM     16  C   UNL     1      12.988  77.728   0.100  1.00  0.00     0.000 C 
BRANCH  16  17
ATOM     17  C   UNL     1      13.408  78.356  -1.238  1.00  0.00    -0.000 C 
BRANCH  17  18
ATOM     18  C   UNL     1      13.089  79.860  -1.320  1.00  0.00    -0.000 C 
BRANCH  18  19
ATOM     19  C   UNL     1      12.815  80.540   0.034  1.00  0.00    -0.003 C 
ATOM     20  C   UNL     1      11.382  81.056   0.164  1.00  0.00     0.004 C 
ENDBRANCH  18  19
ENDBRANCH  17  18
ENDBRANCH  16  17
ENDBRANCH  15  16
ENDBRANCH  14  15
ENDBRANCH  13  14
ENDBRANCH   2  13
TORSDOF 15
ENDMDL
MODEL 9
REMARK VINA RESULT:    14.853      2.373      3.680
REMARK INTER + INTRA:          26.750
REMARK INTER:                  27.715
REMARK INTRA:                  -0.965
REMARK UNBOUND:                -1.127
REMARK SMILES CCCCCCCCC=CCCCCCCCC(=O)[O-]
REMARK SMILES IDX 10 1 9 2 11 3 12 4 13 5 14 6 15 7 16 8 17 9 18 10 19 11
REMARK SMILES IDX 20 12 8 13 7 14 6 15 5 16 4 17 3 18 2 19 1 20
REMARK H PARENT
REMARK Flexibility Score: inf
ROOT
ATOM      1  C   UNL     1      10.614  76.827   3.453  1.00  0.00    -0.031 C 
ATOM      2  C   UNL     1      11.898  76.882   3.852  1.00  0.00    -0.031 C 
ENDROOT
BRANCH   1   3
ATOM      3  C   UNL     1       9.433  77.171   4.325  1.00  0.00     0.027 C 
BRANCH   3   4
ATOM      4  C   UNL     1       8.706  75.896   4.781  1.00  0.00     0.004 C 
BRANCH   4   5
ATOM      5  C   UNL     1       9.663  74.840   5.355  1.00  0.00     0.000 C 
BRANCH   5   6
ATOM      6  C   UNL     1       9.234  73.404   5.008  1.00  0.00     0.000 C 
BRANCH   6   7
ATOM      7  C   UNL     1      10.096  72.337   5.704  1.00  0.00     0.000 C 
BRANCH   7   8
ATOM      8  C   UNL     1       9.447  70.945   5.834  1.00  0.00     0.006 C 
BRANCH   8   9
ATOM      9  C   UNL     1       9.037  70.315   4.490  1.00  0.00     0.053 C 
BRANCH   9  10
ATOM     10  C   UNL     1      10.197  69.691   3.773  1.00  0.00     0.041 C 
ATOM     11  O   UNL     1      10.117  69.428   2.545  1.00  0.00    -0.550 OA
ATOM     12  O   UNL     1      11.353  69.361   4.470  1.00  0.00    -0.550 OA
ENDBRANCH   9  10
ENDBRANCH   8   9
ENDBRANCH   7   8
ENDBRANCH   6   7
ENDBRANCH   5   6
ENDBRANCH   4   5
ENDBRANCH   3   4
ENDBRANCH   1   3
BRANCH   2  13
ATOM     13  C   UNL     1      12.360  77.383   5.198  1.00  0.00     0.027 C 
BRANCH  13  14
ATOM     14  C   UNL     1      13.252  78.632   5.078  1.00  0.00     0.004 C 
BRANCH  14  15
ATOM     15  C   UNL     1      13.930  78.797   3.706  1.00  0.00     0.000 C 
BRANCH  15  16
ATOM     16  C   UNL     1      13.747  80.203   3.114  1.00  0.00     0.000 C 
BRANCH  16  17
ATOM     17  C   UNL     1      13.771  80.160   1.579  1.00  0.00    -0.000 C 
BRANCH  17  18
ATOM     18  C   UNL     1      12.478  80.701   0.944  1.00  0.00    -0.000 C 
BRANCH  18  19
ATOM     19  C   UNL     1      12.281  80.334  -0.539  1.00  0.00    -0.003 C 
ATOM     20  C   UNL     1      13.430  79.500  -1.106  1.00  0.00     0.004 C 
ENDBRANCH  18  19
ENDBRANCH  17  18
ENDBRANCH  16  17
ENDBRANCH  15  16
ENDBRANCH  14  15
ENDBRANCH  13  14
ENDBRANCH   2  13
TORSDOF 15
ENDMDL
