MODEL 1
REMARK VINA RESULT:    -6.424      0.000      0.000
REMARK INTER + INTRA:         -11.239
REMARK INTER:                  -9.429
REMARK INTRA:                  -1.811
REMARK UNBOUND:                -1.811
REMARK SMILES O=c1c(O[C@H]2O[C@@H](CO)[C@@H](O)[C@H](O)[C@H]2O)c(-c2ccc(O)c(O)c2)oc2cc(O)cc(O)c12
REMARK SMILES IDX 4 1 3 2 16 3 25 4 2 5 26 6 1 7 33 8 27 9 31 10 28 11 30 12
REMARK SMILES IDX 17 13 18 14 19 15 20 16 24 17 22 18 21 19 23 21 32 23 29 25
REMARK SMILES IDX 5 27 14 28 6 29 12 30 7 31 10 32 15 33 13 35 8 37 9 38 11 40
REMARK H PARENT 21 20 23 22 32 24 29 26 15 34 13 36 9 39 11 41
REMARK Flexibility Score: inf
ROOT
ATOM      1  O   UNL     1      29.359  60.913   1.444  1.00  0.00    -0.454 OA
ENDROOT
BRANCH   1   2
ATOM      2  C   UNL     1      30.186  60.780   2.569  1.00  0.00     0.214 A 
ATOM      3  C   UNL     1      30.773  61.896   3.202  1.00  0.00     0.180 A 
ATOM      4  O   UNL     1      31.486  61.732   4.310  1.00  0.00    -0.452 OA
ATOM      5  C   UNL     1      30.424  59.506   3.094  1.00  0.00     0.239 A 
ATOM      6  C   UNL     1      31.714  60.542   4.858  1.00  0.00     0.146 A 
ATOM      7  O   UNL     1      29.928  58.502   2.516  1.00  0.00    -0.285 OA
ATOM      8  C   UNL     1      31.193  59.365   4.267  1.00  0.00     0.111 A 
ATOM      9  C   UNL     1      32.484  60.465   6.023  1.00  0.00     0.094 A 
ATOM     10  C   UNL     1      31.451  58.115   4.879  1.00  0.00     0.134 A 
ATOM     11  C   UNL     1      32.739  59.228   6.620  1.00  0.00     0.123 A 
ATOM     12  C   UNL     1      32.221  58.059   6.051  1.00  0.00     0.093 A 
BRANCH   3  13
ATOM     13  C   UNL     1      30.641  63.257   2.651  1.00  0.00     0.025 A 
ATOM     14  C   UNL     1      31.403  63.650   1.540  1.00  0.00     0.016 A 
ATOM     15  C   UNL     1      31.269  64.936   1.015  1.00  0.00     0.051 A 
ATOM     16  C   UNL     1      30.368  65.842   1.589  1.00  0.00     0.157 A 
ATOM     17  C   UNL     1      29.761  64.172   3.246  1.00  0.00     0.062 A 
ATOM     18  C   UNL     1      29.610  65.459   2.704  1.00  0.00     0.158 A 
BRANCH  16  19
ATOM     19  O   UNL     1      30.216  67.122   1.059  1.00  0.00    -0.504 OA
ATOM     20  H   UNL     1      31.012  67.702   0.828  1.00  0.00     0.293 HD
ENDBRANCH  16  19
BRANCH  18  21
ATOM     21  O   UNL     1      28.699  66.359   3.259  1.00  0.00    -0.504 OA
ATOM     22  H   UNL     1      28.725  67.349   3.039  1.00  0.00     0.293 HD
ENDBRANCH  18  21
ENDBRANCH   3  13
BRANCH  10  23
ATOM     23  O   UNL     1      30.942  56.933   4.339  1.00  0.00    -0.507 OA
ATOM     24  H   UNL     1      31.063  56.698   3.359  1.00  0.00     0.293 HD
ENDBRANCH  10  23
BRANCH  11  25
ATOM     25  O   UNL     1      33.504  59.175   7.785  1.00  0.00    -0.508 OA
ATOM     26  H   UNL     1      33.108  59.398   8.686  1.00  0.00     0.293 HD
ENDBRANCH  11  25
ENDBRANCH   1   2
BRANCH   1  27
ATOM     27  C   UNL     1      27.931  60.916   1.523  1.00  0.00     0.339 C 
ATOM     28  C   UNL     1      27.345  60.227   0.265  1.00  0.00     0.214 C 
ATOM     29  O   UNL     1      27.491  62.253   1.759  1.00  0.00    -0.332 OA
ATOM     30  C   UNL     1      27.524  61.106  -0.993  1.00  0.00     0.180 C 
ATOM     31  C   UNL     1      26.713  62.811   0.712  1.00  0.00     0.179 C 
ATOM     32  C   UNL     1      27.385  62.613  -0.668  1.00  0.00     0.177 C 
BRANCH  28  33
ATOM     33  O   UNL     1      27.980  58.988   0.065  1.00  0.00    -0.384 OA
ATOM     34  H   UNL     1      28.905  59.063   0.425  1.00  0.00     0.211 HD
ENDBRANCH  28  33
BRANCH  30  35
ATOM     35  O   UNL     1      26.567  60.747  -1.956  1.00  0.00    -0.387 OA
ATOM     36  H   UNL     1      27.056  60.304  -2.697  1.00  0.00     0.211 HD
ENDBRANCH  30  35
BRANCH  31  37
ATOM     37  C   UNL     1      26.434  64.295   1.020  1.00  0.00     0.191 C 
BRANCH  37  38
ATOM     38  O   UNL     1      26.316  64.549   2.396  1.00  0.00    -0.394 OA
ATOM     39  H   UNL     1      26.583  65.495   2.542  1.00  0.00     0.210 HD
ENDBRANCH  37  38
ENDBRANCH  31  37
BRANCH  32  40
ATOM     40  O   UNL     1      28.665  63.202  -0.664  1.00  0.00    -0.387 OA
ATOM     41  H   UNL     1      28.680  63.892  -1.376  1.00  0.00     0.211 HD
ENDBRANCH  32  40
ENDBRANCH   1  27
TORSDOF 12
ENDMDL
MODEL 2
REMARK VINA RESULT:    -6.192      2.230      6.265
REMARK INTER + INTRA:         -10.898
REMARK INTER:                  -9.421
REMARK INTRA:                  -1.477
REMARK UNBOUND:                -1.811
REMARK SMILES O=c1c(O[C@H]2O[C@@H](CO)[C@@H](O)[C@H](O)[C@H]2O)c(-c2ccc(O)c(O)c2)oc2cc(O)cc(O)c12
REMARK SMILES IDX 4 1 3 2 16 3 25 4 2 5 26 6 1 7 33 8 27 9 31 10 28 11 30 12
REMARK SMILES IDX 17 13 18 14 19 15 20 16 24 17 22 18 21 19 23 21 32 23 29 25
REMARK SMILES IDX 5 27 14 28 6 29 12 30 7 31 10 32 15 33 13 35 8 37 9 38 11 40
REMARK H PARENT 21 20 23 22 32 24 29 26 15 34 13 36 9 39 11 41
REMARK Flexibility Score: inf
ROOT
ATOM      1  O   UNL     1      29.357  61.616   3.522  1.00  0.00    -0.454 OA
ENDROOT
BRANCH   1   2
ATOM      2  C   UNL     1      30.089  62.607   4.192  1.00  0.00     0.214 A 
ATOM      3  C   UNL     1      31.155  62.292   5.059  1.00  0.00     0.180 A 
ATOM      4  O   UNL     1      31.871  63.265   5.613  1.00  0.00    -0.452 OA
ATOM      5  C   UNL     1      29.767  63.952   3.981  1.00  0.00     0.239 A 
ATOM      6  C   UNL     1      31.616  64.555   5.418  1.00  0.00     0.146 A 
ATOM      7  O   UNL     1      28.795  64.240   3.231  1.00  0.00    -0.285 OA
ATOM      8  C   UNL     1      30.540  64.960   4.590  1.00  0.00     0.111 A 
ATOM      9  C   UNL     1      32.419  65.511   6.048  1.00  0.00     0.094 A 
ATOM     10  C   UNL     1      30.300  66.342   4.401  1.00  0.00     0.134 A 
ATOM     11  C   UNL     1      32.175  66.873   5.862  1.00  0.00     0.123 A 
ATOM     12  C   UNL     1      31.120  67.286   5.038  1.00  0.00     0.093 A 
BRANCH   3  13
ATOM     13  C   UNL     1      31.491  60.898   5.399  1.00  0.00     0.025 A 
ATOM     14  C   UNL     1      31.293  60.418   6.703  1.00  0.00     0.016 A 
ATOM     15  C   UNL     1      31.603  59.095   7.020  1.00  0.00     0.051 A 
ATOM     16  C   UNL     1      32.108  58.234   6.037  1.00  0.00     0.157 A 
ATOM     17  C   UNL     1      32.025  60.047   4.422  1.00  0.00     0.062 A 
ATOM     18  C   UNL     1      32.316  58.709   4.735  1.00  0.00     0.158 A 
BRANCH  16  19
ATOM     19  O   UNL     1      32.404  56.906   6.341  1.00  0.00    -0.504 OA
ATOM     20  H   UNL     1      32.588  56.221   5.620  1.00  0.00     0.293 HD
ENDBRANCH  16  19
BRANCH  18  21
ATOM     21  O   UNL     1      32.800  57.841   3.754  1.00  0.00    -0.504 OA
ATOM     22  H   UNL     1      32.858  56.840   3.909  1.00  0.00     0.293 HD
ENDBRANCH  18  21
ENDBRANCH   3  13
BRANCH  10  23
ATOM     23  O   UNL     1      29.261  66.783   3.580  1.00  0.00    -0.507 OA
ATOM     24  H   UNL     1      28.292  66.559   3.778  1.00  0.00     0.293 HD
ENDBRANCH  10  23
BRANCH  11  25
ATOM     25  O   UNL     1      32.992  67.809   6.495  1.00  0.00    -0.508 OA
ATOM     26  H   UNL     1      33.583  68.435   5.968  1.00  0.00     0.293 HD
ENDBRANCH  11  25
ENDBRANCH   1   2
BRANCH   1  27
ATOM     27  C   UNL     1      29.120  61.641   2.112  1.00  0.00     0.339 C 
ATOM     28  C   UNL     1      27.660  61.207   1.828  1.00  0.00     0.214 C 
ATOM     29  O   UNL     1      30.132  60.871   1.465  1.00  0.00    -0.332 OA
ATOM     30  C   UNL     1      27.462  59.696   2.083  1.00  0.00     0.180 C 
ATOM     31  C   UNL     1      29.656  59.715   0.794  1.00  0.00     0.179 C 
ATOM     32  C   UNL     1      28.717  58.877   1.695  1.00  0.00     0.177 C 
BRANCH  28  33
ATOM     33  O   UNL     1      26.781  61.939   2.646  1.00  0.00    -0.384 OA
ATOM     34  H   UNL     1      26.483  62.735   2.129  1.00  0.00     0.211 HD
ENDBRANCH  28  33
BRANCH  30  35
ATOM     35  O   UNL     1      26.359  59.236   1.346  1.00  0.00    -0.387 OA
ATOM     36  H   UNL     1      25.572  59.759   1.648  1.00  0.00     0.211 HD
ENDBRANCH  30  35
BRANCH  31  37
ATOM     37  C   UNL     1      30.854  58.897   0.275  1.00  0.00     0.191 C 
BRANCH  37  38
ATOM     38  O   UNL     1      31.940  58.903   1.165  1.00  0.00    -0.394 OA
ATOM     39  H   UNL     1      31.661  58.389   1.969  1.00  0.00     0.210 HD
ENDBRANCH  37  38
ENDBRANCH  31  37
BRANCH  32  40
ATOM     40  O   UNL     1      29.398  58.496   2.867  1.00  0.00    -0.387 OA
ATOM     41  H   UNL     1      29.899  59.287   3.194  1.00  0.00     0.211 HD
ENDBRANCH  32  40
ENDBRANCH   1  27
TORSDOF 12
ENDMDL
MODEL 3
REMARK VINA RESULT:    -6.166      2.302      5.093
REMARK INTER + INTRA:         -10.860
REMARK INTER:                  -9.152
REMARK INTRA:                  -1.708
REMARK UNBOUND:                -1.811
REMARK SMILES O=c1c(O[C@H]2O[C@@H](CO)[C@@H](O)[C@H](O)[C@H]2O)c(-c2ccc(O)c(O)c2)oc2cc(O)cc(O)c12
REMARK SMILES IDX 4 1 3 2 16 3 25 4 2 5 26 6 1 7 33 8 27 9 31 10 28 11 30 12
REMARK SMILES IDX 17 13 18 14 19 15 20 16 24 17 22 18 21 19 23 21 32 23 29 25
REMARK SMILES IDX 5 27 14 28 6 29 12 30 7 31 10 32 15 33 13 35 8 37 9 38 11 40
REMARK H PARENT 21 20 23 22 32 24 29 26 15 34 13 36 9 39 11 41
REMARK Flexibility Score: inf
ROOT
ATOM      1  O   UNL     1      31.778  61.860   2.987  1.00  0.00    -0.454 OA
ENDROOT
BRANCH   1   2
ATOM      2  C   UNL     1      31.784  60.747   3.841  1.00  0.00     0.214 A 
ATOM      3  C   UNL     1      31.273  59.495   3.440  1.00  0.00     0.180 A 
ATOM      4  O   UNL     1      31.368  58.449   4.252  1.00  0.00    -0.452 OA
ATOM      5  C   UNL     1      32.329  60.874   5.123  1.00  0.00     0.239 A 
ATOM      6  C   UNL     1      31.903  58.518   5.468  1.00  0.00     0.146 A 
ATOM      7  O   UNL     1      32.759  61.998   5.498  1.00  0.00    -0.285 OA
ATOM      8  C   UNL     1      32.407  59.746   5.964  1.00  0.00     0.111 A 
ATOM      9  C   UNL     1      31.954  57.365   6.257  1.00  0.00     0.094 A 
ATOM     10  C   UNL     1      32.974  59.784   7.260  1.00  0.00     0.134 A 
ATOM     11  C   UNL     1      32.510  57.409   7.537  1.00  0.00     0.123 A 
ATOM     12  C   UNL     1      33.021  58.615   8.034  1.00  0.00     0.093 A 
BRANCH   3  13
ATOM     13  C   UNL     1      30.602  59.312   2.141  1.00  0.00     0.025 A 
ATOM     14  C   UNL     1      31.357  59.190   0.963  1.00  0.00     0.016 A 
ATOM     15  C   UNL     1      30.720  59.007  -0.265  1.00  0.00     0.051 A 
ATOM     16  C   UNL     1      29.322  58.935  -0.330  1.00  0.00     0.157 A 
ATOM     17  C   UNL     1      29.203  59.271   2.073  1.00  0.00     0.062 A 
ATOM     18  C   UNL     1      28.562  59.065   0.841  1.00  0.00     0.158 A 
BRANCH  16  19
ATOM     19  O   UNL     1      28.679  58.735  -1.550  1.00  0.00    -0.504 OA
ATOM     20  H   UNL     1      27.678  58.844  -1.651  1.00  0.00     0.293 HD
ENDBRANCH  16  19
BRANCH  18  21
ATOM     21  O   UNL     1      27.171  58.971   0.772  1.00  0.00    -0.504 OA
ATOM     22  H   UNL     1      26.600  59.743   0.442  1.00  0.00     0.293 HD
ENDBRANCH  18  21
ENDBRANCH   3  13
BRANCH  10  23
ATOM     23  O   UNL     1      33.496  60.969   7.780  1.00  0.00    -0.507 OA
ATOM     24  H   UNL     1      33.092  61.420   8.593  1.00  0.00     0.293 HD
ENDBRANCH  10  23
BRANCH  11  25
ATOM     25  O   UNL     1      32.557  56.245   8.305  1.00  0.00    -0.508 OA
ATOM     26  H   UNL     1      32.984  56.234   9.219  1.00  0.00     0.293 HD
ENDBRANCH  11  25
ENDBRANCH   1   2
BRANCH   1  27
ATOM     27  C   UNL     1      30.645  62.720   2.835  1.00  0.00     0.339 C 
ATOM     28  C   UNL     1      30.820  63.581   1.558  1.00  0.00     0.214 C 
ATOM     29  O   UNL     1      30.455  63.444   4.049  1.00  0.00    -0.332 OA
ATOM     30  C   UNL     1      31.917  64.652   1.749  1.00  0.00     0.180 C 
ATOM     31  C   UNL     1      30.626  64.847   3.932  1.00  0.00     0.179 C 
ATOM     32  C   UNL     1      31.939  65.204   3.195  1.00  0.00     0.177 C 
BRANCH  28  33
ATOM     33  O   UNL     1      31.157  62.754   0.472  1.00  0.00    -0.384 OA
ATOM     34  H   UNL     1      31.872  62.133   0.778  1.00  0.00     0.211 HD
ENDBRANCH  28  33
BRANCH  30  35
ATOM     35  O   UNL     1      31.702  65.709   0.850  1.00  0.00    -0.387 OA
ATOM     36  H   UNL     1      30.871  65.499   0.351  1.00  0.00     0.211 HD
ENDBRANCH  30  35
BRANCH  31  37
ATOM     37  C   UNL     1      30.547  65.488   5.332  1.00  0.00     0.191 C 
BRANCH  37  38
ATOM     38  O   UNL     1      31.066  64.658   6.338  1.00  0.00    -0.394 OA
ATOM     39  H   UNL     1      30.576  64.873   7.175  1.00  0.00     0.210 HD
ENDBRANCH  37  38
ENDBRANCH  31  37
BRANCH  32  40
ATOM     40  O   UNL     1      33.037  64.649   3.882  1.00  0.00    -0.387 OA
ATOM     41  H   UNL     1      32.866  64.751   4.854  1.00  0.00     0.211 HD
ENDBRANCH  32  40
ENDBRANCH   1  27
TORSDOF 12
ENDMDL
MODEL 4
REMARK VINA RESULT:    -6.147      1.745      4.756
REMARK INTER + INTRA:         -10.833
REMARK INTER:                  -9.125
REMARK INTRA:                  -1.708
REMARK UNBOUND:                -1.811
REMARK SMILES O=c1c(O[C@H]2O[C@@H](CO)[C@@H](O)[C@H](O)[C@H]2O)c(-c2ccc(O)c(O)c2)oc2cc(O)cc(O)c12
REMARK SMILES IDX 4 1 3 2 16 3 25 4 2 5 26 6 1 7 33 8 27 9 31 10 28 11 30 12
REMARK SMILES IDX 17 13 18 14 19 15 20 16 24 17 22 18 21 19 23 21 32 23 29 25
REMARK SMILES IDX 5 27 14 28 6 29 12 30 7 31 10 32 15 33 13 35 8 37 9 38 11 40
REMARK H PARENT 21 20 23 22 32 24 29 26 15 34 13 36 9 39 11 41
REMARK Flexibility Score: inf
ROOT
ATOM      1  O   UNL     1      29.784  62.089   3.745  1.00  0.00    -0.454 OA
ENDROOT
BRANCH   1   2
ATOM      2  C   UNL     1      30.241  60.915   4.361  1.00  0.00     0.214 A 
ATOM      3  C   UNL     1      30.343  59.694   3.661  1.00  0.00     0.180 A 
ATOM      4  O   UNL     1      30.854  58.625   4.261  1.00  0.00    -0.452 OA
ATOM      5  C   UNL     1      30.627  60.955   5.705  1.00  0.00     0.239 A 
ATOM      6  C   UNL     1      31.257  58.626   5.528  1.00  0.00     0.146 A 
ATOM      7  O   UNL     1      30.509  62.034   6.345  1.00  0.00    -0.285 OA
ATOM      8  C   UNL     1      31.157  59.800   6.315  1.00  0.00     0.111 A 
ATOM      9  C   UNL     1      31.776  57.451   6.079  1.00  0.00     0.094 A 
ATOM     10  C   UNL     1      31.600  59.768   7.658  1.00  0.00     0.134 A 
ATOM     11  C   UNL     1      32.208  57.423   7.407  1.00  0.00     0.123 A 
ATOM     12  C   UNL     1      32.122  58.580   8.192  1.00  0.00     0.093 A 
BRANCH   3  13
ATOM     13  C   UNL     1      29.870  59.556   2.272  1.00  0.00     0.025 A 
ATOM     14  C   UNL     1      30.781  59.310   1.233  1.00  0.00     0.016 A 
ATOM     15  C   UNL     1      30.330  59.170  -0.080  1.00  0.00     0.051 A 
ATOM     16  C   UNL     1      28.962  59.267  -0.369  1.00  0.00     0.157 A 
ATOM     17  C   UNL     1      28.505  59.684   1.980  1.00  0.00     0.062 A 
ATOM     18  C   UNL     1      28.048  59.521   0.662  1.00  0.00     0.158 A 
BRANCH  16  19
ATOM     19  O   UNL     1      28.502  59.110  -1.676  1.00  0.00    -0.504 OA
ATOM     20  H   UNL     1      28.980  58.520  -2.343  1.00  0.00     0.293 HD
ENDBRANCH  16  19
BRANCH  18  21
ATOM     21  O   UNL     1      26.685  59.595   0.371  1.00  0.00    -0.504 OA
ATOM     22  H   UNL     1      25.987  59.163   0.968  1.00  0.00     0.293 HD
ENDBRANCH  18  21
ENDBRANCH   3  13
BRANCH  10  23
ATOM     23  O   UNL     1      31.534  60.906   8.463  1.00  0.00    -0.507 OA
ATOM     24  H   UNL     1      32.171  61.051   9.239  1.00  0.00     0.293 HD
ENDBRANCH  10  23
BRANCH  11  25
ATOM     25  O   UNL     1      32.727  56.241   7.934  1.00  0.00    -0.508 OA
ATOM     26  H   UNL     1      33.589  56.233   8.459  1.00  0.00     0.293 HD
ENDBRANCH  11  25
ENDBRANCH   1   2
BRANCH   1  27
ATOM     27  C   UNL     1      30.664  63.073   3.194  1.00  0.00     0.339 C 
ATOM     28  C   UNL     1      30.272  64.472   3.733  1.00  0.00     0.214 C 
ATOM     29  O   UNL     1      30.670  62.936   1.774  1.00  0.00    -0.332 OA
ATOM     30  C   UNL     1      28.942  64.960   3.118  1.00  0.00     0.180 C 
ATOM     31  C   UNL     1      30.150  64.053   1.072  1.00  0.00     0.179 C 
ATOM     32  C   UNL     1      28.787  64.507   1.646  1.00  0.00     0.177 C 
BRANCH  28  33
ATOM     33  O   UNL     1      30.151  64.423   5.133  1.00  0.00    -0.384 OA
ATOM     34  H   UNL     1      30.731  63.682   5.459  1.00  0.00     0.211 HD
ENDBRANCH  28  33
BRANCH  30  35
ATOM     35  O   UNL     1      28.880  66.361   3.183  1.00  0.00    -0.387 OA
ATOM     36  H   UNL     1      29.458  66.640   3.940  1.00  0.00     0.211 HD
ENDBRANCH  30  35
BRANCH  31  37
ATOM     37  C   UNL     1      30.070  63.718  -0.431  1.00  0.00     0.191 C 
BRANCH  37  38
ATOM     38  O   UNL     1      29.189  62.660  -0.703  1.00  0.00    -0.394 OA
ATOM     39  H   UNL     1      29.033  62.655  -1.685  1.00  0.00     0.210 HD
ENDBRANCH  37  38
ENDBRANCH  31  37
BRANCH  32  40
ATOM     40  O   UNL     1      27.867  63.442   1.587  1.00  0.00    -0.387 OA
ATOM     41  H   UNL     1      27.729  63.113   2.513  1.00  0.00     0.211 HD
ENDBRANCH  32  40
ENDBRANCH   1  27
TORSDOF 12
ENDMDL
MODEL 5
REMARK VINA RESULT:    -6.144      2.585      5.519
REMARK INTER + INTRA:         -10.828
REMARK INTER:                  -9.047
REMARK INTRA:                  -1.781
REMARK UNBOUND:                -1.811
REMARK SMILES O=c1c(O[C@H]2O[C@@H](CO)[C@@H](O)[C@H](O)[C@H]2O)c(-c2ccc(O)c(O)c2)oc2cc(O)cc(O)c12
REMARK SMILES IDX 4 1 3 2 16 3 25 4 2 5 26 6 1 7 33 8 27 9 31 10 28 11 30 12
REMARK SMILES IDX 17 13 18 14 19 15 20 16 24 17 22 18 21 19 23 21 32 23 29 25
REMARK SMILES IDX 5 27 14 28 6 29 12 30 7 31 10 32 15 33 13 35 8 37 9 38 11 40
REMARK H PARENT 21 20 23 22 32 24 29 26 15 34 13 36 9 39 11 41
REMARK Flexibility Score: inf
ROOT
ATOM      1  O   UNL     1      31.649  60.986   1.003  1.00  0.00    -0.454 OA
ENDROOT
BRANCH   1   2
ATOM      2  C   UNL     1      30.929  60.165   1.883  1.00  0.00     0.214 A 
ATOM      3  C   UNL     1      29.861  59.355   1.445  1.00  0.00     0.180 A 
ATOM      4  O   UNL     1      29.256  58.535   2.297  1.00  0.00    -0.452 OA
ATOM      5  C   UNL     1      31.292  60.130   3.233  1.00  0.00     0.239 A 
ATOM      6  C   UNL     1      29.586  58.451   3.582  1.00  0.00     0.146 A 
ATOM      7  O   UNL     1      32.225  60.874   3.638  1.00  0.00    -0.285 OA
ATOM      8  C   UNL     1      30.624  59.255   4.114  1.00  0.00     0.111 A 
ATOM      9  C   UNL     1      28.890  57.563   4.408  1.00  0.00     0.094 A 
ATOM     10  C   UNL     1      30.953  59.136   5.485  1.00  0.00     0.134 A 
ATOM     11  C   UNL     1      29.215  57.453   5.761  1.00  0.00     0.123 A 
ATOM     12  C   UNL     1      30.245  58.236   6.296  1.00  0.00     0.093 A 
BRANCH   3  13
ATOM     13  C   UNL     1      29.366  59.409   0.058  1.00  0.00     0.025 A 
ATOM     14  C   UNL     1      28.314  60.272  -0.288  1.00  0.00     0.016 A 
ATOM     15  C   UNL     1      27.854  60.328  -1.604  1.00  0.00     0.051 A 
ATOM     16  C   UNL     1      28.444  59.528  -2.592  1.00  0.00     0.157 A 
ATOM     17  C   UNL     1      29.937  58.586  -0.923  1.00  0.00     0.062 A 
ATOM     18  C   UNL     1      29.489  58.658  -2.252  1.00  0.00     0.158 A 
BRANCH  16  19
ATOM     19  O   UNL     1      28.001  59.592  -3.912  1.00  0.00    -0.504 OA
ATOM     20  H   UNL     1      27.254  59.001  -4.254  1.00  0.00     0.293 HD
ENDBRANCH  16  19
BRANCH  18  21
ATOM     21  O   UNL     1      30.086  57.880  -3.245  1.00  0.00    -0.504 OA
ATOM     22  H   UNL     1      30.530  58.298  -4.055  1.00  0.00     0.293 HD
ENDBRANCH  18  21
ENDBRANCH   3  13
BRANCH  10  23
ATOM     23  O   UNL     1      31.980  59.898   6.045  1.00  0.00    -0.507 OA
ATOM     24  H   UNL     1      31.861  60.391   6.924  1.00  0.00     0.293 HD
ENDBRANCH  10  23
BRANCH  11  25
ATOM     25  O   UNL     1      28.511  56.557   6.565  1.00  0.00    -0.508 OA
ATOM     26  H   UNL     1      27.806  55.946   6.180  1.00  0.00     0.293 HD
ENDBRANCH  11  25
ENDBRANCH   1   2
BRANCH   1  27
ATOM     27  C   UNL     1      31.217  62.298   0.631  1.00  0.00     0.339 C 
ATOM     28  C   UNL     1      32.056  62.794  -0.573  1.00  0.00     0.214 C 
ATOM     29  O   UNL     1      31.241  63.131   1.789  1.00  0.00    -0.332 OA
ATOM     30  C   UNL     1      33.505  63.124  -0.151  1.00  0.00     0.180 C 
ATOM     31  C   UNL     1      32.168  64.203   1.725  1.00  0.00     0.179 C 
ATOM     32  C   UNL     1      33.568  63.723   1.275  1.00  0.00     0.177 C 
BRANCH  28  33
ATOM     33  O   UNL     1      32.072  61.809  -1.576  1.00  0.00    -0.384 OA
ATOM     34  H   UNL     1      31.542  61.035  -1.245  1.00  0.00     0.211 HD
ENDBRANCH  28  33
BRANCH  30  35
ATOM     35  O   UNL     1      34.064  64.033  -1.064  1.00  0.00    -0.387 OA
ATOM     36  H   UNL     1      34.587  63.500  -1.717  1.00  0.00     0.211 HD
ENDBRANCH  30  35
BRANCH  31  37
ATOM     37  C   UNL     1      32.206  64.927   3.085  1.00  0.00     0.191 C 
BRANCH  37  38
ATOM     38  O   UNL     1      32.183  64.038   4.172  1.00  0.00    -0.394 OA
ATOM     39  H   UNL     1      32.283  63.121   3.801  1.00  0.00     0.210 HD
ENDBRANCH  37  38
ENDBRANCH  31  37
BRANCH  32  40
ATOM     40  O   UNL     1      34.044  62.741   2.165  1.00  0.00    -0.387 OA
ATOM     41  H   UNL     1      34.009  63.123   3.080  1.00  0.00     0.211 HD
ENDBRANCH  32  40
ENDBRANCH   1  27
TORSDOF 12
ENDMDL
MODEL 6
REMARK VINA RESULT:    -6.137      4.003      9.356
REMARK INTER + INTRA:         -10.817
REMARK INTER:                  -9.157
REMARK INTRA:                  -1.659
REMARK UNBOUND:                -1.811
REMARK SMILES O=c1c(O[C@H]2O[C@@H](CO)[C@@H](O)[C@H](O)[C@H]2O)c(-c2ccc(O)c(O)c2)oc2cc(O)cc(O)c12
REMARK SMILES IDX 4 1 3 2 16 3 25 4 2 5 26 6 1 7 33 8 27 9 31 10 28 11 30 12
REMARK SMILES IDX 17 13 18 14 19 15 20 16 24 17 22 18 21 19 23 21 32 23 29 25
REMARK SMILES IDX 5 27 14 28 6 29 12 30 7 31 10 32 15 33 13 35 8 37 9 38 11 40
REMARK H PARENT 21 20 23 22 32 24 29 26 15 34 13 36 9 39 11 41
REMARK Flexibility Score: inf
ROOT
ATOM      1  O   UNL     1      30.946  57.621   7.154  1.00  0.00    -0.454 OA
ENDROOT
BRANCH   1   2
ATOM      2  C   UNL     1      30.087  57.881   6.077  1.00  0.00     0.214 A 
ATOM      3  C   UNL     1      28.683  57.844   6.212  1.00  0.00     0.180 A 
ATOM      4  O   UNL     1      27.908  58.171   5.186  1.00  0.00    -0.452 OA
ATOM      5  C   UNL     1      30.635  58.207   4.831  1.00  0.00     0.239 A 
ATOM      6  C   UNL     1      28.386  58.513   3.993  1.00  0.00     0.146 A 
ATOM      7  O   UNL     1      31.887  58.213   4.695  1.00  0.00    -0.285 OA
ATOM      8  C   UNL     1      29.783  58.542   3.759  1.00  0.00     0.111 A 
ATOM      9  C   UNL     1      27.493  58.837   2.967  1.00  0.00     0.094 A 
ATOM     10  C   UNL     1      30.259  58.915   2.479  1.00  0.00     0.134 A 
ATOM     11  C   UNL     1      27.968  59.200   1.705  1.00  0.00     0.123 A 
ATOM     12  C   UNL     1      29.347  59.241   1.464  1.00  0.00     0.093 A 
BRANCH   3  13
ATOM     13  C   UNL     1      28.038  57.419   7.468  1.00  0.00     0.025 A 
ATOM     14  C   UNL     1      27.957  56.058   7.800  1.00  0.00     0.016 A 
ATOM     15  C   UNL     1      27.354  55.660   8.994  1.00  0.00     0.051 A 
ATOM     16  C   UNL     1      26.831  56.617   9.873  1.00  0.00     0.157 A 
ATOM     17  C   UNL     1      27.487  58.377   8.331  1.00  0.00     0.062 A 
ATOM     18  C   UNL     1      26.900  57.978   9.543  1.00  0.00     0.158 A 
BRANCH  16  19
ATOM     19  O   UNL     1      26.242  56.228  11.075  1.00  0.00    -0.504 OA
ATOM     20  H   UNL     1      25.788  56.894  11.687  1.00  0.00     0.293 HD
ENDBRANCH  16  19
BRANCH  18  21
ATOM     21  O   UNL     1      26.396  58.928  10.432  1.00  0.00    -0.504 OA
ATOM     22  H   UNL     1      25.827  58.663  11.230  1.00  0.00     0.293 HD
ENDBRANCH  18  21
ENDBRANCH   3  13
BRANCH  10  23
ATOM     23  O   UNL     1      31.628  58.972   2.212  1.00  0.00    -0.507 OA
ATOM     24  H   UNL     1      32.007  59.578   1.492  1.00  0.00     0.293 HD
ENDBRANCH  10  23
BRANCH  11  25
ATOM     25  O   UNL     1      27.059  59.524   0.698  1.00  0.00    -0.508 OA
ATOM     26  H   UNL     1      26.133  59.862   0.913  1.00  0.00     0.293 HD
ENDBRANCH  11  25
ENDBRANCH   1   2
BRANCH   1  27
ATOM     27  C   UNL     1      31.211  58.575   8.187  1.00  0.00     0.339 C 
ATOM     28  C   UNL     1      32.716  58.941   8.174  1.00  0.00     0.214 C 
ATOM     29  O   UNL     1      30.708  58.064   9.420  1.00  0.00    -0.332 OA
ATOM     30  C   UNL     1      33.584  57.772   8.691  1.00  0.00     0.180 C 
ATOM     31  C   UNL     1      31.700  57.806  10.400  1.00  0.00     0.179 C 
ATOM     32  C   UNL     1      32.877  56.985   9.821  1.00  0.00     0.177 C 
BRANCH  28  33
ATOM     33  O   UNL     1      33.111  59.275   6.867  1.00  0.00    -0.384 OA
ATOM     34  H   UNL     1      32.372  59.799   6.455  1.00  0.00     0.211 HD
ENDBRANCH  28  33
BRANCH  30  35
ATOM     35  O   UNL     1      34.808  58.270   9.165  1.00  0.00    -0.387 OA
ATOM     36  H   UNL     1      34.783  59.255   9.050  1.00  0.00     0.211 HD
ENDBRANCH  30  35
BRANCH  31  37
ATOM     37  C   UNL     1      31.049  57.119  11.617  1.00  0.00     0.191 C 
BRANCH  37  38
ATOM     38  O   UNL     1      30.112  56.141  11.248  1.00  0.00    -0.394 OA
ATOM     39  H   UNL     1      29.485  56.035  12.012  1.00  0.00     0.210 HD
ENDBRANCH  37  38
ENDBRANCH  31  37
BRANCH  32  40
ATOM     40  O   UNL     1      32.398  55.766   9.302  1.00  0.00    -0.387 OA
ATOM     41  H   UNL     1      31.595  55.512   9.827  1.00  0.00     0.211 HD
ENDBRANCH  32  40
ENDBRANCH   1  27
TORSDOF 12
ENDMDL
MODEL 7
REMARK VINA RESULT:    -6.033      2.263      5.684
REMARK INTER + INTRA:         -10.665
REMARK INTER:                  -8.899
REMARK INTRA:                  -1.766
REMARK UNBOUND:                -1.811
REMARK SMILES O=c1c(O[C@H]2O[C@@H](CO)[C@@H](O)[C@H](O)[C@H]2O)c(-c2ccc(O)c(O)c2)oc2cc(O)cc(O)c12
REMARK SMILES IDX 4 1 3 2 16 3 25 4 2 5 26 6 1 7 33 8 27 9 31 10 28 11 30 12
REMARK SMILES IDX 17 13 18 14 19 15 20 16 24 17 22 18 21 19 23 21 32 23 29 25
REMARK SMILES IDX 5 27 14 28 6 29 12 30 7 31 10 32 15 33 13 35 8 37 9 38 11 40
REMARK H PARENT 21 20 23 22 32 24 29 26 15 34 13 36 9 39 11 41
REMARK Flexibility Score: inf
ROOT
ATOM      1  O   UNL     1      29.648  61.596   3.188  1.00  0.00    -0.454 OA
ENDROOT
BRANCH   1   2
ATOM      2  C   UNL     1      30.238  62.518   4.065  1.00  0.00     0.214 A 
ATOM      3  C   UNL     1      31.115  62.115   5.093  1.00  0.00     0.180 A 
ATOM      4  O   UNL     1      31.712  63.027   5.852  1.00  0.00    -0.452 OA
ATOM      5  C   UNL     1      29.967  63.881   3.906  1.00  0.00     0.239 A 
ATOM      6  C   UNL     1      31.504  64.333   5.718  1.00  0.00     0.146 A 
ATOM      7  O   UNL     1      29.160  64.245   3.009  1.00  0.00    -0.285 OA
ATOM      8  C   UNL     1      30.610  64.823   4.734  1.00  0.00     0.111 A 
ATOM      9  C   UNL     1      32.172  65.221   6.567  1.00  0.00     0.094 A 
ATOM     10  C   UNL     1      30.415  66.219   4.615  1.00  0.00     0.134 A 
ATOM     11  C   UNL     1      31.973  66.598   6.449  1.00  0.00     0.123 A 
ATOM     12  C   UNL     1      31.099  67.094   5.473  1.00  0.00     0.093 A 
BRANCH   3  13
ATOM     13  C   UNL     1      31.375  60.692   5.377  1.00  0.00     0.025 A 
ATOM     14  C   UNL     1      32.222  59.945   4.543  1.00  0.00     0.016 A 
ATOM     15  C   UNL     1      32.474  58.600   4.819  1.00  0.00     0.051 A 
ATOM     16  C   UNL     1      31.889  57.989   5.936  1.00  0.00     0.157 A 
ATOM     17  C   UNL     1      30.765  60.073   6.477  1.00  0.00     0.062 A 
ATOM     18  C   UNL     1      31.036  58.727   6.767  1.00  0.00     0.158 A 
BRANCH  16  19
ATOM     19  O   UNL     1      32.150  56.651   6.228  1.00  0.00    -0.504 OA
ATOM     20  H   UNL     1      32.681  56.377   7.044  1.00  0.00     0.293 HD
ENDBRANCH  16  19
BRANCH  18  21
ATOM     21  O   UNL     1      30.473  58.117   7.890  1.00  0.00    -0.504 OA
ATOM     22  H   UNL     1      29.879  58.629   8.534  1.00  0.00     0.293 HD
ENDBRANCH  18  21
ENDBRANCH   3  13
BRANCH  10  23
ATOM     23  O   UNL     1      29.557  66.744   3.648  1.00  0.00    -0.507 OA
ATOM     24  H   UNL     1      29.899  67.076   2.752  1.00  0.00     0.293 HD
ENDBRANCH  10  23
BRANCH  11  25
ATOM     25  O   UNL     1      32.654  67.465   7.302  1.00  0.00    -0.508 OA
ATOM     26  H   UNL     1      32.843  67.219   8.263  1.00  0.00     0.293 HD
ENDBRANCH  11  25
ENDBRANCH   1   2
BRANCH   1  27
ATOM     27  C   UNL     1      28.430  60.908   3.485  1.00  0.00     0.339 C 
ATOM     28  C   UNL     1      28.211  59.778   2.448  1.00  0.00     0.214 C 
ATOM     29  O   UNL     1      27.378  61.866   3.588  1.00  0.00    -0.332 OA
ATOM     30  C   UNL     1      27.838  60.349   1.062  1.00  0.00     0.180 C 
ATOM     31  C   UNL     1      26.365  61.738   2.603  1.00  0.00     0.179 C 
ATOM     32  C   UNL     1      26.961  61.620   1.180  1.00  0.00     0.177 C 
BRANCH  28  33
ATOM     33  O   UNL     1      29.381  59.005   2.337  1.00  0.00    -0.384 OA
ATOM     34  H   UNL     1      29.219  58.145   2.810  1.00  0.00     0.211 HD
ENDBRANCH  28  33
BRANCH  30  35
ATOM     35  O   UNL     1      27.149  59.375   0.322  1.00  0.00    -0.387 OA
ATOM     36  H   UNL     1      26.856  58.679   0.965  1.00  0.00     0.211 HD
ENDBRANCH  30  35
BRANCH  31  37
ATOM     37  C   UNL     1      25.379  62.916   2.729  1.00  0.00     0.191 C 
BRANCH  37  38
ATOM     38  O   UNL     1      26.028  64.153   2.868  1.00  0.00    -0.394 OA
ATOM     39  H   UNL     1      26.859  64.109   2.323  1.00  0.00     0.210 HD
ENDBRANCH  37  38
ENDBRANCH  31  37
BRANCH  32  40
ATOM     40  O   UNL     1      27.752  62.751   0.900  1.00  0.00    -0.387 OA
ATOM     41  H   UNL     1      28.635  62.429   0.582  1.00  0.00     0.211 HD
ENDBRANCH  32  40
ENDBRANCH   1  27
TORSDOF 12
ENDMDL
MODEL 8
REMARK VINA RESULT:    -6.023      2.033      5.304
REMARK INTER + INTRA:         -10.650
REMARK INTER:                  -8.861
REMARK INTRA:                  -1.788
REMARK UNBOUND:                -1.811
REMARK SMILES O=c1c(O[C@H]2O[C@@H](CO)[C@@H](O)[C@H](O)[C@H]2O)c(-c2ccc(O)c(O)c2)oc2cc(O)cc(O)c12
REMARK SMILES IDX 4 1 3 2 16 3 25 4 2 5 26 6 1 7 33 8 27 9 31 10 28 11 30 12
REMARK SMILES IDX 17 13 18 14 19 15 20 16 24 17 22 18 21 19 23 21 32 23 29 25
REMARK SMILES IDX 5 27 14 28 6 29 12 30 7 31 10 32 15 33 13 35 8 37 9 38 11 40
REMARK H PARENT 21 20 23 22 32 24 29 26 15 34 13 36 9 39 11 41
REMARK Flexibility Score: inf
ROOT
ATOM      1  O   UNL     1      30.328  62.487   4.711  1.00  0.00    -0.454 OA
ENDROOT
BRANCH   1   2
ATOM      2  C   UNL     1      30.974  61.462   5.417  1.00  0.00     0.214 A 
ATOM      3  C   UNL     1      30.869  60.109   5.034  1.00  0.00     0.180 A 
ATOM      4  O   UNL     1      31.559  59.179   5.685  1.00  0.00    -0.452 OA
ATOM      5  C   UNL     1      31.764  61.790   6.524  1.00  0.00     0.239 A 
ATOM      6  C   UNL     1      32.342  59.450   6.725  1.00  0.00     0.146 A 
ATOM      7  O   UNL     1      31.838  62.993   6.890  1.00  0.00    -0.285 OA
ATOM      8  C   UNL     1      32.477  60.778   7.198  1.00  0.00     0.111 A 
ATOM      9  C   UNL     1      33.026  58.405   7.353  1.00  0.00     0.094 A 
ATOM     10  C   UNL     1      33.322  61.032   8.304  1.00  0.00     0.134 A 
ATOM     11  C   UNL     1      33.856  58.660   8.447  1.00  0.00     0.123 A 
ATOM     12  C   UNL     1      34.004  59.970   8.918  1.00  0.00     0.093 A 
BRANCH   3  13
ATOM     13  C   UNL     1      29.983  59.681   3.936  1.00  0.00     0.025 A 
ATOM     14  C   UNL     1      28.650  59.329   4.196  1.00  0.00     0.016 A 
ATOM     15  C   UNL     1      27.811  58.933   3.153  1.00  0.00     0.051 A 
ATOM     16  C   UNL     1      28.292  58.892   1.838  1.00  0.00     0.157 A 
ATOM     17  C   UNL     1      30.475  59.611   2.625  1.00  0.00     0.062 A 
ATOM     18  C   UNL     1      29.625  59.234   1.573  1.00  0.00     0.158 A 
BRANCH  16  19
ATOM     19  O   UNL     1      27.456  58.514   0.789  1.00  0.00    -0.504 OA
ATOM     20  H   UNL     1      26.481  58.288   0.939  1.00  0.00     0.293 HD
ENDBRANCH  16  19
BRANCH  18  21
ATOM     21  O   UNL     1      30.093  59.210   0.258  1.00  0.00    -0.504 OA
ATOM     22  H   UNL     1      31.077  59.330   0.039  1.00  0.00     0.293 HD
ENDBRANCH  18  21
ENDBRANCH   3  13
BRANCH  10  23
ATOM     23  O   UNL     1      33.496  62.328   8.792  1.00  0.00    -0.507 OA
ATOM     24  H   UNL     1      33.683  63.111   8.175  1.00  0.00     0.293 HD
ENDBRANCH  10  23
BRANCH  11  25
ATOM     25  O   UNL     1      34.534  57.603   9.055  1.00  0.00    -0.508 OA
ATOM     26  H   UNL     1      34.643  56.713   8.593  1.00  0.00     0.293 HD
ENDBRANCH  11  25
ENDBRANCH   1   2
BRANCH   1  27
ATOM     27  C   UNL     1      31.024  63.419   3.878  1.00  0.00     0.339 C 
ATOM     28  C   UNL     1      30.446  64.839   4.101  1.00  0.00     0.214 C 
ATOM     29  O   UNL     1      30.993  62.941   2.534  1.00  0.00    -0.332 OA
ATOM     30  C   UNL     1      29.033  64.974   3.492  1.00  0.00     0.180 C 
ATOM     31  C   UNL     1      30.281  63.770   1.630  1.00  0.00     0.179 C 
ATOM     32  C   UNL     1      28.889  64.159   2.183  1.00  0.00     0.177 C 
BRANCH  28  33
ATOM     33  O   UNL     1      30.391  65.117   5.478  1.00  0.00    -0.384 OA
ATOM     34  H   UNL     1      30.920  64.416   5.947  1.00  0.00     0.211 HD
ENDBRANCH  28  33
BRANCH  30  35
ATOM     35  O   UNL     1      28.762  66.326   3.229  1.00  0.00    -0.387 OA
ATOM     36  H   UNL     1      29.583  66.834   3.456  1.00  0.00     0.211 HD
ENDBRANCH  30  35
BRANCH  31  37
ATOM     37  C   UNL     1      30.192  63.071   0.259  1.00  0.00     0.191 C 
BRANCH  37  38
ATOM     38  O   UNL     1      31.149  62.055   0.107  1.00  0.00    -0.394 OA
ATOM     39  H   UNL     1      31.559  62.171  -0.791  1.00  0.00     0.210 HD
ENDBRANCH  37  38
ENDBRANCH  31  37
BRANCH  32  40
ATOM     40  O   UNL     1      28.140  62.995   2.448  1.00  0.00    -0.387 OA
ATOM     41  H   UNL     1      28.777  62.237   2.514  1.00  0.00     0.211 HD
ENDBRANCH  32  40
ENDBRANCH   1  27
TORSDOF 12
ENDMDL
MODEL 9
REMARK VINA RESULT:    -6.015      2.064      7.097
REMARK INTER + INTRA:         -10.639
REMARK INTER:                  -9.008
REMARK INTRA:                  -1.631
REMARK UNBOUND:                -1.811
REMARK SMILES O=c1c(O[C@H]2O[C@@H](CO)[C@@H](O)[C@H](O)[C@H]2O)c(-c2ccc(O)c(O)c2)oc2cc(O)cc(O)c12
REMARK SMILES IDX 4 1 3 2 16 3 25 4 2 5 26 6 1 7 33 8 27 9 31 10 28 11 30 12
REMARK SMILES IDX 17 13 18 14 19 15 20 16 24 17 22 18 21 19 23 21 32 23 29 25
REMARK SMILES IDX 5 27 14 28 6 29 12 30 7 31 10 32 15 33 13 35 8 37 9 38 11 40
REMARK H PARENT 21 20 23 22 32 24 29 26 15 34 13 36 9 39 11 41
REMARK Flexibility Score: inf
ROOT
ATOM      1  O   UNL     1      29.428  61.790   2.349  1.00  0.00    -0.454 OA
ENDROOT
BRANCH   1   2
ATOM      2  C   UNL     1      29.371  61.047   1.161  1.00  0.00     0.214 A 
ATOM      3  C   UNL     1      29.718  59.681   1.117  1.00  0.00     0.180 A 
ATOM      4  O   UNL     1      29.576  58.996  -0.013  1.00  0.00    -0.452 OA
ATOM      5  C   UNL     1      28.938  61.671  -0.013  1.00  0.00     0.239 A 
ATOM      6  C   UNL     1      29.143  59.543  -1.145  1.00  0.00     0.146 A 
ATOM      7  O   UNL     1      28.655  62.899   0.012  1.00  0.00    -0.285 OA
ATOM      8  C   UNL     1      28.806  60.918  -1.198  1.00  0.00     0.111 A 
ATOM      9  C   UNL     1      29.031  58.746  -2.288  1.00  0.00     0.094 A 
ATOM     10  C   UNL     1      28.344  61.467  -2.417  1.00  0.00     0.134 A 
ATOM     11  C   UNL     1      28.579  59.293  -3.490  1.00  0.00     0.123 A 
ATOM     12  C   UNL     1      28.234  60.649  -3.552  1.00  0.00     0.093 A 
BRANCH   3  13
ATOM     13  C   UNL     1      30.268  58.982   2.292  1.00  0.00     0.025 A 
ATOM     14  C   UNL     1      31.654  58.811   2.431  1.00  0.00     0.016 A 
ATOM     15  C   UNL     1      32.173  58.157   3.550  1.00  0.00     0.051 A 
ATOM     16  C   UNL     1      31.314  57.675   4.546  1.00  0.00     0.157 A 
ATOM     17  C   UNL     1      29.405  58.473   3.273  1.00  0.00     0.062 A 
ATOM     18  C   UNL     1      29.928  57.835   4.409  1.00  0.00     0.158 A 
BRANCH  16  19
ATOM     19  O   UNL     1      31.826  57.037   5.675  1.00  0.00    -0.504 OA
ATOM     20  H   UNL     1      32.797  56.762   5.738  1.00  0.00     0.293 HD
ENDBRANCH  16  19
BRANCH  18  21
ATOM     21  O   UNL     1      29.079  57.371   5.415  1.00  0.00    -0.504 OA
ATOM     22  H   UNL     1      28.072  57.344   5.293  1.00  0.00     0.293 HD
ENDBRANCH  18  21
ENDBRANCH   3  13
BRANCH  10  23
ATOM     23  O   UNL     1      27.986  62.813  -2.508  1.00  0.00    -0.507 OA
ATOM     24  H   UNL     1      28.166  63.466  -1.754  1.00  0.00     0.293 HD
ENDBRANCH  10  23
BRANCH  11  25
ATOM     25  O   UNL     1      28.470  58.478  -4.617  1.00  0.00    -0.508 OA
ATOM     26  H   UNL     1      27.576  58.125  -4.926  1.00  0.00     0.293 HD
ENDBRANCH  11  25
ENDBRANCH   1   2
BRANCH   1  27
ATOM     27  C   UNL     1      30.658  62.197   2.955  1.00  0.00     0.339 C 
ATOM     28  C   UNL     1      30.356  62.950   4.276  1.00  0.00     0.214 C 
ATOM     29  O   UNL     1      31.424  62.919   1.992  1.00  0.00    -0.332 OA
ATOM     30  C   UNL     1      29.744  64.342   4.003  1.00  0.00     0.180 C 
ATOM     31  C   UNL     1      31.649  64.281   2.318  1.00  0.00     0.179 C 
ATOM     32  C   UNL     1      30.341  64.995   2.732  1.00  0.00     0.177 C 
BRANCH  28  33
ATOM     33  O   UNL     1      29.467  62.193   5.059  1.00  0.00    -0.384 OA
ATOM     34  H   UNL     1      29.186  61.406   4.519  1.00  0.00     0.211 HD
ENDBRANCH  28  33
BRANCH  30  35
ATOM     35  O   UNL     1      29.971  65.180   5.107  1.00  0.00    -0.387 OA
ATOM     36  H   UNL     1      30.024  66.107   4.758  1.00  0.00     0.211 HD
ENDBRANCH  30  35
BRANCH  31  37
ATOM     37  C   UNL     1      32.349  64.979   1.135  1.00  0.00     0.191 C 
BRANCH  37  38
ATOM     38  O   UNL     1      31.635  64.852  -0.067  1.00  0.00    -0.394 OA
ATOM     39  H   UNL     1      30.738  64.490   0.163  1.00  0.00     0.210 HD
ENDBRANCH  37  38
ENDBRANCH  31  37
BRANCH  32  40
ATOM     40  O   UNL     1      29.400  64.909   1.687  1.00  0.00    -0.387 OA
ATOM     41  H   UNL     1      29.223  65.830   1.365  1.00  0.00     0.211 HD
ENDBRANCH  32  40
ENDBRANCH   1  27
TORSDOF 12
ENDMDL
