MODEL 1
REMARK VINA RESULT:    -4.655      0.000      0.000
REMARK INTER + INTRA:          -7.488
REMARK INTER:                  -6.695
REMARK INTRA:                  -0.793
REMARK UNBOUND:                -0.793
REMARK SMILES O=c1cc(-c2ccc(O)c(O)c2)oc2cc(O[C@H]3O[C@@H](CO)[C@H](O)[C@@H](O)[C@@H]3O)cc(O)c12
REMARK SMILES IDX 17 1 16 2 4 3 3 4 13 5 2 6 14 7 1 8 32 9 15 10 30 11 29 12
REMARK SMILES IDX 5 13 6 14 7 15 8 16 12 17 10 18 9 19 11 21 31 23 18 25 27 26
REMARK SMILES IDX 19 27 25 28 20 29 23 30 28 31 26 33 21 35 22 36 24 38
REMARK H PARENT 9 20 11 22 31 24 28 32 26 34 22 37 24 39
REMARK Flexibility Score: inf
ROOT
ATOM      1  O   UNL     1     -35.730  76.746 -26.810  1.00  0.00    -0.462 OA
ENDROOT
BRANCH   1   2
ATOM      2  C   UNL     1     -37.042  76.705 -26.309  1.00  0.00     0.130 A 
ATOM      3  C   UNL     1     -39.799  76.832 -22.421  1.00  0.00     0.138 A 
ATOM      4  C   UNL     1     -40.978  76.702 -23.174  1.00  0.00     0.100 A 
ATOM      5  O   UNL     1     -38.626  76.877 -23.045  1.00  0.00    -0.456 OA
ATOM      6  C   UNL     1     -40.895  76.595 -24.563  1.00  0.00     0.197 A 
ATOM      7  C   UNL     1     -38.496  76.781 -24.365  1.00  0.00     0.146 A 
ATOM      8  O   UNL     1     -41.959  76.474 -25.231  1.00  0.00    -0.289 OA
ATOM      9  C   UNL     1     -39.634  76.625 -25.190  1.00  0.00     0.107 A 
ATOM     10  C   UNL     1     -37.220  76.829 -24.930  1.00  0.00     0.094 A 
ATOM     11  C   UNL     1     -39.460  76.510 -26.588  1.00  0.00     0.134 A 
ATOM     12  C   UNL     1     -38.170  76.548 -27.136  1.00  0.00     0.093 A 
BRANCH   3  13
ATOM     13  C   UNL     1     -39.823  76.928 -20.939  1.00  0.00     0.021 A 
ATOM     14  C   UNL     1     -38.613  76.970 -20.229  1.00  0.00     0.016 A 
ATOM     15  C   UNL     1     -38.611  77.038 -18.834  1.00  0.00     0.051 A 
ATOM     16  C   UNL     1     -39.810  77.055 -18.117  1.00  0.00     0.157 A 
ATOM     17  C   UNL     1     -41.033  76.934 -20.217  1.00  0.00     0.062 A 
ATOM     18  C   UNL     1     -41.038  76.997 -18.818  1.00  0.00     0.158 A 
BRANCH  16  19
ATOM     19  O   UNL     1     -39.738  77.125 -16.725  1.00  0.00    -0.504 OA
ATOM     20  H   UNL     1     -39.034  76.658 -16.172  1.00  0.00     0.293 HD
ENDBRANCH  16  19
BRANCH  18  21
ATOM     21  O   UNL     1     -42.276  76.991 -18.171  1.00  0.00    -0.504 OA
ATOM     22  H   UNL     1     -42.930  76.224 -18.211  1.00  0.00     0.293 HD
ENDBRANCH  18  21
ENDBRANCH   3  13
BRANCH  11  23
ATOM     23  O   UNL     1     -40.558  76.355 -27.436  1.00  0.00    -0.507 OA
ATOM     24  H   UNL     1     -41.498  76.586 -27.137  1.00  0.00     0.293 HD
ENDBRANCH  11  23
ENDBRANCH   1   2
BRANCH   1  25
ATOM     25  C   UNL     1     -34.555  76.278 -26.140  1.00  0.00     0.339 C 
ATOM     26  C   UNL     1     -33.267  76.807 -26.804  1.00  0.00     0.214 C 
ATOM     27  O   UNL     1     -34.565  74.861 -26.047  1.00  0.00    -0.332 OA
ATOM     28  C   UNL     1     -33.078  76.180 -28.194  1.00  0.00     0.180 C 
ATOM     29  C   UNL     1     -34.425  74.190 -27.296  1.00  0.00     0.179 C 
ATOM     30  C   UNL     1     -33.187  74.646 -28.112  1.00  0.00     0.177 C 
BRANCH  26  31
ATOM     31  O   UNL     1     -32.171  76.509 -25.975  1.00  0.00    -0.384 OA
ATOM     32  H   UNL     1     -31.731  77.373 -25.758  1.00  0.00     0.211 HD
ENDBRANCH  26  31
BRANCH  28  33
ATOM     33  O   UNL     1     -34.036  76.703 -29.077  1.00  0.00    -0.387 OA
ATOM     34  H   UNL     1     -34.711  75.991 -29.230  1.00  0.00     0.211 HD
ENDBRANCH  28  33
BRANCH  29  35
ATOM     35  C   UNL     1     -35.731  74.167 -28.121  1.00  0.00     0.191 C 
BRANCH  35  36
ATOM     36  O   UNL     1     -36.649  73.260 -27.573  1.00  0.00    -0.394 OA
ATOM     37  H   UNL     1     -36.586  73.354 -26.587  1.00  0.00     0.210 HD
ENDBRANCH  35  36
ENDBRANCH  29  35
BRANCH  30  38
ATOM     38  O   UNL     1     -32.019  74.140 -27.516  1.00  0.00    -0.387 OA
ATOM     39  H   UNL     1     -31.691  73.405 -28.100  1.00  0.00     0.211 HD
ENDBRANCH  30  38
ENDBRANCH   1  25
TORSDOF 11
ENDMDL
MODEL 2
REMARK VINA RESULT:    -3.131      1.706      2.601
REMARK INTER + INTRA:          -5.296
REMARK INTER:                  -4.853
REMARK INTRA:                  -0.443
REMARK UNBOUND:                -0.793
REMARK SMILES O=c1cc(-c2ccc(O)c(O)c2)oc2cc(O[C@H]3O[C@@H](CO)[C@H](O)[C@@H](O)[C@@H]3O)cc(O)c12
REMARK SMILES IDX 17 1 16 2 4 3 3 4 13 5 2 6 14 7 1 8 32 9 15 10 30 11 29 12
REMARK SMILES IDX 5 13 6 14 7 15 8 16 12 17 10 18 9 19 11 21 31 23 18 25 27 26
REMARK SMILES IDX 19 27 25 28 20 29 23 30 28 31 26 33 21 35 22 36 24 38
REMARK H PARENT 9 20 11 22 31 24 28 32 26 34 22 37 24 39
REMARK Flexibility Score: inf
ROOT
ATOM      1  O   UNL     1     -37.241  76.396 -25.695  1.00  0.00    -0.462 OA
ENDROOT
BRANCH   1   2
ATOM      2  C   UNL     1     -38.366  76.555 -24.868  1.00  0.00     0.130 A 
ATOM      3  C   UNL     1     -39.967  76.915 -20.391  1.00  0.00     0.138 A 
ATOM      4  C   UNL     1     -41.301  77.043 -20.811  1.00  0.00     0.100 A 
ATOM      5  O   UNL     1     -39.004  76.792 -21.301  1.00  0.00    -0.456 OA
ATOM      6  C   UNL     1     -41.597  77.013 -22.174  1.00  0.00     0.197 A 
ATOM      7  C   UNL     1     -39.235  76.760 -22.610  1.00  0.00     0.146 A 
ATOM      8  O   UNL     1     -42.798  77.125 -22.542  1.00  0.00    -0.289 OA
ATOM      9  C   UNL     1     -40.555  76.862 -23.109  1.00  0.00     0.107 A 
ATOM     10  C   UNL     1     -38.159  76.619 -23.489  1.00  0.00     0.094 A 
ATOM     11  C   UNL     1     -40.767  76.808 -24.506  1.00  0.00     0.134 A 
ATOM     12  C   UNL     1     -39.676  76.653 -25.373  1.00  0.00     0.093 A 
BRANCH   3  13
ATOM     13  C   UNL     1     -39.594  76.917 -18.954  1.00  0.00     0.021 A 
ATOM     14  C   UNL     1     -40.589  77.093 -17.981  1.00  0.00     0.016 A 
ATOM     15  C   UNL     1     -40.259  77.121 -16.624  1.00  0.00     0.051 A 
ATOM     16  C   UNL     1     -38.932  76.985 -16.209  1.00  0.00     0.157 A 
ATOM     17  C   UNL     1     -38.253  76.791 -18.537  1.00  0.00     0.062 A 
ATOM     18  C   UNL     1     -37.914  76.823 -17.178  1.00  0.00     0.158 A 
BRANCH  16  19
ATOM     19  O   UNL     1     -38.670  77.021 -14.838  1.00  0.00    -0.504 OA
ATOM     20  H   UNL     1     -39.362  77.240 -14.136  1.00  0.00     0.293 HD
ENDBRANCH  16  19
BRANCH  18  21
ATOM     21  O   UNL     1     -36.565  76.699 -16.842  1.00  0.00    -0.504 OA
ATOM     22  H   UNL     1     -35.837  76.476 -17.504  1.00  0.00     0.293 HD
ENDBRANCH  18  21
ENDBRANCH   3  13
BRANCH  11  23
ATOM     23  O   UNL     1     -42.054  76.904 -25.038  1.00  0.00    -0.507 OA
ATOM     24  H   UNL     1     -42.212  77.139 -26.011  1.00  0.00     0.293 HD
ENDBRANCH  11  23
ENDBRANCH   1   2
BRANCH   1  25
ATOM     25  C   UNL     1     -36.120  75.543 -25.443  1.00  0.00     0.339 C 
ATOM     26  C   UNL     1     -34.934  75.863 -26.375  1.00  0.00     0.214 C 
ATOM     27  O   UNL     1     -36.506  74.178 -25.518  1.00  0.00    -0.332 OA
ATOM     28  C   UNL     1     -35.267  75.483 -27.825  1.00  0.00     0.180 C 
ATOM     29  C   UNL     1     -36.864  73.741 -26.826  1.00  0.00     0.179 C 
ATOM     30  C   UNL     1     -35.781  74.033 -27.897  1.00  0.00     0.177 C 
BRANCH  26  31
ATOM     31  O   UNL     1     -33.801  75.160 -25.929  1.00  0.00    -0.384 OA
ATOM     32  H   UNL     1     -33.926  75.000 -24.956  1.00  0.00     0.211 HD
ENDBRANCH  26  31
BRANCH  28  33
ATOM     33  O   UNL     1     -36.222  76.377 -28.336  1.00  0.00    -0.387 OA
ATOM     34  H   UNL     1     -36.293  76.200 -29.310  1.00  0.00     0.211 HD
ENDBRANCH  28  33
BRANCH  29  35
ATOM     35  C   UNL     1     -38.281  74.188 -27.247  1.00  0.00     0.191 C 
BRANCH  35  36
ATOM     36  O   UNL     1     -38.228  74.994 -28.394  1.00  0.00    -0.394 OA
ATOM     37  H   UNL     1     -38.683  75.845 -28.162  1.00  0.00     0.210 HD
ENDBRANCH  35  36
ENDBRANCH  29  35
BRANCH  30  38
ATOM     38  O   UNL     1     -34.694  73.158 -27.718  1.00  0.00    -0.387 OA
ATOM     39  H   UNL     1     -35.019  72.406 -27.154  1.00  0.00     0.211 HD
ENDBRANCH  30  38
ENDBRANCH   1  25
TORSDOF 11
ENDMDL
MODEL 3
REMARK VINA RESULT:    -2.363      4.755      8.421
REMARK INTER + INTRA:          -4.192
REMARK INTER:                  -3.154
REMARK INTRA:                  -1.038
REMARK UNBOUND:                -0.793
REMARK SMILES O=c1cc(-c2ccc(O)c(O)c2)oc2cc(O[C@H]3O[C@@H](CO)[C@H](O)[C@@H](O)[C@@H]3O)cc(O)c12
REMARK SMILES IDX 17 1 16 2 4 3 3 4 13 5 2 6 14 7 1 8 32 9 15 10 30 11 29 12
REMARK SMILES IDX 5 13 6 14 7 15 8 16 12 17 10 18 9 19 11 21 31 23 18 25 27 26
REMARK SMILES IDX 19 27 25 28 20 29 23 30 28 31 26 33 21 35 22 36 24 38
REMARK H PARENT 9 20 11 22 31 24 28 32 26 34 22 37 24 39
REMARK Flexibility Score: inf
ROOT
ATOM      1  O   UNL     1     -41.160  75.211 -22.402  1.00  0.00    -0.462 OA
ENDROOT
BRANCH   1   2
ATOM      2  C   UNL     1     -40.281  75.142 -21.307  1.00  0.00     0.130 A 
ATOM      3  C   UNL     1     -37.099  72.486 -18.949  1.00  0.00     0.138 A 
ATOM      4  C   UNL     1     -36.879  73.488 -17.989  1.00  0.00     0.100 A 
ATOM      5  O   UNL     1     -37.952  72.710 -19.945  1.00  0.00    -0.456 OA
ATOM      6  C   UNL     1     -37.580  74.691 -18.081  1.00  0.00     0.197 A 
ATOM      7  C   UNL     1     -38.641  73.841 -20.077  1.00  0.00     0.146 A 
ATOM      8  O   UNL     1     -37.379  75.583 -17.212  1.00  0.00    -0.289 OA
ATOM      9  C   UNL     1     -38.491  74.887 -19.137  1.00  0.00     0.107 A 
ATOM     10  C   UNL     1     -39.522  73.981 -21.151  1.00  0.00     0.094 A 
ATOM     11  C   UNL     1     -39.250  76.069 -19.298  1.00  0.00     0.134 A 
ATOM     12  C   UNL     1     -40.139  76.187 -20.376  1.00  0.00     0.093 A 
BRANCH   3  13
ATOM     13  C   UNL     1     -36.400  71.177 -18.891  1.00  0.00     0.021 A 
ATOM     14  C   UNL     1     -37.149  69.998 -18.757  1.00  0.00     0.016 A 
ATOM     15  C   UNL     1     -36.511  68.758 -18.677  1.00  0.00     0.051 A 
ATOM     16  C   UNL     1     -35.118  68.666 -18.719  1.00  0.00     0.157 A 
ATOM     17  C   UNL     1     -34.994  71.087 -18.922  1.00  0.00     0.062 A 
ATOM     18  C   UNL     1     -34.348  69.847 -18.838  1.00  0.00     0.158 A 
BRANCH  16  19
ATOM     19  O   UNL     1     -34.544  67.396 -18.636  1.00  0.00    -0.504 OA
ATOM     20  H   UNL     1     -33.576  67.199 -18.843  1.00  0.00     0.293 HD
ENDBRANCH  16  19
BRANCH  18  21
ATOM     21  O   UNL     1     -32.952  69.838 -18.868  1.00  0.00    -0.504 OA
ATOM     22  H   UNL     1     -32.388  70.634 -19.126  1.00  0.00     0.293 HD
ENDBRANCH  18  21
ENDBRANCH   3  13
BRANCH  11  23
ATOM     23  O   UNL     1     -39.130  77.125 -18.392  1.00  0.00    -0.507 OA
ATOM     24  H   UNL     1     -39.328  78.081 -18.660  1.00  0.00     0.293 HD
ENDBRANCH  11  23
ENDBRANCH   1   2
BRANCH   1  25
ATOM     25  C   UNL     1     -41.927  76.353 -22.799  1.00  0.00     0.339 C 
ATOM     26  C   UNL     1     -43.328  75.954 -23.305  1.00  0.00     0.214 C 
ATOM     27  O   UNL     1     -41.213  77.125 -23.752  1.00  0.00    -0.332 OA
ATOM     28  C   UNL     1     -43.226  75.196 -24.637  1.00  0.00     0.180 C 
ATOM     29  C   UNL     1     -41.042  76.486 -25.014  1.00  0.00     0.179 C 
ATOM     30  C   UNL     1     -42.369  75.985 -25.643  1.00  0.00     0.177 C 
BRANCH  26  31
ATOM     31  O   UNL     1     -44.105  77.116 -23.458  1.00  0.00    -0.384 OA
ATOM     32  H   UNL     1     -43.669  77.827 -22.917  1.00  0.00     0.211 HD
ENDBRANCH  26  31
BRANCH  28  33
ATOM     33  O   UNL     1     -42.683  73.921 -24.409  1.00  0.00    -0.387 OA
ATOM     34  H   UNL     1     -43.119  73.300 -25.049  1.00  0.00     0.211 HD
ENDBRANCH  28  33
BRANCH  29  35
ATOM     35  C   UNL     1     -39.924  75.421 -25.008  1.00  0.00     0.191 C 
BRANCH  35  36
ATOM     36  O   UNL     1     -38.747  75.938 -24.448  1.00  0.00    -0.394 OA
ATOM     37  H   UNL     1     -38.221  75.160 -24.128  1.00  0.00     0.210 HD
ENDBRANCH  35  36
ENDBRANCH  29  35
BRANCH  30  38
ATOM     38  O   UNL     1     -43.113  77.084 -26.108  1.00  0.00    -0.387 OA
ATOM     39  H   UNL     1     -42.504  77.869 -26.102  1.00  0.00     0.211 HD
ENDBRANCH  30  38
ENDBRANCH   1  25
TORSDOF 11
ENDMDL
MODEL 4
REMARK VINA RESULT:    -2.271      4.664      8.192
REMARK INTER + INTRA:          -4.059
REMARK INTER:                  -3.077
REMARK INTRA:                  -0.983
REMARK UNBOUND:                -0.793
REMARK SMILES O=c1cc(-c2ccc(O)c(O)c2)oc2cc(O[C@H]3O[C@@H](CO)[C@H](O)[C@@H](O)[C@@H]3O)cc(O)c12
REMARK SMILES IDX 17 1 16 2 4 3 3 4 13 5 2 6 14 7 1 8 32 9 15 10 30 11 29 12
REMARK SMILES IDX 5 13 6 14 7 15 8 16 12 17 10 18 9 19 11 21 31 23 18 25 27 26
REMARK SMILES IDX 19 27 25 28 20 29 23 30 28 31 26 33 21 35 22 36 24 38
REMARK H PARENT 9 20 11 22 31 24 28 32 26 34 22 37 24 39
REMARK Flexibility Score: inf
ROOT
ATOM      1  O   UNL     1     -41.248  75.166 -22.543  1.00  0.00    -0.462 OA
ENDROOT
BRANCH   1   2
ATOM      2  C   UNL     1     -40.416  75.141 -21.411  1.00  0.00     0.130 A 
ATOM      3  C   UNL     1     -37.110  72.709 -18.983  1.00  0.00     0.138 A 
ATOM      4  C   UNL     1     -37.025  73.695 -17.987  1.00  0.00     0.100 A 
ATOM      5  O   UNL     1     -37.935  72.887 -20.011  1.00  0.00    -0.456 OA
ATOM      6  C   UNL     1     -37.828  74.832 -18.077  1.00  0.00     0.197 A 
ATOM      7  C   UNL     1     -38.719  73.954 -20.143  1.00  0.00     0.146 A 
ATOM      8  O   UNL     1     -37.748  75.710 -17.175  1.00  0.00    -0.289 OA
ATOM      9  C   UNL     1     -38.706  74.979 -19.169  1.00  0.00     0.107 A 
ATOM     10  C   UNL     1     -39.560  74.049 -21.253  1.00  0.00     0.094 A 
ATOM     11  C   UNL     1     -39.562  76.092 -19.331  1.00  0.00     0.134 A 
ATOM     12  C   UNL     1     -40.411  76.164 -20.446  1.00  0.00     0.093 A 
BRANCH   3  13
ATOM     13  C   UNL     1     -36.297  71.467 -18.929  1.00  0.00     0.021 A 
ATOM     14  C   UNL     1     -34.898  71.552 -19.001  1.00  0.00     0.016 A 
ATOM     15  C   UNL     1     -34.115  70.397 -18.974  1.00  0.00     0.051 A 
ATOM     16  C   UNL     1     -34.706  69.134 -18.886  1.00  0.00     0.157 A 
ATOM     17  C   UNL     1     -36.895  70.194 -18.851  1.00  0.00     0.062 A 
ATOM     18  C   UNL     1     -36.116  69.030 -18.829  1.00  0.00     0.158 A 
BRANCH  16  19
ATOM     19  O   UNL     1     -33.865  68.019 -18.862  1.00  0.00    -0.504 OA
ATOM     20  H   UNL     1     -33.894  67.275 -19.545  1.00  0.00     0.293 HD
ENDBRANCH  16  19
BRANCH  18  21
ATOM     21  O   UNL     1     -36.779  67.804 -18.758  1.00  0.00    -0.504 OA
ATOM     22  H   UNL     1     -37.228  67.453 -17.925  1.00  0.00     0.293 HD
ENDBRANCH  18  21
ENDBRANCH   3  13
BRANCH  11  23
ATOM     23  O   UNL     1     -39.580  77.125 -18.391  1.00  0.00    -0.507 OA
ATOM     24  H   UNL     1     -40.393  77.307 -17.816  1.00  0.00     0.293 HD
ENDBRANCH  11  23
ENDBRANCH   1   2
BRANCH   1  25
ATOM     25  C   UNL     1     -42.008  76.286 -23.009  1.00  0.00     0.339 C 
ATOM     26  C   UNL     1     -43.305  75.844 -23.717  1.00  0.00     0.214 C 
ATOM     27  O   UNL     1     -41.209  77.124 -23.830  1.00  0.00    -0.332 OA
ATOM     28  C   UNL     1     -42.983  75.140 -25.044  1.00  0.00     0.180 C 
ATOM     29  C   UNL     1     -40.834  76.540 -25.075  1.00  0.00     0.179 C 
ATOM     30  C   UNL     1     -42.035  76.003 -25.897  1.00  0.00     0.177 C 
BRANCH  26  31
ATOM     31  O   UNL     1     -44.109  76.975 -23.942  1.00  0.00    -0.384 OA
ATOM     32  H   UNL     1     -45.041  76.715 -23.717  1.00  0.00     0.211 HD
ENDBRANCH  26  31
BRANCH  28  33
ATOM     33  O   UNL     1     -42.414  73.883 -24.781  1.00  0.00    -0.387 OA
ATOM     34  H   UNL     1     -42.772  73.254 -25.461  1.00  0.00     0.211 HD
ENDBRANCH  28  33
BRANCH  29  35
ATOM     35  C   UNL     1     -39.676  75.525 -24.945  1.00  0.00     0.191 C 
BRANCH  35  36
ATOM     36  O   UNL     1     -38.568  76.113 -24.317  1.00  0.00    -0.394 OA
ATOM     37  H   UNL     1     -38.146  76.709 -24.990  1.00  0.00     0.210 HD
ENDBRANCH  35  36
ENDBRANCH  29  35
BRANCH  30  38
ATOM     38  O   UNL     1     -42.762  77.084 -26.428  1.00  0.00    -0.387 OA
ATOM     39  H   UNL     1     -42.120  77.834 -26.546  1.00  0.00     0.211 HD
ENDBRANCH  30  38
ENDBRANCH   1  25
TORSDOF 11
ENDMDL
