MODEL 1
REMARK VINA RESULT:    -2.919      0.000      0.000
REMARK INTER + INTRA:          -5.716
REMARK INTER:                  -4.625
REMARK INTRA:                  -1.091
REMARK UNBOUND:                -1.091
REMARK SMILES CCCCCCCCCCCC(=O)[O-]
REMARK SMILES IDX 7 1 8 2 9 3 10 4 11 5 12 6 13 7 14 8 6 9 5 10 4 11 3 12 2 13
REMARK SMILES IDX 1 14
REMARK H PARENT
REMARK Flexibility Score: inf
ROOT
ATOM      1  C   UNL     1      -6.511  -5.786 -10.084  1.00  0.00     0.000 C 
ENDROOT
BRANCH   1   2
ATOM      2  C   UNL     1      -5.595  -6.472  -9.055  1.00  0.00     0.000 C 
BRANCH   2   3
ATOM      3  C   UNL     1      -4.441  -7.302  -9.652  1.00  0.00     0.000 C 
BRANCH   3   4
ATOM      4  C   UNL     1      -4.606  -8.828  -9.535  1.00  0.00     0.006 C 
BRANCH   4   5
ATOM      5  C   UNL     1      -3.537  -9.476  -8.646  1.00  0.00     0.053 C 
BRANCH   5   6
ATOM      6  C   UNL     1      -3.915  -9.354  -7.203  1.00  0.00     0.041 C 
ATOM      7  O   UNL     1      -5.082  -9.642  -6.827  1.00  0.00    -0.550 OA
ATOM      8  O   UNL     1      -2.963  -8.972  -6.265  1.00  0.00    -0.550 OA
ENDBRANCH   5   6
ENDBRANCH   4   5
ENDBRANCH   3   4
ENDBRANCH   2   3
ENDBRANCH   1   2
BRANCH   1   9
ATOM      9  C   UNL     1      -7.957  -6.310 -10.038  1.00  0.00     0.000 C 
BRANCH   9  10
ATOM     10  C   UNL     1      -8.140  -7.424  -8.994  1.00  0.00    -0.000 C 
BRANCH  10  11
ATOM     11  C   UNL     1      -9.097  -7.018  -7.860  1.00  0.00    -0.000 C 
BRANCH  11  12
ATOM     12  C   UNL     1      -9.537  -5.543  -7.966  1.00  0.00    -0.000 C 
BRANCH  12  13
ATOM     13  C   UNL     1      -9.134  -4.692  -6.751  1.00  0.00    -0.003 C 
ATOM     14  C   UNL     1      -7.660  -4.840  -6.377  1.00  0.00     0.004 C 
ENDBRANCH  12  13
ENDBRANCH  11  12
ENDBRANCH  10  11
ENDBRANCH   9  10
ENDBRANCH   1   9
TORSDOF 10
ENDMDL
MODEL 2
REMARK VINA RESULT:    -2.886      2.295      3.060
REMARK INTER + INTRA:          -5.664
REMARK INTER:                  -4.683
REMARK INTRA:                  -0.981
REMARK UNBOUND:                -1.091
REMARK SMILES CCCCCCCCCCCC(=O)[O-]
REMARK SMILES IDX 7 1 8 2 9 3 10 4 11 5 12 6 13 7 14 8 6 9 5 10 4 11 3 12 2 13
REMARK SMILES IDX 1 14
REMARK H PARENT
REMARK Flexibility Score: inf
ROOT
ATOM      1  C   UNL     1      -7.549  -8.540  -7.038  1.00  0.00     0.000 C 
ENDROOT
BRANCH   1   2
ATOM      2  C   UNL     1      -6.483  -9.650  -7.060  1.00  0.00     0.000 C 
BRANCH   2   3
ATOM      3  C   UNL     1      -5.462  -9.558  -8.212  1.00  0.00     0.000 C 
BRANCH   3   4
ATOM      4  C   UNL     1      -5.589  -8.306  -9.098  1.00  0.00     0.006 C 
BRANCH   4   5
ATOM      5  C   UNL     1      -4.267  -7.542  -9.243  1.00  0.00     0.053 C 
BRANCH   5   6
ATOM      6  C   UNL     1      -4.527  -6.088  -9.484  1.00  0.00     0.041 C 
ATOM      7  O   UNL     1      -5.694  -5.627  -9.378  1.00  0.00    -0.550 OA
ATOM      8  O   UNL     1      -3.472  -5.233  -9.777  1.00  0.00    -0.550 OA
ENDBRANCH   5   6
ENDBRANCH   4   5
ENDBRANCH   3   4
ENDBRANCH   2   3
ENDBRANCH   1   2
BRANCH   1   9
ATOM      9  C   UNL     1      -8.909  -9.009  -7.586  1.00  0.00     0.000 C 
BRANCH   9  10
ATOM     10  C   UNL     1      -9.735  -7.850  -8.165  1.00  0.00    -0.000 C 
BRANCH  10  11
ATOM     11  C   UNL     1      -8.892  -6.586  -8.406  1.00  0.00    -0.000 C 
BRANCH  11  12
ATOM     12  C   UNL     1      -9.650  -5.298  -8.023  1.00  0.00    -0.000 C 
BRANCH  12  13
ATOM     13  C   UNL     1      -9.178  -4.678  -6.697  1.00  0.00    -0.003 C 
ATOM     14  C   UNL     1      -7.692  -4.902  -6.425  1.00  0.00     0.004 C 
ENDBRANCH  12  13
ENDBRANCH  11  12
ENDBRANCH  10  11
ENDBRANCH   9  10
ENDBRANCH   1   9
TORSDOF 10
ENDMDL
MODEL 3
REMARK VINA RESULT:    -2.876      1.882      3.027
REMARK INTER + INTRA:          -5.649
REMARK INTER:                  -4.418
REMARK INTRA:                  -1.231
REMARK UNBOUND:                -1.091
REMARK SMILES CCCCCCCCCCCC(=O)[O-]
REMARK SMILES IDX 7 1 8 2 9 3 10 4 11 5 12 6 13 7 14 8 6 9 5 10 4 11 3 12 2 13
REMARK SMILES IDX 1 14
REMARK H PARENT
REMARK Flexibility Score: inf
ROOT
ATOM      1  C   UNL     1      -3.900  -7.329  -8.614  1.00  0.00     0.000 C 
ENDROOT
BRANCH   1   2
ATOM      2  C   UNL     1      -4.008  -8.862  -8.526  1.00  0.00     0.000 C 
BRANCH   2   3
ATOM      3  C   UNL     1      -5.203  -9.481  -9.281  1.00  0.00     0.000 C 
BRANCH   3   4
ATOM      4  C   UNL     1      -6.278 -10.123  -8.386  1.00  0.00     0.006 C 
BRANCH   4   5
ATOM      5  C   UNL     1      -5.945 -10.025  -6.892  1.00  0.00     0.053 C 
BRANCH   5   6
ATOM      6  C   UNL     1      -7.198  -9.884  -6.086  1.00  0.00     0.041 C 
ATOM      7  O   UNL     1      -7.136  -9.759  -4.835  1.00  0.00    -0.550 OA
ATOM      8  O   UNL     1      -8.432  -9.838  -6.723  1.00  0.00    -0.550 OA
ENDBRANCH   5   6
ENDBRANCH   4   5
ENDBRANCH   3   4
ENDBRANCH   2   3
ENDBRANCH   1   2
BRANCH   1   9
ATOM      9  C   UNL     1      -4.620  -6.751  -9.844  1.00  0.00     0.000 C 
BRANCH   9  10
ATOM     10  C   UNL     1      -5.743  -5.776  -9.457  1.00  0.00    -0.000 C 
BRANCH  10  11
ATOM     11  C   UNL     1      -7.142  -6.401  -9.597  1.00  0.00    -0.000 C 
BRANCH  11  12
ATOM     12  C   UNL     1      -7.799  -6.673  -8.228  1.00  0.00    -0.000 C 
BRANCH  12  13
ATOM     13  C   UNL     1      -7.533  -5.571  -7.188  1.00  0.00    -0.003 C 
ATOM     14  C   UNL     1      -8.808  -4.886  -6.700  1.00  0.00     0.004 C 
ENDBRANCH  12  13
ENDBRANCH  11  12
ENDBRANCH  10  11
ENDBRANCH   9  10
ENDBRANCH   1   9
TORSDOF 10
ENDMDL
MODEL 4
REMARK VINA RESULT:    -2.852     21.657     23.074
REMARK INTER + INTRA:          -5.610
REMARK INTER:                  -4.485
REMARK INTRA:                  -1.125
REMARK UNBOUND:                -1.091
REMARK SMILES CCCCCCCCCCCC(=O)[O-]
REMARK SMILES IDX 7 1 8 2 9 3 10 4 11 5 12 6 13 7 14 8 6 9 5 10 4 11 3 12 2 13
REMARK SMILES IDX 1 14
REMARK H PARENT
REMARK Flexibility Score: inf
ROOT
ATOM      1  C   UNL     1       6.263   5.874   2.075  1.00  0.00     0.000 C 
ENDROOT
BRANCH   1   2
ATOM      2  C   UNL     1       7.520   5.621   1.223  1.00  0.00     0.000 C 
BRANCH   2   3
ATOM      3  C   UNL     1       8.754   6.463   1.607  1.00  0.00     0.000 C 
BRANCH   3   4
ATOM      4  C   UNL     1      10.109   5.758   1.417  1.00  0.00     0.006 C 
BRANCH   4   5
ATOM      5  C   UNL     1       9.964   4.256   1.141  1.00  0.00     0.053 C 
BRANCH   5   6
ATOM      6  C   UNL     1      10.021   3.482   2.421  1.00  0.00     0.041 C 
ATOM      7  O   UNL     1      10.030   4.085   3.526  1.00  0.00    -0.550 OA
ATOM      8  O   UNL     1      10.011   2.093   2.394  1.00  0.00    -0.550 OA
ENDBRANCH   5   6
ENDBRANCH   4   5
ENDBRANCH   3   4
ENDBRANCH   2   3
ENDBRANCH   1   2
BRANCH   1   9
ATOM      9  C   UNL     1       6.584   6.068   3.567  1.00  0.00     0.000 C 
BRANCH   9  10
ATOM     10  C   UNL     1       6.250   7.486   4.056  1.00  0.00    -0.000 C 
BRANCH  10  11
ATOM     11  C   UNL     1       7.396   8.117   4.866  1.00  0.00    -0.000 C 
BRANCH  11  12
ATOM     12  C   UNL     1       8.417   7.066   5.348  1.00  0.00    -0.000 C 
BRANCH  12  13
ATOM     13  C   UNL     1       9.869   7.400   4.971  1.00  0.00    -0.003 C 
ATOM     14  C   UNL     1      10.050   8.842   4.500  1.00  0.00     0.004 C 
ENDBRANCH  12  13
ENDBRANCH  11  12
ENDBRANCH  10  11
ENDBRANCH   9  10
ENDBRANCH   1   9
TORSDOF 10
ENDMDL
MODEL 5
REMARK VINA RESULT:    -2.796     21.778     23.324
REMARK INTER + INTRA:          -5.522
REMARK INTER:                  -5.238
REMARK INTRA:                  -0.284
REMARK UNBOUND:                -1.091
REMARK SMILES CCCCCCCCCCCC(=O)[O-]
REMARK SMILES IDX 7 1 8 2 9 3 10 4 11 5 12 6 13 7 14 8 6 9 5 10 4 11 3 12 2 13
REMARK SMILES IDX 1 14
REMARK H PARENT
REMARK Flexibility Score: inf
ROOT
ATOM      1  C   UNL     1       8.796   5.127   1.115  1.00  0.00     0.000 C 
ENDROOT
BRANCH   1   2
ATOM      2  C   UNL     1       9.548   6.425   0.770  1.00  0.00     0.000 C 
BRANCH   2   3
ATOM      3  C   UNL     1       9.667   7.442   1.923  1.00  0.00     0.000 C 
BRANCH   3   4
ATOM      4  C   UNL     1       9.675   6.830   3.335  1.00  0.00     0.006 C 
BRANCH   4   5
ATOM      5  C   UNL     1       8.987   7.723   4.375  1.00  0.00     0.053 C 
BRANCH   5   6
ATOM      6  C   UNL     1       7.547   7.342   4.519  1.00  0.00     0.041 C 
ATOM      7  O   UNL     1       6.714   8.171   4.971  1.00  0.00    -0.550 OA
ATOM      8  O   UNL     1       7.115   6.087   4.106  1.00  0.00    -0.550 OA
ENDBRANCH   5   6
ENDBRANCH   4   5
ENDBRANCH   3   4
ENDBRANCH   2   3
ENDBRANCH   1   2
BRANCH   1   9
ATOM      9  C   UNL     1       9.739   3.929   1.324  1.00  0.00     0.000 C 
BRANCH   9  10
ATOM     10  C   UNL     1      10.124   3.741   2.799  1.00  0.00    -0.000 C 
BRANCH  10  11
ATOM     11  C   UNL     1      10.031   2.274   3.252  1.00  0.00    -0.000 C 
BRANCH  11  12
ATOM     12  C   UNL     1      10.125   2.130   4.785  1.00  0.00    -0.000 C 
BRANCH  12  13
ATOM     13  C   UNL     1       9.800   0.714   5.291  1.00  0.00    -0.003 C 
ATOM     14  C   UNL     1       8.309   0.389   5.249  1.00  0.00     0.004 C 
ENDBRANCH  12  13
ENDBRANCH  11  12
ENDBRANCH  10  11
ENDBRANCH   9  10
ENDBRANCH   1   9
TORSDOF 10
ENDMDL
MODEL 6
REMARK VINA RESULT:    -2.665      2.722      5.487
REMARK INTER + INTRA:          -5.314
REMARK INTER:                  -4.181
REMARK INTRA:                  -1.133
REMARK UNBOUND:                -1.091
REMARK SMILES CCCCCCCCCCCC(=O)[O-]
REMARK SMILES IDX 7 1 8 2 9 3 10 4 11 5 12 6 13 7 14 8 6 9 5 10 4 11 3 12 2 13
REMARK SMILES IDX 1 14
REMARK H PARENT
REMARK Flexibility Score: inf
ROOT
ATOM      1  C   UNL     1      -6.705  -9.520  -7.078  1.00  0.00     0.000 C 
ENDROOT
BRANCH   1   2
ATOM      2  C   UNL     1      -7.476  -9.551  -8.410  1.00  0.00     0.000 C 
BRANCH   2   3
ATOM      3  C   UNL     1      -8.547  -8.454  -8.575  1.00  0.00     0.000 C 
BRANCH   3   4
ATOM      4  C   UNL     1      -8.558  -7.381  -7.472  1.00  0.00     0.006 C 
BRANCH   4   5
ATOM      5  C   UNL     1      -8.489  -5.953  -8.030  1.00  0.00     0.053 C 
BRANCH   5   6
ATOM      6  C   UNL     1      -8.490  -4.956  -6.914  1.00  0.00     0.041 C 
ATOM      7  O   UNL     1      -7.493  -4.859  -6.151  1.00  0.00    -0.550 OA
ATOM      8  O   UNL     1      -9.570  -4.098  -6.749  1.00  0.00    -0.550 OA
ENDBRANCH   5   6
ENDBRANCH   4   5
ENDBRANCH   3   4
ENDBRANCH   2   3
ENDBRANCH   1   2
BRANCH   1   9
ATOM      9  C   UNL     1      -5.290 -10.114  -7.194  1.00  0.00     0.000 C 
BRANCH   9  10
ATOM     10  C   UNL     1      -4.231  -9.042  -7.498  1.00  0.00    -0.000 C 
BRANCH  10  11
ATOM     11  C   UNL     1      -3.728  -9.105  -8.951  1.00  0.00    -0.000 C 
BRANCH  11  12
ATOM     12  C   UNL     1      -4.450  -8.091  -9.863  1.00  0.00    -0.000 C 
BRANCH  12  13
ATOM     13  C   UNL     1      -4.988  -6.862  -9.111  1.00  0.00    -0.003 C 
ATOM     14  C   UNL     1      -4.384  -5.548  -9.601  1.00  0.00     0.004 C 
ENDBRANCH  12  13
ENDBRANCH  11  12
ENDBRANCH  10  11
ENDBRANCH   9  10
ENDBRANCH   1   9
TORSDOF 10
ENDMDL
MODEL 7
REMARK VINA RESULT:    -2.559      2.742      5.385
REMARK INTER + INTRA:          -5.147
REMARK INTER:                  -3.956
REMARK INTRA:                  -1.191
REMARK UNBOUND:                -1.091
REMARK SMILES CCCCCCCCCCCC(=O)[O-]
REMARK SMILES IDX 7 1 8 2 9 3 10 4 11 5 12 6 13 7 14 8 6 9 5 10 4 11 3 12 2 13
REMARK SMILES IDX 1 14
REMARK H PARENT
REMARK Flexibility Score: inf
ROOT
ATOM      1  C   UNL     1      -7.688 -10.092  -8.436  1.00  0.00     0.000 C 
ENDROOT
BRANCH   1   2
ATOM      2  C   UNL     1      -8.742  -9.087  -7.938  1.00  0.00     0.000 C 
BRANCH   2   3
ATOM      3  C   UNL     1      -9.183  -8.031  -8.972  1.00  0.00     0.000 C 
BRANCH   3   4
ATOM      4  C   UNL     1      -8.893  -6.571  -8.578  1.00  0.00     0.006 C 
BRANCH   4   5
ATOM      5  C   UNL     1      -7.957  -6.456  -7.367  1.00  0.00     0.053 C 
BRANCH   5   6
ATOM      6  C   UNL     1      -8.148  -5.139  -6.683  1.00  0.00     0.041 C 
ATOM      7  O   UNL     1      -7.152  -4.483  -6.282  1.00  0.00    -0.550 OA
ATOM      8  O   UNL     1      -9.426  -4.613  -6.533  1.00  0.00    -0.550 OA
ENDBRANCH   5   6
ENDBRANCH   4   5
ENDBRANCH   3   4
ENDBRANCH   2   3
ENDBRANCH   1   2
BRANCH   1   9
ATOM      9  C   UNL     1      -7.190  -9.779  -9.857  1.00  0.00     0.000 C 
BRANCH   9  10
ATOM     10  C   UNL     1      -5.681  -9.491  -9.896  1.00  0.00    -0.000 C 
BRANCH  10  11
ATOM     11  C   UNL     1      -5.350  -8.027  -9.557  1.00  0.00    -0.000 C 
BRANCH  11  12
ATOM     12  C   UNL     1      -4.215  -7.912  -8.519  1.00  0.00    -0.000 C 
BRANCH  12  13
ATOM     13  C   UNL     1      -4.225  -9.036  -7.469  1.00  0.00    -0.003 C 
ATOM     14  C   UNL     1      -2.975  -9.049  -6.592  1.00  0.00     0.004 C 
ENDBRANCH  12  13
ENDBRANCH  11  12
ENDBRANCH  10  11
ENDBRANCH   9  10
ENDBRANCH   1   9
TORSDOF 10
ENDMDL
MODEL 8
REMARK VINA RESULT:    -2.541     22.009     23.395
REMARK INTER + INTRA:          -5.117
REMARK INTER:                  -4.349
REMARK INTRA:                  -0.768
REMARK UNBOUND:                -1.091
REMARK SMILES CCCCCCCCCCCC(=O)[O-]
REMARK SMILES IDX 7 1 8 2 9 3 10 4 11 5 12 6 13 7 14 8 6 9 5 10 4 11 3 12 2 13
REMARK SMILES IDX 1 14
REMARK H PARENT
REMARK Flexibility Score: inf
ROOT
ATOM      1  C   UNL     1       7.691   5.660   2.792  1.00  0.00     0.000 C 
ENDROOT
BRANCH   1   2
ATOM      2  C   UNL     1       8.879   5.645   1.814  1.00  0.00     0.000 C 
BRANCH   2   3
ATOM      3  C   UNL     1      10.124   4.878   2.304  1.00  0.00     0.000 C 
BRANCH   3   4
ATOM      4  C   UNL     1       9.970   3.347   2.356  1.00  0.00     0.006 C 
BRANCH   4   5
ATOM      5  C   UNL     1      10.118   2.782   3.774  1.00  0.00     0.053 C 
BRANCH   5   6
ATOM      6  C   UNL     1       9.678   1.353   3.815  1.00  0.00     0.041 C 
ATOM      7  O   UNL     1       9.586   0.687   2.750  1.00  0.00    -0.550 OA
ATOM      8  O   UNL     1       9.418   0.740   5.035  1.00  0.00    -0.550 OA
ENDBRANCH   5   6
ENDBRANCH   4   5
ENDBRANCH   3   4
ENDBRANCH   2   3
ENDBRANCH   1   2
BRANCH   1   9
ATOM      9  C   UNL     1       7.499   7.025   3.475  1.00  0.00     0.000 C 
BRANCH   9  10
ATOM     10  C   UNL     1       7.731   6.956   4.992  1.00  0.00    -0.000 C 
BRANCH  10  11
ATOM     11  C   UNL     1       9.224   6.898   5.360  1.00  0.00    -0.000 C 
BRANCH  11  12
ATOM     12  C   UNL     1      10.076   7.843   4.488  1.00  0.00    -0.000 C 
BRANCH  12  13
ATOM     13  C   UNL     1       9.635   9.314   4.564  1.00  0.00    -0.003 C 
ATOM     14  C   UNL     1      10.015  10.119   3.322  1.00  0.00     0.004 C 
ENDBRANCH  12  13
ENDBRANCH  11  12
ENDBRANCH  10  11
ENDBRANCH   9  10
ENDBRANCH   1   9
TORSDOF 10
ENDMDL
MODEL 9
REMARK VINA RESULT:    -2.308      1.449      2.264
REMARK INTER + INTRA:          -4.749
REMARK INTER:                  -3.488
REMARK INTRA:                  -1.260
REMARK UNBOUND:                -1.091
REMARK SMILES CCCCCCCCCCCC(=O)[O-]
REMARK SMILES IDX 7 1 8 2 9 3 10 4 11 5 12 6 13 7 14 8 6 9 5 10 4 11 3 12 2 13
REMARK SMILES IDX 1 14
REMARK H PARENT
REMARK Flexibility Score: inf
ROOT
ATOM      1  C   UNL     1      -7.056  -6.098  -9.160  1.00  0.00     0.000 C 
ENDROOT
BRANCH   1   2
ATOM      2  C   UNL     1      -5.889  -6.957  -9.678  1.00  0.00     0.000 C 
BRANCH   2   3
ATOM      3  C   UNL     1      -4.850  -7.365  -8.613  1.00  0.00     0.000 C 
BRANCH   3   4
ATOM      4  C   UNL     1      -4.031  -8.624  -8.948  1.00  0.00     0.006 C 
BRANCH   4   5
ATOM      5  C   UNL     1      -4.444  -9.842  -8.111  1.00  0.00     0.053 C 
BRANCH   5   6
ATOM      6  C   UNL     1      -3.831  -9.771  -6.748  1.00  0.00     0.041 C 
ATOM      7  O   UNL     1      -2.654  -9.346  -6.604  1.00  0.00    -0.550 OA
ATOM      8  O   UNL     1      -4.577 -10.125  -5.631  1.00  0.00    -0.550 OA
ENDBRANCH   5   6
ENDBRANCH   4   5
ENDBRANCH   3   4
ENDBRANCH   2   3
ENDBRANCH   1   2
BRANCH   1   9
ATOM      9  C   UNL     1      -8.350  -6.303  -9.966  1.00  0.00     0.000 C 
BRANCH   9  10
ATOM     10  C   UNL     1      -9.607  -6.193  -9.089  1.00  0.00    -0.000 C 
BRANCH  10  11
ATOM     11  C   UNL     1      -9.588  -7.173  -7.903  1.00  0.00    -0.000 C 
BRANCH  11  12
ATOM     12  C   UNL     1      -9.702  -8.643  -8.359  1.00  0.00    -0.000 C 
BRANCH  12  13
ATOM     13  C   UNL     1      -8.495  -9.506  -7.959  1.00  0.00    -0.003 C 
ATOM     14  C   UNL     1      -7.713  -8.935  -6.778  1.00  0.00     0.004 C 
ENDBRANCH  12  13
ENDBRANCH  11  12
ENDBRANCH  10  11
ENDBRANCH   9  10
ENDBRANCH   1   9
TORSDOF 10
ENDMDL
