MODEL 1
REMARK VINA RESULT:     1.982      0.000      0.000
REMARK INTER + INTRA:           2.637
REMARK INTER:                   3.604
REMARK INTRA:                  -0.967
REMARK UNBOUND:                -0.967
REMARK SMILES CCCCCCCCCCCCCCCC(=O)[O-]
REMARK SMILES IDX 9 1 10 2 11 3 12 4 13 5 14 6 15 7 16 8 17 9 18 10 8 11 7 12
REMARK SMILES IDX 6 13 5 14 4 15 3 16 2 17 1 18
REMARK H PARENT
REMARK Flexibility Score: inf
ROOT
ATOM      1  C   UNL     1     -37.290  21.036   8.299  1.00  0.00     0.000 C 
ENDROOT
BRANCH   1   2
ATOM      2  C   UNL     1     -35.992  20.330   8.738  1.00  0.00     0.000 C 
BRANCH   2   3
ATOM      3  C   UNL     1     -34.750  21.241   8.827  1.00  0.00     0.000 C 
BRANCH   3   4
ATOM      4  C   UNL     1     -34.467  22.076   7.564  1.00  0.00     0.000 C 
BRANCH   4   5
ATOM      5  C   UNL     1     -32.975  22.308   7.254  1.00  0.00     0.000 C 
BRANCH   5   6
ATOM      6  C   UNL     1     -32.694  23.128   5.981  1.00  0.00     0.006 C 
BRANCH   6   7
ATOM      7  C   UNL     1     -31.280  23.719   5.956  1.00  0.00     0.053 C 
BRANCH   7   8
ATOM      8  C   UNL     1     -31.313  25.166   6.337  1.00  0.00     0.041 C 
ATOM      9  O   UNL     1     -30.934  26.046   5.520  1.00  0.00    -0.550 OA
ATOM     10  O   UNL     1     -31.808  25.547   7.578  1.00  0.00    -0.550 OA
ENDBRANCH   7   8
ENDBRANCH   6   7
ENDBRANCH   5   6
ENDBRANCH   4   5
ENDBRANCH   3   4
ENDBRANCH   2   3
ENDBRANCH   1   2
BRANCH   1  11
ATOM     11  C   UNL     1     -38.098  20.310   7.208  1.00  0.00     0.000 C 
BRANCH  11  12
ATOM     12  C   UNL     1     -37.712  20.749   5.785  1.00  0.00    -0.000 C 
BRANCH  12  13
ATOM     13  C   UNL     1     -38.102  22.206   5.478  1.00  0.00    -0.000 C 
BRANCH  13  14
ATOM     14  C   UNL     1     -37.050  23.023   4.705  1.00  0.00    -0.000 C 
BRANCH  14  15
ATOM     15  C   UNL     1     -37.671  24.108   3.809  1.00  0.00    -0.000 C 
BRANCH  15  16
ATOM     16  C   UNL     1     -38.077  25.363   4.599  1.00  0.00    -0.000 C 
BRANCH  16  17
ATOM     17  C   UNL     1     -38.119  26.625   3.724  1.00  0.00    -0.003 C 
ATOM     18  C   UNL     1     -37.406  27.789   4.406  1.00  0.00     0.004 C 
ENDBRANCH  16  17
ENDBRANCH  15  16
ENDBRANCH  14  15
ENDBRANCH  13  14
ENDBRANCH  12  13
ENDBRANCH  11  12
ENDBRANCH   1  11
TORSDOF 14
ENDMDL
MODEL 2
REMARK VINA RESULT:     2.802      1.281      1.763
REMARK INTER + INTRA:           4.128
REMARK INTER:                   5.672
REMARK INTRA:                  -1.544
REMARK UNBOUND:                -0.967
REMARK SMILES CCCCCCCCCCCCCCCC(=O)[O-]
REMARK SMILES IDX 9 1 10 2 11 3 12 4 13 5 14 6 15 7 16 8 17 9 18 10 8 11 7 12
REMARK SMILES IDX 6 13 5 14 4 15 3 16 2 17 1 18
REMARK H PARENT
REMARK Flexibility Score: inf
ROOT
ATOM      1  C   UNL     1     -36.709  20.025   7.354  1.00  0.00     0.000 C 
ENDROOT
BRANCH   1   2
ATOM      2  C   UNL     1     -36.402  20.775   8.666  1.00  0.00     0.000 C 
BRANCH   2   3
ATOM      3  C   UNL     1     -34.996  21.403   8.746  1.00  0.00     0.000 C 
BRANCH   3   4
ATOM      4  C   UNL     1     -34.297  21.603   7.387  1.00  0.00     0.000 C 
BRANCH   4   5
ATOM      5  C   UNL     1     -32.913  22.279   7.456  1.00  0.00     0.000 C 
BRANCH   5   6
ATOM      6  C   UNL     1     -32.640  23.317   6.353  1.00  0.00     0.006 C 
BRANCH   6   7
ATOM      7  C   UNL     1     -31.929  24.570   6.879  1.00  0.00     0.053 C 
BRANCH   7   8
ATOM      8  C   UNL     1     -31.194  25.257   5.770  1.00  0.00     0.041 C 
ATOM      9  O   UNL     1     -31.023  26.503   5.800  1.00  0.00    -0.550 OA
ATOM     10  O   UNL     1     -30.654  24.513   4.728  1.00  0.00    -0.550 OA
ENDBRANCH   7   8
ENDBRANCH   6   7
ENDBRANCH   5   6
ENDBRANCH   4   5
ENDBRANCH   3   4
ENDBRANCH   2   3
ENDBRANCH   1   2
BRANCH   1  11
ATOM     11  C   UNL     1     -38.123  20.243   6.787  1.00  0.00     0.000 C 
BRANCH  11  12
ATOM     12  C   UNL     1     -38.125  21.033   5.468  1.00  0.00    -0.000 C 
BRANCH  12  13
ATOM     13  C   UNL     1     -36.710  21.411   4.991  1.00  0.00    -0.000 C 
BRANCH  13  14
ATOM     14  C   UNL     1     -36.600  22.759   4.254  1.00  0.00    -0.000 C 
BRANCH  14  15
ATOM     15  C   UNL     1     -37.940  23.510   4.172  1.00  0.00    -0.000 C 
BRANCH  15  16
ATOM     16  C   UNL     1     -38.021  24.680   5.166  1.00  0.00    -0.000 C 
BRANCH  16  17
ATOM     17  C   UNL     1     -38.125  24.210   6.625  1.00  0.00    -0.003 C 
ATOM     18  C   UNL     1     -36.826  24.480   7.380  1.00  0.00     0.004 C 
ENDBRANCH  16  17
ENDBRANCH  15  16
ENDBRANCH  14  15
ENDBRANCH  13  14
ENDBRANCH  12  13
ENDBRANCH  11  12
ENDBRANCH   1  11
TORSDOF 14
ENDMDL
MODEL 3
REMARK VINA RESULT:     2.890      2.609      5.420
REMARK INTER + INTRA:           4.289
REMARK INTER:                   3.481
REMARK INTRA:                   0.807
REMARK UNBOUND:                -0.967
REMARK SMILES CCCCCCCCCCCCCCCC(=O)[O-]
REMARK SMILES IDX 9 1 10 2 11 3 12 4 13 5 14 6 15 7 16 8 17 9 18 10 8 11 7 12
REMARK SMILES IDX 6 13 5 14 4 15 3 16 2 17 1 18
REMARK H PARENT
REMARK Flexibility Score: inf
ROOT
ATOM      1  C   UNL     1     -36.752  20.036   8.189  1.00  0.00     0.000 C 
ENDROOT
BRANCH   1   2
ATOM      2  C   UNL     1     -38.030  20.900   8.209  1.00  0.00     0.000 C 
BRANCH   2   3
ATOM      3  C   UNL     1     -38.123  21.954   7.087  1.00  0.00     0.000 C 
BRANCH   3   4
ATOM      4  C   UNL     1     -37.348  23.259   7.358  1.00  0.00     0.000 C 
BRANCH   4   5
ATOM      5  C   UNL     1     -37.978  24.530   6.755  1.00  0.00     0.000 C 
BRANCH   5   6
ATOM      6  C   UNL     1     -37.628  24.793   5.279  1.00  0.00     0.006 C 
BRANCH   6   7
ATOM      7  C   UNL     1     -38.124  23.684   4.344  1.00  0.00     0.053 C 
BRANCH   7   8
ATOM      8  C   UNL     1     -37.120  22.576   4.267  1.00  0.00     0.041 C 
ATOM      9  O   UNL     1     -35.918  22.829   3.992  1.00  0.00    -0.550 OA
ATOM     10  O   UNL     1     -37.502  21.271   4.549  1.00  0.00    -0.550 OA
ENDBRANCH   7   8
ENDBRANCH   6   7
ENDBRANCH   5   6
ENDBRANCH   4   5
ENDBRANCH   3   4
ENDBRANCH   2   3
ENDBRANCH   1   2
BRANCH   1  11
ATOM     11  C   UNL     1     -35.455  20.771   8.571  1.00  0.00     0.000 C 
BRANCH  11  12
ATOM     12  C   UNL     1     -34.390  20.722   7.463  1.00  0.00    -0.000 C 
BRANCH  12  13
ATOM     13  C   UNL     1     -34.219  22.067   6.734  1.00  0.00    -0.000 C 
BRANCH  13  14
ATOM     14  C   UNL     1     -33.088  22.967   7.265  1.00  0.00    -0.000 C 
BRANCH  14  15
ATOM     15  C   UNL     1     -32.010  23.265   6.208  1.00  0.00    -0.000 C 
BRANCH  15  16
ATOM     16  C   UNL     1     -31.062  24.397   6.636  1.00  0.00    -0.000 C 
BRANCH  16  17
ATOM     17  C   UNL     1     -31.532  25.777   6.154  1.00  0.00    -0.003 C 
ATOM     18  C   UNL     1     -30.997  26.080   4.757  1.00  0.00     0.004 C 
ENDBRANCH  16  17
ENDBRANCH  15  16
ENDBRANCH  14  15
ENDBRANCH  13  14
ENDBRANCH  12  13
ENDBRANCH  11  12
ENDBRANCH   1  11
TORSDOF 14
ENDMDL
MODEL 4
REMARK VINA RESULT:     3.066      2.516      5.510
REMARK INTER + INTRA:           4.608
REMARK INTER:                   4.110
REMARK INTRA:                   0.498
REMARK UNBOUND:                -0.967
REMARK SMILES CCCCCCCCCCCCCCCC(=O)[O-]
REMARK SMILES IDX 9 1 10 2 11 3 12 4 13 5 14 6 15 7 16 8 17 9 18 10 8 11 7 12
REMARK SMILES IDX 6 13 5 14 4 15 3 16 2 17 1 18
REMARK H PARENT
REMARK Flexibility Score: inf
ROOT
ATOM      1  C   UNL     1     -36.406  20.006   8.312  1.00  0.00     0.000 C 
ENDROOT
BRANCH   1   2
ATOM      2  C   UNL     1     -37.763  20.732   8.206  1.00  0.00     0.000 C 
BRANCH   2   3
ATOM      3  C   UNL     1     -38.101  21.284   6.806  1.00  0.00     0.000 C 
BRANCH   3   4
ATOM      4  C   UNL     1     -37.150  20.827   5.682  1.00  0.00     0.000 C 
BRANCH   4   5
ATOM      5  C   UNL     1     -37.102  21.752   4.450  1.00  0.00     0.000 C 
BRANCH   5   6
ATOM      6  C   UNL     1     -38.119  22.908   4.464  1.00  0.00     0.006 C 
BRANCH   6   7
ATOM      7  C   UNL     1     -37.894  23.883   5.626  1.00  0.00     0.053 C 
BRANCH   7   8
ATOM      8  C   UNL     1     -38.036  25.297   5.156  1.00  0.00     0.041 C 
ATOM      9  O   UNL     1     -38.032  26.244   5.985  1.00  0.00    -0.550 OA
ATOM     10  O   UNL     1     -38.121  25.572   3.796  1.00  0.00    -0.550 OA
ENDBRANCH   7   8
ENDBRANCH   6   7
ENDBRANCH   5   6
ENDBRANCH   4   5
ENDBRANCH   3   4
ENDBRANCH   2   3
ENDBRANCH   1   2
BRANCH   1  11
ATOM     11  C   UNL     1     -35.187  20.920   8.528  1.00  0.00     0.000 C 
BRANCH  11  12
ATOM     12  C   UNL     1     -34.918  21.853   7.335  1.00  0.00    -0.000 C 
BRANCH  12  13
ATOM     13  C   UNL     1     -33.709  22.780   7.557  1.00  0.00    -0.000 C 
BRANCH  13  14
ATOM     14  C   UNL     1     -32.456  22.442   6.729  1.00  0.00    -0.000 C 
BRANCH  14  15
ATOM     15  C   UNL     1     -32.060  23.563   5.753  1.00  0.00    -0.000 C 
BRANCH  15  16
ATOM     16  C   UNL     1     -30.853  24.377   6.250  1.00  0.00    -0.000 C 
BRANCH  16  17
ATOM     17  C   UNL     1     -31.043  25.890   6.063  1.00  0.00    -0.003 C 
ATOM     18  C   UNL     1     -31.095  26.256   4.582  1.00  0.00     0.004 C 
ENDBRANCH  16  17
ENDBRANCH  15  16
ENDBRANCH  14  15
ENDBRANCH  13  14
ENDBRANCH  12  13
ENDBRANCH  11  12
ENDBRANCH   1  11
TORSDOF 14
ENDMDL
MODEL 5
REMARK VINA RESULT:     4.022      2.984      7.116
REMARK INTER + INTRA:           6.347
REMARK INTER:                   5.848
REMARK INTRA:                   0.499
REMARK UNBOUND:                -0.967
REMARK SMILES CCCCCCCCCCCCCCCC(=O)[O-]
REMARK SMILES IDX 9 1 10 2 11 3 12 4 13 5 14 6 15 7 16 8 17 9 18 10 8 11 7 12
REMARK SMILES IDX 6 13 5 14 4 15 3 16 2 17 1 18
REMARK H PARENT
REMARK Flexibility Score: inf
ROOT
ATOM      1  C   UNL     1     -34.010  21.608   7.424  1.00  0.00     0.000 C 
ENDROOT
BRANCH   1   2
ATOM      2  C   UNL     1     -35.486  21.601   7.868  1.00  0.00     0.000 C 
BRANCH   2   3
ATOM      3  C   UNL     1     -36.117  20.201   8.016  1.00  0.00     0.000 C 
BRANCH   3   4
ATOM      4  C   UNL     1     -37.631  20.139   7.734  1.00  0.00     0.000 C 
BRANCH   4   5
ATOM      5  C   UNL     1     -38.125  21.072   6.611  1.00  0.00     0.000 C 
BRANCH   5   6
ATOM      6  C   UNL     1     -37.111  21.323   5.479  1.00  0.00     0.006 C 
BRANCH   6   7
ATOM      7  C   UNL     1     -37.471  22.538   4.617  1.00  0.00     0.053 C 
BRANCH   7   8
ATOM      8  C   UNL     1     -37.613  23.760   5.470  1.00  0.00     0.041 C 
ATOM      9  O   UNL     1     -37.246  23.738   6.674  1.00  0.00    -0.550 OA
ATOM     10  O   UNL     1     -38.104  24.938   4.921  1.00  0.00    -0.550 OA
ENDBRANCH   7   8
ENDBRANCH   6   7
ENDBRANCH   5   6
ENDBRANCH   4   5
ENDBRANCH   3   4
ENDBRANCH   2   3
ENDBRANCH   1   2
BRANCH   1  11
ATOM     11  C   UNL     1     -33.631  22.708   6.415  1.00  0.00     0.000 C 
BRANCH  11  12
ATOM     12  C   UNL     1     -32.716  23.786   7.019  1.00  0.00    -0.000 C 
BRANCH  12  13
ATOM     13  C   UNL     1     -31.549  24.173   6.092  1.00  0.00    -0.000 C 
BRANCH  13  14
ATOM     14  C   UNL     1     -30.257  24.612   6.805  1.00  0.00    -0.000 C 
BRANCH  14  15
ATOM     15  C   UNL     1     -29.113  23.595   6.653  1.00  0.00    -0.000 C 
BRANCH  15  16
ATOM     16  C   UNL     1     -28.199  23.547   7.890  1.00  0.00    -0.000 C 
BRANCH  16  17
ATOM     17  C   UNL     1     -26.709  23.484   7.523  1.00  0.00    -0.003 C 
ATOM     18  C   UNL     1     -26.217  24.829   6.996  1.00  0.00     0.004 C 
ENDBRANCH  16  17
ENDBRANCH  15  16
ENDBRANCH  14  15
ENDBRANCH  13  14
ENDBRANCH  12  13
ENDBRANCH  11  12
ENDBRANCH   1  11
TORSDOF 14
ENDMDL
MODEL 6
REMARK VINA RESULT:     4.484      2.470      3.809
REMARK INTER + INTRA:           7.187
REMARK INTER:                   8.155
REMARK INTRA:                  -0.968
REMARK UNBOUND:                -0.967
REMARK SMILES CCCCCCCCCCCCCCCC(=O)[O-]
REMARK SMILES IDX 9 1 10 2 11 3 12 4 13 5 14 6 15 7 16 8 17 9 18 10 8 11 7 12
REMARK SMILES IDX 6 13 5 14 4 15 3 16 2 17 1 18
REMARK H PARENT
REMARK Flexibility Score: inf
ROOT
ATOM      1  C   UNL     1     -34.354  21.616   7.284  1.00  0.00     0.000 C 
ENDROOT
BRANCH   1   2
ATOM      2  C   UNL     1     -33.935  23.017   6.796  1.00  0.00     0.000 C 
BRANCH   2   3
ATOM      3  C   UNL     1     -32.503  23.110   6.230  1.00  0.00     0.000 C 
BRANCH   3   4
ATOM      4  C   UNL     1     -31.648  24.252   6.815  1.00  0.00     0.000 C 
BRANCH   4   5
ATOM      5  C   UNL     1     -30.133  24.129   6.562  1.00  0.00     0.000 C 
BRANCH   5   6
ATOM      6  C   UNL     1     -29.306  23.670   7.777  1.00  0.00     0.006 C 
BRANCH   6   7
ATOM      7  C   UNL     1     -27.913  23.158   7.389  1.00  0.00     0.053 C 
BRANCH   7   8
ATOM      8  C   UNL     1     -26.872  24.185   7.707  1.00  0.00     0.041 C 
ATOM      9  O   UNL     1     -26.823  24.704   8.852  1.00  0.00    -0.550 OA
ATOM     10  O   UNL     1     -25.924  24.532   6.753  1.00  0.00    -0.550 OA
ENDBRANCH   7   8
ENDBRANCH   6   7
ENDBRANCH   5   6
ENDBRANCH   4   5
ENDBRANCH   3   4
ENDBRANCH   2   3
ENDBRANCH   1   2
BRANCH   1  11
ATOM     11  C   UNL     1     -35.551  21.587   8.251  1.00  0.00     0.000 C 
BRANCH  11  12
ATOM     12  C   UNL     1     -36.215  20.203   8.341  1.00  0.00    -0.000 C 
BRANCH  12  13
ATOM     13  C   UNL     1     -37.646  20.185   7.770  1.00  0.00    -0.000 C 
BRANCH  13  14
ATOM     14  C   UNL     1     -37.752  20.385   6.247  1.00  0.00    -0.000 C 
BRANCH  14  15
ATOM     15  C   UNL     1     -38.101  21.831   5.855  1.00  0.00    -0.000 C 
BRANCH  15  16
ATOM     16  C   UNL     1     -37.184  22.379   4.748  1.00  0.00    -0.000 C 
BRANCH  16  17
ATOM     17  C   UNL     1     -37.430  23.867   4.459  1.00  0.00    -0.003 C 
ATOM     18  C   UNL     1     -38.125  24.546   5.636  1.00  0.00     0.004 C 
ENDBRANCH  16  17
ENDBRANCH  15  16
ENDBRANCH  14  15
ENDBRANCH  13  14
ENDBRANCH  12  13
ENDBRANCH  11  12
ENDBRANCH   1  11
TORSDOF 14
ENDMDL
