MODEL 1
REMARK VINA RESULT:    -4.848      0.000      0.000
REMARK INTER + INTRA:          -9.205
REMARK INTER:                  -8.248
REMARK INTRA:                  -0.956
REMARK UNBOUND:                -0.956
REMARK SMILES CCCCCCCCCCCCCC(=O)[O-]
REMARK SMILES IDX 8 1 9 2 10 3 11 4 12 5 13 6 14 7 15 8 16 9 7 10 6 11 5 12
REMARK SMILES IDX 4 13 3 14 2 15 1 16
REMARK H PARENT
REMARK Flexibility Score: inf
ROOT
ATOM      1  C   UNL     1     -15.972  36.029  16.139  1.00  0.00     0.000 C 
ENDROOT
BRANCH   1   2
ATOM      2  C   UNL     1     -16.594  37.381  16.511  1.00  0.00     0.000 C 
BRANCH   2   3
ATOM      3  C   UNL     1     -16.772  37.506  18.032  1.00  0.00     0.000 C 
BRANCH   3   4
ATOM      4  C   UNL     1     -16.994  38.969  18.475  1.00  0.00     0.000 C 
BRANCH   4   5
ATOM      5  C   UNL     1     -18.148  39.141  19.475  1.00  0.00     0.006 C 
BRANCH   5   6
ATOM      6  C   UNL     1     -18.598  40.600  19.621  1.00  0.00     0.053 C 
BRANCH   6   7
ATOM      7  C   UNL     1     -17.978  41.220  20.833  1.00  0.00     0.041 C 
ATOM      8  O   UNL     1     -17.917  42.472  20.944  1.00  0.00    -0.550 OA
ATOM      9  O   UNL     1     -17.421  40.414  21.819  1.00  0.00    -0.550 OA
ENDBRANCH   6   7
ENDBRANCH   5   6
ENDBRANCH   4   5
ENDBRANCH   3   4
ENDBRANCH   2   3
ENDBRANCH   1   2
BRANCH   1  10
ATOM     10  C   UNL     1     -14.672  36.219  15.349  1.00  0.00     0.000 C 
BRANCH  10  11
ATOM     11  C   UNL     1     -14.812  37.352  14.325  1.00  0.00    -0.000 C 
BRANCH  11  12
ATOM     12  C   UNL     1     -14.720  36.811  12.890  1.00  0.00    -0.000 C 
BRANCH  12  13
ATOM     13  C   UNL     1     -16.091  36.718  12.194  1.00  0.00    -0.000 C 
BRANCH  13  14
ATOM     14  C   UNL     1     -16.709  35.309  12.164  1.00  0.00    -0.000 C 
BRANCH  14  15
ATOM     15  C   UNL     1     -17.788  35.105  13.238  1.00  0.00    -0.003 C 
ATOM     16  C   UNL     1     -17.931  33.629  13.599  1.00  0.00     0.004 C 
ENDBRANCH  14  15
ENDBRANCH  13  14
ENDBRANCH  12  13
ENDBRANCH  11  12
ENDBRANCH  10  11
ENDBRANCH   1  10
TORSDOF 12
ENDMDL
MODEL 2
REMARK VINA RESULT:    -4.797      4.255      8.531
REMARK INTER + INTRA:          -9.118
REMARK INTER:                  -8.449
REMARK INTRA:                  -0.669
REMARK UNBOUND:                -0.956
REMARK SMILES CCCCCCCCCCCCCC(=O)[O-]
REMARK SMILES IDX 8 1 9 2 10 3 11 4 12 5 13 6 14 7 15 8 16 9 7 10 6 11 5 12
REMARK SMILES IDX 4 13 3 14 2 15 1 16
REMARK H PARENT
REMARK Flexibility Score: inf
ROOT
ATOM      1  C   UNL     1     -16.944  37.535  18.187  1.00  0.00     0.000 C 
ENDROOT
BRANCH   1   2
ATOM      2  C   UNL     1     -16.632  37.431  16.689  1.00  0.00     0.000 C 
BRANCH   2   3
ATOM      3  C   UNL     1     -15.921  36.108  16.365  1.00  0.00     0.000 C 
BRANCH   3   4
ATOM      4  C   UNL     1     -15.187  36.158  15.007  1.00  0.00     0.000 C 
BRANCH   4   5
ATOM      5  C   UNL     1     -15.951  36.935  13.922  1.00  0.00     0.006 C 
BRANCH   5   6
ATOM      6  C   UNL     1     -15.280  36.855  12.546  1.00  0.00     0.053 C 
BRANCH   6   7
ATOM      7  C   UNL     1     -16.020  35.905  11.658  1.00  0.00     0.041 C 
ATOM      8  O   UNL     1     -15.671  35.758  10.458  1.00  0.00    -0.550 OA
ATOM      9  O   UNL     1     -17.126  35.219  12.143  1.00  0.00    -0.550 OA
ENDBRANCH   6   7
ENDBRANCH   5   6
ENDBRANCH   4   5
ENDBRANCH   3   4
ENDBRANCH   2   3
ENDBRANCH   1   2
BRANCH   1  10
ATOM     10  C   UNL     1     -17.085  39.000  18.619  1.00  0.00     0.000 C 
BRANCH  10  11
ATOM     11  C   UNL     1     -18.431  39.243  19.312  1.00  0.00    -0.000 C 
BRANCH  11  12
ATOM     12  C   UNL     1     -18.752  40.743  19.380  1.00  0.00    -0.000 C 
BRANCH  12  13
ATOM     13  C   UNL     1     -18.578  41.331  20.793  1.00  0.00    -0.000 C 
BRANCH  13  14
ATOM     14  C   UNL     1     -17.328  42.208  20.983  1.00  0.00    -0.000 C 
BRANCH  14  15
ATOM     15  C   UNL     1     -16.420  41.720  22.121  1.00  0.00    -0.003 C 
ATOM     16  C   UNL     1     -16.715  40.265  22.472  1.00  0.00     0.004 C 
ENDBRANCH  14  15
ENDBRANCH  13  14
ENDBRANCH  12  13
ENDBRANCH  11  12
ENDBRANCH  10  11
ENDBRANCH   1  10
TORSDOF 12
ENDMDL
MODEL 3
REMARK VINA RESULT:    -4.730      5.212      7.323
REMARK INTER + INTRA:          -9.005
REMARK INTER:                  -8.064
REMARK INTRA:                  -0.941
REMARK UNBOUND:                -0.956
REMARK SMILES CCCCCCCCCCCCCC(=O)[O-]
REMARK SMILES IDX 8 1 9 2 10 3 11 4 12 5 13 6 14 7 15 8 16 9 7 10 6 11 5 12
REMARK SMILES IDX 4 13 3 14 2 15 1 16
REMARK H PARENT
REMARK Flexibility Score: inf
ROOT
ATOM      1  C   UNL     1     -16.051  39.802  12.063  1.00  0.00     0.000 C 
ENDROOT
BRANCH   1   2
ATOM      2  C   UNL     1     -16.215  38.499  12.855  1.00  0.00     0.000 C 
BRANCH   2   3
ATOM      3  C   UNL     1     -17.661  38.329  13.345  1.00  0.00     0.000 C 
BRANCH   3   4
ATOM      4  C   UNL     1     -18.123  36.857  13.300  1.00  0.00     0.000 C 
BRANCH   4   5
ATOM      5  C   UNL     1     -16.963  35.848  13.288  1.00  0.00     0.006 C 
BRANCH   5   6
ATOM      6  C   UNL     1     -16.788  35.124  14.629  1.00  0.00     0.053 C 
BRANCH   6   7
ATOM      7  C   UNL     1     -15.762  35.819  15.467  1.00  0.00     0.041 C 
ATOM      8  O   UNL     1     -16.079  36.304  16.585  1.00  0.00    -0.550 OA
ATOM      9  O   UNL     1     -14.465  35.974  14.992  1.00  0.00    -0.550 OA
ENDBRANCH   6   7
ENDBRANCH   5   6
ENDBRANCH   4   5
ENDBRANCH   3   4
ENDBRANCH   2   3
ENDBRANCH   1   2
BRANCH   1  10
ATOM     10  C   UNL     1     -17.415  40.409  11.713  1.00  0.00     0.000 C 
BRANCH  10  11
ATOM     11  C   UNL     1     -17.425  40.949  10.278  1.00  0.00    -0.000 C 
BRANCH  11  12
ATOM     12  C   UNL     1     -15.995  41.205   9.777  1.00  0.00    -0.000 C 
BRANCH  12  13
ATOM     13  C   UNL     1     -15.803  40.832   8.295  1.00  0.00    -0.000 C 
BRANCH  13  14
ATOM     14  C   UNL     1     -16.387  41.841   7.290  1.00  0.00    -0.000 C 
BRANCH  14  15
ATOM     15  C   UNL     1     -15.923  43.282   7.549  1.00  0.00    -0.003 C 
ATOM     16  C   UNL     1     -17.084  44.157   8.013  1.00  0.00     0.004 C 
ENDBRANCH  14  15
ENDBRANCH  13  14
ENDBRANCH  12  13
ENDBRANCH  11  12
ENDBRANCH  10  11
ENDBRANCH   1  10
TORSDOF 12
ENDMDL
MODEL 4
REMARK VINA RESULT:    -4.684      6.235      8.633
REMARK INTER + INTRA:          -8.926
REMARK INTER:                  -7.908
REMARK INTRA:                  -1.018
REMARK UNBOUND:                -0.956
REMARK SMILES CCCCCCCCCCCCCC(=O)[O-]
REMARK SMILES IDX 8 1 9 2 10 3 11 4 12 5 13 6 14 7 15 8 16 9 7 10 6 11 5 12
REMARK SMILES IDX 4 13 3 14 2 15 1 16
REMARK H PARENT
REMARK Flexibility Score: inf
ROOT
ATOM      1  C   UNL     1     -16.048  39.859  12.014  1.00  0.00     0.000 C 
ENDROOT
BRANCH   1   2
ATOM      2  C   UNL     1     -17.387  40.516  11.655  1.00  0.00     0.000 C 
BRANCH   2   3
ATOM      3  C   UNL     1     -17.364  41.067  10.222  1.00  0.00     0.000 C 
BRANCH   3   4
ATOM      4  C   UNL     1     -16.346  40.327   9.328  1.00  0.00     0.000 C 
BRANCH   4   5
ATOM      5  C   UNL     1     -15.499  41.264   8.452  1.00  0.00     0.006 C 
BRANCH   5   6
ATOM      6  C   UNL     1     -16.322  41.979   7.373  1.00  0.00     0.053 C 
BRANCH   6   7
ATOM      7  C   UNL     1     -16.088  43.455   7.430  1.00  0.00     0.041 C 
ATOM      8  O   UNL     1     -14.961  43.930   7.132  1.00  0.00    -0.550 OA
ATOM      9  O   UNL     1     -17.100  44.304   7.860  1.00  0.00    -0.550 OA
ENDBRANCH   6   7
ENDBRANCH   5   6
ENDBRANCH   4   5
ENDBRANCH   3   4
ENDBRANCH   2   3
ENDBRANCH   1   2
BRANCH   1  10
ATOM     10  C   UNL     1     -16.262  38.594  12.854  1.00  0.00     0.000 C 
BRANCH  10  11
ATOM     11  C   UNL     1     -17.738  38.433  13.239  1.00  0.00    -0.000 C 
BRANCH  11  12
ATOM     12  C   UNL     1     -18.146  36.953  13.247  1.00  0.00    -0.000 C 
BRANCH  12  13
ATOM     13  C   UNL     1     -16.939  35.997  13.255  1.00  0.00    -0.000 C 
BRANCH  13  14
ATOM     14  C   UNL     1     -16.712  35.248  14.580  1.00  0.00    -0.000 C 
BRANCH  14  15
ATOM     15  C   UNL     1     -15.920  36.071  15.607  1.00  0.00    -0.003 C 
ATOM     16  C   UNL     1     -14.469  36.245  15.170  1.00  0.00     0.004 C 
ENDBRANCH  14  15
ENDBRANCH  13  14
ENDBRANCH  12  13
ENDBRANCH  11  12
ENDBRANCH  10  11
ENDBRANCH   1  10
TORSDOF 12
ENDMDL
MODEL 5
REMARK VINA RESULT:    -4.682      6.341      8.510
REMARK INTER + INTRA:          -8.923
REMARK INTER:                  -7.967
REMARK INTRA:                  -0.956
REMARK UNBOUND:                -0.956
REMARK SMILES CCCCCCCCCCCCCC(=O)[O-]
REMARK SMILES IDX 8 1 9 2 10 3 11 4 12 5 13 6 14 7 15 8 16 9 7 10 6 11 5 12
REMARK SMILES IDX 4 13 3 14 2 15 1 16
REMARK H PARENT
REMARK Flexibility Score: inf
ROOT
ATOM      1  C   UNL     1     -17.475  40.580  11.646  1.00  0.00     0.000 C 
ENDROOT
BRANCH   1   2
ATOM      2  C   UNL     1     -17.568  41.374  10.337  1.00  0.00     0.000 C 
BRANCH   2   3
ATOM      3  C   UNL     1     -16.480  40.933   9.346  1.00  0.00     0.000 C 
BRANCH   3   4
ATOM      4  C   UNL     1     -16.388  41.873   8.125  1.00  0.00     0.000 C 
BRANCH   4   5
ATOM      5  C   UNL     1     -17.165  43.188   8.300  1.00  0.00     0.006 C 
BRANCH   5   6
ATOM      6  C   UNL     1     -16.347  44.422   7.900  1.00  0.00     0.053 C 
BRANCH   6   7
ATOM      7  C   UNL     1     -15.689  45.024   9.101  1.00  0.00     0.041 C 
ATOM      8  O   UNL     1     -15.651  44.390  10.188  1.00  0.00    -0.550 OA
ATOM      9  O   UNL     1     -15.160  46.308   9.035  1.00  0.00    -0.550 OA
ENDBRANCH   6   7
ENDBRANCH   5   6
ENDBRANCH   4   5
ENDBRANCH   3   4
ENDBRANCH   2   3
ENDBRANCH   1   2
BRANCH   1  10
ATOM     10  C   UNL     1     -16.247  39.661  11.646  1.00  0.00     0.000 C 
BRANCH  10  11
ATOM     11  C   UNL     1     -16.308  38.661  12.808  1.00  0.00    -0.000 C 
BRANCH  11  12
ATOM     12  C   UNL     1     -17.754  38.219  13.078  1.00  0.00    -0.000 C 
BRANCH  12  13
ATOM     13  C   UNL     1     -17.893  36.696  13.255  1.00  0.00    -0.000 C 
BRANCH  13  14
ATOM     14  C   UNL     1     -16.610  35.891  12.986  1.00  0.00    -0.000 C 
BRANCH  14  15
ATOM     15  C   UNL     1     -16.656  35.113  11.663  1.00  0.00    -0.003 C 
ATOM     16  C   UNL     1     -15.822  35.805  10.590  1.00  0.00     0.004 C 
ENDBRANCH  14  15
ENDBRANCH  13  14
ENDBRANCH  12  13
ENDBRANCH  11  12
ENDBRANCH  10  11
ENDBRANCH   1  10
TORSDOF 12
ENDMDL
MODEL 6
REMARK VINA RESULT:    -4.675      5.707      8.123
REMARK INTER + INTRA:          -8.911
REMARK INTER:                  -8.033
REMARK INTRA:                  -0.877
REMARK UNBOUND:                -0.956
REMARK SMILES CCCCCCCCCCCCCC(=O)[O-]
REMARK SMILES IDX 8 1 9 2 10 3 11 4 12 5 13 6 14 7 15 8 16 9 7 10 6 11 5 12
REMARK SMILES IDX 4 13 3 14 2 15 1 16
REMARK H PARENT
REMARK Flexibility Score: inf
ROOT
ATOM      1  C   UNL     1     -15.491  40.336  12.117  1.00  0.00     0.000 C 
ENDROOT
BRANCH   1   2
ATOM      2  C   UNL     1     -16.009  38.928  12.435  1.00  0.00     0.000 C 
BRANCH   2   3
ATOM      3  C   UNL     1     -14.986  38.137  13.265  1.00  0.00     0.000 C 
BRANCH   3   4
ATOM      4  C   UNL     1     -14.886  36.664  12.816  1.00  0.00     0.000 C 
BRANCH   4   5
ATOM      5  C   UNL     1     -15.835  36.305  11.661  1.00  0.00     0.006 C 
BRANCH   5   6
ATOM      6  C   UNL     1     -16.817  35.184  12.022  1.00  0.00     0.053 C 
BRANCH   6   7
ATOM      7  C   UNL     1     -17.524  35.500  13.302  1.00  0.00     0.041 C 
ATOM      8  O   UNL     1     -18.347  36.452  13.352  1.00  0.00    -0.550 OA
ATOM      9  O   UNL     1     -17.238  34.777  14.452  1.00  0.00    -0.550 OA
ENDBRANCH   6   7
ENDBRANCH   5   6
ENDBRANCH   4   5
ENDBRANCH   3   4
ENDBRANCH   2   3
ENDBRANCH   1   2
BRANCH   1  10
ATOM     10  C   UNL     1     -16.620  41.234  11.597  1.00  0.00     0.000 C 
BRANCH  10  11
ATOM     11  C   UNL     1     -17.129  40.746  10.235  1.00  0.00    -0.000 C 
BRANCH  11  12
ATOM     12  C   UNL     1     -16.059  40.934   9.149  1.00  0.00    -0.000 C 
BRANCH  12  13
ATOM     13  C   UNL     1     -16.508  41.883   8.023  1.00  0.00    -0.000 C 
BRANCH  13  14
ATOM     14  C   UNL     1     -17.375  43.070   8.480  1.00  0.00    -0.000 C 
BRANCH  14  15
ATOM     15  C   UNL     1     -16.867  44.421   7.956  1.00  0.00    -0.003 C 
ATOM     16  C   UNL     1     -15.569  44.825   8.649  1.00  0.00     0.004 C 
ENDBRANCH  14  15
ENDBRANCH  13  14
ENDBRANCH  12  13
ENDBRANCH  11  12
ENDBRANCH  10  11
ENDBRANCH   1  10
TORSDOF 12
ENDMDL
MODEL 7
REMARK VINA RESULT:    -4.667      5.456      7.158
REMARK INTER + INTRA:          -8.897
REMARK INTER:                  -7.675
REMARK INTRA:                  -1.222
REMARK UNBOUND:                -0.956
REMARK SMILES CCCCCCCCCCCCCC(=O)[O-]
REMARK SMILES IDX 8 1 9 2 10 3 11 4 12 5 13 6 14 7 15 8 16 9 7 10 6 11 5 12
REMARK SMILES IDX 4 13 3 14 2 15 1 16
REMARK H PARENT
REMARK Flexibility Score: inf
ROOT
ATOM      1  C   UNL     1     -14.284  38.127  13.522  1.00  0.00     0.000 C 
ENDROOT
BRANCH   1   2
ATOM      2  C   UNL     1     -15.635  38.657  13.028  1.00  0.00     0.000 C 
BRANCH   2   3
ATOM      3  C   UNL     1     -15.460  39.962  12.236  1.00  0.00     0.000 C 
BRANCH   3   4
ATOM      4  C   UNL     1     -16.499  40.102  11.103  1.00  0.00     0.000 C 
BRANCH   4   5
ATOM      5  C   UNL     1     -17.366  41.367  11.214  1.00  0.00     0.006 C 
BRANCH   5   6
ATOM      6  C   UNL     1     -17.799  41.915   9.849  1.00  0.00     0.053 C 
BRANCH   6   7
ATOM      7  C   UNL     1     -16.602  42.250   9.017  1.00  0.00     0.041 C 
ATOM      8  O   UNL     1     -15.848  43.203   9.345  1.00  0.00    -0.550 OA
ATOM      9  O   UNL     1     -16.345  41.540   7.850  1.00  0.00    -0.550 OA
ENDBRANCH   6   7
ENDBRANCH   5   6
ENDBRANCH   4   5
ENDBRANCH   3   4
ENDBRANCH   2   3
ENDBRANCH   1   2
BRANCH   1  10
ATOM     10  C   UNL     1     -14.468  37.164  14.702  1.00  0.00     0.000 C 
BRANCH  10  11
ATOM     11  C   UNL     1     -15.955  36.921  14.986  1.00  0.00    -0.000 C 
BRANCH  11  12
ATOM     12  C   UNL     1     -16.258  35.418  15.079  1.00  0.00    -0.000 C 
BRANCH  12  13
ATOM     13  C   UNL     1     -17.405  34.978  14.150  1.00  0.00    -0.000 C 
BRANCH  13  14
ATOM     14  C   UNL     1     -17.425  35.664  12.772  1.00  0.00    -0.000 C 
BRANCH  14  15
ATOM     15  C   UNL     1     -16.643  34.885  11.704  1.00  0.00    -0.003 C 
ATOM     16  C   UNL     1     -15.841  35.830  10.814  1.00  0.00     0.004 C 
ENDBRANCH  14  15
ENDBRANCH  13  14
ENDBRANCH  12  13
ENDBRANCH  11  12
ENDBRANCH  10  11
ENDBRANCH   1  10
TORSDOF 12
ENDMDL
MODEL 8
REMARK VINA RESULT:    -4.635      3.813      6.119
REMARK INTER + INTRA:          -8.842
REMARK INTER:                  -7.851
REMARK INTRA:                  -0.992
REMARK UNBOUND:                -0.956
REMARK SMILES CCCCCCCCCCCCCC(=O)[O-]
REMARK SMILES IDX 8 1 9 2 10 3 11 4 12 5 13 6 14 7 15 8 16 9 7 10 6 11 5 12
REMARK SMILES IDX 4 13 3 14 2 15 1 16
REMARK H PARENT
REMARK Flexibility Score: inf
ROOT
ATOM      1  C   UNL     1     -17.627  34.937  12.888  1.00  0.00     0.000 C 
ENDROOT
BRANCH   1   2
ATOM      2  C   UNL     1     -16.670  34.838  11.693  1.00  0.00     0.000 C 
BRANCH   2   3
ATOM      3  C   UNL     1     -15.733  36.055  11.635  1.00  0.00     0.000 C 
BRANCH   3   4
ATOM      4  C   UNL     1     -16.161  37.168  12.615  1.00  0.00     0.000 C 
BRANCH   4   5
ATOM      5  C   UNL     1     -15.080  37.529  13.647  1.00  0.00     0.006 C 
BRANCH   5   6
ATOM      6  C   UNL     1     -14.904  36.457  14.729  1.00  0.00     0.053 C 
BRANCH   6   7
ATOM      7  C   UNL     1     -15.918  36.638  15.814  1.00  0.00     0.041 C 
ATOM      8  O   UNL     1     -16.648  37.663  15.834  1.00  0.00    -0.550 OA
ATOM      9  O   UNL     1     -16.023  35.698  16.832  1.00  0.00    -0.550 OA
ENDBRANCH   6   7
ENDBRANCH   5   6
ENDBRANCH   4   5
ENDBRANCH   3   4
ENDBRANCH   2   3
ENDBRANCH   1   2
BRANCH   1  10
ATOM     10  C   UNL     1     -17.769  33.582  13.593  1.00  0.00     0.000 C 
BRANCH  10  11
ATOM     11  C   UNL     1     -17.471  32.427  12.630  1.00  0.00    -0.000 C 
BRANCH  11  12
ATOM     12  C   UNL     1     -17.869  31.079  13.248  1.00  0.00    -0.000 C 
BRANCH  12  13
ATOM     13  C   UNL     1     -18.888  31.221  14.394  1.00  0.00    -0.000 C 
BRANCH  13  14
ATOM     14  C   UNL     1     -20.353  30.970  13.994  1.00  0.00    -0.000 C 
BRANCH  14  15
ATOM     15  C   UNL     1     -21.214  32.241  14.046  1.00  0.00    -0.003 C 
ATOM     16  C   UNL     1     -22.699  31.901  13.963  1.00  0.00     0.004 C 
ENDBRANCH  14  15
ENDBRANCH  13  14
ENDBRANCH  12  13
ENDBRANCH  11  12
ENDBRANCH  10  11
ENDBRANCH   1  10
TORSDOF 12
ENDMDL
MODEL 9
REMARK VINA RESULT:    -4.575      6.527      8.551
REMARK INTER + INTRA:          -8.741
REMARK INTER:                  -7.623
REMARK INTRA:                  -1.117
REMARK UNBOUND:                -0.956
REMARK SMILES CCCCCCCCCCCCCC(=O)[O-]
REMARK SMILES IDX 8 1 9 2 10 3 11 4 12 5 13 6 14 7 15 8 16 9 7 10 6 11 5 12
REMARK SMILES IDX 4 13 3 14 2 15 1 16
REMARK H PARENT
REMARK Flexibility Score: inf
ROOT
ATOM      1  C   UNL     1     -17.327  41.125  10.137  1.00  0.00     0.000 C 
ENDROOT
BRANCH   1   2
ATOM      2  C   UNL     1     -17.180  40.770  11.622  1.00  0.00     0.000 C 
BRANCH   2   3
ATOM      3  C   UNL     1     -15.874  40.004  11.879  1.00  0.00     0.000 C 
BRANCH   3   4
ATOM      4  C   UNL     1     -16.067  38.841  12.876  1.00  0.00     0.000 C 
BRANCH   4   5
ATOM      5  C   UNL     1     -17.481  38.238  12.853  1.00  0.00     0.006 C 
BRANCH   5   6
ATOM      6  C   UNL     1     -17.670  37.121  13.887  1.00  0.00     0.053 C 
BRANCH   6   7
ATOM      7  C   UNL     1     -17.360  35.789  13.281  1.00  0.00     0.041 C 
ATOM      8  O   UNL     1     -17.047  35.705  12.064  1.00  0.00    -0.550 OA
ATOM      9  O   UNL     1     -17.466  34.635  14.046  1.00  0.00    -0.550 OA
ENDBRANCH   6   7
ENDBRANCH   5   6
ENDBRANCH   4   5
ENDBRANCH   3   4
ENDBRANCH   2   3
ENDBRANCH   1   2
BRANCH   1  10
ATOM     10  C   UNL     1     -16.312  40.356   9.284  1.00  0.00     0.000 C 
BRANCH  10  11
ATOM     11  C   UNL     1     -15.522  41.308   8.377  1.00  0.00    -0.000 C 
BRANCH  11  12
ATOM     12  C   UNL     1     -16.403  41.835   7.234  1.00  0.00    -0.000 C 
BRANCH  12  13
ATOM     13  C   UNL     1     -16.190  43.335   6.956  1.00  0.00    -0.000 C 
BRANCH  13  14
ATOM     14  C   UNL     1     -16.787  44.283   8.011  1.00  0.00    -0.000 C 
BRANCH  14  15
ATOM     15  C   UNL     1     -15.718  45.069   8.785  1.00  0.00    -0.003 C 
ATOM     16  C   UNL     1     -15.520  44.494  10.184  1.00  0.00     0.004 C 
ENDBRANCH  14  15
ENDBRANCH  13  14
ENDBRANCH  12  13
ENDBRANCH  11  12
ENDBRANCH  10  11
ENDBRANCH   1  10
TORSDOF 12
ENDMDL
