MODEL 1
REMARK VINA RESULT:    -8.015      0.000      0.000
REMARK INTER + INTRA:          -9.924
REMARK INTER:                  -9.656
REMARK INTRA:                  -0.269
REMARK UNBOUND:                -0.269
REMARK SMILES O=c1c(O)c(-c2ccc(O)c(O)c2)oc2cc(O)cc(O)c12
REMARK SMILES IDX 5 1 3 2 2 3 1 4 22 5 20 6 19 7 17 8 16 9 15 10 14 11 6 12
REMARK SMILES IDX 7 13 8 14 9 15 13 16 11 17 10 18 12 20 4 22 21 24 18 26
REMARK H PARENT 10 19 12 21 4 23 21 25 18 27
REMARK Flexibility Score: inf
ROOT
ATOM      1  C   UNL     1     -25.244 -18.939 -13.186  1.00  0.00     0.180 A 
ATOM      2  C   UNL     1     -24.465 -20.027 -13.623  1.00  0.00     0.208 A 
ATOM      3  C   UNL     1     -24.525 -21.234 -12.910  1.00  0.00     0.238 A 
ATOM      4  O   UNL     1     -23.823 -22.212 -13.287  1.00  0.00    -0.285 OA
ATOM      5  C   UNL     1     -25.374 -21.340 -11.790  1.00  0.00     0.111 A 
ATOM      6  C   UNL     1     -25.497 -22.522 -11.020  1.00  0.00     0.134 A 
ATOM      7  C   UNL     1     -26.372 -22.551  -9.924  1.00  0.00     0.093 A 
ATOM      8  C   UNL     1     -27.125 -21.425  -9.584  1.00  0.00     0.123 A 
ATOM      9  C   UNL     1     -27.008 -20.255 -10.340  1.00  0.00     0.094 A 
ATOM     10  C   UNL     1     -26.141 -20.205 -11.435  1.00  0.00     0.146 A 
ATOM     11  O   UNL     1     -26.045 -19.080 -12.134  1.00  0.00    -0.452 OA
ENDROOT
BRANCH   1  12
ATOM     12  C   UNL     1     -25.220 -17.628 -13.873  1.00  0.00     0.025 A 
ATOM     13  C   UNL     1     -26.339 -17.216 -14.615  1.00  0.00     0.016 A 
ATOM     14  C   UNL     1     -26.346 -15.973 -15.254  1.00  0.00     0.051 A 
ATOM     15  C   UNL     1     -25.242 -15.119 -15.149  1.00  0.00     0.157 A 
ATOM     16  C   UNL     1     -24.122 -16.757 -13.753  1.00  0.00     0.062 A 
ATOM     17  C   UNL     1     -24.130 -15.509 -14.393  1.00  0.00     0.158 A 
BRANCH  15  18
ATOM     18  O   UNL     1     -25.244 -13.880 -15.787  1.00  0.00    -0.504 OA
ATOM     19  H   UNL     1     -25.501 -13.031 -15.296  1.00  0.00     0.293 HD
ENDBRANCH  15  18
BRANCH  17  20
ATOM     20  O   UNL     1     -23.037 -14.651 -14.278  1.00  0.00    -0.504 OA
ATOM     21  H   UNL     1     -22.900 -13.876 -14.917  1.00  0.00     0.293 HD
ENDBRANCH  17  20
ENDBRANCH   1  12
BRANCH   2  22
ATOM     22  O   UNL     1     -23.669 -19.911 -14.766  1.00  0.00    -0.502 OA
ATOM     23  H   UNL     1     -23.658 -20.616 -15.494  1.00  0.00     0.293 HD
ENDBRANCH   2  22
BRANCH   6  24
ATOM     24  O   UNL     1     -24.758 -23.664 -11.334  1.00  0.00    -0.507 OA
ATOM     25  H   UNL     1     -25.205 -24.523 -11.631  1.00  0.00     0.293 HD
ENDBRANCH   6  24
BRANCH   8  26
ATOM     26  O   UNL     1     -27.986 -21.480  -8.491  1.00  0.00    -0.508 OA
ATOM     27  H   UNL     1     -28.358 -22.360  -8.153  1.00  0.00     0.293 HD
ENDBRANCH   8  26
TORSDOF 6
ENDMDL
MODEL 2
REMARK VINA RESULT:    -7.936      2.124      3.495
REMARK INTER + INTRA:          -9.829
REMARK INTER:                  -9.527
REMARK INTRA:                  -0.302
REMARK UNBOUND:                -0.269
REMARK SMILES O=c1c(O)c(-c2ccc(O)c(O)c2)oc2cc(O)cc(O)c12
REMARK SMILES IDX 5 1 3 2 2 3 1 4 22 5 20 6 19 7 17 8 16 9 15 10 14 11 6 12
REMARK SMILES IDX 7 13 8 14 9 15 13 16 11 17 10 18 12 20 4 22 21 24 18 26
REMARK H PARENT 10 19 12 21 4 23 21 25 18 27
REMARK Flexibility Score: inf
ROOT
ATOM      1  C   UNL     1     -24.790 -20.091 -13.681  1.00  0.00     0.180 A 
ATOM      2  C   UNL     1     -24.630 -20.510 -12.347  1.00  0.00     0.208 A 
ATOM      3  C   UNL     1     -24.644 -21.884 -12.062  1.00  0.00     0.238 A 
ATOM      4  O   UNL     1     -24.512 -22.271 -10.868  1.00  0.00    -0.285 OA
ATOM      5  C   UNL     1     -24.796 -22.813 -13.111  1.00  0.00     0.111 A 
ATOM      6  C   UNL     1     -24.816 -24.214 -12.910  1.00  0.00     0.134 A 
ATOM      7  C   UNL     1     -24.961 -25.073 -14.009  1.00  0.00     0.093 A 
ATOM      8  C   UNL     1     -25.087 -24.561 -15.302  1.00  0.00     0.123 A 
ATOM      9  C   UNL     1     -25.069 -23.178 -15.508  1.00  0.00     0.094 A 
ATOM     10  C   UNL     1     -24.925 -22.305 -14.426  1.00  0.00     0.146 A 
ATOM     11  O   UNL     1     -24.916 -20.995 -14.648  1.00  0.00    -0.452 OA
ENDROOT
BRANCH   1  12
ATOM     12  C   UNL     1     -24.806 -18.660 -14.060  1.00  0.00     0.025 A 
ATOM     13  C   UNL     1     -26.036 -17.998 -14.210  1.00  0.00     0.016 A 
ATOM     14  C   UNL     1     -26.074 -16.643 -14.547  1.00  0.00     0.051 A 
ATOM     15  C   UNL     1     -24.885 -15.925 -14.723  1.00  0.00     0.157 A 
ATOM     16  C   UNL     1     -23.614 -17.929 -14.218  1.00  0.00     0.062 A 
ATOM     17  C   UNL     1     -23.653 -16.569 -14.554  1.00  0.00     0.158 A 
BRANCH  15  18
ATOM     18  O   UNL     1     -24.918 -14.574 -15.061  1.00  0.00    -0.504 OA
ATOM     19  H   UNL     1     -24.099 -13.984 -14.971  1.00  0.00     0.293 HD
ENDBRANCH  15  18
BRANCH  17  20
ATOM     20  O   UNL     1     -22.469 -15.849 -14.716  1.00  0.00    -0.504 OA
ATOM     21  H   UNL     1     -21.562 -16.291 -14.629  1.00  0.00     0.293 HD
ENDBRANCH  17  20
ENDBRANCH   1  12
BRANCH   2  22
ATOM     22  O   UNL     1     -24.431 -19.571 -11.332  1.00  0.00    -0.502 OA
ATOM     23  H   UNL     1     -25.123 -19.395 -10.613  1.00  0.00     0.293 HD
ENDBRANCH   2  22
BRANCH   6  24
ATOM     24  O   UNL     1     -24.693 -24.757 -11.630  1.00  0.00    -0.507 OA
ATOM     25  H   UNL     1     -24.643 -24.172 -10.805  1.00  0.00     0.293 HD
ENDBRANCH   6  24
BRANCH   8  26
ATOM     26  O   UNL     1     -25.230 -25.436 -16.376  1.00  0.00    -0.508 OA
ATOM     27  H   UNL     1     -24.656 -26.266 -16.464  1.00  0.00     0.293 HD
ENDBRANCH   8  26
TORSDOF 6
ENDMDL
MODEL 3
REMARK VINA RESULT:    -7.681      4.382      6.351
REMARK INTER + INTRA:          -9.522
REMARK INTER:                  -9.230
REMARK INTRA:                  -0.291
REMARK UNBOUND:                -0.269
REMARK SMILES O=c1c(O)c(-c2ccc(O)c(O)c2)oc2cc(O)cc(O)c12
REMARK SMILES IDX 5 1 3 2 2 3 1 4 22 5 20 6 19 7 17 8 16 9 15 10 14 11 6 12
REMARK SMILES IDX 7 13 8 14 9 15 13 16 11 17 10 18 12 20 4 22 21 24 18 26
REMARK H PARENT 10 19 12 21 4 23 21 25 18 27
REMARK Flexibility Score: inf
ROOT
ATOM      1  C   UNL     1     -26.468 -21.924 -11.116  1.00  0.00     0.180 A 
ATOM      2  C   UNL     1     -25.116 -21.563 -11.269  1.00  0.00     0.208 A 
ATOM      3  C   UNL     1     -24.394 -22.084 -12.354  1.00  0.00     0.238 A 
ATOM      4  O   UNL     1     -23.179 -21.776 -12.495  1.00  0.00    -0.285 OA
ATOM      5  C   UNL     1     -25.037 -22.936 -13.275  1.00  0.00     0.111 A 
ATOM      6  C   UNL     1     -24.383 -23.500 -14.398  1.00  0.00     0.134 A 
ATOM      7  C   UNL     1     -25.096 -24.331 -15.273  1.00  0.00     0.093 A 
ATOM      8  C   UNL     1     -26.446 -24.609 -15.051  1.00  0.00     0.123 A 
ATOM      9  C   UNL     1     -27.098 -24.057 -13.944  1.00  0.00     0.094 A 
ATOM     10  C   UNL     1     -26.405 -23.226 -13.059  1.00  0.00     0.146 A 
ATOM     11  O   UNL     1     -27.047 -22.718 -12.013  1.00  0.00    -0.452 OA
ENDROOT
BRANCH   1  12
ATOM     12  C   UNL     1     -27.291 -21.432  -9.988  1.00  0.00     0.025 A 
ATOM     13  C   UNL     1     -27.475 -22.248  -8.859  1.00  0.00     0.016 A 
ATOM     14  C   UNL     1     -28.230 -21.796  -7.774  1.00  0.00     0.051 A 
ATOM     15  C   UNL     1     -28.800 -20.517  -7.794  1.00  0.00     0.157 A 
ATOM     16  C   UNL     1     -27.848 -20.141  -9.994  1.00  0.00     0.062 A 
ATOM     17  C   UNL     1     -28.604 -19.686  -8.905  1.00  0.00     0.158 A 
BRANCH  15  18
ATOM     18  O   UNL     1     -29.556 -20.064  -6.716  1.00  0.00    -0.504 OA
ATOM     19  H   UNL     1     -30.461 -19.628  -6.849  1.00  0.00     0.293 HD
ENDBRANCH  15  18
BRANCH  17  20
ATOM     20  O   UNL     1     -29.160 -18.408  -8.917  1.00  0.00    -0.504 OA
ATOM     21  H   UNL     1     -30.079 -18.224  -8.531  1.00  0.00     0.293 HD
ENDBRANCH  17  20
ENDBRANCH   1  12
BRANCH   2  22
ATOM     22  O   UNL     1     -24.516 -20.678 -10.370  1.00  0.00    -0.502 OA
ATOM     23  H   UNL     1     -24.263 -19.731 -10.628  1.00  0.00     0.293 HD
ENDBRANCH   2  22
BRANCH   6  24
ATOM     24  O   UNL     1     -23.034 -23.240 -14.647  1.00  0.00    -0.507 OA
ATOM     25  H   UNL     1     -22.530 -23.710 -15.390  1.00  0.00     0.293 HD
ENDBRANCH   6  24
BRANCH   8  26
ATOM     26  O   UNL     1     -27.131 -25.438 -15.937  1.00  0.00    -0.508 OA
ATOM     27  H   UNL     1     -27.610 -25.066 -16.748  1.00  0.00     0.293 HD
ENDBRANCH   8  26
TORSDOF 6
ENDMDL
MODEL 4
REMARK VINA RESULT:    -7.437      2.967      8.254
REMARK INTER + INTRA:          -9.227
REMARK INTER:                  -9.323
REMARK INTRA:                   0.096
REMARK UNBOUND:                -0.269
REMARK SMILES O=c1c(O)c(-c2ccc(O)c(O)c2)oc2cc(O)cc(O)c12
REMARK SMILES IDX 5 1 3 2 2 3 1 4 22 5 20 6 19 7 17 8 16 9 15 10 14 11 6 12
REMARK SMILES IDX 7 13 8 14 9 15 13 16 11 17 10 18 12 20 4 22 21 24 18 26
REMARK H PARENT 10 19 12 21 4 23 21 25 18 27
REMARK Flexibility Score: inf
ROOT
ATOM      1  C   UNL     1     -26.905 -22.706 -10.164  1.00  0.00     0.180 A 
ATOM      2  C   UNL     1     -27.262 -21.345 -10.149  1.00  0.00     0.208 A 
ATOM      3  C   UNL     1     -26.563 -20.451 -10.976  1.00  0.00     0.238 A 
ATOM      4  O   UNL     1     -26.867 -19.227 -10.962  1.00  0.00    -0.285 OA
ATOM      5  C   UNL     1     -25.537 -20.934 -11.813  1.00  0.00     0.111 A 
ATOM      6  C   UNL     1     -24.787 -20.101 -12.679  1.00  0.00     0.134 A 
ATOM      7  C   UNL     1     -23.788 -20.660 -13.490  1.00  0.00     0.093 A 
ATOM      8  C   UNL     1     -23.525 -22.031 -13.453  1.00  0.00     0.123 A 
ATOM      9  C   UNL     1     -24.262 -22.859 -12.600  1.00  0.00     0.094 A 
ATOM     10  C   UNL     1     -25.261 -22.321 -11.783  1.00  0.00     0.146 A 
ATOM     11  O   UNL     1     -25.942 -23.129 -10.979  1.00  0.00    -0.452 OA
ENDROOT
BRANCH   1  12
ATOM     12  C   UNL     1     -27.582 -23.706  -9.308  1.00  0.00     0.025 A 
ATOM     13  C   UNL     1     -28.985 -23.721  -9.239  1.00  0.00     0.016 A 
ATOM     14  C   UNL     1     -29.645 -24.669  -8.454  1.00  0.00     0.051 A 
ATOM     15  C   UNL     1     -28.914 -25.626  -7.738  1.00  0.00     0.157 A 
ATOM     16  C   UNL     1     -26.854 -24.682  -8.604  1.00  0.00     0.062 A 
ATOM     17  C   UNL     1     -27.516 -25.635  -7.817  1.00  0.00     0.158 A 
BRANCH  15  18
ATOM     18  O   UNL     1     -29.569 -26.572  -6.952  1.00  0.00    -0.504 OA
ATOM     19  H   UNL     1     -29.924 -26.341  -6.031  1.00  0.00     0.293 HD
ENDBRANCH  15  18
BRANCH  17  20
ATOM     20  O   UNL     1     -26.791 -26.597  -7.116  1.00  0.00    -0.504 OA
ATOM     21  H   UNL     1     -27.235 -27.212  -6.443  1.00  0.00     0.293 HD
ENDBRANCH  17  20
ENDBRANCH   1  12
BRANCH   2  22
ATOM     22  O   UNL     1     -28.315 -20.900  -9.346  1.00  0.00    -0.502 OA
ATOM     23  H   UNL     1     -29.133 -20.439  -9.729  1.00  0.00     0.293 HD
ENDBRANCH   2  22
BRANCH   6  24
ATOM     24  O   UNL     1     -25.026 -18.727 -12.739  1.00  0.00    -0.507 OA
ATOM     25  H   UNL     1     -24.666 -18.092 -12.036  1.00  0.00     0.293 HD
ENDBRANCH   6  24
BRANCH   8  26
ATOM     26  O   UNL     1     -22.528 -22.560 -14.269  1.00  0.00    -0.508 OA
ATOM     27  H   UNL     1     -22.329 -22.172 -15.183  1.00  0.00     0.293 HD
ENDBRANCH   8  26
TORSDOF 6
ENDMDL
MODEL 5
REMARK VINA RESULT:    -7.335      4.685      6.391
REMARK INTER + INTRA:          -9.105
REMARK INTER:                  -8.976
REMARK INTRA:                  -0.129
REMARK UNBOUND:                -0.269
REMARK SMILES O=c1c(O)c(-c2ccc(O)c(O)c2)oc2cc(O)cc(O)c12
REMARK SMILES IDX 5 1 3 2 2 3 1 4 22 5 20 6 19 7 17 8 16 9 15 10 14 11 6 12
REMARK SMILES IDX 7 13 8 14 9 15 13 16 11 17 10 18 12 20 4 22 21 24 18 26
REMARK H PARENT 10 19 12 21 4 23 21 25 18 27
REMARK Flexibility Score: inf
ROOT
ATOM      1  C   UNL     1     -26.925 -22.097 -10.312  1.00  0.00     0.180 A 
ATOM      2  C   UNL     1     -27.498 -23.118  -9.530  1.00  0.00     0.208 A 
ATOM      3  C   UNL     1     -28.361 -22.765  -8.481  1.00  0.00     0.238 A 
ATOM      4  O   UNL     1     -28.871 -23.671  -7.767  1.00  0.00    -0.285 OA
ATOM      5  C   UNL     1     -28.651 -21.406  -8.244  1.00  0.00     0.111 A 
ATOM      6  C   UNL     1     -29.514 -20.966  -7.210  1.00  0.00     0.134 A 
ATOM      7  C   UNL     1     -29.760 -19.596  -7.046  1.00  0.00     0.093 A 
ATOM      8  C   UNL     1     -29.164 -18.658  -7.891  1.00  0.00     0.123 A 
ATOM      9  C   UNL     1     -28.311 -19.085  -8.914  1.00  0.00     0.094 A 
ATOM     10  C   UNL     1     -28.051 -20.447  -9.094  1.00  0.00     0.146 A 
ATOM     11  O   UNL     1     -27.234 -20.826 -10.070  1.00  0.00    -0.452 OA
ENDROOT
BRANCH   1  12
ATOM     12  C   UNL     1     -25.991 -22.387 -11.423  1.00  0.00     0.025 A 
ATOM     13  C   UNL     1     -24.660 -21.945 -11.341  1.00  0.00     0.016 A 
ATOM     14  C   UNL     1     -23.756 -22.226 -12.369  1.00  0.00     0.051 A 
ATOM     15  C   UNL     1     -24.164 -22.965 -13.486  1.00  0.00     0.157 A 
ATOM     16  C   UNL     1     -26.390 -23.147 -12.538  1.00  0.00     0.062 A 
ATOM     17  C   UNL     1     -25.483 -23.430 -13.568  1.00  0.00     0.158 A 
BRANCH  15  18
ATOM     18  O   UNL     1     -23.267 -23.244 -14.514  1.00  0.00    -0.504 OA
ATOM     19  H   UNL     1     -22.448 -22.669 -14.674  1.00  0.00     0.293 HD
ENDBRANCH  15  18
BRANCH  17  20
ATOM     20  O   UNL     1     -25.883 -24.177 -14.675  1.00  0.00    -0.504 OA
ATOM     21  H   UNL     1     -26.029 -25.178 -14.615  1.00  0.00     0.293 HD
ENDBRANCH  17  20
ENDBRANCH   1  12
BRANCH   2  22
ATOM     22  O   UNL     1     -27.233 -24.459  -9.817  1.00  0.00    -0.502 OA
ATOM     23  H   UNL     1     -27.702 -24.958 -10.564  1.00  0.00     0.293 HD
ENDBRANCH   2  22
BRANCH   6  24
ATOM     24  O   UNL     1     -30.125 -21.879  -6.349  1.00  0.00    -0.507 OA
ATOM     25  H   UNL     1     -31.102 -21.798  -6.093  1.00  0.00     0.293 HD
ENDBRANCH   6  24
BRANCH   8  26
ATOM     26  O   UNL     1     -29.425 -17.302  -7.706  1.00  0.00    -0.508 OA
ATOM     27  H   UNL     1     -28.826 -16.588  -8.102  1.00  0.00     0.293 HD
ENDBRANCH   8  26
TORSDOF 6
ENDMDL
MODEL 6
REMARK VINA RESULT:    -7.225      3.364      8.169
REMARK INTER + INTRA:          -8.972
REMARK INTER:                  -8.669
REMARK INTRA:                  -0.303
REMARK UNBOUND:                -0.269
REMARK SMILES O=c1c(O)c(-c2ccc(O)c(O)c2)oc2cc(O)cc(O)c12
REMARK SMILES IDX 5 1 3 2 2 3 1 4 22 5 20 6 19 7 17 8 16 9 15 10 14 11 6 12
REMARK SMILES IDX 7 13 8 14 9 15 13 16 11 17 10 18 12 20 4 22 21 24 18 26
REMARK H PARENT 10 19 12 21 4 23 21 25 18 27
REMARK Flexibility Score: inf
ROOT
ATOM      1  C   UNL     1     -26.654 -23.112 -10.865  1.00  0.00     0.180 A 
ATOM      2  C   UNL     1     -26.211 -21.790 -10.666  1.00  0.00     0.208 A 
ATOM      3  C   UNL     1     -25.636 -21.098 -11.743  1.00  0.00     0.238 A 
ATOM      4  O   UNL     1     -25.226 -19.917 -11.573  1.00  0.00    -0.285 OA
ATOM      5  C   UNL     1     -25.530 -21.727 -13.000  1.00  0.00     0.111 A 
ATOM      6  C   UNL     1     -24.967 -21.098 -14.137  1.00  0.00     0.134 A 
ATOM      7  C   UNL     1     -24.908 -21.789 -15.356  1.00  0.00     0.093 A 
ATOM      8  C   UNL     1     -25.399 -23.092 -15.462  1.00  0.00     0.123 A 
ATOM      9  C   UNL     1     -25.956 -23.719 -14.342  1.00  0.00     0.094 A 
ATOM     10  C   UNL     1     -26.023 -23.049 -13.118  1.00  0.00     0.146 A 
ATOM     11  O   UNL     1     -26.552 -23.668 -12.069  1.00  0.00    -0.452 OA
ENDROOT
BRANCH   1  12
ATOM     12  C   UNL     1     -27.253 -23.914  -9.775  1.00  0.00     0.025 A 
ATOM     13  C   UNL     1     -28.617 -23.759  -9.473  1.00  0.00     0.016 A 
ATOM     14  C   UNL     1     -29.208 -24.521  -8.462  1.00  0.00     0.051 A 
ATOM     15  C   UNL     1     -28.450 -25.458  -7.749  1.00  0.00     0.157 A 
ATOM     16  C   UNL     1     -26.502 -24.871  -9.070  1.00  0.00     0.062 A 
ATOM     17  C   UNL     1     -27.096 -25.636  -8.056  1.00  0.00     0.158 A 
BRANCH  15  18
ATOM     18  O   UNL     1     -29.036 -26.217  -6.738  1.00  0.00    -0.504 OA
ATOM     19  H   UNL     1     -28.516 -26.935  -6.246  1.00  0.00     0.293 HD
ENDBRANCH  15  18
BRANCH  17  20
ATOM     20  O   UNL     1     -26.347 -26.579  -7.354  1.00  0.00    -0.504 OA
ATOM     21  H   UNL     1     -26.734 -27.478  -7.093  1.00  0.00     0.293 HD
ENDBRANCH  17  20
ENDBRANCH   1  12
BRANCH   2  22
ATOM     22  O   UNL     1     -26.372 -21.172  -9.424  1.00  0.00    -0.502 OA
ATOM     23  H   UNL     1     -25.945 -21.533  -8.578  1.00  0.00     0.293 HD
ENDBRANCH   2  22
BRANCH   6  24
ATOM     24  O   UNL     1     -24.468 -19.797 -14.064  1.00  0.00    -0.507 OA
ATOM     25  H   UNL     1     -24.749 -19.159 -13.330  1.00  0.00     0.293 HD
ENDBRANCH   6  24
BRANCH   8  26
ATOM     26  O   UNL     1     -25.328 -23.756 -16.684  1.00  0.00    -0.508 OA
ATOM     27  H   UNL     1     -24.461 -24.159 -17.019  1.00  0.00     0.293 HD
ENDBRANCH   8  26
TORSDOF 6
ENDMDL
MODEL 7
REMARK VINA RESULT:    -7.061      3.923      6.465
REMARK INTER + INTRA:          -8.775
REMARK INTER:                  -8.552
REMARK INTRA:                  -0.223
REMARK UNBOUND:                -0.269
REMARK SMILES O=c1c(O)c(-c2ccc(O)c(O)c2)oc2cc(O)cc(O)c12
REMARK SMILES IDX 5 1 3 2 2 3 1 4 22 5 20 6 19 7 17 8 16 9 15 10 14 11 6 12
REMARK SMILES IDX 7 13 8 14 9 15 13 16 11 17 10 18 12 20 4 22 21 24 18 26
REMARK H PARENT 10 19 12 21 4 23 21 25 18 27
REMARK Flexibility Score: inf
ROOT
ATOM      1  C   UNL     1     -26.451 -22.610 -12.027  1.00  0.00     0.180 A 
ATOM      2  C   UNL     1     -26.195 -21.226 -12.053  1.00  0.00     0.208 A 
ATOM      3  C   UNL     1     -26.814 -20.404 -11.099  1.00  0.00     0.238 A 
ATOM      4  O   UNL     1     -26.600 -19.161 -11.119  1.00  0.00    -0.285 OA
ATOM      5  C   UNL     1     -27.659 -20.977 -10.127  1.00  0.00     0.111 A 
ATOM      6  C   UNL     1     -28.318 -20.220  -9.128  1.00  0.00     0.134 A 
ATOM      7  C   UNL     1     -29.135 -20.868  -8.191  1.00  0.00     0.093 A 
ATOM      8  C   UNL     1     -29.307 -22.253  -8.230  1.00  0.00     0.123 A 
ATOM      9  C   UNL     1     -28.660 -23.007  -9.215  1.00  0.00     0.094 A 
ATOM     10  C   UNL     1     -27.841 -22.381 -10.159  1.00  0.00     0.146 A 
ATOM     11  O   UNL     1     -27.242 -23.119 -11.086  1.00  0.00    -0.452 OA
ENDROOT
BRANCH   1  12
ATOM     12  C   UNL     1     -25.851 -23.540 -13.010  1.00  0.00     0.025 A 
ATOM     13  C   UNL     1     -24.483 -23.846 -12.927  1.00  0.00     0.016 A 
ATOM     14  C   UNL     1     -23.900 -24.737 -13.832  1.00  0.00     0.051 A 
ATOM     15  C   UNL     1     -24.679 -25.347 -14.823  1.00  0.00     0.157 A 
ATOM     16  C   UNL     1     -26.633 -24.171 -13.994  1.00  0.00     0.062 A 
ATOM     17  C   UNL     1     -26.049 -25.067 -14.901  1.00  0.00     0.158 A 
BRANCH  15  18
ATOM     18  O   UNL     1     -24.102 -26.234 -15.730  1.00  0.00    -0.504 OA
ATOM     19  H   UNL     1     -24.665 -26.877 -16.274  1.00  0.00     0.293 HD
ENDBRANCH  15  18
BRANCH  17  20
ATOM     20  O   UNL     1     -26.826 -25.686 -15.880  1.00  0.00    -0.504 OA
ATOM     21  H   UNL     1     -27.537 -26.368 -15.642  1.00  0.00     0.293 HD
ENDBRANCH  17  20
ENDBRANCH   1  12
BRANCH   2  22
ATOM     22  O   UNL     1     -25.314 -20.690 -12.995  1.00  0.00    -0.502 OA
ATOM     23  H   UNL     1     -24.829 -19.812 -12.847  1.00  0.00     0.293 HD
ENDBRANCH   2  22
BRANCH   6  24
ATOM     24  O   UNL     1     -28.166 -18.834  -9.062  1.00  0.00    -0.507 OA
ATOM     25  H   UNL     1     -27.276 -18.386  -9.240  1.00  0.00     0.293 HD
ENDBRANCH   6  24
BRANCH   8  26
ATOM     26  O   UNL     1     -30.125 -22.870  -7.287  1.00  0.00    -0.508 OA
ATOM     27  H   UNL     1     -30.411 -23.837  -7.385  1.00  0.00     0.293 HD
ENDBRANCH   8  26
TORSDOF 6
ENDMDL
MODEL 8
REMARK VINA RESULT:    -6.977      2.954      6.583
REMARK INTER + INTRA:          -8.673
REMARK INTER:                  -9.049
REMARK INTRA:                   0.376
REMARK UNBOUND:                -0.269
REMARK SMILES O=c1c(O)c(-c2ccc(O)c(O)c2)oc2cc(O)cc(O)c12
REMARK SMILES IDX 5 1 3 2 2 3 1 4 22 5 20 6 19 7 17 8 16 9 15 10 14 11 6 12
REMARK SMILES IDX 7 13 8 14 9 15 13 16 11 17 10 18 12 20 4 22 21 24 18 26
REMARK H PARENT 10 19 12 21 4 23 21 25 18 27
REMARK Flexibility Score: inf
ROOT
ATOM      1  C   UNL     1     -27.063 -21.328  -9.954  1.00  0.00     0.180 A 
ATOM      2  C   UNL     1     -26.900 -22.720 -10.087  1.00  0.00     0.208 A 
ATOM      3  C   UNL     1     -26.126 -23.214 -11.149  1.00  0.00     0.238 A 
ATOM      4  O   UNL     1     -25.984 -24.460 -11.284  1.00  0.00    -0.285 OA
ATOM      5  C   UNL     1     -25.514 -22.314 -12.043  1.00  0.00     0.111 A 
ATOM      6  C   UNL     1     -24.715 -22.729 -13.136  1.00  0.00     0.134 A 
ATOM      7  C   UNL     1     -24.131 -21.770 -13.976  1.00  0.00     0.093 A 
ATOM      8  C   UNL     1     -24.329 -20.407 -13.746  1.00  0.00     0.123 A 
ATOM      9  C   UNL     1     -25.118 -19.989 -12.669  1.00  0.00     0.094 A 
ATOM     10  C   UNL     1     -25.709 -20.930 -11.820  1.00  0.00     0.146 A 
ATOM     11  O   UNL     1     -26.457 -20.507 -10.808  1.00  0.00    -0.452 OA
ENDROOT
BRANCH   1  12
ATOM     12  C   UNL     1     -27.879 -20.731  -8.873  1.00  0.00     0.025 A 
ATOM     13  C   UNL     1     -28.054 -21.435  -7.670  1.00  0.00     0.016 A 
ATOM     14  C   UNL     1     -28.804 -20.881  -6.629  1.00  0.00     0.051 A 
ATOM     15  C   UNL     1     -29.375 -19.610  -6.769  1.00  0.00     0.157 A 
ATOM     16  C   UNL     1     -28.437 -19.446  -9.000  1.00  0.00     0.062 A 
ATOM     17  C   UNL     1     -29.187 -18.890  -7.955  1.00  0.00     0.158 A 
BRANCH  15  18
ATOM     18  O   UNL     1     -30.125 -19.055  -5.734  1.00  0.00    -0.504 OA
ATOM     19  H   UNL     1     -31.118 -18.880  -5.834  1.00  0.00     0.293 HD
ENDBRANCH  15  18
BRANCH  17  20
ATOM     20  O   UNL     1     -29.745 -17.618  -8.086  1.00  0.00    -0.504 OA
ATOM     21  H   UNL     1     -29.968 -17.050  -7.278  1.00  0.00     0.293 HD
ENDBRANCH  17  20
ENDBRANCH   1  12
BRANCH   2  22
ATOM     22  O   UNL     1     -27.477 -23.590  -9.158  1.00  0.00    -0.502 OA
ATOM     23  H   UNL     1     -28.087 -23.265  -8.416  1.00  0.00     0.293 HD
ENDBRANCH   2  22
BRANCH   6  24
ATOM     24  O   UNL     1     -24.498 -24.084 -13.392  1.00  0.00    -0.507 OA
ATOM     25  H   UNL     1     -23.758 -24.398 -14.009  1.00  0.00     0.293 HD
ENDBRANCH   6  24
BRANCH   8  26
ATOM     26  O   UNL     1     -23.738 -19.474 -14.595  1.00  0.00    -0.508 OA
ATOM     27  H   UNL     1     -23.354 -19.744 -15.493  1.00  0.00     0.293 HD
ENDBRANCH   8  26
TORSDOF 6
ENDMDL
MODEL 9
REMARK VINA RESULT:    -6.881      2.865      6.620
REMARK INTER + INTRA:          -8.558
REMARK INTER:                  -8.832
REMARK INTRA:                   0.274
REMARK UNBOUND:                -0.269
REMARK SMILES O=c1c(O)c(-c2ccc(O)c(O)c2)oc2cc(O)cc(O)c12
REMARK SMILES IDX 5 1 3 2 2 3 1 4 22 5 20 6 19 7 17 8 16 9 15 10 14 11 6 12
REMARK SMILES IDX 7 13 8 14 9 15 13 16 11 17 10 18 12 20 4 22 21 24 18 26
REMARK H PARENT 10 19 12 21 4 23 21 25 18 27
REMARK Flexibility Score: inf
ROOT
ATOM      1  C   UNL     1     -27.314 -20.736  -9.894  1.00  0.00     0.180 A 
ATOM      2  C   UNL     1     -27.371 -22.137 -10.023  1.00  0.00     0.208 A 
ATOM      3  C   UNL     1     -26.685 -22.749 -11.083  1.00  0.00     0.238 A 
ATOM      4  O   UNL     1     -26.738 -24.002 -11.215  1.00  0.00    -0.285 OA
ATOM      5  C   UNL     1     -25.940 -21.957 -11.981  1.00  0.00     0.111 A 
ATOM      6  C   UNL     1     -25.217 -22.496 -13.073  1.00  0.00     0.134 A 
ATOM      7  C   UNL     1     -24.492 -21.641 -13.916  1.00  0.00     0.093 A 
ATOM      8  C   UNL     1     -24.475 -20.263 -13.690  1.00  0.00     0.123 A 
ATOM      9  C   UNL     1     -25.187 -19.725 -12.614  1.00  0.00     0.094 A 
ATOM     10  C   UNL     1     -25.917 -20.559 -11.762  1.00  0.00     0.146 A 
ATOM     11  O   UNL     1     -26.589 -20.022 -10.751  1.00  0.00    -0.452 OA
ENDROOT
BRANCH   1  12
ATOM     12  C   UNL     1     -28.026 -20.016  -8.814  1.00  0.00     0.025 A 
ATOM     13  C   UNL     1     -28.535 -18.730  -9.061  1.00  0.00     0.016 A 
ATOM     14  C   UNL     1     -29.228 -18.040  -8.063  1.00  0.00     0.051 A 
ATOM     15  C   UNL     1     -29.436 -18.631  -6.810  1.00  0.00     0.157 A 
ATOM     16  C   UNL     1     -28.256 -20.613  -7.562  1.00  0.00     0.062 A 
ATOM     17  C   UNL     1     -28.953 -19.921  -6.561  1.00  0.00     0.158 A 
BRANCH  15  18
ATOM     18  O   UNL     1     -30.125 -17.945  -5.812  1.00  0.00    -0.504 OA
ATOM     19  H   UNL     1     -30.286 -16.946  -5.869  1.00  0.00     0.293 HD
ENDBRANCH  15  18
BRANCH  17  20
ATOM     20  O   UNL     1     -29.174 -20.513  -5.318  1.00  0.00    -0.504 OA
ATOM     21  H   UNL     1     -28.652 -21.328  -5.017  1.00  0.00     0.293 HD
ENDBRANCH  17  20
ENDBRANCH   1  12
BRANCH   2  22
ATOM     22  O   UNL     1     -28.076 -22.903  -9.091  1.00  0.00    -0.502 OA
ATOM     23  H   UNL     1     -27.953 -22.790  -8.091  1.00  0.00     0.293 HD
ENDBRANCH   2  22
BRANCH   6  24
ATOM     24  O   UNL     1     -25.214 -23.868 -13.325  1.00  0.00    -0.507 OA
ATOM     25  H   UNL     1     -24.635 -24.507 -12.793  1.00  0.00     0.293 HD
ENDBRANCH   6  24
BRANCH   8  26
ATOM     26  O   UNL     1     -23.746 -19.437 -14.543  1.00  0.00    -0.508 OA
ATOM     27  H   UNL     1     -23.798 -18.427 -14.475  1.00  0.00     0.293 HD
ENDBRANCH   8  26
TORSDOF 6
ENDMDL
