MODEL 1
REMARK VINA RESULT:    -5.247      0.000      0.000
REMARK INTER + INTRA:          -9.314
REMARK INTER:                  -8.315
REMARK INTRA:                  -0.999
REMARK UNBOUND:                -0.999
REMARK SMILES CCCCCCCCCCCC(=O)[O-]
REMARK SMILES IDX 7 1 8 2 9 3 10 4 11 5 12 6 13 7 14 8 6 9 5 10 4 11 3 12 2 13
REMARK SMILES IDX 1 14
REMARK H PARENT
REMARK Flexibility Score: inf
ROOT
ATOM      1  C   UNL     1      52.608  51.947  21.079  1.00  0.00     0.000 C 
ENDROOT
BRANCH   1   2
ATOM      2  C   UNL     1      51.424  50.980  20.930  1.00  0.00     0.000 C 
BRANCH   2   3
ATOM      3  C   UNL     1      50.704  50.784  22.268  1.00  0.00     0.000 C 
BRANCH   3   4
ATOM      4  C   UNL     1      49.917  49.467  22.284  1.00  0.00     0.006 C 
BRANCH   4   5
ATOM      5  C   UNL     1      50.499  48.490  23.310  1.00  0.00     0.053 C 
BRANCH   5   6
ATOM      6  C   UNL     1      49.427  47.994  24.227  1.00  0.00     0.041 C 
ATOM      7  O   UNL     1      49.613  46.958  24.917  1.00  0.00    -0.550 OA
ATOM      8  O   UNL     1      48.203  48.648  24.284  1.00  0.00    -0.550 OA
ENDBRANCH   5   6
ENDBRANCH   4   5
ENDBRANCH   3   4
ENDBRANCH   2   3
ENDBRANCH   1   2
BRANCH   1   9
ATOM      9  C   UNL     1      52.215  53.411  20.822  1.00  0.00     0.000 C 
BRANCH   9  10
ATOM     10  C   UNL     1      52.474  54.315  22.036  1.00  0.00    -0.000 C 
BRANCH  10  11
ATOM     11  C   UNL     1      53.334  53.595  23.085  1.00  0.00    -0.000 C 
BRANCH  11  12
ATOM     12  C   UNL     1      52.593  53.367  24.413  1.00  0.00    -0.000 C 
BRANCH  12  13
ATOM     13  C   UNL     1      51.327  54.232  24.572  1.00  0.00    -0.003 C 
ATOM     14  C   UNL     1      50.066  53.390  24.764  1.00  0.00     0.004 C 
ENDBRANCH  12  13
ENDBRANCH  11  12
ENDBRANCH  10  11
ENDBRANCH   9  10
ENDBRANCH   1   9
TORSDOF 10
ENDMDL
MODEL 2
REMARK VINA RESULT:    -5.124      2.930      5.105
REMARK INTER + INTRA:          -9.119
REMARK INTER:                  -8.417
REMARK INTRA:                  -0.702
REMARK UNBOUND:                -0.999
REMARK SMILES CCCCCCCCCCCC(=O)[O-]
REMARK SMILES IDX 7 1 8 2 9 3 10 4 11 5 12 6 13 7 14 8 6 9 5 10 4 11 3 12 2 13
REMARK SMILES IDX 1 14
REMARK H PARENT
REMARK Flexibility Score: inf
ROOT
ATOM      1  C   UNL     1      50.712  50.835  22.410  1.00  0.00     0.000 C 
ENDROOT
BRANCH   1   2
ATOM      2  C   UNL     1      51.511  50.969  21.105  1.00  0.00     0.000 C 
BRANCH   2   3
ATOM      3  C   UNL     1      52.586  52.055  21.229  1.00  0.00     0.000 C 
BRANCH   3   4
ATOM      4  C   UNL     1      51.955  53.428  21.492  1.00  0.00     0.006 C 
BRANCH   4   5
ATOM      5  C   UNL     1      52.765  54.216  22.526  1.00  0.00     0.053 C 
BRANCH   5   6
ATOM      6  C   UNL     1      52.504  53.696  23.903  1.00  0.00     0.041 C 
ATOM      7  O   UNL     1      51.416  53.954  24.482  1.00  0.00    -0.550 OA
ATOM      8  O   UNL     1      53.480  52.966  24.568  1.00  0.00    -0.550 OA
ENDBRANCH   5   6
ENDBRANCH   4   5
ENDBRANCH   3   4
ENDBRANCH   2   3
ENDBRANCH   1   2
BRANCH   1   9
ATOM      9  C   UNL     1      50.178  49.411  22.635  1.00  0.00     0.000 C 
BRANCH   9  10
ATOM     10  C   UNL     1      48.970  49.374  23.584  1.00  0.00    -0.000 C 
BRANCH  10  11
ATOM     11  C   UNL     1      48.094  50.622  23.406  1.00  0.00    -0.000 C 
BRANCH  11  12
ATOM     12  C   UNL     1      47.547  51.165  24.737  1.00  0.00    -0.000 C 
BRANCH  12  13
ATOM     13  C   UNL     1      48.204  52.486  25.184  1.00  0.00    -0.003 C 
ATOM     14  C   UNL     1      47.418  53.182  26.295  1.00  0.00     0.004 C 
ENDBRANCH  12  13
ENDBRANCH  11  12
ENDBRANCH  10  11
ENDBRANCH   9  10
ENDBRANCH   1   9
TORSDOF 10
ENDMDL
MODEL 3
REMARK VINA RESULT:    -5.106      1.308      3.177
REMARK INTER + INTRA:          -9.091
REMARK INTER:                  -8.245
REMARK INTRA:                  -0.845
REMARK UNBOUND:                -0.999
REMARK SMILES CCCCCCCCCCCC(=O)[O-]
REMARK SMILES IDX 7 1 8 2 9 3 10 4 11 5 12 6 13 7 14 8 6 9 5 10 4 11 3 12 2 13
REMARK SMILES IDX 1 14
REMARK H PARENT
REMARK Flexibility Score: inf
ROOT
ATOM      1  C   UNL     1      49.595  53.244  25.168  1.00  0.00     0.000 C 
ENDROOT
BRANCH   1   2
ATOM      2  C   UNL     1      48.454  52.252  24.894  1.00  0.00     0.000 C 
BRANCH   2   3
ATOM      3  C   UNL     1      48.708  51.467  23.603  1.00  0.00     0.000 C 
BRANCH   3   4
ATOM      4  C   UNL     1      48.616  49.956  23.849  1.00  0.00     0.006 C 
BRANCH   4   5
ATOM      5  C   UNL     1      49.810  49.224  23.227  1.00  0.00     0.053 C 
BRANCH   5   6
ATOM      6  C   UNL     1      50.083  47.950  23.962  1.00  0.00     0.041 C 
ATOM      7  O   UNL     1      49.168  47.390  24.620  1.00  0.00    -0.550 OA
ATOM      8  O   UNL     1      51.361  47.407  23.960  1.00  0.00    -0.550 OA
ENDBRANCH   5   6
ENDBRANCH   4   5
ENDBRANCH   3   4
ENDBRANCH   2   3
ENDBRANCH   1   2
BRANCH   1   9
ATOM      9  C   UNL     1      50.492  53.470  23.941  1.00  0.00     0.000 C 
BRANCH   9  10
ATOM     10  C   UNL     1      51.862  54.060  24.309  1.00  0.00    -0.000 C 
BRANCH  10  11
ATOM     11  C   UNL     1      52.781  54.124  23.081  1.00  0.00    -0.000 C 
BRANCH  11  12
ATOM     12  C   UNL     1      52.063  53.741  21.775  1.00  0.00    -0.000 C 
BRANCH  12  13
ATOM     13  C   UNL     1      52.653  52.492  21.088  1.00  0.00    -0.003 C 
ATOM     14  C   UNL     1      51.701  51.298  21.134  1.00  0.00     0.004 C 
ENDBRANCH  12  13
ENDBRANCH  11  12
ENDBRANCH  10  11
ENDBRANCH   9  10
ENDBRANCH   1   9
TORSDOF 10
ENDMDL
MODEL 4
REMARK VINA RESULT:    -5.070      1.503      2.878
REMARK INTER + INTRA:          -9.032
REMARK INTER:                  -8.199
REMARK INTRA:                  -0.833
REMARK UNBOUND:                -0.999
REMARK SMILES CCCCCCCCCCCC(=O)[O-]
REMARK SMILES IDX 7 1 8 2 9 3 10 4 11 5 12 6 13 7 14 8 6 9 5 10 4 11 3 12 2 13
REMARK SMILES IDX 1 14
REMARK H PARENT
REMARK Flexibility Score: inf
ROOT
ATOM      1  C   UNL     1      49.745  52.439  23.638  1.00  0.00     0.000 C 
ENDROOT
BRANCH   1   2
ATOM      2  C   UNL     1      48.356  51.958  24.086  1.00  0.00     0.000 C 
BRANCH   2   3
ATOM      3  C   UNL     1      47.952  50.679  23.344  1.00  0.00     0.000 C 
BRANCH   3   4
ATOM      4  C   UNL     1      48.470  49.432  24.071  1.00  0.00     0.006 C 
BRANCH   4   5
ATOM      5  C   UNL     1      49.664  48.821  23.331  1.00  0.00     0.053 C 
BRANCH   5   6
ATOM      6  C   UNL     1      50.208  47.652  24.090  1.00  0.00     0.041 C 
ATOM      7  O   UNL     1      49.491  47.057  24.936  1.00  0.00    -0.550 OA
ATOM      8  O   UNL     1      51.523  47.250  23.900  1.00  0.00    -0.550 OA
ENDBRANCH   5   6
ENDBRANCH   4   5
ENDBRANCH   3   4
ENDBRANCH   2   3
ENDBRANCH   1   2
BRANCH   1   9
ATOM      9  C   UNL     1      49.817  52.717  22.129  1.00  0.00     0.000 C 
BRANCH   9  10
ATOM     10  C   UNL     1      50.803  51.790  21.402  1.00  0.00    -0.000 C 
BRANCH  10  11
ATOM     11  C   UNL     1      52.247  52.283  21.572  1.00  0.00    -0.000 C 
BRANCH  11  12
ATOM     12  C   UNL     1      52.353  53.816  21.647  1.00  0.00    -0.000 C 
BRANCH  12  13
ATOM     13  C   UNL     1      52.931  54.332  22.980  1.00  0.00    -0.003 C 
ATOM     14  C   UNL     1      53.915  53.345  23.609  1.00  0.00     0.004 C 
ENDBRANCH  12  13
ENDBRANCH  11  12
ENDBRANCH  10  11
ENDBRANCH   9  10
ENDBRANCH   1   9
TORSDOF 10
ENDMDL
MODEL 5
REMARK VINA RESULT:    -5.068      3.095      5.511
REMARK INTER + INTRA:          -9.030
REMARK INTER:                  -7.949
REMARK INTRA:                  -1.081
REMARK UNBOUND:                -0.999
REMARK SMILES CCCCCCCCCCCC(=O)[O-]
REMARK SMILES IDX 7 1 8 2 9 3 10 4 11 5 12 6 13 7 14 8 6 9 5 10 4 11 3 12 2 13
REMARK SMILES IDX 1 14
REMARK H PARENT
REMARK Flexibility Score: inf
ROOT
ATOM      1  C   UNL     1      49.303  51.917  21.883  1.00  0.00     0.000 C 
ENDROOT
BRANCH   1   2
ATOM      2  C   UNL     1      50.452  51.322  21.054  1.00  0.00     0.000 C 
BRANCH   2   3
ATOM      3  C   UNL     1      51.800  51.544  21.748  1.00  0.00     0.000 C 
BRANCH   3   4
ATOM      4  C   UNL     1      52.580  52.687  21.086  1.00  0.00     0.006 C 
BRANCH   4   5
ATOM      5  C   UNL     1      52.346  54.010  21.822  1.00  0.00     0.053 C 
BRANCH   5   6
ATOM      6  C   UNL     1      52.972  53.972  23.179  1.00  0.00     0.041 C 
ATOM      7  O   UNL     1      54.099  53.436  23.342  1.00  0.00    -0.550 OA
ATOM      8  O   UNL     1      52.290  54.485  24.275  1.00  0.00    -0.550 OA
ENDBRANCH   5   6
ENDBRANCH   4   5
ENDBRANCH   3   4
ENDBRANCH   2   3
ENDBRANCH   1   2
BRANCH   1   9
ATOM      9  C   UNL     1      49.666  52.083  23.367  1.00  0.00     0.000 C 
BRANCH   9  10
ATOM     10  C   UNL     1      48.716  51.315  24.298  1.00  0.00    -0.000 C 
BRANCH  10  11
ATOM     11  C   UNL     1      48.154  50.067  23.602  1.00  0.00    -0.000 C 
BRANCH  11  12
ATOM     12  C   UNL     1      48.858  48.770  24.036  1.00  0.00    -0.000 C 
BRANCH  12  13
ATOM     13  C   UNL     1      50.101  48.428  23.190  1.00  0.00    -0.003 C 
ATOM     14  C   UNL     1      51.092  47.542  23.944  1.00  0.00     0.004 C 
ENDBRANCH  12  13
ENDBRANCH  11  12
ENDBRANCH  10  11
ENDBRANCH   9  10
ENDBRANCH   1   9
TORSDOF 10
ENDMDL
MODEL 6
REMARK VINA RESULT:    -5.062      2.536      3.801
REMARK INTER + INTRA:          -9.019
REMARK INTER:                  -8.248
REMARK INTRA:                  -0.772
REMARK UNBOUND:                -0.999
REMARK SMILES CCCCCCCCCCCC(=O)[O-]
REMARK SMILES IDX 7 1 8 2 9 3 10 4 11 5 12 6 13 7 14 8 6 9 5 10 4 11 3 12 2 13
REMARK SMILES IDX 1 14
REMARK H PARENT
REMARK Flexibility Score: inf
ROOT
ATOM      1  C   UNL     1      50.687  51.093  22.400  1.00  0.00     0.000 C 
ENDROOT
BRANCH   1   2
ATOM      2  C   UNL     1      49.980  49.763  22.703  1.00  0.00     0.000 C 
BRANCH   2   3
ATOM      3  C   UNL     1      48.685  49.995  23.488  1.00  0.00     0.000 C 
BRANCH   3   4
ATOM      4  C   UNL     1      48.283  51.475  23.464  1.00  0.00     0.006 C 
BRANCH   4   5
ATOM      5  C   UNL     1      47.646  51.894  24.793  1.00  0.00     0.053 C 
BRANCH   5   6
ATOM      6  C   UNL     1      48.541  52.841  25.527  1.00  0.00     0.041 C 
ATOM      7  O   UNL     1      48.248  53.215  26.692  1.00  0.00    -0.550 OA
ATOM      8  O   UNL     1      49.675  53.349  24.906  1.00  0.00    -0.550 OA
ENDBRANCH   5   6
ENDBRANCH   4   5
ENDBRANCH   3   4
ENDBRANCH   2   3
ENDBRANCH   1   2
BRANCH   1   9
ATOM      9  C   UNL     1      51.599  51.013  21.166  1.00  0.00     0.000 C 
BRANCH   9  10
ATOM     10  C   UNL     1      52.541  52.221  21.048  1.00  0.00    -0.000 C 
BRANCH  10  11
ATOM     11  C   UNL     1      52.909  52.769  22.434  1.00  0.00    -0.000 C 
BRANCH  11  12
ATOM     12  C   UNL     1      52.711  54.291  22.548  1.00  0.00    -0.000 C 
BRANCH  12  13
ATOM     13  C   UNL     1      52.042  54.922  21.311  1.00  0.00    -0.003 C 
ATOM     14  C   UNL     1      52.647  56.279  20.950  1.00  0.00     0.004 C 
ENDBRANCH  12  13
ENDBRANCH  11  12
ENDBRANCH  10  11
ENDBRANCH   9  10
ENDBRANCH   1   9
TORSDOF 10
ENDMDL
MODEL 7
REMARK VINA RESULT:    -5.014      2.238      3.225
REMARK INTER + INTRA:          -8.944
REMARK INTER:                  -7.977
REMARK INTRA:                  -0.967
REMARK UNBOUND:                -0.999
REMARK SMILES CCCCCCCCCCCC(=O)[O-]
REMARK SMILES IDX 7 1 8 2 9 3 10 4 11 5 12 6 13 7 14 8 6 9 5 10 4 11 3 12 2 13
REMARK SMILES IDX 1 14
REMARK H PARENT
REMARK Flexibility Score: inf
ROOT
ATOM      1  C   UNL     1      50.427  50.737  21.341  1.00  0.00     0.000 C 
ENDROOT
BRANCH   1   2
ATOM      2  C   UNL     1      50.424  49.687  22.463  1.00  0.00     0.000 C 
BRANCH   2   3
ATOM      3  C   UNL     1      49.046  49.599  23.127  1.00  0.00     0.000 C 
BRANCH   3   4
ATOM      4  C   UNL     1      48.228  50.871  22.874  1.00  0.00     0.006 C 
BRANCH   4   5
ATOM      5  C   UNL     1      47.050  50.971  23.847  1.00  0.00     0.053 C 
BRANCH   5   6
ATOM      6  C   UNL     1      47.401  51.848  25.006  1.00  0.00     0.041 C 
ATOM      7  O   UNL     1      48.498  52.465  25.024  1.00  0.00    -0.550 OA
ATOM      8  O   UNL     1      46.539  51.946  26.091  1.00  0.00    -0.550 OA
ENDBRANCH   5   6
ENDBRANCH   4   5
ENDBRANCH   3   4
ENDBRANCH   2   3
ENDBRANCH   1   2
BRANCH   1   9
ATOM      9  C   UNL     1      51.815  51.358  21.114  1.00  0.00     0.000 C 
BRANCH   9  10
ATOM     10  C   UNL     1      51.783  52.894  21.118  1.00  0.00    -0.000 C 
BRANCH  10  11
ATOM     11  C   UNL     1      50.867  53.422  22.231  1.00  0.00    -0.000 C 
BRANCH  11  12
ATOM     12  C   UNL     1      51.590  53.578  23.580  1.00  0.00    -0.000 C 
BRANCH  12  13
ATOM     13  C   UNL     1      52.993  54.208  23.460  1.00  0.00    -0.003 C 
ATOM     14  C   UNL     1      54.109  53.201  23.736  1.00  0.00     0.004 C 
ENDBRANCH  12  13
ENDBRANCH  11  12
ENDBRANCH  10  11
ENDBRANCH   9  10
ENDBRANCH   1   9
TORSDOF 10
ENDMDL
MODEL 8
REMARK VINA RESULT:    -5.002      1.471      2.276
REMARK INTER + INTRA:          -8.925
REMARK INTER:                  -8.019
REMARK INTRA:                  -0.906
REMARK UNBOUND:                -0.999
REMARK SMILES CCCCCCCCCCCC(=O)[O-]
REMARK SMILES IDX 7 1 8 2 9 3 10 4 11 5 12 6 13 7 14 8 6 9 5 10 4 11 3 12 2 13
REMARK SMILES IDX 1 14
REMARK H PARENT
REMARK Flexibility Score: inf
ROOT
ATOM      1  C   UNL     1      52.037  52.442  21.747  1.00  0.00     0.000 C 
ENDROOT
BRANCH   1   2
ATOM      2  C   UNL     1      51.550  51.081  21.226  1.00  0.00     0.000 C 
BRANCH   2   3
ATOM      3  C   UNL     1      50.023  50.977  21.307  1.00  0.00     0.000 C 
BRANCH   3   4
ATOM      4  C   UNL     1      49.596  49.810  22.204  1.00  0.00     0.006 C 
BRANCH   4   5
ATOM      5  C   UNL     1      50.793  48.924  22.562  1.00  0.00     0.053 C 
BRANCH   5   6
ATOM      6  C   UNL     1      50.448  48.009  23.693  1.00  0.00     0.041 C 
ATOM      7  O   UNL     1      51.299  47.189  24.127  1.00  0.00    -0.550 OA
ATOM      8  O   UNL     1      49.170  48.025  24.236  1.00  0.00    -0.550 OA
ENDBRANCH   5   6
ENDBRANCH   4   5
ENDBRANCH   3   4
ENDBRANCH   2   3
ENDBRANCH   1   2
BRANCH   1   9
ATOM      9  C   UNL     1      50.937  53.223  22.483  1.00  0.00     0.000 C 
BRANCH   9  10
ATOM     10  C   UNL     1      51.288  53.496  23.953  1.00  0.00    -0.000 C 
BRANCH  10  11
ATOM     11  C   UNL     1      50.024  53.515  24.825  1.00  0.00    -0.000 C 
BRANCH  11  12
ATOM     12  C   UNL     1      48.972  52.485  24.378  1.00  0.00    -0.000 C 
BRANCH  12  13
ATOM     13  C   UNL     1      47.725  52.440  25.284  1.00  0.00    -0.003 C 
ATOM     14  C   UNL     1      47.939  53.178  26.606  1.00  0.00     0.004 C 
ENDBRANCH  12  13
ENDBRANCH  11  12
ENDBRANCH  10  11
ENDBRANCH   9  10
ENDBRANCH   1   9
TORSDOF 10
ENDMDL
MODEL 9
REMARK VINA RESULT:    -4.898      3.324      5.162
REMARK INTER + INTRA:          -8.760
REMARK INTER:                  -7.739
REMARK INTRA:                  -1.021
REMARK UNBOUND:                -0.999
REMARK SMILES CCCCCCCCCCCC(=O)[O-]
REMARK SMILES IDX 7 1 8 2 9 3 10 4 11 5 12 6 13 7 14 8 6 9 5 10 4 11 3 12 2 13
REMARK SMILES IDX 1 14
REMARK H PARENT
REMARK Flexibility Score: inf
ROOT
ATOM      1  C   UNL     1      49.255  50.273  23.322  1.00  0.00     0.000 C 
ENDROOT
BRANCH   1   2
ATOM      2  C   UNL     1      50.304  49.737  22.335  1.00  0.00     0.000 C 
BRANCH   2   3
ATOM      3  C   UNL     1      50.454  50.674  21.132  1.00  0.00     0.000 C 
BRANCH   3   4
ATOM      4  C   UNL     1      51.847  51.314  21.101  1.00  0.00     0.006 C 
BRANCH   4   5
ATOM      5  C   UNL     1      51.769  52.817  21.388  1.00  0.00     0.053 C 
BRANCH   5   6
ATOM      6  C   UNL     1      52.272  53.114  22.764  1.00  0.00     0.041 C 
ATOM      7  O   UNL     1      53.502  53.289  22.965  1.00  0.00    -0.550 OA
ATOM      8  O   UNL     1      51.388  53.149  23.835  1.00  0.00    -0.550 OA
ENDBRANCH   5   6
ENDBRANCH   4   5
ENDBRANCH   3   4
ENDBRANCH   2   3
ENDBRANCH   1   2
BRANCH   1   9
ATOM      9  C   UNL     1      48.220  51.187  22.648  1.00  0.00     0.000 C 
BRANCH   9  10
ATOM     10  C   UNL     1      46.854  51.154  23.352  1.00  0.00    -0.000 C 
BRANCH  10  11
ATOM     11  C   UNL     1      47.007  50.765  24.829  1.00  0.00    -0.000 C 
BRANCH  11  12
ATOM     12  C   UNL     1      46.289  51.736  25.782  1.00  0.00    -0.000 C 
BRANCH  12  13
ATOM     13  C   UNL     1      46.983  53.108  25.905  1.00  0.00    -0.003 C 
ATOM     14  C   UNL     1      48.495  52.980  26.094  1.00  0.00     0.004 C 
ENDBRANCH  12  13
ENDBRANCH  11  12
ENDBRANCH  10  11
ENDBRANCH   9  10
ENDBRANCH   1   9
TORSDOF 10
ENDMDL
