MODEL 1
REMARK VINA RESULT:    -5.939      0.000      0.000
REMARK INTER + INTRA:         -21.556
REMARK INTER:                 -15.661
REMARK INTRA:                  -5.895
REMARK UNBOUND:                -5.895
REMARK SMILES CCCCCCCCCCCCCCCCCCCCCCCCCCCCCC(=O)[O-]
REMARK SMILES IDX 16 1 17 2 18 3 19 4 20 5 21 6 22 7 23 8 24 9 25 10 26 11
REMARK SMILES IDX 27 12 28 13 29 14 30 15 31 16 32 17 15 18 14 19 13 20 12 21
REMARK SMILES IDX 11 22 10 23 9 24 8 25 7 26 6 27 5 28 4 29 3 30 2 31 1 32
REMARK H PARENT
REMARK Flexibility Score: inf
ROOT
ATOM      1  C   UNL     1      12.457  73.141  -1.635  1.00  0.00     0.000 C 
ENDROOT
BRANCH   1   2
ATOM      2  C   UNL     1      11.784  71.910  -1.005  1.00  0.00     0.000 C 
BRANCH   2   3
ATOM      3  C   UNL     1      10.615  71.370  -1.848  1.00  0.00     0.000 C 
BRANCH   3   4
ATOM      4  C   UNL     1      10.670  71.722  -3.349  1.00  0.00     0.000 C 
BRANCH   4   5
ATOM      5  C   UNL     1       9.505  71.175  -4.191  1.00  0.00     0.000 C 
BRANCH   5   6
ATOM      6  C   UNL     1       9.499  71.718  -5.627  1.00  0.00     0.000 C 
BRANCH   6   7
ATOM      7  C   UNL     1      10.757  72.551  -5.905  1.00  0.00     0.000 C 
BRANCH   7   8
ATOM      8  C   UNL     1      10.394  74.003  -6.250  1.00  0.00     0.000 C 
BRANCH   8   9
ATOM      9  C   UNL     1       8.917  74.335  -5.962  1.00  0.00     0.000 C 
BRANCH   9  10
ATOM     10  C   UNL     1       8.665  75.158  -4.682  1.00  0.00     0.000 C 
BRANCH  10  11
ATOM     11  C   UNL     1       7.828  74.447  -3.604  1.00  0.00     0.000 C 
BRANCH  11  12
ATOM     12  C   UNL     1       8.510  74.439  -2.228  1.00  0.00     0.000 C 
BRANCH  12  13
ATOM     13  C   UNL     1       9.526  75.585  -2.117  1.00  0.00     0.006 C 
BRANCH  13  14
ATOM     14  C   UNL     1       9.233  76.511  -0.927  1.00  0.00     0.053 C 
BRANCH  14  15
ATOM     15  C   UNL     1       8.384  77.684  -1.316  1.00  0.00     0.041 C 
ATOM     16  O   UNL     1       8.023  77.840  -2.514  1.00  0.00    -0.550 OA
ATOM     17  O   UNL     1       7.990  78.606  -0.355  1.00  0.00    -0.550 OA
ENDBRANCH  14  15
ENDBRANCH  13  14
ENDBRANCH  12  13
ENDBRANCH  11  12
ENDBRANCH  10  11
ENDBRANCH   9  10
ENDBRANCH   8   9
ENDBRANCH   7   8
ENDBRANCH   6   7
ENDBRANCH   5   6
ENDBRANCH   4   5
ENDBRANCH   3   4
ENDBRANCH   2   3
ENDBRANCH   1   2
BRANCH   1  18
ATOM     18  C   UNL     1      13.967  72.912  -1.800  1.00  0.00     0.000 C 
BRANCH  18  19
ATOM     19  C   UNL     1      14.468  73.257  -3.211  1.00  0.00     0.000 C 
BRANCH  19  20
ATOM     20  C   UNL     1      13.439  74.053  -4.030  1.00  0.00     0.000 C 
BRANCH  20  21
ATOM     21  C   UNL     1      13.857  75.515  -4.260  1.00  0.00     0.000 C 
BRANCH  21  22
ATOM     22  C   UNL     1      13.091  76.527  -3.381  1.00  0.00     0.000 C 
BRANCH  22  23
ATOM     23  C   UNL     1      13.954  77.746  -3.002  1.00  0.00     0.000 C 
BRANCH  23  24
ATOM     24  C   UNL     1      13.127  79.032  -2.845  1.00  0.00    -0.000 C 
BRANCH  24  25
ATOM     25  C   UNL     1      11.770  78.783  -2.162  1.00  0.00    -0.000 C 
BRANCH  25  26
ATOM     26  C   UNL     1      11.235  80.032  -1.443  1.00  0.00    -0.000 C 
BRANCH  26  27
ATOM     27  C   UNL     1      11.544  80.027   0.065  1.00  0.00    -0.000 C 
BRANCH  27  28
ATOM     28  C   UNL     1      12.834  80.792   0.405  1.00  0.00    -0.000 C 
BRANCH  28  29
ATOM     29  C   UNL     1      13.947  79.866   0.929  1.00  0.00    -0.000 C 
BRANCH  29  30
ATOM     30  C   UNL     1      13.409  78.506   1.405  1.00  0.00    -0.000 C 
BRANCH  30  31
ATOM     31  C   UNL     1      14.113  77.320   0.730  1.00  0.00    -0.003 C 
ATOM     32  C   UNL     1      13.103  76.272   0.274  1.00  0.00     0.004 C 
ENDBRANCH  30  31
ENDBRANCH  29  30
ENDBRANCH  28  29
ENDBRANCH  27  28
ENDBRANCH  26  27
ENDBRANCH  25  26
ENDBRANCH  24  25
ENDBRANCH  23  24
ENDBRANCH  22  23
ENDBRANCH  21  22
ENDBRANCH  20  21
ENDBRANCH  19  20
ENDBRANCH  18  19
ENDBRANCH   1  18
TORSDOF 28
ENDMDL
MODEL 2
REMARK VINA RESULT:    -5.747      2.072      5.980
REMARK INTER + INTRA:         -21.050
REMARK INTER:                 -16.009
REMARK INTRA:                  -5.041
REMARK UNBOUND:                -5.895
REMARK SMILES CCCCCCCCCCCCCCCCCCCCCCCCCCCCCC(=O)[O-]
REMARK SMILES IDX 16 1 17 2 18 3 19 4 20 5 21 6 22 7 23 8 24 9 25 10 26 11
REMARK SMILES IDX 27 12 28 13 29 14 30 15 31 16 32 17 15 18 14 19 13 20 12 21
REMARK SMILES IDX 11 22 10 23 9 24 8 25 7 26 6 27 5 28 4 29 3 30 2 31 1 32
REMARK H PARENT
REMARK Flexibility Score: inf
ROOT
ATOM      1  C   UNL     1      11.530  72.714  -2.118  1.00  0.00     0.000 C 
ENDROOT
BRANCH   1   2
ATOM      2  C   UNL     1      12.849  72.507  -1.355  1.00  0.00     0.000 C 
BRANCH   2   3
ATOM      3  C   UNL     1      14.085  72.916  -2.175  1.00  0.00     0.000 C 
BRANCH   3   4
ATOM      4  C   UNL     1      13.806  73.279  -3.648  1.00  0.00     0.000 C 
BRANCH   4   5
ATOM      5  C   UNL     1      14.008  74.763  -4.005  1.00  0.00     0.000 C 
BRANCH   5   6
ATOM      6  C   UNL     1      12.685  75.500  -4.263  1.00  0.00     0.000 C 
BRANCH   6   7
ATOM      7  C   UNL     1      12.208  76.231  -3.002  1.00  0.00     0.000 C 
BRANCH   7   8
ATOM      8  C   UNL     1      13.384  76.887  -2.265  1.00  0.00     0.000 C 
BRANCH   8   9
ATOM      9  C   UNL     1      13.550  78.379  -2.610  1.00  0.00     0.000 C 
BRANCH   9  10
ATOM     10  C   UNL     1      12.367  79.284  -2.207  1.00  0.00     0.000 C 
BRANCH  10  11
ATOM     11  C   UNL     1      12.559  80.062  -0.893  1.00  0.00     0.000 C 
BRANCH  11  12
ATOM     12  C   UNL     1      14.036  80.212  -0.499  1.00  0.00     0.000 C 
BRANCH  12  13
ATOM     13  C   UNL     1      14.284  79.653   0.909  1.00  0.00     0.006 C 
BRANCH  13  14
ATOM     14  C   UNL     1      14.946  78.267   0.878  1.00  0.00     0.053 C 
BRANCH  14  15
ATOM     15  C   UNL     1      14.454  77.378   1.981  1.00  0.00     0.041 C 
ATOM     16  O   UNL     1      15.121  76.366   2.329  1.00  0.00    -0.550 OA
ATOM     17  O   UNL     1      13.258  77.667   2.624  1.00  0.00    -0.550 OA
ENDBRANCH  14  15
ENDBRANCH  13  14
ENDBRANCH  12  13
ENDBRANCH  11  12
ENDBRANCH  10  11
ENDBRANCH   9  10
ENDBRANCH   8   9
ENDBRANCH   7   8
ENDBRANCH   6   7
ENDBRANCH   5   6
ENDBRANCH   4   5
ENDBRANCH   3   4
ENDBRANCH   2   3
ENDBRANCH   1   2
BRANCH   1  18
ATOM     18  C   UNL     1      10.703  71.421  -2.140  1.00  0.00     0.000 C 
BRANCH  18  19
ATOM     19  C   UNL     1       9.762  71.339  -3.353  1.00  0.00     0.000 C 
BRANCH  19  20
ATOM     20  C   UNL     1      10.427  71.815  -4.655  1.00  0.00     0.000 C 
BRANCH  20  21
ATOM     21  C   UNL     1       9.491  71.728  -5.872  1.00  0.00     0.000 C 
BRANCH  21  22
ATOM     22  C   UNL     1       8.746  73.044  -6.180  1.00  0.00     0.000 C 
BRANCH  22  23
ATOM     23  C   UNL     1       9.609  74.288  -5.897  1.00  0.00     0.000 C 
BRANCH  23  24
ATOM     24  C   UNL     1       9.052  75.149  -4.752  1.00  0.00    -0.000 C 
BRANCH  24  25
ATOM     25  C   UNL     1       7.622  74.745  -4.350  1.00  0.00    -0.000 C 
BRANCH  25  26
ATOM     26  C   UNL     1       7.344  74.976  -2.856  1.00  0.00    -0.000 C 
BRANCH  26  27
ATOM     27  C   UNL     1       8.540  74.602  -1.963  1.00  0.00    -0.000 C 
BRANCH  27  28
ATOM     28  C   UNL     1       8.926  75.729  -0.992  1.00  0.00    -0.000 C 
BRANCH  28  29
ATOM     29  C   UNL     1       8.088  77.003  -1.205  1.00  0.00    -0.000 C 
BRANCH  29  30
ATOM     30  C   UNL     1       8.928  78.184  -1.720  1.00  0.00    -0.000 C 
BRANCH  30  31
ATOM     31  C   UNL     1       8.529  79.520  -1.077  1.00  0.00    -0.003 C 
ATOM     32  C   UNL     1       7.999  80.495  -2.124  1.00  0.00     0.004 C 
ENDBRANCH  30  31
ENDBRANCH  29  30
ENDBRANCH  28  29
ENDBRANCH  27  28
ENDBRANCH  26  27
ENDBRANCH  25  26
ENDBRANCH  24  25
ENDBRANCH  23  24
ENDBRANCH  22  23
ENDBRANCH  21  22
ENDBRANCH  20  21
ENDBRANCH  19  20
ENDBRANCH  18  19
ENDBRANCH   1  18
TORSDOF 28
ENDMDL
MODEL 3
REMARK VINA RESULT:    -5.744      1.167      2.247
REMARK INTER + INTRA:         -21.043
REMARK INTER:                 -15.540
REMARK INTRA:                  -5.503
REMARK UNBOUND:                -5.895
REMARK SMILES CCCCCCCCCCCCCCCCCCCCCCCCCCCCCC(=O)[O-]
REMARK SMILES IDX 16 1 17 2 18 3 19 4 20 5 21 6 22 7 23 8 24 9 25 10 26 11
REMARK SMILES IDX 27 12 28 13 29 14 30 15 31 16 32 17 15 18 14 19 13 20 12 21
REMARK SMILES IDX 11 22 10 23 9 24 8 25 7 26 6 27 5 28 4 29 3 30 2 31 1 32
REMARK H PARENT
REMARK Flexibility Score: inf
ROOT
ATOM      1  C   UNL     1      12.241  73.053  -1.524  1.00  0.00     0.000 C 
ENDROOT
BRANCH   1   2
ATOM      2  C   UNL     1      11.496  71.712  -1.627  1.00  0.00     0.000 C 
BRANCH   2   3
ATOM      3  C   UNL     1      10.088  71.854  -2.232  1.00  0.00     0.000 C 
BRANCH   3   4
ATOM      4  C   UNL     1       9.847  71.051  -3.527  1.00  0.00     0.000 C 
BRANCH   4   5
ATOM      5  C   UNL     1      10.244  71.773  -4.827  1.00  0.00     0.000 C 
BRANCH   5   6
ATOM      6  C   UNL     1       9.088  71.867  -5.834  1.00  0.00     0.000 C 
BRANCH   6   7
ATOM      7  C   UNL     1       8.808  73.326  -6.215  1.00  0.00     0.000 C 
BRANCH   7   8
ATOM      8  C   UNL     1       8.449  74.162  -4.978  1.00  0.00     0.000 C 
BRANCH   8   9
ATOM      9  C   UNL     1       9.613  75.047  -4.495  1.00  0.00     0.000 C 
BRANCH   9  10
ATOM     10  C   UNL     1       9.608  75.376  -2.987  1.00  0.00     0.000 C 
BRANCH  10  11
ATOM     11  C   UNL     1       8.395  74.837  -2.207  1.00  0.00     0.000 C 
BRANCH  11  12
ATOM     12  C   UNL     1       7.398  75.938  -1.819  1.00  0.00     0.000 C 
BRANCH  12  13
ATOM     13  C   UNL     1       8.008  77.330  -2.043  1.00  0.00     0.006 C 
BRANCH  13  14
ATOM     14  C   UNL     1       8.180  78.110  -0.731  1.00  0.00     0.053 C 
BRANCH  14  15
ATOM     15  C   UNL     1       7.726  79.534  -0.853  1.00  0.00     0.041 C 
ATOM     16  O   UNL     1       7.364  80.177   0.169  1.00  0.00    -0.550 OA
ATOM     17  O   UNL     1       7.702  80.150  -2.097  1.00  0.00    -0.550 OA
ENDBRANCH  14  15
ENDBRANCH  13  14
ENDBRANCH  12  13
ENDBRANCH  11  12
ENDBRANCH  10  11
ENDBRANCH   9  10
ENDBRANCH   8   9
ENDBRANCH   7   8
ENDBRANCH   6   7
ENDBRANCH   5   6
ENDBRANCH   4   5
ENDBRANCH   3   4
ENDBRANCH   2   3
ENDBRANCH   1   2
BRANCH   1  18
ATOM     18  C   UNL     1      13.749  72.857  -1.742  1.00  0.00     0.000 C 
BRANCH  18  19
ATOM     19  C   UNL     1      14.216  73.345  -3.123  1.00  0.00     0.000 C 
BRANCH  19  20
ATOM     20  C   UNL     1      13.054  73.820  -4.011  1.00  0.00     0.000 C 
BRANCH  20  21
ATOM     21  C   UNL     1      13.344  75.157  -4.713  1.00  0.00     0.000 C 
BRANCH  21  22
ATOM     22  C   UNL     1      13.864  76.259  -3.765  1.00  0.00     0.000 C 
BRANCH  22  23
ATOM     23  C   UNL     1      12.767  76.788  -2.822  1.00  0.00     0.000 C 
BRANCH  23  24
ATOM     24  C   UNL     1      13.091  76.545  -1.339  1.00  0.00    -0.000 C 
BRANCH  24  25
ATOM     25  C   UNL     1      11.906  76.872  -0.414  1.00  0.00    -0.000 C 
BRANCH  25  26
ATOM     26  C   UNL     1      12.254  77.944   0.632  1.00  0.00    -0.000 C 
BRANCH  26  27
ATOM     27  C   UNL     1      13.732  78.371   0.575  1.00  0.00    -0.000 C 
BRANCH  27  28
ATOM     28  C   UNL     1      13.919  79.877   0.827  1.00  0.00    -0.000 C 
BRANCH  28  29
ATOM     29  C   UNL     1      13.238  80.743  -0.248  1.00  0.00    -0.000 C 
BRANCH  29  30
ATOM     30  C   UNL     1      13.743  80.430  -1.667  1.00  0.00    -0.000 C 
BRANCH  30  31
ATOM     31  C   UNL     1      12.606  80.337  -2.694  1.00  0.00    -0.003 C 
ATOM     32  C   UNL     1      11.246  80.312  -2.004  1.00  0.00     0.004 C 
ENDBRANCH  30  31
ENDBRANCH  29  30
ENDBRANCH  28  29
ENDBRANCH  27  28
ENDBRANCH  26  27
ENDBRANCH  25  26
ENDBRANCH  24  25
ENDBRANCH  23  24
ENDBRANCH  22  23
ENDBRANCH  21  22
ENDBRANCH  20  21
ENDBRANCH  19  20
ENDBRANCH  18  19
ENDBRANCH   1  18
TORSDOF 28
ENDMDL
MODEL 4
REMARK VINA RESULT:    -5.732      2.221      5.536
REMARK INTER + INTRA:         -21.009
REMARK INTER:                 -15.587
REMARK INTRA:                  -5.421
REMARK UNBOUND:                -5.895
REMARK SMILES CCCCCCCCCCCCCCCCCCCCCCCCCCCCCC(=O)[O-]
REMARK SMILES IDX 16 1 17 2 18 3 19 4 20 5 21 6 22 7 23 8 24 9 25 10 26 11
REMARK SMILES IDX 27 12 28 13 29 14 30 15 31 16 32 17 15 18 14 19 13 20 12 21
REMARK SMILES IDX 11 22 10 23 9 24 8 25 7 26 6 27 5 28 4 29 3 30 2 31 1 32
REMARK H PARENT
REMARK Flexibility Score: inf
ROOT
ATOM      1  C   UNL     1      10.644  71.663  -4.480  1.00  0.00     0.000 C 
ENDROOT
BRANCH   1   2
ATOM      2  C   UNL     1       9.455  71.790  -3.513  1.00  0.00     0.000 C 
BRANCH   2   3
ATOM      3  C   UNL     1       9.891  72.027  -2.056  1.00  0.00     0.000 C 
BRANCH   3   4
ATOM      4  C   UNL     1      11.412  71.956  -1.806  1.00  0.00     0.000 C 
BRANCH   4   5
ATOM      5  C   UNL     1      12.070  73.288  -1.405  1.00  0.00     0.000 C 
BRANCH   5   6
ATOM      6  C   UNL     1      13.575  73.326  -1.711  1.00  0.00     0.000 C 
BRANCH   6   7
ATOM      7  C   UNL     1      13.832  73.212  -3.219  1.00  0.00     0.000 C 
BRANCH   7   8
ATOM      8  C   UNL     1      13.114  74.329  -3.989  1.00  0.00     0.000 C 
BRANCH   8   9
ATOM      9  C   UNL     1      13.990  75.582  -4.182  1.00  0.00     0.000 C 
BRANCH   9  10
ATOM     10  C   UNL     1      13.577  76.808  -3.342  1.00  0.00     0.000 C 
BRANCH  10  11
ATOM     11  C   UNL     1      12.165  76.737  -2.735  1.00  0.00     0.000 C 
BRANCH  11  12
ATOM     12  C   UNL     1      12.133  77.128  -1.250  1.00  0.00     0.000 C 
BRANCH  12  13
ATOM     13  C   UNL     1      13.557  77.306  -0.703  1.00  0.00     0.006 C 
BRANCH  13  14
ATOM     14  C   UNL     1      13.847  76.370   0.481  1.00  0.00     0.053 C 
BRANCH  14  15
ATOM     15  C   UNL     1      13.800  77.088   1.797  1.00  0.00     0.041 C 
ATOM     16  O   UNL     1      13.583  78.329   1.838  1.00  0.00    -0.550 OA
ATOM     17  O   UNL     1      13.998  76.385   2.979  1.00  0.00    -0.550 OA
ENDBRANCH  14  15
ENDBRANCH  13  14
ENDBRANCH  12  13
ENDBRANCH  11  12
ENDBRANCH  10  11
ENDBRANCH   9  10
ENDBRANCH   8   9
ENDBRANCH   7   8
ENDBRANCH   6   7
ENDBRANCH   5   6
ENDBRANCH   4   5
ENDBRANCH   3   4
ENDBRANCH   2   3
ENDBRANCH   1   2
BRANCH   1  18
ATOM     18  C   UNL     1      10.276  72.200  -5.871  1.00  0.00     0.000 C 
BRANCH  18  19
ATOM     19  C   UNL     1       8.833  72.725  -5.940  1.00  0.00     0.000 C 
BRANCH  19  20
ATOM     20  C   UNL     1       8.763  74.238  -6.204  1.00  0.00     0.000 C 
BRANCH  20  21
ATOM     21  C   UNL     1       9.647  75.055  -5.246  1.00  0.00     0.000 C 
BRANCH  21  22
ATOM     22  C   UNL     1       8.968  75.382  -3.898  1.00  0.00     0.000 C 
BRANCH  22  23
ATOM     23  C   UNL     1       7.556  75.971  -4.080  1.00  0.00     0.000 C 
BRANCH  23  24
ATOM     24  C   UNL     1       6.477  75.165  -3.339  1.00  0.00    -0.000 C 
BRANCH  24  25
ATOM     25  C   UNL     1       7.024  74.457  -2.086  1.00  0.00    -0.000 C 
BRANCH  25  26
ATOM     26  C   UNL     1       6.506  75.084  -0.782  1.00  0.00    -0.000 C 
BRANCH  26  27
ATOM     27  C   UNL     1       7.456  76.155  -0.219  1.00  0.00    -0.000 C 
BRANCH  27  28
ATOM     28  C   UNL     1       6.705  77.389   0.309  1.00  0.00    -0.000 C 
BRANCH  28  29
ATOM     29  C   UNL     1       7.368  78.710  -0.122  1.00  0.00    -0.000 C 
BRANCH  29  30
ATOM     30  C   UNL     1       8.174  78.570  -1.425  1.00  0.00    -0.000 C 
BRANCH  30  31
ATOM     31  C   UNL     1       8.236  79.878  -2.227  1.00  0.00    -0.003 C 
ATOM     32  C   UNL     1       9.437  80.720  -1.806  1.00  0.00     0.004 C 
ENDBRANCH  30  31
ENDBRANCH  29  30
ENDBRANCH  28  29
ENDBRANCH  27  28
ENDBRANCH  26  27
ENDBRANCH  25  26
ENDBRANCH  24  25
ENDBRANCH  23  24
ENDBRANCH  22  23
ENDBRANCH  21  22
ENDBRANCH  20  21
ENDBRANCH  19  20
ENDBRANCH  18  19
ENDBRANCH   1  18
TORSDOF 28
ENDMDL
MODEL 5
REMARK VINA RESULT:    -5.731      1.942      4.831
REMARK INTER + INTRA:         -21.008
REMARK INTER:                 -15.337
REMARK INTRA:                  -5.670
REMARK UNBOUND:                -5.895
REMARK SMILES CCCCCCCCCCCCCCCCCCCCCCCCCCCCCC(=O)[O-]
REMARK SMILES IDX 16 1 17 2 18 3 19 4 20 5 21 6 22 7 23 8 24 9 25 10 26 11
REMARK SMILES IDX 27 12 28 13 29 14 30 15 31 16 32 17 15 18 14 19 13 20 12 21
REMARK SMILES IDX 11 22 10 23 9 24 8 25 7 26 6 27 5 28 4 29 3 30 2 31 1 32
REMARK H PARENT
REMARK Flexibility Score: inf
ROOT
ATOM      1  C   UNL     1       7.102  75.323  -2.726  1.00  0.00     0.000 C 
ENDROOT
BRANCH   1   2
ATOM      2  C   UNL     1       7.639  74.481  -3.895  1.00  0.00     0.000 C 
BRANCH   2   3
ATOM      3  C   UNL     1       8.747  75.196  -4.689  1.00  0.00     0.000 C 
BRANCH   3   4
ATOM      4  C   UNL     1       9.412  74.350  -5.795  1.00  0.00     0.000 C 
BRANCH   4   5
ATOM      5  C   UNL     1       8.578  73.156  -6.294  1.00  0.00     0.000 C 
BRANCH   5   6
ATOM      6  C   UNL     1       9.294  71.810  -6.108  1.00  0.00     0.000 C 
BRANCH   6   7
ATOM      7  C   UNL     1      10.240  71.852  -4.901  1.00  0.00     0.000 C 
BRANCH   7   8
ATOM      8  C   UNL     1       9.624  71.137  -3.690  1.00  0.00     0.000 C 
BRANCH   8   9
ATOM      9  C   UNL     1      10.382  71.417  -2.379  1.00  0.00     0.000 C 
BRANCH   9  10
ATOM     10  C   UNL     1      10.273  72.863  -1.853  1.00  0.00     0.000 C 
BRANCH  10  11
ATOM     11  C   UNL     1      11.512  73.377  -1.097  1.00  0.00     0.000 C 
BRANCH  11  12
ATOM     12  C   UNL     1      12.811  72.692  -1.545  1.00  0.00     0.000 C 
BRANCH  12  13
ATOM     13  C   UNL     1      13.690  73.661  -2.348  1.00  0.00     0.006 C 
BRANCH  13  14
ATOM     14  C   UNL     1      13.595  73.418  -3.862  1.00  0.00     0.053 C 
BRANCH  14  15
ATOM     15  C   UNL     1      12.840  74.507  -4.565  1.00  0.00     0.041 C 
ATOM     16  O   UNL     1      12.752  74.511  -5.822  1.00  0.00    -0.550 OA
ATOM     17  O   UNL     1      12.234  75.517  -3.830  1.00  0.00    -0.550 OA
ENDBRANCH  14  15
ENDBRANCH  13  14
ENDBRANCH  12  13
ENDBRANCH  11  12
ENDBRANCH  10  11
ENDBRANCH   9  10
ENDBRANCH   8   9
ENDBRANCH   7   8
ENDBRANCH   6   7
ENDBRANCH   5   6
ENDBRANCH   4   5
ENDBRANCH   3   4
ENDBRANCH   2   3
ENDBRANCH   1   2
BRANCH   1  18
ATOM     18  C   UNL     1       8.009  76.534  -2.465  1.00  0.00     0.000 C 
BRANCH  18  19
ATOM     19  C   UNL     1       8.704  76.470  -1.095  1.00  0.00     0.000 C 
BRANCH  19  20
ATOM     20  C   UNL     1      10.191  76.854  -1.164  1.00  0.00     0.000 C 
BRANCH  20  21
ATOM     21  C   UNL     1      10.863  76.896   0.219  1.00  0.00     0.000 C 
BRANCH  21  22
ATOM     22  C   UNL     1      12.403  76.792   0.166  1.00  0.00     0.000 C 
BRANCH  22  23
ATOM     23  C   UNL     1      13.095  78.069   0.678  1.00  0.00     0.000 C 
BRANCH  23  24
ATOM     24  C   UNL     1      13.873  78.805  -0.425  1.00  0.00    -0.000 C 
BRANCH  24  25
ATOM     25  C   UNL     1      13.761  78.108  -1.793  1.00  0.00    -0.000 C 
BRANCH  25  26
ATOM     26  C   UNL     1      13.068  78.988  -2.846  1.00  0.00    -0.000 C 
BRANCH  26  27
ATOM     27  C   UNL     1      12.590  80.334  -2.274  1.00  0.00    -0.000 C 
BRANCH  27  28
ATOM     28  C   UNL     1      11.064  80.386  -2.087  1.00  0.00    -0.000 C 
BRANCH  28  29
ATOM     29  C   UNL     1      10.654  81.116  -0.795  1.00  0.00    -0.000 C 
BRANCH  29  30
ATOM     30  C   UNL     1       9.521  80.397  -0.044  1.00  0.00    -0.000 C 
BRANCH  30  31
ATOM     31  C   UNL     1       8.163  80.536  -0.745  1.00  0.00    -0.003 C 
ATOM     32  C   UNL     1       7.103  79.677  -0.061  1.00  0.00     0.004 C 
ENDBRANCH  30  31
ENDBRANCH  29  30
ENDBRANCH  28  29
ENDBRANCH  27  28
ENDBRANCH  26  27
ENDBRANCH  25  26
ENDBRANCH  24  25
ENDBRANCH  23  24
ENDBRANCH  22  23
ENDBRANCH  21  22
ENDBRANCH  20  21
ENDBRANCH  19  20
ENDBRANCH  18  19
ENDBRANCH   1  18
TORSDOF 28
ENDMDL
MODEL 6
REMARK VINA RESULT:    -5.724      1.311      3.831
REMARK INTER + INTRA:         -20.988
REMARK INTER:                 -16.126
REMARK INTRA:                  -4.863
REMARK UNBOUND:                -5.895
REMARK SMILES CCCCCCCCCCCCCCCCCCCCCCCCCCCCCC(=O)[O-]
REMARK SMILES IDX 16 1 17 2 18 3 19 4 20 5 21 6 22 7 23 8 24 9 25 10 26 11
REMARK SMILES IDX 27 12 28 13 29 14 30 15 31 16 32 17 15 18 14 19 13 20 12 21
REMARK SMILES IDX 11 22 10 23 9 24 8 25 7 26 6 27 5 28 4 29 3 30 2 31 1 32
REMARK H PARENT
REMARK Flexibility Score: inf
ROOT
ATOM      1  C   UNL     1      12.804  74.695  -4.681  1.00  0.00     0.000 C 
ENDROOT
BRANCH   1   2
ATOM      2  C   UNL     1      13.316  73.301  -4.284  1.00  0.00     0.000 C 
BRANCH   2   3
ATOM      3  C   UNL     1      14.424  73.351  -3.218  1.00  0.00     0.000 C 
BRANCH   3   4
ATOM      4  C   UNL     1      14.005  72.876  -1.811  1.00  0.00     0.000 C 
BRANCH   4   5
ATOM      5  C   UNL     1      12.520  73.087  -1.466  1.00  0.00     0.000 C 
BRANCH   5   6
ATOM      6  C   UNL     1      11.770  71.769  -1.223  1.00  0.00     0.000 C 
BRANCH   6   7
ATOM      7  C   UNL     1      10.462  71.725  -2.023  1.00  0.00     0.000 C 
BRANCH   7   8
ATOM      8  C   UNL     1      10.738  71.641  -3.531  1.00  0.00     0.000 C 
BRANCH   8   9
ATOM      9  C   UNL     1       9.481  71.296  -4.352  1.00  0.00     0.000 C 
BRANCH   9  10
ATOM     10  C   UNL     1       9.541  71.686  -5.843  1.00  0.00     0.000 C 
BRANCH  10  11
ATOM     11  C   UNL     1       9.683  73.194  -6.117  1.00  0.00     0.000 C 
BRANCH  11  12
ATOM     12  C   UNL     1       8.524  74.017  -5.536  1.00  0.00     0.000 C 
BRANCH  12  13
ATOM     13  C   UNL     1       9.048  75.087  -4.567  1.00  0.00     0.006 C 
BRANCH  13  14
ATOM     14  C   UNL     1       8.746  74.744  -3.100  1.00  0.00     0.053 C 
BRANCH  14  15
ATOM     15  C   UNL     1       7.301  74.949  -2.755  1.00  0.00     0.041 C 
ATOM     16  O   UNL     1       6.525  75.515  -3.571  1.00  0.00    -0.550 OA
ATOM     17  O   UNL     1       6.811  74.514  -1.530  1.00  0.00    -0.550 OA
ENDBRANCH  14  15
ENDBRANCH  13  14
ENDBRANCH  12  13
ENDBRANCH  11  12
ENDBRANCH  10  11
ENDBRANCH   9  10
ENDBRANCH   8   9
ENDBRANCH   7   8
ENDBRANCH   6   7
ENDBRANCH   5   6
ENDBRANCH   4   5
ENDBRANCH   3   4
ENDBRANCH   2   3
ENDBRANCH   1   2
BRANCH   1  18
ATOM     18  C   UNL     1      13.687  75.794  -4.073  1.00  0.00     0.000 C 
BRANCH  18  19
ATOM     19  C   UNL     1      12.883  76.811  -3.247  1.00  0.00     0.000 C 
BRANCH  19  20
ATOM     20  C   UNL     1      13.604  77.231  -1.956  1.00  0.00     0.000 C 
BRANCH  20  21
ATOM     21  C   UNL     1      13.040  76.541  -0.702  1.00  0.00     0.000 C 
BRANCH  21  22
ATOM     22  C   UNL     1      13.960  76.645   0.533  1.00  0.00     0.000 C 
BRANCH  22  23
ATOM     23  C   UNL     1      13.209  77.141   1.784  1.00  0.00     0.000 C 
BRANCH  23  24
ATOM     24  C   UNL     1      13.211  78.673   1.908  1.00  0.00    -0.000 C 
BRANCH  24  25
ATOM     25  C   UNL     1      14.390  79.326   1.163  1.00  0.00    -0.000 C 
BRANCH  25  26
ATOM     26  C   UNL     1      14.036  80.713   0.602  1.00  0.00    -0.000 C 
BRANCH  26  27
ATOM     27  C   UNL     1      13.320  80.639  -0.759  1.00  0.00    -0.000 C 
BRANCH  27  28
ATOM     28  C   UNL     1      11.844  81.059  -0.671  1.00  0.00    -0.000 C 
BRANCH  28  29
ATOM     29  C   UNL     1      10.956  80.304  -1.677  1.00  0.00    -0.000 C 
BRANCH  29  30
ATOM     30  C   UNL     1       9.834  79.506  -0.993  1.00  0.00    -0.000 C 
BRANCH  30  31
ATOM     31  C   UNL     1       9.893  78.005  -1.314  1.00  0.00    -0.003 C 
ATOM     32  C   UNL     1       9.171  77.189  -0.246  1.00  0.00     0.004 C 
ENDBRANCH  30  31
ENDBRANCH  29  30
ENDBRANCH  28  29
ENDBRANCH  27  28
ENDBRANCH  26  27
ENDBRANCH  25  26
ENDBRANCH  24  25
ENDBRANCH  23  24
ENDBRANCH  22  23
ENDBRANCH  21  22
ENDBRANCH  20  21
ENDBRANCH  19  20
ENDBRANCH  18  19
ENDBRANCH   1  18
TORSDOF 28
ENDMDL
MODEL 7
REMARK VINA RESULT:    -5.708      1.473      7.016
REMARK INTER + INTRA:         -20.947
REMARK INTER:                 -15.689
REMARK INTRA:                  -5.259
REMARK UNBOUND:                -5.895
REMARK SMILES CCCCCCCCCCCCCCCCCCCCCCCCCCCCCC(=O)[O-]
REMARK SMILES IDX 16 1 17 2 18 3 19 4 20 5 21 6 22 7 23 8 24 9 25 10 26 11
REMARK SMILES IDX 27 12 28 13 29 14 30 15 31 16 32 17 15 18 14 19 13 20 12 21
REMARK SMILES IDX 11 22 10 23 9 24 8 25 7 26 6 27 5 28 4 29 3 30 2 31 1 32
REMARK H PARENT
REMARK Flexibility Score: inf
ROOT
ATOM      1  C   UNL     1      11.998  76.924   0.026  1.00  0.00     0.000 C 
ENDROOT
BRANCH   1   2
ATOM      2  C   UNL     1      12.882  77.116   1.270  1.00  0.00     0.000 C 
BRANCH   2   3
ATOM      3  C   UNL     1      13.289  78.583   1.495  1.00  0.00     0.000 C 
BRANCH   3   4
ATOM      4  C   UNL     1      14.689  78.964   0.969  1.00  0.00     0.000 C 
BRANCH   4   5
ATOM      5  C   UNL     1      14.695  79.802  -0.321  1.00  0.00     0.000 C 
BRANCH   5   6
ATOM      6  C   UNL     1      13.428  80.653  -0.487  1.00  0.00     0.000 C 
BRANCH   6   7
ATOM      7  C   UNL     1      12.902  80.583  -1.926  1.00  0.00     0.000 C 
BRANCH   7   8
ATOM      8  C   UNL     1      11.376  80.411  -1.950  1.00  0.00     0.000 C 
BRANCH   8   9
ATOM      9  C   UNL     1      10.763  80.309  -0.540  1.00  0.00     0.000 C 
BRANCH   9  10
ATOM     10  C   UNL     1       9.466  79.479  -0.445  1.00  0.00     0.000 C 
BRANCH  10  11
ATOM     11  C   UNL     1       9.088  78.711  -1.724  1.00  0.00     0.000 C 
BRANCH  11  12
ATOM     12  C   UNL     1       7.995  77.659  -1.488  1.00  0.00     0.000 C 
BRANCH  12  13
ATOM     13  C   UNL     1       8.579  76.405  -0.823  1.00  0.00     0.006 C 
BRANCH  13  14
ATOM     14  C   UNL     1       8.456  75.161  -1.716  1.00  0.00     0.053 C 
BRANCH  14  15
ATOM     15  C   UNL     1       7.037  74.893  -2.123  1.00  0.00     0.041 C 
ATOM     16  O   UNL     1       6.195  74.495  -1.274  1.00  0.00    -0.550 OA
ATOM     17  O   UNL     1       6.646  75.083  -3.442  1.00  0.00    -0.550 OA
ENDBRANCH  14  15
ENDBRANCH  13  14
ENDBRANCH  12  13
ENDBRANCH  11  12
ENDBRANCH  10  11
ENDBRANCH   9  10
ENDBRANCH   8   9
ENDBRANCH   7   8
ENDBRANCH   6   7
ENDBRANCH   5   6
ENDBRANCH   4   5
ENDBRANCH   3   4
ENDBRANCH   2   3
ENDBRANCH   1   2
BRANCH   1  18
ATOM     18  C   UNL     1      12.777  76.217  -1.093  1.00  0.00     0.000 C 
BRANCH  18  19
ATOM     19  C   UNL     1      12.647  76.931  -2.448  1.00  0.00     0.000 C 
BRANCH  19  20
ATOM     20  C   UNL     1      12.074  76.022  -3.547  1.00  0.00     0.000 C 
BRANCH  20  21
ATOM     21  C   UNL     1      13.162  75.255  -4.319  1.00  0.00     0.000 C 
BRANCH  21  22
ATOM     22  C   UNL     1      13.121  73.728  -4.100  1.00  0.00     0.000 C 
BRANCH  22  23
ATOM     23  C   UNL     1      14.065  73.271  -2.972  1.00  0.00     0.000 C 
BRANCH  23  24
ATOM     24  C   UNL     1      13.311  72.670  -1.775  1.00  0.00    -0.000 C 
BRANCH  24  25
ATOM     25  C   UNL     1      11.783  72.700  -1.962  1.00  0.00    -0.000 C 
BRANCH  25  26
ATOM     26  C   UNL     1      11.109  71.396  -1.508  1.00  0.00    -0.000 C 
BRANCH  26  27
ATOM     27  C   UNL     1       9.926  70.993  -2.407  1.00  0.00    -0.000 C 
BRANCH  27  28
ATOM     28  C   UNL     1       9.566  72.084  -3.429  1.00  0.00    -0.000 C 
BRANCH  28  29
ATOM     29  C   UNL     1      10.165  71.809  -4.820  1.00  0.00    -0.000 C 
BRANCH  29  30
ATOM     30  C   UNL     1       9.124  71.924  -5.946  1.00  0.00    -0.000 C 
BRANCH  30  31
ATOM     31  C   UNL     1       8.734  73.378  -6.246  1.00  0.00    -0.003 C 
ATOM     32  C   UNL     1       9.954  74.294  -6.196  1.00  0.00     0.004 C 
ENDBRANCH  30  31
ENDBRANCH  29  30
ENDBRANCH  28  29
ENDBRANCH  27  28
ENDBRANCH  26  27
ENDBRANCH  25  26
ENDBRANCH  24  25
ENDBRANCH  23  24
ENDBRANCH  22  23
ENDBRANCH  21  22
ENDBRANCH  20  21
ENDBRANCH  19  20
ENDBRANCH  18  19
ENDBRANCH   1  18
TORSDOF 28
ENDMDL
MODEL 8
REMARK VINA RESULT:    -5.682      1.738      2.637
REMARK INTER + INTRA:         -20.879
REMARK INTER:                 -15.580
REMARK INTRA:                  -5.299
REMARK UNBOUND:                -5.895
REMARK SMILES CCCCCCCCCCCCCCCCCCCCCCCCCCCCCC(=O)[O-]
REMARK SMILES IDX 16 1 17 2 18 3 19 4 20 5 21 6 22 7 23 8 24 9 25 10 26 11
REMARK SMILES IDX 27 12 28 13 29 14 30 15 31 16 32 17 15 18 14 19 13 20 12 21
REMARK SMILES IDX 11 22 10 23 9 24 8 25 7 26 6 27 5 28 4 29 3 30 2 31 1 32
REMARK H PARENT
REMARK Flexibility Score: inf
ROOT
ATOM      1  C   UNL     1      12.932  74.082  -1.337  1.00  0.00     0.000 C 
ENDROOT
BRANCH   1   2
ATOM      2  C   UNL     1      11.548  73.439  -1.151  1.00  0.00     0.000 C 
BRANCH   2   3
ATOM      3  C   UNL     1      11.503  71.970  -1.607  1.00  0.00     0.000 C 
BRANCH   3   4
ATOM      4  C   UNL     1      10.109  71.453  -2.019  1.00  0.00     0.000 C 
BRANCH   4   5
ATOM      5  C   UNL     1       9.883  71.322  -3.536  1.00  0.00     0.000 C 
BRANCH   5   6
ATOM      6  C   UNL     1      11.027  71.926  -4.364  1.00  0.00     0.000 C 
BRANCH   6   7
ATOM      7  C   UNL     1      10.607  72.115  -5.827  1.00  0.00     0.000 C 
BRANCH   7   8
ATOM      8  C   UNL     1       9.079  72.059  -5.976  1.00  0.00     0.000 C 
BRANCH   8   9
ATOM      9  C   UNL     1       8.468  73.410  -6.392  1.00  0.00     0.000 C 
BRANCH   9  10
ATOM     10  C   UNL     1       9.236  74.657  -5.906  1.00  0.00     0.000 C 
BRANCH  10  11
ATOM     11  C   UNL     1       9.126  74.944  -4.398  1.00  0.00     0.000 C 
BRANCH  11  12
ATOM     12  C   UNL     1       7.690  74.815  -3.870  1.00  0.00     0.000 C 
BRANCH  12  13
ATOM     13  C   UNL     1       7.688  74.421  -2.386  1.00  0.00     0.006 C 
BRANCH  13  14
ATOM     14  C   UNL     1       6.960  75.452  -1.509  1.00  0.00     0.053 C 
BRANCH  14  15
ATOM     15  C   UNL     1       5.711  74.894  -0.896  1.00  0.00     0.041 C 
ATOM     16  O   UNL     1       4.969  74.117  -1.556  1.00  0.00    -0.550 OA
ATOM     17  O   UNL     1       5.365  75.232   0.406  1.00  0.00    -0.550 OA
ENDBRANCH  14  15
ENDBRANCH  13  14
ENDBRANCH  12  13
ENDBRANCH  11  12
ENDBRANCH  10  11
ENDBRANCH   9  10
ENDBRANCH   8   9
ENDBRANCH   7   8
ENDBRANCH   6   7
ENDBRANCH   5   6
ENDBRANCH   4   5
ENDBRANCH   3   4
ENDBRANCH   2   3
ENDBRANCH   1   2
BRANCH   1  18
ATOM     18  C   UNL     1      13.450  73.858  -2.765  1.00  0.00     0.000 C 
BRANCH  18  19
ATOM     19  C   UNL     1      13.434  75.142  -3.610  1.00  0.00     0.000 C 
BRANCH  19  20
ATOM     20  C   UNL     1      12.398  76.165  -3.117  1.00  0.00     0.000 C 
BRANCH  20  21
ATOM     21  C   UNL     1      12.982  77.579  -2.957  1.00  0.00     0.000 C 
BRANCH  21  22
ATOM     22  C   UNL     1      14.007  77.703  -1.810  1.00  0.00     0.000 C 
BRANCH  22  23
ATOM     23  C   UNL     1      13.856  79.021  -1.027  1.00  0.00     0.000 C 
BRANCH  23  24
ATOM     24  C   UNL     1      13.413  80.193  -1.917  1.00  0.00    -0.000 C 
BRANCH  24  25
ATOM     25  C   UNL     1      12.352  81.081  -1.242  1.00  0.00    -0.000 C 
BRANCH  25  26
ATOM     26  C   UNL     1      12.126  80.708   0.233  1.00  0.00    -0.000 C 
BRANCH  26  27
ATOM     27  C   UNL     1      10.669  80.919   0.682  1.00  0.00    -0.000 C 
BRANCH  27  28
ATOM     28  C   UNL     1       9.667  80.749  -0.472  1.00  0.00    -0.000 C 
BRANCH  28  29
ATOM     29  C   UNL     1       8.990  79.367  -0.466  1.00  0.00    -0.000 C 
BRANCH  29  30
ATOM     30  C   UNL     1       9.770  78.323  -1.281  1.00  0.00    -0.000 C 
BRANCH  30  31
ATOM     31  C   UNL     1       9.947  76.995  -0.531  1.00  0.00    -0.003 C 
ATOM     32  C   UNL     1      11.184  77.032   0.362  1.00  0.00     0.004 C 
ENDBRANCH  30  31
ENDBRANCH  29  30
ENDBRANCH  28  29
ENDBRANCH  27  28
ENDBRANCH  26  27
ENDBRANCH  25  26
ENDBRANCH  24  25
ENDBRANCH  23  24
ENDBRANCH  22  23
ENDBRANCH  21  22
ENDBRANCH  20  21
ENDBRANCH  19  20
ENDBRANCH  18  19
ENDBRANCH   1  18
TORSDOF 28
ENDMDL
MODEL 9
REMARK VINA RESULT:    -5.676      2.108      6.820
REMARK INTER + INTRA:         -20.863
REMARK INTER:                 -14.608
REMARK INTRA:                  -6.255
REMARK UNBOUND:                -5.895
REMARK SMILES CCCCCCCCCCCCCCCCCCCCCCCCCCCCCC(=O)[O-]
REMARK SMILES IDX 16 1 17 2 18 3 19 4 20 5 21 6 22 7 23 8 24 9 25 10 26 11
REMARK SMILES IDX 27 12 28 13 29 14 30 15 31 16 32 17 15 18 14 19 13 20 12 21
REMARK SMILES IDX 11 22 10 23 9 24 8 25 7 26 6 27 5 28 4 29 3 30 2 31 1 32
REMARK H PARENT
REMARK Flexibility Score: inf
ROOT
ATOM      1  C   UNL     1      12.764  74.533  -3.010  1.00  0.00     0.000 C 
ENDROOT
BRANCH   1   2
ATOM      2  C   UNL     1      13.704  75.707  -3.331  1.00  0.00     0.000 C 
BRANCH   2   3
ATOM      3  C   UNL     1      12.967  77.053  -3.434  1.00  0.00     0.000 C 
BRANCH   3   4
ATOM      4  C   UNL     1      13.767  78.279  -2.944  1.00  0.00     0.000 C 
BRANCH   4   5
ATOM      5  C   UNL     1      12.966  79.591  -2.864  1.00  0.00     0.000 C 
BRANCH   5   6
ATOM      6  C   UNL     1      13.177  80.339  -1.539  1.00  0.00     0.000 C 
BRANCH   6   7
ATOM      7  C   UNL     1      11.839  80.818  -0.960  1.00  0.00     0.000 C 
BRANCH   7   8
ATOM      8  C   UNL     1      10.660  80.326  -1.810  1.00  0.00     0.000 C 
BRANCH   8   9
ATOM      9  C   UNL     1       9.811  79.258  -1.095  1.00  0.00     0.000 C 
BRANCH   9  10
ATOM     10  C   UNL     1       9.888  77.841  -1.701  1.00  0.00     0.000 C 
BRANCH  10  11
ATOM     11  C   UNL     1      10.368  76.744  -0.734  1.00  0.00     0.000 C 
BRANCH  11  12
ATOM     12  C   UNL     1      11.470  77.229   0.220  1.00  0.00     0.000 C 
BRANCH  12  13
ATOM     13  C   UNL     1      12.646  76.242   0.242  1.00  0.00     0.006 C 
BRANCH  13  14
ATOM     14  C   UNL     1      14.006  76.956   0.234  1.00  0.00     0.053 C 
BRANCH  14  15
ATOM     15  C   UNL     1      14.242  77.742   1.490  1.00  0.00     0.041 C 
ATOM     16  O   UNL     1      14.458  78.982   1.434  1.00  0.00    -0.550 OA
ATOM     17  O   UNL     1      14.224  77.103   2.723  1.00  0.00    -0.550 OA
ENDBRANCH  14  15
ENDBRANCH  13  14
ENDBRANCH  12  13
ENDBRANCH  11  12
ENDBRANCH  10  11
ENDBRANCH   9  10
ENDBRANCH   8   9
ENDBRANCH   7   8
ENDBRANCH   6   7
ENDBRANCH   5   6
ENDBRANCH   4   5
ENDBRANCH   3   4
ENDBRANCH   2   3
ENDBRANCH   1   2
BRANCH   1  18
ATOM     18  C   UNL     1      13.520  73.411  -2.285  1.00  0.00     0.000 C 
BRANCH  18  19
ATOM     19  C   UNL     1      12.614  72.593  -1.351  1.00  0.00     0.000 C 
BRANCH  19  20
ATOM     20  C   UNL     1      11.168  73.115  -1.318  1.00  0.00     0.000 C 
BRANCH  20  21
ATOM     21  C   UNL     1      10.157  72.117  -1.908  1.00  0.00     0.000 C 
BRANCH  21  22
ATOM     22  C   UNL     1      10.640  71.435  -3.206  1.00  0.00     0.000 C 
BRANCH  22  23
ATOM     23  C   UNL     1       9.509  71.266  -4.238  1.00  0.00     0.000 C 
BRANCH  23  24
ATOM     24  C   UNL     1       9.869  71.848  -5.614  1.00  0.00    -0.000 C 
BRANCH  24  25
ATOM     25  C   UNL     1       8.728  72.688  -6.218  1.00  0.00    -0.000 C 
BRANCH  25  26
ATOM     26  C   UNL     1       9.109  74.169  -6.378  1.00  0.00    -0.000 C 
BRANCH  26  27
ATOM     27  C   UNL     1      10.007  74.678  -5.237  1.00  0.00    -0.000 C 
BRANCH  27  28
ATOM     28  C   UNL     1       9.212  74.998  -3.960  1.00  0.00    -0.000 C 
BRANCH  28  29
ATOM     29  C   UNL     1       7.888  75.724  -4.258  1.00  0.00    -0.000 C 
BRANCH  29  30
ATOM     30  C   UNL     1       6.791  75.397  -3.231  1.00  0.00    -0.000 C 
BRANCH  30  31
ATOM     31  C   UNL     1       7.347  74.748  -1.955  1.00  0.00    -0.003 C 
ATOM     32  C   UNL     1       6.783  75.423  -0.708  1.00  0.00     0.004 C 
ENDBRANCH  30  31
ENDBRANCH  29  30
ENDBRANCH  28  29
ENDBRANCH  27  28
ENDBRANCH  26  27
ENDBRANCH  25  26
ENDBRANCH  24  25
ENDBRANCH  23  24
ENDBRANCH  22  23
ENDBRANCH  21  22
ENDBRANCH  20  21
ENDBRANCH  19  20
ENDBRANCH  18  19
ENDBRANCH   1  18
TORSDOF 28
ENDMDL
