MODEL 1
REMARK VINA RESULT:    -3.650      0.000      0.000
REMARK INTER + INTRA:          -7.062
REMARK INTER:                  -5.783
REMARK INTRA:                  -1.278
REMARK UNBOUND:                -1.278
REMARK SMILES CCCCCCCCCCCC(=O)[O-]
REMARK SMILES IDX 7 1 8 2 9 3 10 4 11 5 12 6 13 7 14 8 6 9 5 10 4 11 3 12 2 13
REMARK SMILES IDX 1 14
REMARK H PARENT
REMARK Flexibility Score: inf
ROOT
ATOM      1  C   UNL     1      -5.860   3.410  -1.581  1.00  0.00     0.000 C 
ENDROOT
BRANCH   1   2
ATOM      2  C   UNL     1      -4.467   3.796  -1.063  1.00  0.00     0.000 C 
BRANCH   2   3
ATOM      3  C   UNL     1      -3.650   2.581  -0.593  1.00  0.00     0.000 C 
BRANCH   3   4
ATOM      4  C   UNL     1      -3.217   2.693   0.880  1.00  0.00     0.006 C 
BRANCH   4   5
ATOM      5  C   UNL     1      -3.588   4.051   1.491  1.00  0.00     0.053 C 
BRANCH   5   6
ATOM      6  C   UNL     1      -4.344   3.897   2.776  1.00  0.00     0.041 C 
ATOM      7  O   UNL     1      -5.375   3.176   2.822  1.00  0.00    -0.550 OA
ATOM      8  O   UNL     1      -3.926   4.574   3.915  1.00  0.00    -0.550 OA
ENDBRANCH   5   6
ENDBRANCH   4   5
ENDBRANCH   3   4
ENDBRANCH   2   3
ENDBRANCH   1   2
BRANCH   1   9
ATOM      9  C   UNL     1      -6.682   2.722  -0.479  1.00  0.00     0.000 C 
BRANCH   9  10
ATOM     10  C   UNL     1      -7.524   1.550  -1.010  1.00  0.00    -0.000 C 
BRANCH  10  11
ATOM     11  C   UNL     1      -7.396   0.288  -0.138  1.00  0.00    -0.000 C 
BRANCH  11  12
ATOM     12  C   UNL     1      -6.335   0.438   0.965  1.00  0.00    -0.000 C 
BRANCH  12  13
ATOM     13  C   UNL     1      -5.146  -0.515   0.779  1.00  0.00    -0.003 C 
ATOM     14  C   UNL     1      -5.613  -1.889   0.308  1.00  0.00     0.004 C 
ENDBRANCH  12  13
ENDBRANCH  11  12
ENDBRANCH  10  11
ENDBRANCH   9  10
ENDBRANCH   1   9
TORSDOF 10
ENDMDL
MODEL 2
REMARK VINA RESULT:    -3.464      1.293      2.495
REMARK INTER + INTRA:          -6.767
REMARK INTER:                  -5.756
REMARK INTRA:                  -1.011
REMARK UNBOUND:                -1.278
REMARK SMILES CCCCCCCCCCCC(=O)[O-]
REMARK SMILES IDX 7 1 8 2 9 3 10 4 11 5 12 6 13 7 14 8 6 9 5 10 4 11 3 12 2 13
REMARK SMILES IDX 1 14
REMARK H PARENT
REMARK Flexibility Score: inf
ROOT
ATOM      1  C   UNL     1      -6.020   1.077  -0.051  1.00  0.00     0.000 C 
ENDROOT
BRANCH   1   2
ATOM      2  C   UNL     1      -5.105   2.255  -0.415  1.00  0.00     0.000 C 
BRANCH   2   3
ATOM      3  C   UNL     1      -3.650   2.039   0.034  1.00  0.00     0.000 C 
BRANCH   3   4
ATOM      4  C   UNL     1      -3.155   3.141   0.988  1.00  0.00     0.006 C 
BRANCH   4   5
ATOM      5  C   UNL     1      -4.294   4.055   1.458  1.00  0.00     0.053 C 
BRANCH   5   6
ATOM      6  C   UNL     1      -4.708   3.753   2.866  1.00  0.00     0.041 C 
ATOM      7  O   UNL     1      -5.689   2.997   3.090  1.00  0.00    -0.550 OA
ATOM      8  O   UNL     1      -4.028   4.331   3.931  1.00  0.00    -0.550 OA
ENDBRANCH   5   6
ENDBRANCH   4   5
ENDBRANCH   3   4
ENDBRANCH   2   3
ENDBRANCH   1   2
BRANCH   1   9
ATOM      9  C   UNL     1      -5.334   0.141   0.956  1.00  0.00     0.000 C 
BRANCH   9  10
ATOM     10  C   UNL     1      -5.329  -1.326   0.496  1.00  0.00    -0.000 C 
BRANCH  10  11
ATOM     11  C   UNL     1      -6.642  -2.055   0.833  1.00  0.00    -0.000 C 
BRANCH  11  12
ATOM     12  C   UNL     1      -7.417  -2.485  -0.424  1.00  0.00    -0.000 C 
BRANCH  12  13
ATOM     13  C   UNL     1      -8.550  -1.512  -0.784  1.00  0.00    -0.003 C 
ATOM     14  C   UNL     1      -9.379  -1.156   0.446  1.00  0.00     0.004 C 
ENDBRANCH  12  13
ENDBRANCH  11  12
ENDBRANCH  10  11
ENDBRANCH   9  10
ENDBRANCH   1   9
TORSDOF 10
ENDMDL
MODEL 3
REMARK VINA RESULT:    -3.460      1.586      2.200
REMARK INTER + INTRA:          -6.761
REMARK INTER:                  -5.506
REMARK INTRA:                  -1.255
REMARK UNBOUND:                -1.278
REMARK SMILES CCCCCCCCCCCC(=O)[O-]
REMARK SMILES IDX 7 1 8 2 9 3 10 4 11 5 12 6 13 7 14 8 6 9 5 10 4 11 3 12 2 13
REMARK SMILES IDX 1 14
REMARK H PARENT
REMARK Flexibility Score: inf
ROOT
ATOM      1  C   UNL     1      -7.764   1.876  -1.185  1.00  0.00     0.000 C 
ENDROOT
BRANCH   1   2
ATOM      2  C   UNL     1      -6.282   2.247  -1.031  1.00  0.00     0.000 C 
BRANCH   2   3
ATOM      3  C   UNL     1      -5.746   1.978   0.384  1.00  0.00     0.000 C 
BRANCH   3   4
ATOM      4  C   UNL     1      -4.313   1.413   0.377  1.00  0.00     0.006 C 
BRANCH   4   5
ATOM      5  C   UNL     1      -3.272   2.483   0.019  1.00  0.00     0.053 C 
BRANCH   5   6
ATOM      6  C   UNL     1      -3.355   3.669   0.931  1.00  0.00     0.041 C 
ATOM      7  O   UNL     1      -3.756   4.779   0.491  1.00  0.00    -0.550 OA
ATOM      8  O   UNL     1      -2.960   3.557   2.258  1.00  0.00    -0.550 OA
ENDBRANCH   5   6
ENDBRANCH   4   5
ENDBRANCH   3   4
ENDBRANCH   2   3
ENDBRANCH   1   2
BRANCH   1   9
ATOM      9  C   UNL     1      -8.181   0.839  -0.129  1.00  0.00     0.000 C 
BRANCH   9  10
ATOM     10  C   UNL     1      -8.581  -0.511  -0.747  1.00  0.00    -0.000 C 
BRANCH  10  11
ATOM     11  C   UNL     1      -7.844  -1.698  -0.103  1.00  0.00    -0.000 C 
BRANCH  11  12
ATOM     12  C   UNL     1      -7.246  -1.346   1.270  1.00  0.00    -0.000 C 
BRANCH  12  13
ATOM     13  C   UNL     1      -5.814  -1.872   1.446  1.00  0.00    -0.003 C 
ATOM     14  C   UNL     1      -5.108  -2.003   0.101  1.00  0.00     0.004 C 
ENDBRANCH  12  13
ENDBRANCH  11  12
ENDBRANCH  10  11
ENDBRANCH   9  10
ENDBRANCH   1   9
TORSDOF 10
ENDMDL
MODEL 4
REMARK VINA RESULT:    -3.441      2.720      5.144
REMARK INTER + INTRA:          -6.731
REMARK INTER:                  -5.560
REMARK INTRA:                  -1.172
REMARK UNBOUND:                -1.278
REMARK SMILES CCCCCCCCCCCC(=O)[O-]
REMARK SMILES IDX 7 1 8 2 9 3 10 4 11 5 12 6 13 7 14 8 6 9 5 10 4 11 3 12 2 13
REMARK SMILES IDX 1 14
REMARK H PARENT
REMARK Flexibility Score: inf
ROOT
ATOM      1  C   UNL     1      -5.040   2.313  -0.358  1.00  0.00     0.000 C 
ENDROOT
BRANCH   1   2
ATOM      2  C   UNL     1      -5.904   1.078  -0.062  1.00  0.00     0.000 C 
BRANCH   2   3
ATOM      3  C   UNL     1      -5.242   0.116   0.937  1.00  0.00     0.000 C 
BRANCH   3   4
ATOM      4  C   UNL     1      -5.249  -1.344   0.447  1.00  0.00     0.006 C 
BRANCH   4   5
ATOM      5  C   UNL     1      -6.667  -1.927   0.385  1.00  0.00     0.053 C 
BRANCH   5   6
ATOM      6  C   UNL     1      -7.297  -2.006   1.742  1.00  0.00     0.041 C 
ATOM      7  O   UNL     1      -8.239  -1.229   2.050  1.00  0.00    -0.550 OA
ATOM      8  O   UNL     1      -6.824  -2.917   2.678  1.00  0.00    -0.550 OA
ENDBRANCH   5   6
ENDBRANCH   4   5
ENDBRANCH   3   4
ENDBRANCH   2   3
ENDBRANCH   1   2
BRANCH   1   9
ATOM      9  C   UNL     1      -3.586   2.081   0.081  1.00  0.00     0.000 C 
BRANCH   9  10
ATOM     10  C   UNL     1      -3.099   3.123   1.101  1.00  0.00    -0.000 C 
BRANCH  10  11
ATOM     11  C   UNL     1      -4.232   4.041   1.594  1.00  0.00    -0.000 C 
BRANCH  11  12
ATOM     12  C   UNL     1      -4.626   3.760   3.054  1.00  0.00    -0.000 C 
BRANCH  12  13
ATOM     13  C   UNL     1      -6.129   3.945   3.309  1.00  0.00    -0.003 C 
ATOM     14  C   UNL     1      -6.876   2.622   3.177  1.00  0.00     0.004 C 
ENDBRANCH  12  13
ENDBRANCH  11  12
ENDBRANCH  10  11
ENDBRANCH   9  10
ENDBRANCH   1   9
TORSDOF 10
ENDMDL
MODEL 5
REMARK VINA RESULT:    -3.439      2.279      4.366
REMARK INTER + INTRA:          -6.728
REMARK INTER:                  -5.733
REMARK INTRA:                  -0.995
REMARK UNBOUND:                -1.278
REMARK SMILES CCCCCCCCCCCC(=O)[O-]
REMARK SMILES IDX 7 1 8 2 9 3 10 4 11 5 12 6 13 7 14 8 6 9 5 10 4 11 3 12 2 13
REMARK SMILES IDX 1 14
REMARK H PARENT
REMARK Flexibility Score: inf
ROOT
ATOM      1  C   UNL     1      -4.439   4.170   2.903  1.00  0.00     0.000 C 
ENDROOT
BRANCH   1   2
ATOM      2  C   UNL     1      -5.671   3.259   2.995  1.00  0.00     0.000 C 
BRANCH   2   3
ATOM      3  C   UNL     1      -6.490   3.494   4.274  1.00  0.00     0.000 C 
BRANCH   3   4
ATOM      4  C   UNL     1      -6.106   4.801   4.992  1.00  0.00     0.006 C 
BRANCH   4   5
ATOM      5  C   UNL     1      -5.546   4.545   6.398  1.00  0.00     0.053 C 
BRANCH   5   6
ATOM      6  C   UNL     1      -4.189   5.155   6.577  1.00  0.00     0.041 C 
ATOM      7  O   UNL     1      -3.799   6.071   5.807  1.00  0.00    -0.550 OA
ATOM      8  O   UNL     1      -3.342   4.689   7.576  1.00  0.00    -0.550 OA
ENDBRANCH   5   6
ENDBRANCH   4   5
ENDBRANCH   3   4
ENDBRANCH   2   3
ENDBRANCH   1   2
BRANCH   1   9
ATOM      9  C   UNL     1      -3.878   4.190   1.472  1.00  0.00     0.000 C 
BRANCH   9  10
ATOM     10  C   UNL     1      -2.991   2.973   1.164  1.00  0.00    -0.000 C 
BRANCH  10  11
ATOM     11  C   UNL     1      -3.598   2.058   0.086  1.00  0.00    -0.000 C 
BRANCH  11  12
ATOM     12  C   UNL     1      -4.710   2.751  -0.718  1.00  0.00    -0.000 C 
BRANCH  12  13
ATOM     13  C   UNL     1      -6.055   2.014  -0.629  1.00  0.00    -0.003 C 
ATOM     14  C   UNL     1      -5.937   0.759   0.229  1.00  0.00     0.004 C 
ENDBRANCH  12  13
ENDBRANCH  11  12
ENDBRANCH  10  11
ENDBRANCH   9  10
ENDBRANCH   1   9
TORSDOF 10
ENDMDL
MODEL 6
REMARK VINA RESULT:    -3.407      1.989      3.169
REMARK INTER + INTRA:          -6.677
REMARK INTER:                  -5.698
REMARK INTRA:                  -0.980
REMARK UNBOUND:                -1.278
REMARK SMILES CCCCCCCCCCCC(=O)[O-]
REMARK SMILES IDX 7 1 8 2 9 3 10 4 11 5 12 6 13 7 14 8 6 9 5 10 4 11 3 12 2 13
REMARK SMILES IDX 1 14
REMARK H PARENT
REMARK Flexibility Score: inf
ROOT
ATOM      1  C   UNL     1      -3.056   3.051   1.087  1.00  0.00     0.000 C 
ENDROOT
BRANCH   1   2
ATOM      2  C   UNL     1      -4.043   4.091   1.637  1.00  0.00     0.000 C 
BRANCH   2   3
ATOM      3  C   UNL     1      -4.533   3.753   3.055  1.00  0.00     0.000 C 
BRANCH   3   4
ATOM      4  C   UNL     1      -6.008   4.137   3.279  1.00  0.00     0.006 C 
BRANCH   4   5
ATOM      5  C   UNL     1      -6.485   3.794   4.696  1.00  0.00     0.053 C 
BRANCH   5   6
ATOM      6  C   UNL     1      -6.279   4.935   5.646  1.00  0.00     0.041 C 
ATOM      7  O   UNL     1      -5.288   4.942   6.422  1.00  0.00    -0.550 OA
ATOM      8  O   UNL     1      -7.199   5.976   5.695  1.00  0.00    -0.550 OA
ENDBRANCH   5   6
ENDBRANCH   4   5
ENDBRANCH   3   4
ENDBRANCH   2   3
ENDBRANCH   1   2
BRANCH   1   9
ATOM      9  C   UNL     1      -3.792   1.974   0.274  1.00  0.00     0.000 C 
BRANCH   9  10
ATOM     10  C   UNL     1      -4.964   2.543  -0.543  1.00  0.00    -0.000 C 
BRANCH  10  11
ATOM     11  C   UNL     1      -6.235   1.684  -0.432  1.00  0.00    -0.000 C 
BRANCH  11  12
ATOM     12  C   UNL     1      -6.228   0.779   0.811  1.00  0.00    -0.000 C 
BRANCH  12  13
ATOM     13  C   UNL     1      -6.466  -0.700   0.471  1.00  0.00    -0.003 C 
ATOM     14  C   UNL     1      -5.201  -1.524   0.688  1.00  0.00     0.004 C 
ENDBRANCH  12  13
ENDBRANCH  11  12
ENDBRANCH  10  11
ENDBRANCH   9  10
ENDBRANCH   1   9
TORSDOF 10
ENDMDL
MODEL 7
REMARK VINA RESULT:    -3.398      3.231      5.299
REMARK INTER + INTRA:          -6.663
REMARK INTER:                  -5.355
REMARK INTRA:                  -1.308
REMARK UNBOUND:                -1.278
REMARK SMILES CCCCCCCCCCCC(=O)[O-]
REMARK SMILES IDX 7 1 8 2 9 3 10 4 11 5 12 6 13 7 14 8 6 9 5 10 4 11 3 12 2 13
REMARK SMILES IDX 1 14
REMARK H PARENT
REMARK Flexibility Score: inf
ROOT
ATOM      1  C   UNL     1      -6.851   2.060   0.627  1.00  0.00     0.000 C 
ENDROOT
BRANCH   1   2
ATOM      2  C   UNL     1      -6.210   0.859   1.338  1.00  0.00     0.000 C 
BRANCH   2   3
ATOM      3  C   UNL     1      -5.364  -0.009   0.393  1.00  0.00     0.000 C 
BRANCH   3   4
ATOM      4  C   UNL     1      -5.306  -1.483   0.835  1.00  0.00     0.006 C 
BRANCH   4   5
ATOM      5  C   UNL     1      -6.669  -1.995   1.321  1.00  0.00     0.053 C 
BRANCH   5   6
ATOM      6  C   UNL     1      -7.515  -2.491   0.188  1.00  0.00     0.041 C 
ATOM      7  O   UNL     1      -8.767  -2.367   0.231  1.00  0.00    -0.550 OA
ATOM      8  O   UNL     1      -6.923  -3.117  -0.902  1.00  0.00    -0.550 OA
ENDBRANCH   5   6
ENDBRANCH   4   5
ENDBRANCH   3   4
ENDBRANCH   2   3
ENDBRANCH   1   2
BRANCH   1   9
ATOM      9  C   UNL     1      -6.744   1.913  -0.899  1.00  0.00     0.000 C 
BRANCH   9  10
ATOM     10  C   UNL     1      -6.215   3.185  -1.583  1.00  0.00    -0.000 C 
BRANCH  10  11
ATOM     11  C   UNL     1      -5.066   3.843  -0.800  1.00  0.00    -0.000 C 
BRANCH  11  12
ATOM     12  C   UNL     1      -3.701   3.205  -1.107  1.00  0.00    -0.000 C 
BRANCH  12  13
ATOM     13  C   UNL     1      -3.033   2.602   0.138  1.00  0.00    -0.003 C 
ATOM     14  C   UNL     1      -3.377   3.405   1.388  1.00  0.00     0.004 C 
ENDBRANCH  12  13
ENDBRANCH  11  12
ENDBRANCH  10  11
ENDBRANCH   9  10
ENDBRANCH   1   9
TORSDOF 10
ENDMDL
MODEL 8
REMARK VINA RESULT:    -3.388      1.479      2.421
REMARK INTER + INTRA:          -6.647
REMARK INTER:                  -5.886
REMARK INTRA:                  -0.760
REMARK UNBOUND:                -1.278
REMARK SMILES CCCCCCCCCCCC(=O)[O-]
REMARK SMILES IDX 7 1 8 2 9 3 10 4 11 5 12 6 13 7 14 8 6 9 5 10 4 11 3 12 2 13
REMARK SMILES IDX 1 14
REMARK H PARENT
REMARK Flexibility Score: inf
ROOT
ATOM      1  C   UNL     1      -5.105   2.193  -0.353  1.00  0.00     0.000 C 
ENDROOT
BRANCH   1   2
ATOM      2  C   UNL     1      -3.672   2.042   0.178  1.00  0.00     0.000 C 
BRANCH   2   3
ATOM      3  C   UNL     1      -3.270   3.177   1.134  1.00  0.00     0.000 C 
BRANCH   3   4
ATOM      4  C   UNL     1      -4.480   3.989   1.632  1.00  0.00     0.006 C 
BRANCH   4   5
ATOM      5  C   UNL     1      -4.857   3.638   3.077  1.00  0.00     0.053 C 
BRANCH   5   6
ATOM      6  C   UNL     1      -4.687   4.808   3.998  1.00  0.00     0.041 C 
ATOM      7  O   UNL     1      -4.059   5.830   3.615  1.00  0.00    -0.550 OA
ATOM      8  O   UNL     1      -5.196   4.758   5.290  1.00  0.00    -0.550 OA
ENDBRANCH   5   6
ENDBRANCH   4   5
ENDBRANCH   3   4
ENDBRANCH   2   3
ENDBRANCH   1   2
BRANCH   1   9
ATOM      9  C   UNL     1      -5.960   0.973   0.025  1.00  0.00     0.000 C 
BRANCH   9  10
ATOM     10  C   UNL     1      -5.168  -0.091   0.802  1.00  0.00    -0.000 C 
BRANCH  10  11
ATOM     11  C   UNL     1      -5.645  -1.522   0.499  1.00  0.00    -0.000 C 
BRANCH  11  12
ATOM     12  C   UNL     1      -7.166  -1.682   0.656  1.00  0.00    -0.000 C 
BRANCH  12  13
ATOM     13  C   UNL     1      -7.842  -2.214  -0.616  1.00  0.00    -0.003 C 
ATOM     14  C   UNL     1      -7.110  -3.437  -1.157  1.00  0.00     0.004 C 
ENDBRANCH  12  13
ENDBRANCH  11  12
ENDBRANCH  10  11
ENDBRANCH   9  10
ENDBRANCH   1   9
TORSDOF 10
ENDMDL
MODEL 9
REMARK VINA RESULT:    -3.320      2.567      5.133
REMARK INTER + INTRA:          -6.539
REMARK INTER:                  -5.234
REMARK INTRA:                  -1.305
REMARK UNBOUND:                -1.278
REMARK SMILES CCCCCCCCCCCC(=O)[O-]
REMARK SMILES IDX 7 1 8 2 9 3 10 4 11 5 12 6 13 7 14 8 6 9 5 10 4 11 3 12 2 13
REMARK SMILES IDX 1 14
REMARK H PARENT
REMARK Flexibility Score: inf
ROOT
ATOM      1  C   UNL     1      -6.742   2.027   0.852  1.00  0.00     0.000 C 
ENDROOT
BRANCH   1   2
ATOM      2  C   UNL     1      -6.437   0.748   0.059  1.00  0.00     0.000 C 
BRANCH   2   3
ATOM      3  C   UNL     1      -5.176   0.024   0.560  1.00  0.00     0.000 C 
BRANCH   3   4
ATOM      4  C   UNL     1      -5.391  -1.491   0.731  1.00  0.00     0.006 C 
BRANCH   4   5
ATOM      5  C   UNL     1      -6.877  -1.874   0.679  1.00  0.00     0.053 C 
BRANCH   5   6
ATOM      6  C   UNL     1      -7.446  -2.084   2.049  1.00  0.00     0.041 C 
ATOM      7  O   UNL     1      -8.085  -1.161   2.618  1.00  0.00    -0.550 OA
ATOM      8  O   UNL     1      -7.245  -3.290   2.709  1.00  0.00    -0.550 OA
ENDBRANCH   5   6
ENDBRANCH   4   5
ENDBRANCH   3   4
ENDBRANCH   2   3
ENDBRANCH   1   2
BRANCH   1   9
ATOM      9  C   UNL     1      -5.776   2.179   2.038  1.00  0.00     0.000 C 
BRANCH   9  10
ATOM     10  C   UNL     1      -5.365   3.640   2.286  1.00  0.00    -0.000 C 
BRANCH  10  11
ATOM     11  C   UNL     1      -4.239   4.105   1.345  1.00  0.00    -0.000 C 
BRANCH  11  12
ATOM     12  C   UNL     1      -3.199   3.004   1.080  1.00  0.00    -0.000 C 
BRANCH  12  13
ATOM     13  C   UNL     1      -3.055   2.670  -0.412  1.00  0.00    -0.003 C 
ATOM     14  C   UNL     1      -4.022   3.495  -1.255  1.00  0.00     0.004 C 
ENDBRANCH  12  13
ENDBRANCH  11  12
ENDBRANCH  10  11
ENDBRANCH   9  10
ENDBRANCH   1   9
TORSDOF 10
ENDMDL
