MODEL 1
REMARK VINA RESULT:    24.799      0.000      0.000
REMARK INTER + INTRA:          29.887
REMARK INTER:                  29.873
REMARK INTRA:                   0.014
REMARK UNBOUND:                 0.014
REMARK SMILES O=c1c(O)c(-c2ccc(O)c(O)c2)oc2cc(O)cc(O)c12
REMARK SMILES IDX 5 1 3 2 2 3 1 4 22 5 20 6 19 7 17 8 16 9 15 10 14 11 6 12
REMARK SMILES IDX 7 13 8 14 9 15 13 16 11 17 10 18 12 20 4 22 21 24 18 26
REMARK H PARENT 10 19 12 21 4 23 21 25 18 27
REMARK Flexibility Score: inf
ROOT
ATOM      1  C   UNL     1     -33.644  22.854   6.674  1.00  0.00     0.180 A 
ATOM      2  C   UNL     1     -33.863  22.211   7.904  1.00  0.00     0.208 A 
ATOM      3  C   UNL     1     -34.908  21.277   8.007  1.00  0.00     0.238 A 
ATOM      4  O   UNL     1     -35.134  20.745   9.125  1.00  0.00    -0.285 OA
ATOM      5  C   UNL     1     -35.708  20.988   6.875  1.00  0.00     0.111 A 
ATOM      6  C   UNL     1     -36.766  20.031   6.855  1.00  0.00     0.134 A 
ATOM      7  C   UNL     1     -37.576  19.921   5.717  1.00  0.00     0.093 A 
ATOM      8  C   UNL     1     -37.324  20.687   4.577  1.00  0.00     0.123 A 
ATOM      9  C   UNL     1     -36.256  21.581   4.567  1.00  0.00     0.094 A 
ATOM     10  C   UNL     1     -35.453  21.739   5.698  1.00  0.00     0.146 A 
ATOM     11  O   UNL     1     -34.453  22.610   5.649  1.00  0.00    -0.452 OA
ENDROOT
BRANCH   1  12
ATOM     12  C   UNL     1     -32.547  23.832   6.480  1.00  0.00     0.025 A 
ATOM     13  C   UNL     1     -31.658  23.726   5.398  1.00  0.00     0.016 A 
ATOM     14  C   UNL     1     -30.647  24.672   5.223  1.00  0.00     0.051 A 
ATOM     15  C   UNL     1     -30.511  25.746   6.109  1.00  0.00     0.157 A 
ATOM     16  C   UNL     1     -32.427  24.920   7.358  1.00  0.00     0.062 A 
ATOM     17  C   UNL     1     -31.416  25.874   7.189  1.00  0.00     0.158 A 
BRANCH  15  18
ATOM     18  O   UNL     1     -29.476  26.655   5.879  1.00  0.00    -0.504 OA
ATOM     19  H   UNL     1     -29.543  27.439   5.246  1.00  0.00     0.293 HD
ENDBRANCH  15  18
BRANCH  17  20
ATOM     20  O   UNL     1     -31.349  26.922   8.109  1.00  0.00    -0.504 OA
ATOM     21  H   UNL     1     -30.793  26.900   8.952  1.00  0.00     0.293 HD
ENDBRANCH  17  20
ENDBRANCH   1  12
BRANCH   2  22
ATOM     22  O   UNL     1     -33.076  22.527   9.013  1.00  0.00    -0.502 OA
ATOM     23  H   UNL     1     -33.459  22.952   9.849  1.00  0.00     0.293 HD
ENDBRANCH   2  22
BRANCH   6  24
ATOM     24  O   UNL     1     -37.045  19.152   7.907  1.00  0.00    -0.507 OA
ATOM     25  H   UNL     1     -36.436  18.987   8.694  1.00  0.00     0.293 HD
ENDBRANCH   6  24
BRANCH   8  26
ATOM     26  O   UNL     1     -38.125  20.560   3.445  1.00  0.00    -0.508 OA
ATOM     27  H   UNL     1     -37.971  21.129   2.619  1.00  0.00     0.293 HD
ENDBRANCH   8  26
TORSDOF 6
ENDMDL
MODEL 2
REMARK VINA RESULT:    24.945      4.686      5.197
REMARK INTER + INTRA:          30.063
REMARK INTER:                  29.602
REMARK INTRA:                   0.461
REMARK UNBOUND:                 0.014
REMARK SMILES O=c1c(O)c(-c2ccc(O)c(O)c2)oc2cc(O)cc(O)c12
REMARK SMILES IDX 5 1 3 2 2 3 1 4 22 5 20 6 19 7 17 8 16 9 15 10 14 11 6 12
REMARK SMILES IDX 7 13 8 14 9 15 13 16 11 17 10 18 12 20 4 22 21 24 18 26
REMARK H PARENT 10 19 12 21 4 23 21 25 18 27
REMARK Flexibility Score: inf
ROOT
ATOM      1  C   UNL     1     -37.897  23.912   5.709  1.00  0.00     0.180 A 
ATOM      2  C   UNL     1     -37.831  23.601   7.078  1.00  0.00     0.208 A 
ATOM      3  C   UNL     1     -37.782  22.253   7.469  1.00  0.00     0.238 A 
ATOM      4  O   UNL     1     -37.778  21.980   8.698  1.00  0.00    -0.285 OA
ATOM      5  C   UNL     1     -37.784  21.234   6.486  1.00  0.00     0.111 A 
ATOM      6  C   UNL     1     -37.698  19.838   6.767  1.00  0.00     0.134 A 
ATOM      7  C   UNL     1     -37.840  18.914   5.723  1.00  0.00     0.093 A 
ATOM      8  C   UNL     1     -38.000  19.338   4.402  1.00  0.00     0.123 A 
ATOM      9  C   UNL     1     -38.026  20.700   4.112  1.00  0.00     0.094 A 
ATOM     10  C   UNL     1     -37.923  21.645   5.134  1.00  0.00     0.146 A 
ATOM     11  O   UNL     1     -37.963  22.932   4.814  1.00  0.00    -0.452 OA
ENDROOT
BRANCH   1  12
ATOM     12  C   UNL     1     -37.926  25.309   5.218  1.00  0.00     0.025 A 
ATOM     13  C   UNL     1     -37.808  26.396   6.101  1.00  0.00     0.016 A 
ATOM     14  C   UNL     1     -37.814  27.703   5.612  1.00  0.00     0.051 A 
ATOM     15  C   UNL     1     -37.924  27.954   4.240  1.00  0.00     0.157 A 
ATOM     16  C   UNL     1     -38.014  25.557   3.840  1.00  0.00     0.062 A 
ATOM     17  C   UNL     1     -38.021  26.866   3.341  1.00  0.00     0.158 A 
BRANCH  15  18
ATOM     18  O   UNL     1     -37.928  29.285   3.818  1.00  0.00    -0.504 OA
ATOM     19  H   UNL     1     -38.272  30.054   4.377  1.00  0.00     0.293 HD
ENDBRANCH  15  18
BRANCH  17  20
ATOM     20  O   UNL     1     -38.124  27.036   1.959  1.00  0.00    -0.504 OA
ATOM     21  H   UNL     1     -37.775  27.843   1.462  1.00  0.00     0.293 HD
ENDBRANCH  17  20
ENDBRANCH   1  12
BRANCH   2  22
ATOM     22  O   UNL     1     -37.853  24.621   8.032  1.00  0.00    -0.502 OA
ATOM     23  H   UNL     1     -37.322  24.573   8.894  1.00  0.00     0.293 HD
ENDBRANCH   2  22
BRANCH   6  24
ATOM     24  O   UNL     1     -37.447  19.311   8.037  1.00  0.00    -0.507 OA
ATOM     25  H   UNL     1     -36.729  18.634   8.247  1.00  0.00     0.293 HD
ENDBRANCH   6  24
BRANCH   8  26
ATOM     26  O   UNL     1     -38.125  18.412   3.369  1.00  0.00    -0.508 OA
ATOM     27  H   UNL     1     -37.312  17.987   2.937  1.00  0.00     0.293 HD
ENDBRANCH   8  26
TORSDOF 6
ENDMDL
MODEL 3
REMARK VINA RESULT:    25.650      1.059      1.212
REMARK INTER + INTRA:          30.912
REMARK INTER:                  30.675
REMARK INTRA:                   0.238
REMARK UNBOUND:                 0.014
REMARK SMILES O=c1c(O)c(-c2ccc(O)c(O)c2)oc2cc(O)cc(O)c12
REMARK SMILES IDX 5 1 3 2 2 3 1 4 22 5 20 6 19 7 17 8 16 9 15 10 14 11 6 12
REMARK SMILES IDX 7 13 8 14 9 15 13 16 11 17 10 18 12 20 4 22 21 24 18 26
REMARK H PARENT 10 19 12 21 4 23 21 25 18 27
REMARK Flexibility Score: inf
ROOT
ATOM      1  C   UNL     1     -33.349  22.884   6.802  1.00  0.00     0.180 A 
ATOM      2  C   UNL     1     -33.657  22.196   7.988  1.00  0.00     0.208 A 
ATOM      3  C   UNL     1     -34.825  21.418   8.041  1.00  0.00     0.238 A 
ATOM      4  O   UNL     1     -35.123  20.848   9.123  1.00  0.00    -0.285 OA
ATOM      5  C   UNL     1     -35.661  21.326   6.902  1.00  0.00     0.111 A 
ATOM      6  C   UNL     1     -36.846  20.535   6.830  1.00  0.00     0.134 A 
ATOM      7  C   UNL     1     -37.666  20.621   5.697  1.00  0.00     0.093 A 
ATOM      8  C   UNL     1     -37.309  21.418   4.608  1.00  0.00     0.123 A 
ATOM      9  C   UNL     1     -36.123  22.148   4.646  1.00  0.00     0.094 A 
ATOM     10  C   UNL     1     -35.303  22.111   5.775  1.00  0.00     0.146 A 
ATOM     11  O   UNL     1     -34.187  22.830   5.773  1.00  0.00    -0.452 OA
ENDROOT
BRANCH   1  12
ATOM     12  C   UNL     1     -32.123  23.705   6.662  1.00  0.00     0.025 A 
ATOM     13  C   UNL     1     -30.946  23.383   7.357  1.00  0.00     0.016 A 
ATOM     14  C   UNL     1     -29.796  24.157   7.190  1.00  0.00     0.051 A 
ATOM     15  C   UNL     1     -29.791  25.253   6.322  1.00  0.00     0.157 A 
ATOM     16  C   UNL     1     -32.115  24.791   5.773  1.00  0.00     0.062 A 
ATOM     17  C   UNL     1     -30.966  25.572   5.600  1.00  0.00     0.158 A 
BRANCH  15  18
ATOM     18  O   UNL     1     -28.610  25.988   6.204  1.00  0.00    -0.504 OA
ATOM     19  H   UNL     1     -27.748  25.616   5.833  1.00  0.00     0.293 HD
ENDBRANCH  15  18
BRANCH  17  20
ATOM     20  O   UNL     1     -31.036  26.645   4.709  1.00  0.00    -0.504 OA
ATOM     21  H   UNL     1     -31.855  26.875   4.164  1.00  0.00     0.293 HD
ENDBRANCH  17  20
ENDBRANCH   1  12
BRANCH   2  22
ATOM     22  O   UNL     1     -32.829  22.320   9.107  1.00  0.00    -0.502 OA
ATOM     23  H   UNL     1     -33.147  22.731   9.976  1.00  0.00     0.293 HD
ENDBRANCH   2  22
BRANCH   6  24
ATOM     24  O   UNL     1     -37.247  19.635   7.823  1.00  0.00    -0.507 OA
ATOM     25  H   UNL     1     -37.355  19.867   8.798  1.00  0.00     0.293 HD
ENDBRANCH   6  24
BRANCH   8  26
ATOM     26  O   UNL     1     -38.122  21.486   3.480  1.00  0.00    -0.508 OA
ATOM     27  H   UNL     1     -38.884  20.833   3.335  1.00  0.00     0.293 HD
ENDBRANCH   8  26
TORSDOF 6
ENDMDL
MODEL 4
REMARK VINA RESULT:    25.664      3.996      7.062
REMARK INTER + INTRA:          30.929
REMARK INTER:                  31.172
REMARK INTRA:                  -0.242
REMARK UNBOUND:                 0.014
REMARK SMILES O=c1c(O)c(-c2ccc(O)c(O)c2)oc2cc(O)cc(O)c12
REMARK SMILES IDX 5 1 3 2 2 3 1 4 22 5 20 6 19 7 17 8 16 9 15 10 14 11 6 12
REMARK SMILES IDX 7 13 8 14 9 15 13 16 11 17 10 18 12 20 4 22 21 24 18 26
REMARK H PARENT 10 19 12 21 4 23 21 25 18 27
REMARK Flexibility Score: inf
ROOT
ATOM      1  C   UNL     1     -37.009  23.155   5.290  1.00  0.00     0.180 A 
ATOM      2  C   UNL     1     -36.647  22.915   3.953  1.00  0.00     0.208 A 
ATOM      3  C   UNL     1     -36.595  23.996   3.058  1.00  0.00     0.238 A 
ATOM      4  O   UNL     1     -36.323  23.767   1.850  1.00  0.00    -0.285 OA
ATOM      5  C   UNL     1     -36.889  25.304   3.514  1.00  0.00     0.111 A 
ATOM      6  C   UNL     1     -36.828  26.476   2.704  1.00  0.00     0.134 A 
ATOM      7  C   UNL     1     -37.267  27.700   3.226  1.00  0.00     0.093 A 
ATOM      8  C   UNL     1     -37.702  27.804   4.549  1.00  0.00     0.123 A 
ATOM      9  C   UNL     1     -37.709  26.675   5.365  1.00  0.00     0.094 A 
ATOM     10  C   UNL     1     -37.312  25.434   4.863  1.00  0.00     0.146 A 
ATOM     11  O   UNL     1     -37.343  24.383   5.672  1.00  0.00    -0.452 OA
ENDROOT
BRANCH   1  12
ATOM     12  C   UNL     1     -37.063  22.071   6.299  1.00  0.00     0.025 A 
ATOM     13  C   UNL     1     -38.092  21.115   6.289  1.00  0.00     0.016 A 
ATOM     14  C   UNL     1     -38.108  20.089   7.235  1.00  0.00     0.051 A 
ATOM     15  C   UNL     1     -37.098  19.987   8.197  1.00  0.00     0.157 A 
ATOM     16  C   UNL     1     -36.036  21.959   7.249  1.00  0.00     0.062 A 
ATOM     17  C   UNL     1     -36.045  20.932   8.202  1.00  0.00     0.158 A 
BRANCH  15  18
ATOM     18  O   UNL     1     -37.176  18.940   9.117  1.00  0.00    -0.504 OA
ATOM     19  H   UNL     1     -37.551  19.035  10.051  1.00  0.00     0.293 HD
ENDBRANCH  15  18
BRANCH  17  20
ATOM     20  O   UNL     1     -34.997  20.891   9.124  1.00  0.00    -0.504 OA
ATOM     21  H   UNL     1     -34.824  20.114   9.746  1.00  0.00     0.293 HD
ENDBRANCH  17  20
ENDBRANCH   1  12
BRANCH   2  22
ATOM     22  O   UNL     1     -36.382  21.614   3.519  1.00  0.00    -0.502 OA
ATOM     23  H   UNL     1     -37.109  20.993   3.185  1.00  0.00     0.293 HD
ENDBRANCH   2  22
BRANCH   6  24
ATOM     24  O   UNL     1     -36.324  26.500   1.400  1.00  0.00    -0.507 OA
ATOM     25  H   UNL     1     -35.492  26.016   1.097  1.00  0.00     0.293 HD
ENDBRANCH   6  24
BRANCH   8  26
ATOM     26  O   UNL     1     -38.121  29.027   5.065  1.00  0.00    -0.508 OA
ATOM     27  H   UNL     1     -37.459  29.711   5.416  1.00  0.00     0.293 HD
ENDBRANCH   8  26
TORSDOF 6
ENDMDL
MODEL 5
REMARK VINA RESULT:    27.688      1.744      3.167
REMARK INTER + INTRA:          33.368
REMARK INTER:                  32.855
REMARK INTRA:                   0.513
REMARK UNBOUND:                 0.014
REMARK SMILES O=c1c(O)c(-c2ccc(O)c(O)c2)oc2cc(O)cc(O)c12
REMARK SMILES IDX 5 1 3 2 2 3 1 4 22 5 20 6 19 7 17 8 16 9 15 10 14 11 6 12
REMARK SMILES IDX 7 13 8 14 9 15 13 16 11 17 10 18 12 20 4 22 21 24 18 26
REMARK H PARENT 10 19 12 21 4 23 21 25 18 27
REMARK Flexibility Score: inf
ROOT
ATOM      1  C   UNL     1     -33.667  22.416   6.954  1.00  0.00     0.180 A 
ATOM      2  C   UNL     1     -34.105  22.590   5.629  1.00  0.00     0.208 A 
ATOM      3  C   UNL     1     -35.341  22.046   5.244  1.00  0.00     0.238 A 
ATOM      4  O   UNL     1     -35.702  22.158   4.043  1.00  0.00    -0.285 OA
ATOM      5  C   UNL     1     -36.130  21.349   6.191  1.00  0.00     0.111 A 
ATOM      6  C   UNL     1     -37.416  20.792   5.921  1.00  0.00     0.134 A 
ATOM      7  C   UNL     1     -38.049  20.012   6.897  1.00  0.00     0.093 A 
ATOM      8  C   UNL     1     -37.472  19.824   8.155  1.00  0.00     0.123 A 
ATOM      9  C   UNL     1     -36.244  20.413   8.447  1.00  0.00     0.094 A 
ATOM     10  C   UNL     1     -35.572  21.167   7.484  1.00  0.00     0.146 A 
ATOM     11  O   UNL     1     -34.400  21.702   7.801  1.00  0.00    -0.452 OA
ENDROOT
BRANCH   1  12
ATOM     12  C   UNL     1     -32.387  22.981   7.441  1.00  0.00     0.025 A 
ATOM     13  C   UNL     1     -31.842  22.593   8.676  1.00  0.00     0.016 A 
ATOM     14  C   UNL     1     -30.622  23.121   9.104  1.00  0.00     0.051 A 
ATOM     15  C   UNL     1     -29.918  24.031   8.309  1.00  0.00     0.157 A 
ATOM     16  C   UNL     1     -31.673  23.877   6.632  1.00  0.00     0.062 A 
ATOM     17  C   UNL     1     -30.449  24.412   7.053  1.00  0.00     0.158 A 
BRANCH  15  18
ATOM     18  O   UNL     1     -28.707  24.525   8.797  1.00  0.00    -0.504 OA
ATOM     19  H   UNL     1     -28.249  24.177   9.628  1.00  0.00     0.293 HD
ENDBRANCH  15  18
BRANCH  17  20
ATOM     20  O   UNL     1     -29.801  25.307   6.201  1.00  0.00    -0.504 OA
ATOM     21  H   UNL     1     -28.994  25.071   5.640  1.00  0.00     0.293 HD
ENDBRANCH  17  20
ENDBRANCH   1  12
BRANCH   2  22
ATOM     22  O   UNL     1     -33.300  23.261   4.705  1.00  0.00    -0.502 OA
ATOM     23  H   UNL     1     -32.879  24.160   4.903  1.00  0.00     0.293 HD
ENDBRANCH   2  22
BRANCH   6  24
ATOM     24  O   UNL     1     -38.121  20.997   4.731  1.00  0.00    -0.507 OA
ATOM     25  H   UNL     1     -37.958  21.758   4.090  1.00  0.00     0.293 HD
ENDBRANCH   6  24
BRANCH   8  26
ATOM     26  O   UNL     1     -38.116  19.059   9.125  1.00  0.00    -0.508 OA
ATOM     27  H   UNL     1     -39.003  18.605   8.939  1.00  0.00     0.293 HD
ENDBRANCH   8  26
TORSDOF 6
ENDMDL
