MODEL 1
REMARK VINA RESULT:    -6.185      0.000      0.000
REMARK INTER + INTRA:          -7.988
REMARK INTER:                  -7.631
REMARK INTRA:                  -0.357
REMARK UNBOUND:                -0.357
REMARK SMILES Oc1cc(O)c2cc(O)c(-c3cc(O)c(O)c(O)c3)[o+]c2c1
REMARK SMILES IDX 10 1 20 2 21 3 22 4 2 5 3 6 4 7 6 8 7 9 8 10 11 11 12 12
REMARK SMILES IDX 13 13 19 14 15 15 17 16 14 17 16 19 18 21 9 23 1 25 5 27
REMARK H PARENT 14 18 16 20 18 22 9 24 1 26 5 28
REMARK Flexibility Score: inf
ROOT
ATOM      1  C   UNL     1      11.220  41.626  35.637  1.00  0.00     0.402 A 
ATOM      2  O   UNL     1      11.279  41.725  36.962  1.00  0.00    -0.202 OA
ATOM      3  C   UNL     1      11.946  40.868  37.729  1.00  0.00     0.368 A 
ATOM      4  C   UNL     1      11.947  41.054  39.114  1.00  0.00     0.162 A 
ATOM      5  C   UNL     1      12.636  40.168  39.943  1.00  0.00     0.128 A 
ATOM      6  C   UNL     1      13.329  39.088  39.386  1.00  0.00     0.093 A 
ATOM      7  C   UNL     1      13.344  38.880  38.001  1.00  0.00     0.136 A 
ATOM      8  C   UNL     1      12.646  39.780  37.154  1.00  0.00     0.125 A 
ATOM      9  C   UNL     1      12.616  39.658  35.756  1.00  0.00     0.078 A 
ATOM     10  C   UNL     1      11.910  40.587  34.985  1.00  0.00     0.223 A 
ENDROOT
BRANCH   1  11
ATOM     11  C   UNL     1      10.435  42.638  34.893  1.00  0.00     0.091 A 
ATOM     12  C   UNL     1       9.143  42.319  34.449  1.00  0.00     0.068 A 
ATOM     13  C   UNL     1       8.386  43.246  33.727  1.00  0.00     0.162 A 
ATOM     14  C   UNL     1      10.977  43.894  34.573  1.00  0.00     0.068 A 
ATOM     15  C   UNL     1       8.924  44.510  33.427  1.00  0.00     0.200 A 
ATOM     16  C   UNL     1      10.226  44.830  33.849  1.00  0.00     0.162 A 
BRANCH  13  17
ATOM     17  O   UNL     1       7.100  42.895  33.316  1.00  0.00    -0.504 OA
ATOM     18  H   UNL     1       6.933  42.318  32.501  1.00  0.00     0.293 HD
ENDBRANCH  13  17
BRANCH  15  19
ATOM     19  O   UNL     1       8.161  45.431  32.709  1.00  0.00    -0.502 OA
ATOM     20  H   UNL     1       8.428  46.404  32.624  1.00  0.00     0.293 HD
ENDBRANCH  15  19
BRANCH  16  21
ATOM     21  O   UNL     1      10.772  46.076  33.541  1.00  0.00    -0.504 OA
ATOM     22  H   UNL     1      10.475  46.919  34.019  1.00  0.00     0.293 HD
ENDBRANCH  16  21
ENDBRANCH   1  11
BRANCH  10  23
ATOM     23  O   UNL     1      11.922  40.495  33.594  1.00  0.00    -0.500 OA
ATOM     24  H   UNL     1      11.069  40.559  33.049  1.00  0.00     0.294 HD
ENDBRANCH  10  23
BRANCH   5  25
ATOM     25  O   UNL     1      12.626  40.371  41.322  1.00  0.00    -0.507 OA
ATOM     26  H   UNL     1      11.760  40.406  41.846  1.00  0.00     0.293 HD
ENDBRANCH   5  25
BRANCH   7  27
ATOM     27  O   UNL     1      14.055  37.776  37.523  1.00  0.00    -0.507 OA
ATOM     28  H   UNL     1      14.239  36.940  38.058  1.00  0.00     0.293 HD
ENDBRANCH   7  27
TORSDOF 7
ENDMDL
MODEL 2
REMARK VINA RESULT:    -6.168      0.105      1.797
REMARK INTER + INTRA:          -7.968
REMARK INTER:                  -7.590
REMARK INTRA:                  -0.377
REMARK UNBOUND:                -0.357
REMARK SMILES Oc1cc(O)c2cc(O)c(-c3cc(O)c(O)c(O)c3)[o+]c2c1
REMARK SMILES IDX 10 1 20 2 21 3 22 4 2 5 3 6 4 7 6 8 7 9 8 10 11 11 12 12
REMARK SMILES IDX 13 13 19 14 15 15 17 16 14 17 16 19 18 21 9 23 1 25 5 27
REMARK H PARENT 14 18 16 20 18 22 9 24 1 26 5 28
REMARK Flexibility Score: inf
ROOT
ATOM      1  C   UNL     1      11.180  41.648  35.569  1.00  0.00     0.402 A 
ATOM      2  O   UNL     1      11.224  41.763  36.893  1.00  0.00    -0.202 OA
ATOM      3  C   UNL     1      11.883  40.917  37.679  1.00  0.00     0.368 A 
ATOM      4  C   UNL     1      11.867  41.120  39.061  1.00  0.00     0.162 A 
ATOM      5  C   UNL     1      12.548  40.247  39.909  1.00  0.00     0.128 A 
ATOM      6  C   UNL     1      13.250  39.161  39.374  1.00  0.00     0.093 A 
ATOM      7  C   UNL     1      13.281  38.936  37.992  1.00  0.00     0.136 A 
ATOM      8  C   UNL     1      12.592  39.824  37.126  1.00  0.00     0.125 A 
ATOM      9  C   UNL     1      12.579  39.684  35.729  1.00  0.00     0.078 A 
ATOM     10  C   UNL     1      11.880  40.602  34.938  1.00  0.00     0.223 A 
ENDROOT
BRANCH   1  11
ATOM     11  C   UNL     1      10.402  42.649  34.803  1.00  0.00     0.091 A 
ATOM     12  C   UNL     1      10.962  43.910  34.549  1.00  0.00     0.068 A 
ATOM     13  C   UNL     1      10.244  44.882  33.847  1.00  0.00     0.162 A 
ATOM     14  C   UNL     1       9.091  42.384  34.372  1.00  0.00     0.068 A 
ATOM     15  C   UNL     1       8.940  44.605  33.399  1.00  0.00     0.200 A 
ATOM     16  C   UNL     1       8.363  43.352  33.669  1.00  0.00     0.162 A 
BRANCH  13  17
ATOM     17  O   UNL     1      10.841  46.119  33.602  1.00  0.00    -0.504 OA
ATOM     18  H   UNL     1      10.366  46.856  33.095  1.00  0.00     0.293 HD
ENDBRANCH  13  17
BRANCH  15  19
ATOM     19  O   UNL     1       8.231  45.580  32.696  1.00  0.00    -0.502 OA
ATOM     20  H   UNL     1       8.695  46.302  32.158  1.00  0.00     0.293 HD
ENDBRANCH  15  19
BRANCH  16  21
ATOM     21  O   UNL     1       7.066  43.076  33.241  1.00  0.00    -0.504 OA
ATOM     22  H   UNL     1       6.849  42.921  32.263  1.00  0.00     0.293 HD
ENDBRANCH  16  21
ENDBRANCH   1  11
BRANCH  10  23
ATOM     23  O   UNL     1      11.908  40.493  33.548  1.00  0.00    -0.500 OA
ATOM     24  H   UNL     1      11.157  40.046  33.034  1.00  0.00     0.294 HD
ENDBRANCH  10  23
BRANCH   5  25
ATOM     25  O   UNL     1      12.522  40.466  41.285  1.00  0.00    -0.507 OA
ATOM     26  H   UNL     1      12.001  39.861  41.908  1.00  0.00     0.293 HD
ENDBRANCH   5  25
BRANCH   7  27
ATOM     27  O   UNL     1      14.000  37.828  37.536  1.00  0.00    -0.507 OA
ATOM     28  H   UNL     1      14.781  37.877  36.899  1.00  0.00     0.293 HD
ENDBRANCH   7  27
TORSDOF 7
ENDMDL
MODEL 3
REMARK VINA RESULT:    -6.062      2.165      7.101
REMARK INTER + INTRA:          -7.836
REMARK INTER:                  -7.467
REMARK INTRA:                  -0.369
REMARK UNBOUND:                -0.357
REMARK SMILES Oc1cc(O)c2cc(O)c(-c3cc(O)c(O)c(O)c3)[o+]c2c1
REMARK SMILES IDX 10 1 20 2 21 3 22 4 2 5 3 6 4 7 6 8 7 9 8 10 11 11 12 12
REMARK SMILES IDX 13 13 19 14 15 15 17 16 14 17 16 19 18 21 9 23 1 25 5 27
REMARK H PARENT 14 18 16 20 18 22 9 24 1 26 5 28
REMARK Flexibility Score: inf
ROOT
ATOM      1  C   UNL     1       9.965  41.626  35.584  1.00  0.00     0.402 A 
ATOM      2  O   UNL     1       8.763  41.775  36.134  1.00  0.00    -0.202 OA
ATOM      3  C   UNL     1       7.905  42.722  35.769  1.00  0.00     0.368 A 
ATOM      4  C   UNL     1       6.666  42.801  36.409  1.00  0.00     0.162 A 
ATOM      5  C   UNL     1       5.747  43.787  36.049  1.00  0.00     0.128 A 
ATOM      6  C   UNL     1       6.068  44.703  35.041  1.00  0.00     0.093 A 
ATOM      7  C   UNL     1       7.303  44.646  34.384  1.00  0.00     0.136 A 
ATOM      8  C   UNL     1       8.239  43.642  34.747  1.00  0.00     0.125 A 
ATOM      9  C   UNL     1       9.495  43.501  34.135  1.00  0.00     0.078 A 
ATOM     10  C   UNL     1      10.364  42.484  34.543  1.00  0.00     0.223 A 
ENDROOT
BRANCH   1  11
ATOM     11  C   UNL     1      10.834  40.537  36.085  1.00  0.00     0.091 A 
ATOM     12  C   UNL     1      11.829  40.829  37.031  1.00  0.00     0.068 A 
ATOM     13  C   UNL     1      12.678  39.826  37.507  1.00  0.00     0.162 A 
ATOM     14  C   UNL     1      10.724  39.226  35.592  1.00  0.00     0.068 A 
ATOM     15  C   UNL     1      12.549  38.511  37.027  1.00  0.00     0.200 A 
ATOM     16  C   UNL     1      11.571  38.214  36.063  1.00  0.00     0.162 A 
BRANCH  13  17
ATOM     17  O   UNL     1      13.645  40.154  38.458  1.00  0.00    -0.504 OA
ATOM     18  H   UNL     1      14.454  39.570  38.627  1.00  0.00     0.293 HD
ENDBRANCH  13  17
BRANCH  15  19
ATOM     19  O   UNL     1      13.400  37.515  37.510  1.00  0.00    -0.502 OA
ATOM     20  H   UNL     1      14.405  37.632  37.541  1.00  0.00     0.293 HD
ENDBRANCH  15  19
BRANCH  16  21
ATOM     21  O   UNL     1      11.448  36.916  35.571  1.00  0.00    -0.504 OA
ATOM     22  H   UNL     1      10.578  36.576  35.178  1.00  0.00     0.293 HD
ENDBRANCH  16  21
ENDBRANCH   1  11
BRANCH  10  23
ATOM     23  O   UNL     1      11.590  42.312  33.901  1.00  0.00    -0.500 OA
ATOM     24  H   UNL     1      12.090  43.092  33.490  1.00  0.00     0.294 HD
ENDBRANCH  10  23
BRANCH   5  25
ATOM     25  O   UNL     1       4.515  43.848  36.698  1.00  0.00    -0.507 OA
ATOM     26  H   UNL     1       4.059  43.014  37.048  1.00  0.00     0.293 HD
ENDBRANCH   5  25
BRANCH   7  27
ATOM     27  O   UNL     1       7.550  45.599  33.393  1.00  0.00    -0.507 OA
ATOM     28  H   UNL     1       8.272  46.303  33.444  1.00  0.00     0.293 HD
ENDBRANCH   7  27
TORSDOF 7
ENDMDL
MODEL 4
REMARK VINA RESULT:    -5.943      2.147      7.505
REMARK INTER + INTRA:          -7.691
REMARK INTER:                  -7.320
REMARK INTRA:                  -0.371
REMARK UNBOUND:                -0.357
REMARK SMILES Oc1cc(O)c2cc(O)c(-c3cc(O)c(O)c(O)c3)[o+]c2c1
REMARK SMILES IDX 10 1 20 2 21 3 22 4 2 5 3 6 4 7 6 8 7 9 8 10 11 11 12 12
REMARK SMILES IDX 13 13 19 14 15 15 17 16 14 17 16 19 18 21 9 23 1 25 5 27
REMARK H PARENT 14 18 16 20 18 22 9 24 1 26 5 28
REMARK Flexibility Score: inf
ROOT
ATOM      1  C   UNL     1      12.697  39.452  37.282  1.00  0.00     0.402 A 
ATOM      2  O   UNL     1      12.763  40.780  37.332  1.00  0.00    -0.202 OA
ATOM      3  C   UNL     1      12.247  41.573  36.398  1.00  0.00     0.368 A 
ATOM      4  C   UNL     1      12.369  42.957  36.539  1.00  0.00     0.162 A 
ATOM      5  C   UNL     1      11.840  43.813  35.573  1.00  0.00     0.128 A 
ATOM      6  C   UNL     1      11.184  43.283  34.456  1.00  0.00     0.093 A 
ATOM      7  C   UNL     1      11.048  41.899  34.292  1.00  0.00     0.136 A 
ATOM      8  C   UNL     1      11.583  41.025  35.274  1.00  0.00     0.125 A 
ATOM      9  C   UNL     1      11.483  39.627  35.199  1.00  0.00     0.078 A 
ATOM     10  C   UNL     1      12.032  38.829  36.209  1.00  0.00     0.223 A 
ENDROOT
BRANCH   1  11
ATOM     11  C   UNL     1      13.320  38.677  38.379  1.00  0.00     0.091 A 
ATOM     12  C   UNL     1      12.655  38.569  39.610  1.00  0.00     0.068 A 
ATOM     13  C   UNL     1      13.227  37.860  40.671  1.00  0.00     0.162 A 
ATOM     14  C   UNL     1      14.590  38.094  38.234  1.00  0.00     0.068 A 
ATOM     15  C   UNL     1      14.489  37.260  40.514  1.00  0.00     0.200 A 
ATOM     16  C   UNL     1      15.172  37.383  39.292  1.00  0.00     0.162 A 
BRANCH  13  17
ATOM     17  O   UNL     1      12.528  37.763  41.874  1.00  0.00    -0.504 OA
ATOM     18  H   UNL     1      12.752  38.339  42.675  1.00  0.00     0.293 HD
ENDBRANCH  13  17
BRANCH  15  19
ATOM     19  O   UNL     1      15.052  36.552  41.578  1.00  0.00    -0.502 OA
ATOM     20  H   UNL     1      16.033  36.629  41.818  1.00  0.00     0.293 HD
ENDBRANCH  15  19
BRANCH  16  21
ATOM     21  O   UNL     1      16.430  36.803  39.136  1.00  0.00    -0.504 OA
ATOM     22  H   UNL     1      17.246  37.164  39.617  1.00  0.00     0.293 HD
ENDBRANCH  16  21
ENDBRANCH   1  11
BRANCH  10  23
ATOM     23  O   UNL     1      11.889  37.443  36.161  1.00  0.00    -0.500 OA
ATOM     24  H   UNL     1      12.607  36.848  35.764  1.00  0.00     0.294 HD
ENDBRANCH  10  23
BRANCH   5  25
ATOM     25  O   UNL     1      11.970  45.192  35.731  1.00  0.00    -0.507 OA
ATOM     26  H   UNL     1      11.206  45.824  35.523  1.00  0.00     0.293 HD
ENDBRANCH   5  25
BRANCH   7  27
ATOM     27  O   UNL     1      10.384  41.448  33.148  1.00  0.00    -0.507 OA
ATOM     28  H   UNL     1      10.221  42.008  32.324  1.00  0.00     0.293 HD
ENDBRANCH   7  27
TORSDOF 7
ENDMDL
MODEL 5
REMARK VINA RESULT:    -5.939      3.423      8.151
REMARK INTER + INTRA:          -7.685
REMARK INTER:                  -7.410
REMARK INTRA:                  -0.276
REMARK UNBOUND:                -0.357
REMARK SMILES Oc1cc(O)c2cc(O)c(-c3cc(O)c(O)c(O)c3)[o+]c2c1
REMARK SMILES IDX 10 1 20 2 21 3 22 4 2 5 3 6 4 7 6 8 7 9 8 10 11 11 12 12
REMARK SMILES IDX 13 13 19 14 15 15 17 16 14 17 16 19 18 21 9 23 1 25 5 27
REMARK H PARENT 14 18 16 20 18 22 9 24 1 26 5 28
REMARK Flexibility Score: inf
ROOT
ATOM      1  C   UNL     1      14.589  40.335  38.991  1.00  0.00     0.402 A 
ATOM      2  O   UNL     1      13.775  40.841  38.069  1.00  0.00    -0.202 OA
ATOM      3  C   UNL     1      13.814  42.110  37.676  1.00  0.00     0.368 A 
ATOM      4  C   UNL     1      12.914  42.548  36.701  1.00  0.00     0.162 A 
ATOM      5  C   UNL     1      12.931  43.875  36.272  1.00  0.00     0.128 A 
ATOM      6  C   UNL     1      13.853  44.773  36.820  1.00  0.00     0.093 A 
ATOM      7  C   UNL     1      14.766  44.359  37.798  1.00  0.00     0.136 A 
ATOM      8  C   UNL     1      14.753  43.008  38.235  1.00  0.00     0.125 A 
ATOM      9  C   UNL     1      15.639  42.502  39.200  1.00  0.00     0.078 A 
ATOM     10  C   UNL     1      15.569  41.157  39.579  1.00  0.00     0.223 A 
ENDROOT
BRANCH   1  11
ATOM     11  C   UNL     1      14.440  38.907  39.352  1.00  0.00     0.091 A 
ATOM     12  C   UNL     1      13.338  38.501  40.119  1.00  0.00     0.068 A 
ATOM     13  C   UNL     1      13.181  37.163  40.492  1.00  0.00     0.162 A 
ATOM     14  C   UNL     1      15.408  37.955  38.989  1.00  0.00     0.068 A 
ATOM     15  C   UNL     1      14.141  36.210  40.109  1.00  0.00     0.200 A 
ATOM     16  C   UNL     1      15.260  36.612  39.359  1.00  0.00     0.162 A 
BRANCH  13  17
ATOM     17  O   UNL     1      12.063  36.797  41.242  1.00  0.00    -0.504 OA
ATOM     18  H   UNL     1      11.615  37.435  41.887  1.00  0.00     0.293 HD
ENDBRANCH  13  17
BRANCH  15  19
ATOM     19  O   UNL     1      13.975  34.875  40.482  1.00  0.00    -0.502 OA
ATOM     20  H   UNL     1      14.759  34.243  40.589  1.00  0.00     0.293 HD
ENDBRANCH  15  19
BRANCH  16  21
ATOM     21  O   UNL     1      16.224  35.675  38.989  1.00  0.00    -0.504 OA
ATOM     22  H   UNL     1      17.165  35.952  38.733  1.00  0.00     0.293 HD
ENDBRANCH  16  21
ENDBRANCH   1  11
BRANCH  10  23
ATOM     23  O   UNL     1      16.481  40.641  40.500  1.00  0.00    -0.500 OA
ATOM     24  H   UNL     1      16.304  39.775  40.995  1.00  0.00     0.294 HD
ENDBRANCH  10  23
BRANCH   5  25
ATOM     25  O   UNL     1      12.025  44.293  35.298  1.00  0.00    -0.507 OA
ATOM     26  H   UNL     1      11.271  43.695  34.985  1.00  0.00     0.293 HD
ENDBRANCH   5  25
BRANCH   7  27
ATOM     27  O   UNL     1      15.652  45.316  38.299  1.00  0.00    -0.507 OA
ATOM     28  H   UNL     1      15.631  46.296  38.057  1.00  0.00     0.293 HD
ENDBRANCH   7  27
TORSDOF 7
ENDMDL
MODEL 6
REMARK VINA RESULT:    -5.931      1.424      1.489
REMARK INTER + INTRA:          -7.675
REMARK INTER:                  -7.295
REMARK INTRA:                  -0.380
REMARK UNBOUND:                -0.357
REMARK SMILES Oc1cc(O)c2cc(O)c(-c3cc(O)c(O)c(O)c3)[o+]c2c1
REMARK SMILES IDX 10 1 20 2 21 3 22 4 2 5 3 6 4 7 6 8 7 9 8 10 11 11 12 12
REMARK SMILES IDX 13 13 19 14 15 15 17 16 14 17 16 19 18 21 9 23 1 25 5 27
REMARK H PARENT 14 18 16 20 18 22 9 24 1 26 5 28
REMARK Flexibility Score: inf
ROOT
ATOM      1  C   UNL     1      11.239  41.101  36.139  1.00  0.00     0.402 A 
ATOM      2  O   UNL     1      11.914  41.563  37.188  1.00  0.00    -0.202 OA
ATOM      3  C   UNL     1      12.839  40.856  37.831  1.00  0.00     0.368 A 
ATOM      4  C   UNL     1      13.492  41.427  38.926  1.00  0.00     0.162 A 
ATOM      5  C   UNL     1      14.464  40.708  39.621  1.00  0.00     0.128 A 
ATOM      6  C   UNL     1      14.787  39.406  39.220  1.00  0.00     0.093 A 
ATOM      7  C   UNL     1      14.147  38.811  38.126  1.00  0.00     0.136 A 
ATOM      8  C   UNL     1      13.159  39.541  37.415  1.00  0.00     0.125 A 
ATOM      9  C   UNL     1      12.475  39.030  36.300  1.00  0.00     0.078 A 
ATOM     10  C   UNL     1      11.516  39.811  35.647  1.00  0.00     0.223 A 
ENDROOT
BRANCH   1  11
ATOM     11  C   UNL     1      10.226  41.981  35.514  1.00  0.00     0.091 A 
ATOM     12  C   UNL     1       8.887  41.893  35.926  1.00  0.00     0.068 A 
ATOM     13  C   UNL     1       7.905  42.697  35.341  1.00  0.00     0.162 A 
ATOM     14  C   UNL     1      10.565  42.866  34.477  1.00  0.00     0.068 A 
ATOM     15  C   UNL     1       8.253  43.596  34.318  1.00  0.00     0.200 A 
ATOM     16  C   UNL     1       9.587  43.675  33.883  1.00  0.00     0.162 A 
BRANCH  13  17
ATOM     17  O   UNL     1       6.588  42.589  35.789  1.00  0.00    -0.504 OA
ATOM     18  H   UNL     1       5.936  41.927  35.389  1.00  0.00     0.293 HD
ENDBRANCH  13  17
BRANCH  15  19
ATOM     19  O   UNL     1       7.266  44.398  33.741  1.00  0.00    -0.502 OA
ATOM     20  H   UNL     1       7.057  44.367  32.750  1.00  0.00     0.293 HD
ENDBRANCH  15  19
BRANCH  16  21
ATOM     21  O   UNL     1       9.935  44.554  32.859  1.00  0.00    -0.504 OA
ATOM     22  H   UNL     1       9.528  45.480  32.790  1.00  0.00     0.293 HD
ENDBRANCH  16  21
ENDBRANCH   1  11
BRANCH  10  23
ATOM     23  O   UNL     1      10.873  39.324  34.509  1.00  0.00    -0.500 OA
ATOM     24  H   UNL     1      11.016  38.375  34.183  1.00  0.00     0.294 HD
ENDBRANCH  10  23
BRANCH   5  25
ATOM     25  O   UNL     1      15.106  41.295  40.709  1.00  0.00    -0.507 OA
ATOM     26  H   UNL     1      15.744  42.073  40.592  1.00  0.00     0.293 HD
ENDBRANCH   5  25
BRANCH   7  27
ATOM     27  O   UNL     1      14.522  37.507  37.792  1.00  0.00    -0.507 OA
ATOM     28  H   UNL     1      14.514  37.133  36.854  1.00  0.00     0.293 HD
ENDBRANCH   7  27
TORSDOF 7
ENDMDL
MODEL 7
REMARK VINA RESULT:    -5.899      3.179      5.732
REMARK INTER + INTRA:          -7.636
REMARK INTER:                  -7.253
REMARK INTRA:                  -0.384
REMARK UNBOUND:                -0.357
REMARK SMILES Oc1cc(O)c2cc(O)c(-c3cc(O)c(O)c(O)c3)[o+]c2c1
REMARK SMILES IDX 10 1 20 2 21 3 22 4 2 5 3 6 4 7 6 8 7 9 8 10 11 11 12 12
REMARK SMILES IDX 13 13 19 14 15 15 17 16 14 17 16 19 18 21 9 23 1 25 5 27
REMARK H PARENT 14 18 16 20 18 22 9 24 1 26 5 28
REMARK Flexibility Score: inf
ROOT
ATOM      1  C   UNL     1      12.893  38.613  39.503  1.00  0.00     0.402 A 
ATOM      2  O   UNL     1      11.826  38.366  40.258  1.00  0.00    -0.202 OA
ATOM      3  C   UNL     1      11.839  37.530  41.291  1.00  0.00     0.368 A 
ATOM      4  C   UNL     1      10.665  37.334  42.023  1.00  0.00     0.162 A 
ATOM      5  C   UNL     1      10.649  36.460  43.110  1.00  0.00     0.128 A 
ATOM      6  C   UNL     1      11.815  35.774  43.469  1.00  0.00     0.093 A 
ATOM      7  C   UNL     1      13.005  35.953  42.753  1.00  0.00     0.136 A 
ATOM      8  C   UNL     1      13.025  36.844  41.648  1.00  0.00     0.125 A 
ATOM      9  C   UNL     1      14.174  37.095  40.880  1.00  0.00     0.078 A 
ATOM     10  C   UNL     1      14.118  37.990  39.807  1.00  0.00     0.223 A 
ENDROOT
BRANCH   1  11
ATOM     11  C   UNL     1      12.749  39.558  38.373  1.00  0.00     0.091 A 
ATOM     12  C   UNL     1      12.839  40.938  38.612  1.00  0.00     0.068 A 
ATOM     13  C   UNL     1      12.687  41.855  37.568  1.00  0.00     0.162 A 
ATOM     14  C   UNL     1      12.468  39.107  37.072  1.00  0.00     0.068 A 
ATOM     15  C   UNL     1      12.427  41.398  36.264  1.00  0.00     0.200 A 
ATOM     16  C   UNL     1      12.313  40.019  36.020  1.00  0.00     0.162 A 
BRANCH  13  17
ATOM     17  O   UNL     1      12.798  43.218  37.844  1.00  0.00    -0.504 OA
ATOM     18  H   UNL     1      12.073  43.730  38.333  1.00  0.00     0.293 HD
ENDBRANCH  13  17
BRANCH  15  19
ATOM     19  O   UNL     1      12.279  42.321  35.227  1.00  0.00    -0.502 OA
ATOM     20  H   UNL     1      11.459  42.339  34.634  1.00  0.00     0.293 HD
ENDBRANCH  15  19
BRANCH  16  21
ATOM     21  O   UNL     1      12.040  39.559  34.732  1.00  0.00    -0.504 OA
ATOM     22  H   UNL     1      12.220  40.130  33.915  1.00  0.00     0.293 HD
ENDBRANCH  16  21
ENDBRANCH   1  11
BRANCH  10  23
ATOM     23  O   UNL     1      15.270  38.278  39.075  1.00  0.00    -0.500 OA
ATOM     24  H   UNL     1      15.875  37.544  38.724  1.00  0.00     0.294 HD
ENDBRANCH  10  23
BRANCH   5  25
ATOM     25  O   UNL     1       9.469  36.278  43.828  1.00  0.00    -0.507 OA
ATOM     26  H   UNL     1       8.565  36.282  43.371  1.00  0.00     0.293 HD
ENDBRANCH   5  25
BRANCH   7  27
ATOM     27  O   UNL     1      14.124  35.229  43.171  1.00  0.00    -0.507 OA
ATOM     28  H   UNL     1      14.396  34.331  42.799  1.00  0.00     0.293 HD
ENDBRANCH   7  27
TORSDOF 7
ENDMDL
MODEL 8
REMARK VINA RESULT:    -5.889      1.443      2.177
REMARK INTER + INTRA:          -7.624
REMARK INTER:                  -7.239
REMARK INTRA:                  -0.385
REMARK UNBOUND:                -0.357
REMARK SMILES Oc1cc(O)c2cc(O)c(-c3cc(O)c(O)c(O)c3)[o+]c2c1
REMARK SMILES IDX 10 1 20 2 21 3 22 4 2 5 3 6 4 7 6 8 7 9 8 10 11 11 12 12
REMARK SMILES IDX 13 13 19 14 15 15 17 16 14 17 16 19 18 21 9 23 1 25 5 27
REMARK H PARENT 14 18 16 20 18 22 9 24 1 26 5 28
REMARK Flexibility Score: inf
ROOT
ATOM      1  C   UNL     1      11.186  41.046  36.123  1.00  0.00     0.402 A 
ATOM      2  O   UNL     1      11.894  41.539  37.135  1.00  0.00    -0.202 OA
ATOM      3  C   UNL     1      12.826  40.846  37.782  1.00  0.00     0.368 A 
ATOM      4  C   UNL     1      13.514  41.452  38.836  1.00  0.00     0.162 A 
ATOM      5  C   UNL     1      14.495  40.747  39.534  1.00  0.00     0.128 A 
ATOM      6  C   UNL     1      14.790  39.426  39.179  1.00  0.00     0.093 A 
ATOM      7  C   UNL     1      14.115  38.797  38.126  1.00  0.00     0.136 A 
ATOM      8  C   UNL     1      13.118  39.512  37.411  1.00  0.00     0.125 A 
ATOM      9  C   UNL     1      12.400  38.966  36.335  1.00  0.00     0.078 A 
ATOM     10  C   UNL     1      11.434  39.734  35.676  1.00  0.00     0.223 A 
ENDROOT
BRANCH   1  11
ATOM     11  C   UNL     1      10.168  41.914  35.489  1.00  0.00     0.091 A 
ATOM     12  C   UNL     1      10.563  42.842  34.513  1.00  0.00     0.068 A 
ATOM     13  C   UNL     1       9.628  43.689  33.912  1.00  0.00     0.162 A 
ATOM     14  C   UNL     1       8.820  41.871  35.885  1.00  0.00     0.068 A 
ATOM     15  C   UNL     1       8.277  43.627  34.296  1.00  0.00     0.200 A 
ATOM     16  C   UNL     1       7.876  42.717  35.289  1.00  0.00     0.162 A 
BRANCH  13  17
ATOM     17  O   UNL     1      10.059  44.586  32.935  1.00  0.00    -0.504 OA
ATOM     18  H   UNL     1      10.045  44.357  31.949  1.00  0.00     0.293 HD
ENDBRANCH  13  17
BRANCH  15  19
ATOM     19  O   UNL     1       7.349  44.474  33.688  1.00  0.00    -0.502 OA
ATOM     20  H   UNL     1       7.339  45.473  33.856  1.00  0.00     0.293 HD
ENDBRANCH  15  19
BRANCH  16  21
ATOM     21  O   UNL     1       6.540  42.661  35.685  1.00  0.00    -0.504 OA
ATOM     22  H   UNL     1       5.796  43.021  35.098  1.00  0.00     0.293 HD
ENDBRANCH  16  21
ENDBRANCH   1  11
BRANCH  10  23
ATOM     23  O   UNL     1      10.756  39.211  34.575  1.00  0.00    -0.500 OA
ATOM     24  H   UNL     1       9.748  39.278  34.490  1.00  0.00     0.294 HD
ENDBRANCH  10  23
BRANCH   5  25
ATOM     25  O   UNL     1      15.172  41.368  40.582  1.00  0.00    -0.507 OA
ATOM     26  H   UNL     1      15.759  40.843  41.219  1.00  0.00     0.293 HD
ENDBRANCH   5  25
BRANCH   7  27
ATOM     27  O   UNL     1      14.464  37.476  37.834  1.00  0.00    -0.507 OA
ATOM     28  H   UNL     1      13.803  36.722  37.721  1.00  0.00     0.293 HD
ENDBRANCH   7  27
TORSDOF 7
ENDMDL
MODEL 9
REMARK VINA RESULT:    -5.871      2.724      8.387
REMARK INTER + INTRA:          -7.601
REMARK INTER:                  -7.285
REMARK INTRA:                  -0.316
REMARK UNBOUND:                -0.357
REMARK SMILES Oc1cc(O)c2cc(O)c(-c3cc(O)c(O)c(O)c3)[o+]c2c1
REMARK SMILES IDX 10 1 20 2 21 3 22 4 2 5 3 6 4 7 6 8 7 9 8 10 11 11 12 12
REMARK SMILES IDX 13 13 19 14 15 15 17 16 14 17 16 19 18 21 9 23 1 25 5 27
REMARK H PARENT 14 18 16 20 18 22 9 24 1 26 5 28
REMARK Flexibility Score: inf
ROOT
ATOM      1  C   UNL     1      12.732  39.033  38.662  1.00  0.00     0.402 A 
ATOM      2  O   UNL     1      12.974  39.292  37.380  1.00  0.00    -0.202 OA
ATOM      3  C   UNL     1      12.079  39.837  36.563  1.00  0.00     0.368 A 
ATOM      4  C   UNL     1      12.427  40.068  35.230  1.00  0.00     0.162 A 
ATOM      5  C   UNL     1      11.506  40.636  34.349  1.00  0.00     0.128 A 
ATOM      6  C   UNL     1      10.226  40.974  34.802  1.00  0.00     0.093 A 
ATOM      7  C   UNL     1       9.853  40.753  36.133  1.00  0.00     0.136 A 
ATOM      8  C   UNL     1      10.788  40.178  37.033  1.00  0.00     0.125 A 
ATOM      9  C   UNL     1      10.505  39.931  38.386  1.00  0.00     0.078 A 
ATOM     10  C   UNL     1      11.480  39.365  39.214  1.00  0.00     0.223 A 
ENDROOT
BRANCH   1  11
ATOM     11  C   UNL     1      13.809  38.414  39.468  1.00  0.00     0.091 A 
ATOM     12  C   UNL     1      14.961  39.157  39.767  1.00  0.00     0.068 A 
ATOM     13  C   UNL     1      16.003  38.594  40.509  1.00  0.00     0.162 A 
ATOM     14  C   UNL     1      13.728  37.078  39.895  1.00  0.00     0.068 A 
ATOM     15  C   UNL     1      15.908  37.263  40.952  1.00  0.00     0.200 A 
ATOM     16  C   UNL     1      14.768  36.503  40.638  1.00  0.00     0.162 A 
BRANCH  13  17
ATOM     17  O   UNL     1      17.125  39.370  40.797  1.00  0.00    -0.504 OA
ATOM     18  H   UNL     1      17.843  39.557  40.107  1.00  0.00     0.293 HD
ENDBRANCH  13  17
BRANCH  15  19
ATOM     19  O   UNL     1      16.952  36.708  41.695  1.00  0.00    -0.502 OA
ATOM     20  H   UNL     1      17.322  35.786  41.500  1.00  0.00     0.293 HD
ENDBRANCH  15  19
BRANCH  16  21
ATOM     21  O   UNL     1      14.675  35.179  41.061  1.00  0.00    -0.504 OA
ATOM     22  H   UNL     1      15.443  34.528  40.945  1.00  0.00     0.293 HD
ENDBRANCH  16  21
ENDBRANCH   1  11
BRANCH  10  23
ATOM     23  O   UNL     1      11.218  39.167  40.569  1.00  0.00    -0.500 OA
ATOM     24  H   UNL     1      11.403  38.280  41.022  1.00  0.00     0.294 HD
ENDBRANCH  10  23
BRANCH   5  25
ATOM     25  O   UNL     1      11.872  40.860  33.023  1.00  0.00    -0.507 OA
ATOM     26  H   UNL     1      11.427  41.578  32.465  1.00  0.00     0.293 HD
ENDBRANCH   5  25
BRANCH   7  27
ATOM     27  O   UNL     1       8.555  41.114  36.507  1.00  0.00    -0.507 OA
ATOM     28  H   UNL     1       7.817  40.458  36.715  1.00  0.00     0.293 HD
ENDBRANCH   7  27
TORSDOF 7
ENDMDL
