MODEL 1
REMARK VINA RESULT:    -4.408      0.000      0.000
REMARK INTER + INTRA:         -13.735
REMARK INTER:                 -10.077
REMARK INTRA:                  -3.658
REMARK UNBOUND:                -3.658
REMARK SMILES CCCCCCCCCCCCCCCCCCCCCCCC(=O)[O-]
REMARK SMILES IDX 13 1 14 2 15 3 16 4 17 5 18 6 19 7 20 8 21 9 22 10 23 11
REMARK SMILES IDX 24 12 25 13 26 14 12 15 11 16 10 17 9 18 8 19 7 20 6 21 5 22
REMARK SMILES IDX 4 23 3 24 2 25 1 26
REMARK H PARENT
REMARK Flexibility Score: inf
ROOT
ATOM      1  C   UNL     1      37.387  33.308  24.199  1.00  0.00     0.000 C 
ENDROOT
BRANCH   1   2
ATOM      2  C   UNL     1      38.034  34.212  25.266  1.00  0.00     0.000 C 
BRANCH   2   3
ATOM      3  C   UNL     1      37.590  35.686  25.224  1.00  0.00     0.000 C 
BRANCH   3   4
ATOM      4  C   UNL     1      36.150  35.924  24.721  1.00  0.00     0.000 C 
BRANCH   4   5
ATOM      5  C   UNL     1      35.150  36.409  25.787  1.00  0.00     0.000 C 
BRANCH   5   6
ATOM      6  C   UNL     1      35.134  35.520  27.042  1.00  0.00     0.000 C 
BRANCH   6   7
ATOM      7  C   UNL     1      35.030  36.330  28.347  1.00  0.00     0.000 C 
BRANCH   7   8
ATOM      8  C   UNL     1      35.944  35.852  29.490  1.00  0.00     0.000 C 
BRANCH   8   9
ATOM      9  C   UNL     1      37.361  35.497  29.017  1.00  0.00     0.000 C 
BRANCH   9  10
ATOM     10  C   UNL     1      38.347  36.629  29.337  1.00  0.00     0.006 C 
BRANCH  10  11
ATOM     11  C   UNL     1      38.694  37.466  28.099  1.00  0.00     0.053 C 
BRANCH  11  12
ATOM     12  C   UNL     1      37.779  38.642  27.951  1.00  0.00     0.041 C 
ATOM     13  O   UNL     1      37.346  39.242  28.970  1.00  0.00    -0.550 OA
ATOM     14  O   UNL     1      37.374  39.053  26.687  1.00  0.00    -0.550 OA
ENDBRANCH  11  12
ENDBRANCH  10  11
ENDBRANCH   9  10
ENDBRANCH   8   9
ENDBRANCH   7   8
ENDBRANCH   6   7
ENDBRANCH   5   6
ENDBRANCH   4   5
ENDBRANCH   3   4
ENDBRANCH   2   3
ENDBRANCH   1   2
BRANCH   1  15
ATOM     15  C   UNL     1      36.741  32.029  24.775  1.00  0.00     0.000 C 
BRANCH  15  16
ATOM     16  C   UNL     1      35.624  32.336  25.788  1.00  0.00     0.000 C 
BRANCH  16  17
ATOM     17  C   UNL     1      34.218  32.056  25.228  1.00  0.00     0.000 C 
BRANCH  17  18
ATOM     18  C   UNL     1      33.653  33.159  24.310  1.00  0.00    -0.000 C 
BRANCH  18  19
ATOM     19  C   UNL     1      33.254  32.693  22.896  1.00  0.00    -0.000 C 
BRANCH  19  20
ATOM     20  C   UNL     1      34.434  32.373  21.960  1.00  0.00    -0.000 C 
BRANCH  20  21
ATOM     21  C   UNL     1      34.578  30.870  21.676  1.00  0.00    -0.000 C 
BRANCH  21  22
ATOM     22  C   UNL     1      33.326  30.105  22.122  1.00  0.00    -0.000 C 
BRANCH  22  23
ATOM     23  C   UNL     1      32.445  29.743  20.917  1.00  0.00    -0.000 C 
BRANCH  23  24
ATOM     24  C   UNL     1      33.066  28.653  20.025  1.00  0.00    -0.000 C 
BRANCH  24  25
ATOM     25  C   UNL     1      33.336  29.083  18.572  1.00  0.00    -0.003 C 
ATOM     26  C   UNL     1      32.940  30.532  18.293  1.00  0.00     0.004 C 
ENDBRANCH  24  25
ENDBRANCH  23  24
ENDBRANCH  22  23
ENDBRANCH  21  22
ENDBRANCH  20  21
ENDBRANCH  19  20
ENDBRANCH  18  19
ENDBRANCH  17  18
ENDBRANCH  16  17
ENDBRANCH  15  16
ENDBRANCH   1  15
TORSDOF 22
ENDMDL
MODEL 2
REMARK VINA RESULT:    -4.331      1.791      3.661
REMARK INTER + INTRA:         -13.560
REMARK INTER:                  -9.679
REMARK INTRA:                  -3.881
REMARK UNBOUND:                -3.658
REMARK SMILES CCCCCCCCCCCCCCCCCCCCCCCC(=O)[O-]
REMARK SMILES IDX 13 1 14 2 15 3 16 4 17 5 18 6 19 7 20 8 21 9 22 10 23 11
REMARK SMILES IDX 24 12 25 13 26 14 12 15 11 16 10 17 9 18 8 19 7 20 6 21 5 22
REMARK SMILES IDX 4 23 3 24 2 25 1 26
REMARK H PARENT
REMARK Flexibility Score: inf
ROOT
ATOM      1  C   UNL     1      35.905  31.472  21.845  1.00  0.00     0.000 C 
ENDROOT
BRANCH   1   2
ATOM      2  C   UNL     1      36.677  32.667  22.435  1.00  0.00     0.000 C 
BRANCH   2   3
ATOM      3  C   UNL     1      36.037  34.044  22.178  1.00  0.00     0.000 C 
BRANCH   3   4
ATOM      4  C   UNL     1      35.267  34.644  23.374  1.00  0.00     0.000 C 
BRANCH   4   5
ATOM      5  C   UNL     1      33.901  33.999  23.671  1.00  0.00     0.000 C 
BRANCH   5   6
ATOM      6  C   UNL     1      33.912  33.126  24.937  1.00  0.00     0.000 C 
BRANCH   6   7
ATOM      7  C   UNL     1      34.888  33.642  26.011  1.00  0.00     0.000 C 
BRANCH   7   8
ATOM      8  C   UNL     1      36.078  32.714  26.314  1.00  0.00     0.000 C 
BRANCH   8   9
ATOM      9  C   UNL     1      37.221  33.424  27.054  1.00  0.00     0.000 C 
BRANCH   9  10
ATOM     10  C   UNL     1      36.681  34.279  28.209  1.00  0.00     0.006 C 
BRANCH  10  11
ATOM     11  C   UNL     1      37.392  35.634  28.310  1.00  0.00     0.053 C 
BRANCH  11  12
ATOM     12  C   UNL     1      36.780  36.503  29.366  1.00  0.00     0.041 C 
ATOM     13  O   UNL     1      35.949  36.022  30.180  1.00  0.00    -0.550 OA
ATOM     14  O   UNL     1      37.100  37.854  29.427  1.00  0.00    -0.550 OA
ENDBRANCH  11  12
ENDBRANCH  10  11
ENDBRANCH   9  10
ENDBRANCH   8   9
ENDBRANCH   7   8
ENDBRANCH   6   7
ENDBRANCH   5   6
ENDBRANCH   4   5
ENDBRANCH   3   4
ENDBRANCH   2   3
ENDBRANCH   1   2
BRANCH   1  15
ATOM     15  C   UNL     1      35.516  30.405  22.891  1.00  0.00     0.000 C 
BRANCH  15  16
ATOM     16  C   UNL     1      33.997  30.161  22.951  1.00  0.00     0.000 C 
BRANCH  16  17
ATOM     17  C   UNL     1      33.229  30.911  21.849  1.00  0.00     0.000 C 
BRANCH  17  18
ATOM     18  C   UNL     1      32.303  30.030  20.987  1.00  0.00    -0.000 C 
BRANCH  18  19
ATOM     19  C   UNL     1      32.885  28.660  20.589  1.00  0.00    -0.000 C 
BRANCH  19  20
ATOM     20  C   UNL     1      33.235  28.509  19.098  1.00  0.00    -0.000 C 
BRANCH  20  21
ATOM     21  C   UNL     1      34.743  28.620  18.825  1.00  0.00    -0.000 C 
BRANCH  21  22
ATOM     22  C   UNL     1      35.154  30.080  18.597  1.00  0.00    -0.000 C 
BRANCH  22  23
ATOM     23  C   UNL     1      34.285  30.733  17.513  1.00  0.00    -0.000 C 
BRANCH  23  24
ATOM     24  C   UNL     1      33.559  31.998  18.007  1.00  0.00    -0.000 C 
BRANCH  24  25
ATOM     25  C   UNL     1      34.404  32.919  18.905  1.00  0.00    -0.003 C 
ATOM     26  C   UNL     1      33.663  34.187  19.327  1.00  0.00     0.004 C 
ENDBRANCH  24  25
ENDBRANCH  23  24
ENDBRANCH  22  23
ENDBRANCH  21  22
ENDBRANCH  20  21
ENDBRANCH  19  20
ENDBRANCH  18  19
ENDBRANCH  17  18
ENDBRANCH  16  17
ENDBRANCH  15  16
ENDBRANCH   1  15
TORSDOF 22
ENDMDL
MODEL 3
REMARK VINA RESULT:    -4.329      3.869      9.095
REMARK INTER + INTRA:         -13.556
REMARK INTER:                  -9.618
REMARK INTRA:                  -3.938
REMARK UNBOUND:                -3.658
REMARK SMILES CCCCCCCCCCCCCCCCCCCCCCCC(=O)[O-]
REMARK SMILES IDX 13 1 14 2 15 3 16 4 17 5 18 6 19 7 20 8 21 9 22 10 23 11
REMARK SMILES IDX 24 12 25 13 26 14 12 15 11 16 10 17 9 18 8 19 7 20 6 21 5 22
REMARK SMILES IDX 4 23 3 24 2 25 1 26
REMARK H PARENT
REMARK Flexibility Score: inf
ROOT
ATOM      1  C   UNL     1      37.727  34.297  23.783  1.00  0.00     0.000 C 
ENDROOT
BRANCH   1   2
ATOM      2  C   UNL     1      38.227  33.643  25.086  1.00  0.00     0.000 C 
BRANCH   2   3
ATOM      3  C   UNL     1      37.468  32.372  25.507  1.00  0.00     0.000 C 
BRANCH   3   4
ATOM      4  C   UNL     1      36.103  32.162  24.818  1.00  0.00     0.000 C 
BRANCH   4   5
ATOM      5  C   UNL     1      34.871  32.358  25.719  1.00  0.00     0.000 C 
BRANCH   5   6
ATOM      6  C   UNL     1      33.642  32.873  24.951  1.00  0.00     0.000 C 
BRANCH   6   7
ATOM      7  C   UNL     1      34.016  33.741  23.736  1.00  0.00     0.000 C 
BRANCH   7   8
ATOM      8  C   UNL     1      33.806  33.072  22.365  1.00  0.00     0.000 C 
BRANCH   8   9
ATOM      9  C   UNL     1      32.888  31.844  22.430  1.00  0.00     0.000 C 
BRANCH   9  10
ATOM     10  C   UNL     1      33.692  30.546  22.269  1.00  0.00     0.006 C 
BRANCH  10  11
ATOM     11  C   UNL     1      34.231  30.370  20.844  1.00  0.00     0.053 C 
BRANCH  11  12
ATOM     12  C   UNL     1      33.238  29.684  19.956  1.00  0.00     0.041 C 
ATOM     13  O   UNL     1      32.769  28.561  20.279  1.00  0.00    -0.550 OA
ATOM     14  O   UNL     1      32.859  30.269  18.754  1.00  0.00    -0.550 OA
ENDBRANCH  11  12
ENDBRANCH  10  11
ENDBRANCH   9  10
ENDBRANCH   8   9
ENDBRANCH   7   8
ENDBRANCH   6   7
ENDBRANCH   5   6
ENDBRANCH   4   5
ENDBRANCH   3   4
ENDBRANCH   2   3
ENDBRANCH   1   2
BRANCH   1  15
ATOM     15  C   UNL     1      37.124  35.704  23.985  1.00  0.00     0.000 C 
BRANCH  15  16
ATOM     16  C   UNL     1      36.982  36.080  25.471  1.00  0.00     0.000 C 
BRANCH  16  17
ATOM     17  C   UNL     1      35.521  36.318  25.888  1.00  0.00     0.000 C 
BRANCH  17  18
ATOM     18  C   UNL     1      35.107  35.654  27.217  1.00  0.00    -0.000 C 
BRANCH  18  19
ATOM     19  C   UNL     1      36.241  34.927  27.967  1.00  0.00    -0.000 C 
BRANCH  19  20
ATOM     20  C   UNL     1      36.554  35.482  29.369  1.00  0.00    -0.000 C 
BRANCH  20  21
ATOM     21  C   UNL     1      36.241  36.980  29.500  1.00  0.00    -0.000 C 
BRANCH  21  22
ATOM     22  C   UNL     1      37.530  37.801  29.621  1.00  0.00    -0.000 C 
BRANCH  22  23
ATOM     23  C   UNL     1      38.034  38.242  28.239  1.00  0.00    -0.000 C 
BRANCH  23  24
ATOM     24  C   UNL     1      39.360  37.571  27.841  1.00  0.00    -0.000 C 
BRANCH  24  25
ATOM     25  C   UNL     1      39.912  36.568  28.870  1.00  0.00    -0.003 C 
ATOM     26  C   UNL     1      41.300  36.042  28.508  1.00  0.00     0.004 C 
ENDBRANCH  24  25
ENDBRANCH  23  24
ENDBRANCH  22  23
ENDBRANCH  21  22
ENDBRANCH  20  21
ENDBRANCH  19  20
ENDBRANCH  18  19
ENDBRANCH  17  18
ENDBRANCH  16  17
ENDBRANCH  15  16
ENDBRANCH   1  15
TORSDOF 22
ENDMDL
MODEL 4
REMARK VINA RESULT:    -4.322      3.451      8.315
REMARK INTER + INTRA:         -13.538
REMARK INTER:                  -9.282
REMARK INTRA:                  -4.256
REMARK UNBOUND:                -3.658
REMARK SMILES CCCCCCCCCCCCCCCCCCCCCCCC(=O)[O-]
REMARK SMILES IDX 13 1 14 2 15 3 16 4 17 5 18 6 19 7 20 8 21 9 22 10 23 11
REMARK SMILES IDX 24 12 25 13 26 14 12 15 11 16 10 17 9 18 8 19 7 20 6 21 5 22
REMARK SMILES IDX 4 23 3 24 2 25 1 26
REMARK H PARENT
REMARK Flexibility Score: inf
ROOT
ATOM      1  C   UNL     1      38.211  36.173  25.122  1.00  0.00     0.000 C 
ENDROOT
BRANCH   1   2
ATOM      2  C   UNL     1      37.404  37.150  24.245  1.00  0.00     0.000 C 
BRANCH   2   3
ATOM      3  C   UNL     1      36.240  37.857  24.964  1.00  0.00     0.000 C 
BRANCH   3   4
ATOM      4  C   UNL     1      34.832  37.500  24.442  1.00  0.00     0.000 C 
BRANCH   4   5
ATOM      5  C   UNL     1      34.799  36.644  23.162  1.00  0.00     0.000 C 
BRANCH   5   6
ATOM      6  C   UNL     1      33.867  35.426  23.279  1.00  0.00     0.000 C 
BRANCH   6   7
ATOM      7  C   UNL     1      34.612  34.140  23.680  1.00  0.00     0.000 C 
BRANCH   7   8
ATOM      8  C   UNL     1      33.852  33.220  24.654  1.00  0.00     0.000 C 
BRANCH   8   9
ATOM      9  C   UNL     1      34.668  31.990  25.079  1.00  0.00     0.000 C 
BRANCH   9  10
ATOM     10  C   UNL     1      35.256  31.271  23.857  1.00  0.00     0.006 C 
BRANCH  10  11
ATOM     11  C   UNL     1      34.243  30.327  23.195  1.00  0.00     0.053 C 
BRANCH  11  12
ATOM     12  C   UNL     1      33.663  30.923  21.949  1.00  0.00     0.041 C 
ATOM     13  O   UNL     1      32.415  31.033  21.821  1.00  0.00    -0.550 OA
ATOM     14  O   UNL     1      34.499  31.322  20.914  1.00  0.00    -0.550 OA
ENDBRANCH  11  12
ENDBRANCH  10  11
ENDBRANCH   9  10
ENDBRANCH   8   9
ENDBRANCH   7   8
ENDBRANCH   6   7
ENDBRANCH   5   6
ENDBRANCH   4   5
ENDBRANCH   3   4
ENDBRANCH   2   3
ENDBRANCH   1   2
BRANCH   1  15
ATOM     15  C   UNL     1      37.519  34.809  25.331  1.00  0.00     0.000 C 
BRANCH  15  16
ATOM     16  C   UNL     1      37.786  34.218  26.727  1.00  0.00     0.000 C 
BRANCH  16  17
ATOM     17  C   UNL     1      36.511  34.110  27.582  1.00  0.00     0.000 C 
BRANCH  17  18
ATOM     18  C   UNL     1      35.420  35.150  27.258  1.00  0.00    -0.000 C 
BRANCH  18  19
ATOM     19  C   UNL     1      35.132  36.169  28.378  1.00  0.00    -0.000 C 
BRANCH  19  20
ATOM     20  C   UNL     1      36.029  36.038  29.622  1.00  0.00    -0.000 C 
BRANCH  20  21
ATOM     21  C   UNL     1      36.970  37.239  29.808  1.00  0.00    -0.000 C 
BRANCH  21  22
ATOM     22  C   UNL     1      37.365  37.840  28.453  1.00  0.00    -0.000 C 
BRANCH  22  23
ATOM     23  C   UNL     1      38.883  37.756  28.235  1.00  0.00    -0.000 C 
BRANCH  23  24
ATOM     24  C   UNL     1      39.530  36.573  28.976  1.00  0.00    -0.000 C 
BRANCH  24  25
ATOM     25  C   UNL     1      40.999  36.301  28.602  1.00  0.00    -0.003 C 
ATOM     26  C   UNL     1      41.156  35.193  27.562  1.00  0.00     0.004 C 
ENDBRANCH  24  25
ENDBRANCH  23  24
ENDBRANCH  22  23
ENDBRANCH  21  22
ENDBRANCH  20  21
ENDBRANCH  19  20
ENDBRANCH  18  19
ENDBRANCH  17  18
ENDBRANCH  16  17
ENDBRANCH  15  16
ENDBRANCH   1  15
TORSDOF 22
ENDMDL
MODEL 5
REMARK VINA RESULT:    -4.292      1.533      3.545
REMARK INTER + INTRA:         -13.471
REMARK INTER:                  -9.739
REMARK INTRA:                  -3.732
REMARK UNBOUND:                -3.658
REMARK SMILES CCCCCCCCCCCCCCCCCCCCCCCC(=O)[O-]
REMARK SMILES IDX 13 1 14 2 15 3 16 4 17 5 18 6 19 7 20 8 21 9 22 10 23 11
REMARK SMILES IDX 24 12 25 13 26 14 12 15 11 16 10 17 9 18 8 19 7 20 6 21 5 22
REMARK SMILES IDX 4 23 3 24 2 25 1 26
REMARK H PARENT
REMARK Flexibility Score: inf
ROOT
ATOM      1  C   UNL     1      36.429  32.422  25.699  1.00  0.00     0.000 C 
ENDROOT
BRANCH   1   2
ATOM      2  C   UNL     1      34.950  31.993  25.654  1.00  0.00     0.000 C 
BRANCH   2   3
ATOM      3  C   UNL     1      33.954  33.125  25.345  1.00  0.00     0.000 C 
BRANCH   3   4
ATOM      4  C   UNL     1      33.351  33.100  23.925  1.00  0.00     0.000 C 
BRANCH   4   5
ATOM      5  C   UNL     1      34.206  33.766  22.832  1.00  0.00     0.000 C 
BRANCH   5   6
ATOM      6  C   UNL     1      35.114  34.882  23.377  1.00  0.00     0.000 C 
BRANCH   6   7
ATOM      7  C   UNL     1      34.377  36.223  23.545  1.00  0.00     0.000 C 
BRANCH   7   8
ATOM      8  C   UNL     1      34.746  37.019  24.810  1.00  0.00     0.000 C 
BRANCH   8   9
ATOM      9  C   UNL     1      35.792  36.309  25.682  1.00  0.00     0.000 C 
BRANCH   9  10
ATOM     10  C   UNL     1      35.232  36.010  27.079  1.00  0.00     0.006 C 
BRANCH  10  11
ATOM     11  C   UNL     1      36.292  35.415  28.016  1.00  0.00     0.053 C 
BRANCH  11  12
ATOM     12  C   UNL     1      36.437  36.220  29.270  1.00  0.00     0.041 C 
ATOM     13  O   UNL     1      37.161  37.251  29.283  1.00  0.00    -0.550 OA
ATOM     14  O   UNL     1      35.802  35.811  30.437  1.00  0.00    -0.550 OA
ENDBRANCH  11  12
ENDBRANCH  10  11
ENDBRANCH   9  10
ENDBRANCH   8   9
ENDBRANCH   7   8
ENDBRANCH   6   7
ENDBRANCH   5   6
ENDBRANCH   4   5
ENDBRANCH   3   4
ENDBRANCH   2   3
ENDBRANCH   1   2
BRANCH   1  15
ATOM     15  C   UNL     1      37.226  32.043  24.432  1.00  0.00     0.000 C 
BRANCH  15  16
ATOM     16  C   UNL     1      36.662  30.794  23.730  1.00  0.00     0.000 C 
BRANCH  16  17
ATOM     17  C   UNL     1      36.425  31.013  22.225  1.00  0.00     0.000 C 
BRANCH  17  18
ATOM     18  C   UNL     1      35.318  30.136  21.607  1.00  0.00    -0.000 C 
BRANCH  18  19
ATOM     19  C   UNL     1      34.073  29.931  22.492  1.00  0.00    -0.000 C 
BRANCH  19  20
ATOM     20  C   UNL     1      32.998  29.003  21.898  1.00  0.00    -0.000 C 
BRANCH  20  21
ATOM     21  C   UNL     1      32.567  29.418  20.483  1.00  0.00    -0.000 C 
BRANCH  21  22
ATOM     22  C   UNL     1      33.226  28.525  19.425  1.00  0.00    -0.000 C 
BRANCH  22  23
ATOM     23  C   UNL     1      33.347  29.261  18.082  1.00  0.00    -0.000 C 
BRANCH  23  24
ATOM     24  C   UNL     1      32.924  30.738  18.167  1.00  0.00    -0.000 C 
BRANCH  24  25
ATOM     25  C   UNL     1      34.082  31.749  18.089  1.00  0.00    -0.003 C 
ATOM     26  C   UNL     1      34.104  32.726  19.264  1.00  0.00     0.004 C 
ENDBRANCH  24  25
ENDBRANCH  23  24
ENDBRANCH  22  23
ENDBRANCH  21  22
ENDBRANCH  20  21
ENDBRANCH  19  20
ENDBRANCH  18  19
ENDBRANCH  17  18
ENDBRANCH  16  17
ENDBRANCH  15  16
ENDBRANCH   1  15
TORSDOF 22
ENDMDL
MODEL 6
REMARK VINA RESULT:    -4.285      4.559      9.690
REMARK INTER + INTRA:         -13.454
REMARK INTER:                  -9.580
REMARK INTRA:                  -3.874
REMARK UNBOUND:                -3.658
REMARK SMILES CCCCCCCCCCCCCCCCCCCCCCCC(=O)[O-]
REMARK SMILES IDX 13 1 14 2 15 3 16 4 17 5 18 6 19 7 20 8 21 9 22 10 23 11
REMARK SMILES IDX 24 12 25 13 26 14 12 15 11 16 10 17 9 18 8 19 7 20 6 21 5 22
REMARK SMILES IDX 4 23 3 24 2 25 1 26
REMARK H PARENT
REMARK Flexibility Score: inf
ROOT
ATOM      1  C   UNL     1      36.442  31.718  20.326  1.00  0.00     0.000 C 
ENDROOT
BRANCH   1   2
ATOM      2  C   UNL     1      35.065  31.956  19.677  1.00  0.00     0.000 C 
BRANCH   2   3
ATOM      3  C   UNL     1      34.154  32.941  20.430  1.00  0.00     0.000 C 
BRANCH   3   4
ATOM      4  C   UNL     1      34.240  32.871  21.970  1.00  0.00     0.000 C 
BRANCH   4   5
ATOM      5  C   UNL     1      33.264  31.888  22.642  1.00  0.00     0.000 C 
BRANCH   5   6
ATOM      6  C   UNL     1      33.946  30.590  23.107  1.00  0.00     0.000 C 
BRANCH   6   7
ATOM      7  C   UNL     1      33.569  29.373  22.242  1.00  0.00     0.000 C 
BRANCH   7   8
ATOM      8  C   UNL     1      32.258  29.514  21.448  1.00  0.00     0.000 C 
BRANCH   8   9
ATOM      9  C   UNL     1      32.479  29.574  19.930  1.00  0.00     0.000 C 
BRANCH   9  10
ATOM     10  C   UNL     1      33.516  28.534  19.483  1.00  0.00     0.006 C 
BRANCH  10  11
ATOM     11  C   UNL     1      33.894  28.688  18.005  1.00  0.00     0.053 C 
BRANCH  11  12
ATOM     12  C   UNL     1      34.792  27.581  17.544  1.00  0.00     0.041 C 
ATOM     13  O   UNL     1      35.980  27.826  17.208  1.00  0.00    -0.550 OA
ATOM     14  O   UNL     1      34.303  26.284  17.450  1.00  0.00    -0.550 OA
ENDBRANCH  11  12
ENDBRANCH  10  11
ENDBRANCH   9  10
ENDBRANCH   8   9
ENDBRANCH   7   8
ENDBRANCH   6   7
ENDBRANCH   5   6
ENDBRANCH   4   5
ENDBRANCH   3   4
ENDBRANCH   2   3
ENDBRANCH   1   2
BRANCH   1  15
ATOM     15  C   UNL     1      36.777  30.227  20.547  1.00  0.00     0.000 C 
BRANCH  15  16
ATOM     16  C   UNL     1      37.400  29.959  21.929  1.00  0.00     0.000 C 
BRANCH  16  17
ATOM     17  C   UNL     1      37.695  31.251  22.711  1.00  0.00     0.000 C 
BRANCH  17  18
ATOM     18  C   UNL     1      37.320  31.206  24.206  1.00  0.00    -0.000 C 
BRANCH  18  19
ATOM     19  C   UNL     1      36.737  32.514  24.775  1.00  0.00    -0.000 C 
BRANCH  19  20
ATOM     20  C   UNL     1      35.583  32.331  25.778  1.00  0.00    -0.000 C 
BRANCH  20  21
ATOM     21  C   UNL     1      34.702  33.582  25.908  1.00  0.00    -0.000 C 
BRANCH  21  22
ATOM     22  C   UNL     1      35.555  34.856  25.912  1.00  0.00    -0.000 C 
BRANCH  22  23
ATOM     23  C   UNL     1      35.519  35.538  27.288  1.00  0.00    -0.000 C 
BRANCH  23  24
ATOM     24  C   UNL     1      36.389  34.821  28.336  1.00  0.00    -0.000 C 
BRANCH  24  25
ATOM     25  C   UNL     1      37.162  35.755  29.284  1.00  0.00    -0.003 C 
ATOM     26  C   UNL     1      36.482  37.110  29.474  1.00  0.00     0.004 C 
ENDBRANCH  24  25
ENDBRANCH  23  24
ENDBRANCH  22  23
ENDBRANCH  21  22
ENDBRANCH  20  21
ENDBRANCH  19  20
ENDBRANCH  18  19
ENDBRANCH  17  18
ENDBRANCH  16  17
ENDBRANCH  15  16
ENDBRANCH   1  15
TORSDOF 22
ENDMDL
MODEL 7
REMARK VINA RESULT:    -4.272      1.922      5.646
REMARK INTER + INTRA:         -13.425
REMARK INTER:                  -9.486
REMARK INTRA:                  -3.940
REMARK UNBOUND:                -3.658
REMARK SMILES CCCCCCCCCCCCCCCCCCCCCCCC(=O)[O-]
REMARK SMILES IDX 13 1 14 2 15 3 16 4 17 5 18 6 19 7 20 8 21 9 22 10 23 11
REMARK SMILES IDX 24 12 25 13 26 14 12 15 11 16 10 17 9 18 8 19 7 20 6 21 5 22
REMARK SMILES IDX 4 23 3 24 2 25 1 26
REMARK H PARENT
REMARK Flexibility Score: inf
ROOT
ATOM      1  C   UNL     1      32.531  28.658  20.617  1.00  0.00     0.000 C 
ENDROOT
BRANCH   1   2
ATOM      2  C   UNL     1      32.994  29.446  21.857  1.00  0.00     0.000 C 
BRANCH   2   3
ATOM      3  C   UNL     1      32.501  30.903  21.922  1.00  0.00     0.000 C 
BRANCH   3   4
ATOM      4  C   UNL     1      33.364  31.851  22.781  1.00  0.00     0.000 C 
BRANCH   4   5
ATOM      5  C   UNL     1      34.396  31.162  23.692  1.00  0.00     0.000 C 
BRANCH   5   6
ATOM      6  C   UNL     1      34.487  31.802  25.088  1.00  0.00     0.000 C 
BRANCH   6   7
ATOM      7  C   UNL     1      33.794  33.175  25.162  1.00  0.00     0.000 C 
BRANCH   7   8
ATOM      8  C   UNL     1      34.609  34.283  25.853  1.00  0.00     0.000 C 
BRANCH   8   9
ATOM      9  C   UNL     1      36.066  33.879  26.121  1.00  0.00     0.000 C 
BRANCH   9  10
ATOM     10  C   UNL     1      36.419  34.045  27.605  1.00  0.00     0.006 C 
BRANCH  10  11
ATOM     11  C   UNL     1      37.019  35.423  27.909  1.00  0.00     0.053 C 
BRANCH  11  12
ATOM     12  C   UNL     1      36.103  36.251  28.759  1.00  0.00     0.041 C 
ATOM     13  O   UNL     1      34.867  36.274  28.521  1.00  0.00    -0.550 OA
ATOM     14  O   UNL     1      36.621  37.025  29.790  1.00  0.00    -0.550 OA
ENDBRANCH  11  12
ENDBRANCH  10  11
ENDBRANCH   9  10
ENDBRANCH   8   9
ENDBRANCH   7   8
ENDBRANCH   6   7
ENDBRANCH   5   6
ENDBRANCH   4   5
ENDBRANCH   3   4
ENDBRANCH   2   3
ENDBRANCH   1   2
BRANCH   1  15
ATOM     15  C   UNL     1      33.639  28.452  19.561  1.00  0.00     0.000 C 
BRANCH  15  16
ATOM     16  C   UNL     1      33.260  29.029  18.185  1.00  0.00     0.000 C 
BRANCH  16  17
ATOM     17  C   UNL     1      32.859  30.513  18.251  1.00  0.00     0.000 C 
BRANCH  17  18
ATOM     18  C   UNL     1      34.014  31.509  18.025  1.00  0.00    -0.000 C 
BRANCH  18  19
ATOM     19  C   UNL     1      34.698  32.022  19.307  1.00  0.00    -0.000 C 
BRANCH  19  20
ATOM     20  C   UNL     1      35.968  31.254  19.718  1.00  0.00    -0.000 C 
BRANCH  20  21
ATOM     21  C   UNL     1      36.654  31.856  20.954  1.00  0.00    -0.000 C 
BRANCH  21  22
ATOM     22  C   UNL     1      36.473  33.378  20.995  1.00  0.00    -0.000 C 
BRANCH  22  23
ATOM     23  C   UNL     1      36.511  33.898  22.440  1.00  0.00    -0.000 C 
BRANCH  23  24
ATOM     24  C   UNL     1      36.031  35.355  22.566  1.00  0.00    -0.000 C 
BRANCH  24  25
ATOM     25  C   UNL     1      34.874  35.739  21.626  1.00  0.00    -0.003 C 
ATOM     26  C   UNL     1      33.501  35.367  22.183  1.00  0.00     0.004 C 
ENDBRANCH  24  25
ENDBRANCH  23  24
ENDBRANCH  22  23
ENDBRANCH  21  22
ENDBRANCH  20  21
ENDBRANCH  19  20
ENDBRANCH  18  19
ENDBRANCH  17  18
ENDBRANCH  16  17
ENDBRANCH  15  16
ENDBRANCH   1  15
TORSDOF 22
ENDMDL
MODEL 8
REMARK VINA RESULT:    -4.227      3.758      9.148
REMARK INTER + INTRA:         -13.321
REMARK INTER:                  -9.315
REMARK INTRA:                  -4.005
REMARK UNBOUND:                -3.658
REMARK SMILES CCCCCCCCCCCCCCCCCCCCCCCC(=O)[O-]
REMARK SMILES IDX 13 1 14 2 15 3 16 4 17 5 18 6 19 7 20 8 21 9 22 10 23 11
REMARK SMILES IDX 24 12 25 13 26 14 12 15 11 16 10 17 9 18 8 19 7 20 6 21 5 22
REMARK SMILES IDX 4 23 3 24 2 25 1 26
REMARK H PARENT
REMARK Flexibility Score: inf
ROOT
ATOM      1  C   UNL     1      35.810  34.271  22.416  1.00  0.00     0.000 C 
ENDROOT
BRANCH   1   2
ATOM      2  C   UNL     1      37.234  33.698  22.545  1.00  0.00     0.000 C 
BRANCH   2   3
ATOM      3  C   UNL     1      37.352  32.186  22.284  1.00  0.00     0.000 C 
BRANCH   3   4
ATOM      4  C   UNL     1      36.033  31.481  21.901  1.00  0.00     0.000 C 
BRANCH   4   5
ATOM      5  C   UNL     1      35.701  30.214  22.712  1.00  0.00     0.000 C 
BRANCH   5   6
ATOM      6  C   UNL     1      34.197  30.058  22.992  1.00  0.00     0.000 C 
BRANCH   6   7
ATOM      7  C   UNL     1      33.330  31.013  22.151  1.00  0.00     0.000 C 
BRANCH   7   8
ATOM      8  C   UNL     1      32.430  30.331  21.105  1.00  0.00     0.000 C 
BRANCH   8   9
ATOM      9  C   UNL     1      32.758  28.843  20.910  1.00  0.00     0.000 C 
BRANCH   9  10
ATOM     10  C   UNL     1      33.219  28.566  19.472  1.00  0.00     0.006 C 
BRANCH  10  11
ATOM     11  C   UNL     1      34.670  29.002  19.232  1.00  0.00     0.053 C 
BRANCH  11  12
ATOM     12  C   UNL     1      34.745  30.233  18.382  1.00  0.00     0.041 C 
ATOM     13  O   UNL     1      35.797  30.925  18.359  1.00  0.00    -0.550 OA
ATOM     14  O   UNL     1      33.639  30.638  17.644  1.00  0.00    -0.550 OA
ENDBRANCH  11  12
ENDBRANCH  10  11
ENDBRANCH   9  10
ENDBRANCH   8   9
ENDBRANCH   7   8
ENDBRANCH   6   7
ENDBRANCH   5   6
ENDBRANCH   4   5
ENDBRANCH   3   4
ENDBRANCH   2   3
ENDBRANCH   1   2
BRANCH   1  15
ATOM     15  C   UNL     1      35.509  35.418  23.404  1.00  0.00     0.000 C 
BRANCH  15  16
ATOM     16  C   UNL     1      34.388  35.064  24.399  1.00  0.00     0.000 C 
BRANCH  16  17
ATOM     17  C   UNL     1      33.999  33.576  24.352  1.00  0.00     0.000 C 
BRANCH  17  18
ATOM     18  C   UNL     1      34.354  32.771  25.619  1.00  0.00    -0.000 C 
BRANCH  18  19
ATOM     19  C   UNL     1      35.859  32.521  25.837  1.00  0.00    -0.000 C 
BRANCH  19  20
ATOM     20  C   UNL     1      36.472  33.258  27.041  1.00  0.00    -0.000 C 
BRANCH  20  21
ATOM     21  C   UNL     1      37.453  34.365  26.625  1.00  0.00    -0.000 C 
BRANCH  21  22
ATOM     22  C   UNL     1      36.861  35.754  26.895  1.00  0.00    -0.000 C 
BRANCH  22  23
ATOM     23  C   UNL     1      35.572  35.650  27.724  1.00  0.00    -0.000 C 
BRANCH  23  24
ATOM     24  C   UNL     1      35.639  36.448  29.038  1.00  0.00    -0.000 C 
BRANCH  24  25
ATOM     25  C   UNL     1      37.062  36.778  29.524  1.00  0.00    -0.003 C 
ATOM     26  C   UNL     1      37.399  38.265  29.423  1.00  0.00     0.004 C 
ENDBRANCH  24  25
ENDBRANCH  23  24
ENDBRANCH  22  23
ENDBRANCH  21  22
ENDBRANCH  20  21
ENDBRANCH  19  20
ENDBRANCH  18  19
ENDBRANCH  17  18
ENDBRANCH  16  17
ENDBRANCH  15  16
ENDBRANCH   1  15
TORSDOF 22
ENDMDL
MODEL 9
REMARK VINA RESULT:    -4.198      3.760      8.486
REMARK INTER + INTRA:         -13.254
REMARK INTER:                  -9.706
REMARK INTRA:                  -3.549
REMARK UNBOUND:                -3.658
REMARK SMILES CCCCCCCCCCCCCCCCCCCCCCCC(=O)[O-]
REMARK SMILES IDX 13 1 14 2 15 3 16 4 17 5 18 6 19 7 20 8 21 9 22 10 23 11
REMARK SMILES IDX 24 12 25 13 26 14 12 15 11 16 10 17 9 18 8 19 7 20 6 21 5 22
REMARK SMILES IDX 4 23 3 24 2 25 1 26
REMARK H PARENT
REMARK Flexibility Score: inf
ROOT
ATOM      1  C   UNL     1      40.603  33.624  26.029  1.00  0.00     0.000 C 
ENDROOT
BRANCH   1   2
ATOM      2  C   UNL     1      39.198  32.996  26.105  1.00  0.00     0.000 C 
BRANCH   2   3
ATOM      3  C   UNL     1      38.923  31.893  25.065  1.00  0.00     0.000 C 
BRANCH   3   4
ATOM      4  C   UNL     1      37.431  31.605  24.792  1.00  0.00     0.000 C 
BRANCH   4   5
ATOM      5  C   UNL     1      36.465  32.759  25.119  1.00  0.00     0.000 C 
BRANCH   5   6
ATOM      6  C   UNL     1      35.293  32.324  26.015  1.00  0.00     0.000 C 
BRANCH   6   7
ATOM      7  C   UNL     1      33.918  32.612  25.383  1.00  0.00     0.000 C 
BRANCH   7   8
ATOM      8  C   UNL     1      33.958  33.401  24.062  1.00  0.00     0.000 C 
BRANCH   8   9
ATOM      9  C   UNL     1      33.225  32.689  22.915  1.00  0.00     0.000 C 
BRANCH   9  10
ATOM     10  C   UNL     1      33.747  31.257  22.733  1.00  0.00     0.006 C 
BRANCH  10  11
ATOM     11  C   UNL     1      33.938  30.892  21.256  1.00  0.00     0.053 C 
BRANCH  11  12
ATOM     12  C   UNL     1      33.094  29.719  20.861  1.00  0.00     0.041 C 
ATOM     13  O   UNL     1      32.936  29.432  19.646  1.00  0.00    -0.550 OA
ATOM     14  O   UNL     1      32.453  28.964  21.836  1.00  0.00    -0.550 OA
ENDBRANCH  11  12
ENDBRANCH  10  11
ENDBRANCH   9  10
ENDBRANCH   8   9
ENDBRANCH   7   8
ENDBRANCH   6   7
ENDBRANCH   5   6
ENDBRANCH   4   5
ENDBRANCH   3   4
ENDBRANCH   2   3
ENDBRANCH   1   2
BRANCH   1  15
ATOM     15  C   UNL     1      40.906  34.610  27.178  1.00  0.00     0.000 C 
BRANCH  15  16
ATOM     16  C   UNL     1      39.842  35.715  27.306  1.00  0.00     0.000 C 
BRANCH  16  17
ATOM     17  C   UNL     1      40.212  36.780  28.353  1.00  0.00     0.000 C 
BRANCH  17  18
ATOM     18  C   UNL     1      39.189  36.954  29.494  1.00  0.00    -0.000 C 
BRANCH  18  19
ATOM     19  C   UNL     1      37.911  37.728  29.115  1.00  0.00    -0.000 C 
BRANCH  19  20
ATOM     20  C   UNL     1      36.594  37.063  29.554  1.00  0.00    -0.000 C 
BRANCH  20  21
ATOM     21  C   UNL     1      36.640  35.530  29.461  1.00  0.00    -0.000 C 
BRANCH  21  22
ATOM     22  C   UNL     1      36.334  35.058  28.035  1.00  0.00    -0.000 C 
BRANCH  22  23
ATOM     23  C   UNL     1      35.108  35.786  27.465  1.00  0.00    -0.000 C 
BRANCH  23  24
ATOM     24  C   UNL     1      35.316  36.269  26.019  1.00  0.00    -0.000 C 
BRANCH  24  25
ATOM     25  C   UNL     1      36.779  36.554  25.635  1.00  0.00    -0.003 C 
ATOM     26  C   UNL     1      37.094  38.047  25.543  1.00  0.00     0.004 C 
ENDBRANCH  24  25
ENDBRANCH  23  24
ENDBRANCH  22  23
ENDBRANCH  21  22
ENDBRANCH  20  21
ENDBRANCH  19  20
ENDBRANCH  18  19
ENDBRANCH  17  18
ENDBRANCH  16  17
ENDBRANCH  15  16
ENDBRANCH   1  15
TORSDOF 22
ENDMDL
