MODEL 1
REMARK VINA RESULT:    31.865      0.000      0.000
REMARK INTER + INTRA:          38.114
REMARK INTER:                  38.385
REMARK INTRA:                  -0.271
REMARK UNBOUND:                -0.271
REMARK SMILES Oc1cc(O)c2cc(O)c(-c3ccc(O)c(O)c3)[o+]c2c1.[Cl-]
REMARK SMILES IDX 10 1 19 2 20 3 21 4 2 5 3 6 4 7 6 8 7 9 8 10 11 11 12 12
REMARK SMILES IDX 13 13 14 14 18 15 16 16 15 17 17 19 9 21 1 23 5 25
REMARK H PARENT 15 18 17 20 9 22 1 24 5 26
REMARK Flexibility Score: inf
ROOT
ATOM      1  C   UNL     1      15.903  49.929  58.928  1.00  0.00     0.402 A 
ATOM      2  O   UNL     1      16.770  50.294  59.868  1.00  0.00    -0.202 OA
ATOM      3  C   UNL     1      16.718  51.467  60.493  1.00  0.00     0.368 A 
ATOM      4  C   UNL     1      17.673  51.759  61.469  1.00  0.00     0.162 A 
ATOM      5  C   UNL     1      17.642  52.981  62.144  1.00  0.00     0.128 A 
ATOM      6  C   UNL     1      16.647  53.918  61.841  1.00  0.00     0.093 A 
ATOM      7  C   UNL     1      15.678  53.648  60.866  1.00  0.00     0.136 A 
ATOM      8  C   UNL     1      15.709  52.408  60.177  1.00  0.00     0.125 A 
ATOM      9  C   UNL     1      14.788  52.057  59.177  1.00  0.00     0.078 A 
ATOM     10  C   UNL     1      14.885  50.818  58.538  1.00  0.00     0.223 A 
ENDROOT
BRANCH   1  11
ATOM     11  C   UNL     1      16.060  48.591  58.313  1.00  0.00     0.087 A 
ATOM     12  C   UNL     1      17.184  48.325  57.517  1.00  0.00     0.022 A 
ATOM     13  C   UNL     1      17.361  47.066  56.943  1.00  0.00     0.051 A 
ATOM     14  C   UNL     1      16.433  46.043  57.163  1.00  0.00     0.157 A 
ATOM     15  C   UNL     1      15.137  47.560  58.554  1.00  0.00     0.068 A 
ATOM     16  C   UNL     1      15.307  46.292  57.985  1.00  0.00     0.158 A 
BRANCH  14  17
ATOM     17  O   UNL     1      16.664  44.808  56.554  1.00  0.00    -0.504 OA
ATOM     18  H   UNL     1      16.103  43.985  56.715  1.00  0.00     0.293 HD
ENDBRANCH  14  17
BRANCH  16  19
ATOM     19  O   UNL     1      14.350  45.316  58.266  1.00  0.00    -0.504 OA
ATOM     20  H   UNL     1      14.431  44.643  59.014  1.00  0.00     0.293 HD
ENDBRANCH  16  19
ENDBRANCH   1  11
BRANCH  10  21
ATOM     21  O   UNL     1      14.000  50.490  57.510  1.00  0.00    -0.500 OA
ATOM     22  H   UNL     1      14.294  50.468  56.541  1.00  0.00     0.294 HD
ENDBRANCH  10  21
BRANCH   5  23
ATOM     23  O   UNL     1      18.602  53.254  63.115  1.00  0.00    -0.507 OA
ATOM     24  H   UNL     1      18.447  53.034  64.091  1.00  0.00     0.293 HD
ENDBRANCH   5  23
BRANCH   7  25
ATOM     25  O   UNL     1      14.716  54.634  60.625  1.00  0.00    -0.507 OA
ATOM     26  H   UNL     1      13.719  54.481  60.671  1.00  0.00     0.293 HD
ENDBRANCH   7  25
TORSDOF 6
ENDMDL
MODEL 2
REMARK VINA RESULT:    32.188      1.925      2.889
REMARK INTER + INTRA:          38.503
REMARK INTER:                  38.834
REMARK INTRA:                  -0.331
REMARK UNBOUND:                -0.271
REMARK SMILES Oc1cc(O)c2cc(O)c(-c3ccc(O)c(O)c3)[o+]c2c1.[Cl-]
REMARK SMILES IDX 10 1 19 2 20 3 21 4 2 5 3 6 4 7 6 8 7 9 8 10 11 11 12 12
REMARK SMILES IDX 13 13 14 14 18 15 16 16 15 17 17 19 9 21 1 23 5 25
REMARK H PARENT 15 18 17 20 9 22 1 24 5 26
REMARK Flexibility Score: inf
ROOT
ATOM      1  C   UNL     1      15.937  49.221  59.755  1.00  0.00     0.402 A 
ATOM      2  O   UNL     1      15.903  50.425  59.188  1.00  0.00    -0.202 OA
ATOM      3  C   UNL     1      15.528  51.525  59.833  1.00  0.00     0.368 A 
ATOM      4  C   UNL     1      15.528  52.745  59.153  1.00  0.00     0.162 A 
ATOM      5  C   UNL     1      15.143  53.917  59.805  1.00  0.00     0.128 A 
ATOM      6  C   UNL     1      14.755  53.871  61.149  1.00  0.00     0.093 A 
ATOM      7  C   UNL     1      14.748  52.660  61.854  1.00  0.00     0.136 A 
ATOM      8  C   UNL     1      15.136  51.467  61.192  1.00  0.00     0.125 A 
ATOM      9  C   UNL     1      15.147  50.207  61.814  1.00  0.00     0.078 A 
ATOM     10  C   UNL     1      15.538  49.074  61.096  1.00  0.00     0.223 A 
ENDROOT
BRANCH   1  11
ATOM     11  C   UNL     1      16.383  48.073  58.933  1.00  0.00     0.087 A 
ATOM     12  C   UNL     1      15.513  47.531  57.976  1.00  0.00     0.022 A 
ATOM     13  C   UNL     1      15.920  46.461  57.178  1.00  0.00     0.051 A 
ATOM     14  C   UNL     1      17.203  45.921  57.307  1.00  0.00     0.157 A 
ATOM     15  C   UNL     1      17.680  47.547  59.051  1.00  0.00     0.068 A 
ATOM     16  C   UNL     1      18.099  46.475  58.253  1.00  0.00     0.158 A 
BRANCH  14  17
ATOM     17  O   UNL     1      17.545  44.846  56.484  1.00  0.00    -0.504 OA
ATOM     18  H   UNL     1      18.460  44.714  56.079  1.00  0.00     0.293 HD
ENDBRANCH  14  17
BRANCH  16  19
ATOM     19  O   UNL     1      19.401  46.003  58.425  1.00  0.00    -0.504 OA
ATOM     20  H   UNL     1      19.635  45.164  58.936  1.00  0.00     0.293 HD
ENDBRANCH  16  19
ENDBRANCH   1  11
BRANCH  10  21
ATOM     21  O   UNL     1      15.501  47.816  61.699  1.00  0.00    -0.500 OA
ATOM     22  H   UNL     1      15.018  47.659  62.575  1.00  0.00     0.294 HD
ENDBRANCH  10  21
BRANCH   5  23
ATOM     23  O   UNL     1      15.149  55.124  59.109  1.00  0.00    -0.507 OA
ATOM     24  H   UNL     1      15.498  55.977  59.531  1.00  0.00     0.293 HD
ENDBRANCH   5  23
BRANCH   7  25
ATOM     25  O   UNL     1      14.352  52.698  63.194  1.00  0.00    -0.507 OA
ATOM     26  H   UNL     1      14.852  52.251  63.949  1.00  0.00     0.293 HD
ENDBRANCH   7  25
TORSDOF 6
ENDMDL
MODEL 3
REMARK VINA RESULT:    33.757      1.833      2.856
REMARK INTER + INTRA:          40.393
REMARK INTER:                  40.724
REMARK INTRA:                  -0.331
REMARK UNBOUND:                -0.271
REMARK SMILES Oc1cc(O)c2cc(O)c(-c3ccc(O)c(O)c3)[o+]c2c1.[Cl-]
REMARK SMILES IDX 10 1 19 2 20 3 21 4 2 5 3 6 4 7 6 8 7 9 8 10 11 11 12 12
REMARK SMILES IDX 13 13 14 14 18 15 16 16 15 17 17 19 9 21 1 23 5 25
REMARK H PARENT 15 18 17 20 9 22 1 24 5 26
REMARK Flexibility Score: inf
ROOT
ATOM      1  C   UNL     1      16.851  49.769  59.377  1.00  0.00     0.402 A 
ATOM      2  O   UNL     1      15.733  49.967  60.070  1.00  0.00    -0.202 OA
ATOM      3  C   UNL     1      15.561  50.992  60.899  1.00  0.00     0.368 A 
ATOM      4  C   UNL     1      14.349  51.118  61.582  1.00  0.00     0.162 A 
ATOM      5  C   UNL     1      14.138  52.184  62.457  1.00  0.00     0.128 A 
ATOM      6  C   UNL     1      15.147  53.136  62.650  1.00  0.00     0.093 A 
ATOM      7  C   UNL     1      16.371  53.033  61.976  1.00  0.00     0.136 A 
ATOM      8  C   UNL     1      16.589  51.947  61.089  1.00  0.00     0.125 A 
ATOM      9  C   UNL     1      17.787  51.756  60.382  1.00  0.00     0.078 A 
ATOM     10  C   UNL     1      17.930  50.659  59.528  1.00  0.00     0.223 A 
ENDROOT
BRANCH   1  11
ATOM     11  C   UNL     1      16.918  48.594  58.477  1.00  0.00     0.087 A 
ATOM     12  C   UNL     1      17.097  47.316  59.025  1.00  0.00     0.022 A 
ATOM     13  C   UNL     1      17.144  46.193  58.196  1.00  0.00     0.051 A 
ATOM     14  C   UNL     1      16.998  46.321  56.811  1.00  0.00     0.157 A 
ATOM     15  C   UNL     1      16.748  48.724  57.088  1.00  0.00     0.068 A 
ATOM     16  C   UNL     1      16.791  47.604  56.249  1.00  0.00     0.158 A 
BRANCH  14  17
ATOM     17  O   UNL     1      17.062  45.160  56.038  1.00  0.00    -0.504 OA
ATOM     18  H   UNL     1      17.831  44.507  56.062  1.00  0.00     0.293 HD
ENDBRANCH  14  17
BRANCH  16  19
ATOM     19  O   UNL     1      16.617  47.807  54.880  1.00  0.00    -0.504 OA
ATOM     20  H   UNL     1      17.219  47.417  54.169  1.00  0.00     0.293 HD
ENDBRANCH  16  19
ENDBRANCH   1  11
BRANCH  10  21
ATOM     21  O   UNL     1      19.138  50.442  58.864  1.00  0.00    -0.500 OA
ATOM     22  H   UNL     1      19.427  51.017  58.082  1.00  0.00     0.294 HD
ENDBRANCH  10  21
BRANCH   5  23
ATOM     23  O   UNL     1      12.923  52.293  63.129  1.00  0.00    -0.507 OA
ATOM     24  H   UNL     1      12.068  51.912  62.742  1.00  0.00     0.293 HD
ENDBRANCH   5  23
BRANCH   7  25
ATOM     25  O   UNL     1      17.325  54.025  62.220  1.00  0.00    -0.507 OA
ATOM     26  H   UNL     1      17.976  54.372  61.531  1.00  0.00     0.293 HD
ENDBRANCH   7  25
TORSDOF 6
ENDMDL
