MODEL 1
REMARK VINA RESULT:    -6.510      0.000      0.000
REMARK INTER + INTRA:          -7.556
REMARK INTER:                  -7.842
REMARK INTRA:                   0.286
REMARK UNBOUND:                 0.286
REMARK SMILES O=c1c(O)c(-c2ccc(O)c(O)c2)oc2cc(O)cc(O)c12
REMARK SMILES IDX 5 1 3 2 2 3 1 4 22 5 20 6 19 7 17 8 16 9 15 10 14 11 6 12
REMARK SMILES IDX 7 13 8 14 9 15 13 16 11 17 10 18 12 20 4 22 21 24 18 26
REMARK H PARENT 10 19 12 21 4 23 21 25 18 27
REMARK Flexibility Score: inf
ROOT
ATOM      1  C   UNL     1       0.582 -36.606  20.962  1.00  0.00     0.180 A 
ATOM      2  C   UNL     1       0.897 -37.311  19.785  1.00  0.00     0.208 A 
ATOM      3  C   UNL     1       2.246 -37.504  19.450  1.00  0.00     0.238 A 
ATOM      4  O   UNL     1       2.540 -38.125  18.392  1.00  0.00    -0.285 OA
ATOM      5  C   UNL     1       3.254 -37.008  20.302  1.00  0.00     0.111 A 
ATOM      6  C   UNL     1       4.637 -37.163  20.039  1.00  0.00     0.134 A 
ATOM      7  C   UNL     1       5.579 -36.648  20.942  1.00  0.00     0.093 A 
ATOM      8  C   UNL     1       5.167 -35.985  22.100  1.00  0.00     0.123 A 
ATOM      9  C   UNL     1       3.803 -35.828  22.365  1.00  0.00     0.094 A 
ATOM     10  C   UNL     1       2.849 -36.332  21.477  1.00  0.00     0.146 A 
ATOM     11  O   UNL     1       1.560 -36.165  21.749  1.00  0.00    -0.452 OA
ENDROOT
BRANCH   1  12
ATOM     12  C   UNL     1      -0.816 -36.346  21.374  1.00  0.00     0.025 A 
ATOM     13  C   UNL     1      -1.857 -37.224  21.025  1.00  0.00     0.016 A 
ATOM     14  C   UNL     1      -3.173 -36.946  21.404  1.00  0.00     0.051 A 
ATOM     15  C   UNL     1      -3.470 -35.781  22.123  1.00  0.00     0.157 A 
ATOM     16  C   UNL     1      -1.123 -35.168  22.075  1.00  0.00     0.062 A 
ATOM     17  C   UNL     1      -2.443 -34.888  22.456  1.00  0.00     0.158 A 
BRANCH  15  18
ATOM     18  O   UNL     1      -4.780 -35.501  22.503  1.00  0.00    -0.504 OA
ATOM     19  H   UNL     1      -5.562 -35.685  21.887  1.00  0.00     0.293 HD
ENDBRANCH  15  18
BRANCH  17  20
ATOM     20  O   UNL     1      -2.741 -33.727  23.165  1.00  0.00    -0.504 OA
ATOM     21  H   UNL     1      -3.625 -33.612  23.648  1.00  0.00     0.293 HD
ENDBRANCH  17  20
ENDBRANCH   1  12
BRANCH   2  22
ATOM     22  O   UNL     1      -0.120 -37.835  18.983  1.00  0.00    -0.502 OA
ATOM     23  H   UNL     1      -0.980 -38.205  19.370  1.00  0.00     0.293 HD
ENDBRANCH   2  22
BRANCH   6  24
ATOM     24  O   UNL     1       5.079 -37.823  18.892  1.00  0.00    -0.507 OA
ATOM     25  H   UNL     1       6.067 -37.923  18.683  1.00  0.00     0.293 HD
ENDBRANCH   6  24
BRANCH   8  26
ATOM     26  O   UNL     1       6.124 -35.484  22.981  1.00  0.00    -0.508 OA
ATOM     27  H   UNL     1       6.856 -34.856  22.667  1.00  0.00     0.293 HD
ENDBRANCH   8  26
TORSDOF 6
ENDMDL
MODEL 2
REMARK VINA RESULT:    -6.217      1.647      6.705
REMARK INTER + INTRA:          -7.203
REMARK INTER:                  -6.914
REMARK INTRA:                  -0.290
REMARK UNBOUND:                 0.286
REMARK SMILES O=c1c(O)c(-c2ccc(O)c(O)c2)oc2cc(O)cc(O)c12
REMARK SMILES IDX 5 1 3 2 2 3 1 4 22 5 20 6 19 7 17 8 16 9 15 10 14 11 6 12
REMARK SMILES IDX 7 13 8 14 9 15 13 16 11 17 10 18 12 20 4 22 21 24 18 26
REMARK H PARENT 10 19 12 21 4 23 21 25 18 27
REMARK Flexibility Score: inf
ROOT
ATOM      1  C   UNL     1       0.735 -35.890  21.167  1.00  0.00     0.180 A 
ATOM      2  C   UNL     1      -0.417 -36.633  20.845  1.00  0.00     0.208 A 
ATOM      3  C   UNL     1      -1.653 -36.233  21.377  1.00  0.00     0.238 A 
ATOM      4  O   UNL     1      -2.690 -36.897  21.103  1.00  0.00    -0.285 OA
ATOM      5  C   UNL     1      -1.721 -35.092  22.201  1.00  0.00     0.111 A 
ATOM      6  C   UNL     1      -2.927 -34.619  22.773  1.00  0.00     0.134 A 
ATOM      7  C   UNL     1      -2.912 -33.469  23.577  1.00  0.00     0.093 A 
ATOM      8  C   UNL     1      -1.720 -32.784  23.818  1.00  0.00     0.123 A 
ATOM      9  C   UNL     1      -0.525 -33.245  23.256  1.00  0.00     0.094 A 
ATOM     10  C   UNL     1      -0.519 -34.389  22.454  1.00  0.00     0.146 A 
ATOM     11  O   UNL     1       0.630 -34.810  21.937  1.00  0.00    -0.452 OA
ENDROOT
BRANCH   1  12
ATOM     12  C   UNL     1       2.076 -36.259  20.661  1.00  0.00     0.025 A 
ATOM     13  C   UNL     1       3.014 -36.911  21.481  1.00  0.00     0.016 A 
ATOM     14  C   UNL     1       4.283 -37.228  20.989  1.00  0.00     0.051 A 
ATOM     15  C   UNL     1       4.638 -36.887  19.678  1.00  0.00     0.157 A 
ATOM     16  C   UNL     1       2.445 -35.900  19.355  1.00  0.00     0.062 A 
ATOM     17  C   UNL     1       3.718 -36.218  18.860  1.00  0.00     0.158 A 
BRANCH  15  18
ATOM     18  O   UNL     1       5.901 -37.202  19.183  1.00  0.00    -0.504 OA
ATOM     19  H   UNL     1       6.185 -36.941  18.247  1.00  0.00     0.293 HD
ENDBRANCH  15  18
BRANCH  17  20
ATOM     20  O   UNL     1       4.076 -35.873  17.558  1.00  0.00    -0.504 OA
ATOM     21  H   UNL     1       4.969 -35.441  17.350  1.00  0.00     0.293 HD
ENDBRANCH  17  20
ENDBRANCH   1  12
BRANCH   2  22
ATOM     22  O   UNL     1      -0.331 -37.730  19.985  1.00  0.00    -0.502 OA
ATOM     23  H   UNL     1       0.023 -37.653  19.039  1.00  0.00     0.293 HD
ENDBRANCH   2  22
BRANCH   6  24
ATOM     24  O   UNL     1      -4.135 -35.282  22.550  1.00  0.00    -0.507 OA
ATOM     25  H   UNL     1      -4.895 -34.846  22.040  1.00  0.00     0.293 HD
ENDBRANCH   6  24
BRANCH   8  26
ATOM     26  O   UNL     1      -1.734 -31.643  24.619  1.00  0.00    -0.508 OA
ATOM     27  H   UNL     1      -2.540 -31.030  24.655  1.00  0.00     0.293 HD
ENDBRANCH   8  26
TORSDOF 6
ENDMDL
MODEL 3
REMARK VINA RESULT:    -5.908      1.508      7.238
REMARK INTER + INTRA:          -6.830
REMARK INTER:                  -6.954
REMARK INTRA:                   0.124
REMARK UNBOUND:                 0.286
REMARK SMILES O=c1c(O)c(-c2ccc(O)c(O)c2)oc2cc(O)cc(O)c12
REMARK SMILES IDX 5 1 3 2 2 3 1 4 22 5 20 6 19 7 17 8 16 9 15 10 14 11 6 12
REMARK SMILES IDX 7 13 8 14 9 15 13 16 11 17 10 18 12 20 4 22 21 24 18 26
REMARK H PARENT 10 19 12 21 4 23 21 25 18 27
REMARK Flexibility Score: inf
ROOT
ATOM      1  C   UNL     1       1.071 -36.566  20.397  1.00  0.00     0.180 A 
ATOM      2  C   UNL     1       0.949 -35.565  21.380  1.00  0.00     0.208 A 
ATOM      3  C   UNL     1      -0.328 -35.241  21.864  1.00  0.00     0.238 A 
ATOM      4  O   UNL     1      -0.450 -34.338  22.737  1.00  0.00    -0.285 OA
ATOM      5  C   UNL     1      -1.455 -35.932  21.374  1.00  0.00     0.111 A 
ATOM      6  C   UNL     1      -2.776 -35.670  21.812  1.00  0.00     0.134 A 
ATOM      7  C   UNL     1      -3.844 -36.408  21.282  1.00  0.00     0.093 A 
ATOM      8  C   UNL     1      -3.619 -37.402  20.328  1.00  0.00     0.123 A 
ATOM      9  C   UNL     1      -2.317 -37.666  19.891  1.00  0.00     0.094 A 
ATOM     10  C   UNL     1      -1.239 -36.940  20.405  1.00  0.00     0.146 A 
ATOM     11  O   UNL     1      -0.013 -37.207  19.969  1.00  0.00    -0.452 OA
ENDROOT
BRANCH   1  12
ATOM     12  C   UNL     1       2.381 -36.951  19.824  1.00  0.00     0.025 A 
ATOM     13  C   UNL     1       2.536 -37.189  18.447  1.00  0.00     0.016 A 
ATOM     14  C   UNL     1       3.777 -37.575  17.933  1.00  0.00     0.051 A 
ATOM     15  C   UNL     1       4.875 -37.741  18.786  1.00  0.00     0.157 A 
ATOM     16  C   UNL     1       3.480 -37.140  20.678  1.00  0.00     0.062 A 
ATOM     17  C   UNL     1       4.726 -37.527  20.162  1.00  0.00     0.158 A 
BRANCH  15  18
ATOM     18  O   UNL     1       6.113 -38.125  18.276  1.00  0.00    -0.504 OA
ATOM     19  H   UNL     1       6.857 -38.453  18.880  1.00  0.00     0.293 HD
ENDBRANCH  15  18
BRANCH  17  20
ATOM     20  O   UNL     1       5.817 -37.701  21.010  1.00  0.00    -0.504 OA
ATOM     21  H   UNL     1       6.714 -37.272  20.815  1.00  0.00     0.293 HD
ENDBRANCH  17  20
ENDBRANCH   1  12
BRANCH   2  22
ATOM     22  O   UNL     1       2.086 -34.929  21.884  1.00  0.00    -0.502 OA
ATOM     23  H   UNL     1       2.035 -34.075  22.427  1.00  0.00     0.293 HD
ENDBRANCH   2  22
BRANCH   6  24
ATOM     24  O   UNL     1      -3.033 -34.684  22.766  1.00  0.00    -0.507 OA
ATOM     25  H   UNL     1      -3.055 -34.895  23.758  1.00  0.00     0.293 HD
ENDBRANCH   6  24
BRANCH   8  26
ATOM     26  O   UNL     1      -4.698 -38.122  19.818  1.00  0.00    -0.508 OA
ATOM     27  H   UNL     1      -5.516 -38.322  20.383  1.00  0.00     0.293 HD
ENDBRANCH   8  26
TORSDOF 6
ENDMDL
MODEL 4
REMARK VINA RESULT:    -5.318      1.136      1.783
REMARK INTER + INTRA:          -6.120
REMARK INTER:                  -6.404
REMARK INTRA:                   0.284
REMARK UNBOUND:                 0.286
REMARK SMILES O=c1c(O)c(-c2ccc(O)c(O)c2)oc2cc(O)cc(O)c12
REMARK SMILES IDX 5 1 3 2 2 3 1 4 22 5 20 6 19 7 17 8 16 9 15 10 14 11 6 12
REMARK SMILES IDX 7 13 8 14 9 15 13 16 11 17 10 18 12 20 4 22 21 24 18 26
REMARK H PARENT 10 19 12 21 4 23 21 25 18 27
REMARK Flexibility Score: inf
ROOT
ATOM      1  C   UNL     1       1.082 -36.860  20.793  1.00  0.00     0.180 A 
ATOM      2  C   UNL     1       1.617 -37.417  19.616  1.00  0.00     0.208 A 
ATOM      3  C   UNL     1       3.005 -37.613  19.528  1.00  0.00     0.238 A 
ATOM      4  O   UNL     1       3.496 -38.102  18.474  1.00  0.00    -0.285 OA
ATOM      5  C   UNL     1       3.828 -37.269  20.619  1.00  0.00     0.111 A 
ATOM      6  C   UNL     1       5.234 -37.439  20.613  1.00  0.00     0.134 A 
ATOM      7  C   UNL     1       5.983 -37.079  21.743  1.00  0.00     0.093 A 
ATOM      8  C   UNL     1       5.356 -36.558  22.876  1.00  0.00     0.123 A 
ATOM      9  C   UNL     1       3.968 -36.387  22.889  1.00  0.00     0.094 A 
ATOM     10  C   UNL     1       3.205 -36.737  21.773  1.00  0.00     0.146 A 
ATOM     11  O   UNL     1       1.889 -36.560  21.808  1.00  0.00    -0.452 OA
ENDROOT
BRANCH   1  12
ATOM     12  C   UNL     1      -0.367 -36.605  20.955  1.00  0.00     0.025 A 
ATOM     13  C   UNL     1      -0.840 -35.544  21.747  1.00  0.00     0.016 A 
ATOM     14  C   UNL     1      -2.214 -35.338  21.904  1.00  0.00     0.051 A 
ATOM     15  C   UNL     1      -3.132 -36.196  21.286  1.00  0.00     0.157 A 
ATOM     16  C   UNL     1      -1.293 -37.475  20.355  1.00  0.00     0.062 A 
ATOM     17  C   UNL     1      -2.671 -37.268  20.513  1.00  0.00     0.158 A 
BRANCH  15  18
ATOM     18  O   UNL     1      -4.502 -35.992  21.440  1.00  0.00    -0.504 OA
ATOM     19  H   UNL     1      -4.919 -35.859  22.353  1.00  0.00     0.293 HD
ENDBRANCH  15  18
BRANCH  17  20
ATOM     20  O   UNL     1      -3.586 -38.125  19.905  1.00  0.00    -0.504 OA
ATOM     21  H   UNL     1      -3.886 -37.988  18.946  1.00  0.00     0.293 HD
ENDBRANCH  17  20
ENDBRANCH   1  12
BRANCH   2  22
ATOM     22  O   UNL     1       0.775 -37.796  18.568  1.00  0.00    -0.502 OA
ATOM     23  H   UNL     1       0.771 -38.734  18.186  1.00  0.00     0.293 HD
ENDBRANCH   2  22
BRANCH   6  24
ATOM     24  O   UNL     1       5.889 -37.959  19.496  1.00  0.00    -0.507 OA
ATOM     25  H   UNL     1       5.489 -38.712  18.947  1.00  0.00     0.293 HD
ENDBRANCH   6  24
BRANCH   8  26
ATOM     26  O   UNL     1       6.124 -36.210  23.987  1.00  0.00    -0.508 OA
ATOM     27  H   UNL     1       6.351 -36.886  24.707  1.00  0.00     0.293 HD
ENDBRANCH   8  26
TORSDOF 6
ENDMDL
MODEL 5
REMARK VINA RESULT:    -5.234      1.746      3.477
REMARK INTER + INTRA:          -6.019
REMARK INTER:                  -6.258
REMARK INTRA:                   0.239
REMARK UNBOUND:                 0.286
REMARK SMILES O=c1c(O)c(-c2ccc(O)c(O)c2)oc2cc(O)cc(O)c12
REMARK SMILES IDX 5 1 3 2 2 3 1 4 22 5 20 6 19 7 17 8 16 9 15 10 14 11 6 12
REMARK SMILES IDX 7 13 8 14 9 15 13 16 11 17 10 18 12 20 4 22 21 24 18 26
REMARK H PARENT 10 19 12 21 4 23 21 25 18 27
REMARK Flexibility Score: inf
ROOT
ATOM      1  C   UNL     1       1.464 -35.149  21.839  1.00  0.00     0.180 A 
ATOM      2  C   UNL     1       2.644 -35.140  22.606  1.00  0.00     0.208 A 
ATOM      3  C   UNL     1       3.806 -35.721  22.073  1.00  0.00     0.238 A 
ATOM      4  O   UNL     1       4.866 -35.727  22.756  1.00  0.00    -0.285 OA
ATOM      5  C   UNL     1       3.774 -36.282  20.780  1.00  0.00     0.111 A 
ATOM      6  C   UNL     1       4.900 -36.882  20.168  1.00  0.00     0.134 A 
ATOM      7  C   UNL     1       4.789 -37.411  18.873  1.00  0.00     0.093 A 
ATOM      8  C   UNL     1       3.580 -37.349  18.180  1.00  0.00     0.123 A 
ATOM      9  C   UNL     1       2.463 -36.757  18.778  1.00  0.00     0.094 A 
ATOM     10  C   UNL     1       2.552 -36.227  20.068  1.00  0.00     0.146 A 
ATOM     11  O   UNL     1       1.476 -35.675  20.617  1.00  0.00    -0.452 OA
ENDROOT
BRANCH   1  12
ATOM     12  C   UNL     1       0.195 -34.573  22.339  1.00  0.00     0.025 A 
ATOM     13  C   UNL     1      -1.048 -35.137  22.002  1.00  0.00     0.016 A 
ATOM     14  C   UNL     1      -2.233 -34.561  22.466  1.00  0.00     0.051 A 
ATOM     15  C   UNL     1      -2.196 -33.409  23.261  1.00  0.00     0.157 A 
ATOM     16  C   UNL     1       0.226 -33.404  23.117  1.00  0.00     0.062 A 
ATOM     17  C   UNL     1      -0.963 -32.826  23.584  1.00  0.00     0.158 A 
BRANCH  15  18
ATOM     18  O   UNL     1      -3.376 -32.833  23.726  1.00  0.00    -0.504 OA
ATOM     19  H   UNL     1      -4.217 -33.381  23.859  1.00  0.00     0.293 HD
ENDBRANCH  15  18
BRANCH  17  20
ATOM     20  O   UNL     1      -0.928 -31.675  24.367  1.00  0.00    -0.504 OA
ATOM     21  H   UNL     1      -1.149 -30.764  23.982  1.00  0.00     0.293 HD
ENDBRANCH  17  20
ENDBRANCH   1  12
BRANCH   2  22
ATOM     22  O   UNL     1       2.663 -34.533  23.865  1.00  0.00    -0.502 OA
ATOM     23  H   UNL     1       1.841 -34.103  24.272  1.00  0.00     0.293 HD
ENDBRANCH   2  22
BRANCH   6  24
ATOM     24  O   UNL     1       6.124 -36.958  20.835  1.00  0.00    -0.507 OA
ATOM     25  H   UNL     1       6.667 -37.815  20.856  1.00  0.00     0.293 HD
ENDBRANCH   6  24
BRANCH   8  26
ATOM     26  O   UNL     1       3.497 -37.881  16.894  1.00  0.00    -0.508 OA
ATOM     27  H   UNL     1       3.134 -37.339  16.118  1.00  0.00     0.293 HD
ENDBRANCH   8  26
TORSDOF 6
ENDMDL
MODEL 6
REMARK VINA RESULT:    -5.182      1.402      3.247
REMARK INTER + INTRA:          -5.956
REMARK INTER:                  -6.120
REMARK INTRA:                   0.164
REMARK UNBOUND:                 0.286
REMARK SMILES O=c1c(O)c(-c2ccc(O)c(O)c2)oc2cc(O)cc(O)c12
REMARK SMILES IDX 5 1 3 2 2 3 1 4 22 5 20 6 19 7 17 8 16 9 15 10 14 11 6 12
REMARK SMILES IDX 7 13 8 14 9 15 13 16 11 17 10 18 12 20 4 22 21 24 18 26
REMARK H PARENT 10 19 12 21 4 23 21 25 18 27
REMARK Flexibility Score: inf
ROOT
ATOM      1  C   UNL     1       1.042 -35.874  21.277  1.00  0.00     0.180 A 
ATOM      2  C   UNL     1       2.050 -35.422  22.150  1.00  0.00     0.208 A 
ATOM      3  C   UNL     1       3.394 -35.624  21.799  1.00  0.00     0.238 A 
ATOM      4  O   UNL     1       4.304 -35.232  22.579  1.00  0.00    -0.285 OA
ATOM      5  C   UNL     1       3.708 -36.253  20.578  1.00  0.00     0.111 A 
ATOM      6  C   UNL     1       5.036 -36.491  20.147  1.00  0.00     0.134 A 
ATOM      7  C   UNL     1       5.265 -37.117  18.913  1.00  0.00     0.093 A 
ATOM      8  C   UNL     1       4.198 -37.506  18.102  1.00  0.00     0.123 A 
ATOM      9  C   UNL     1       2.884 -37.275  18.521  1.00  0.00     0.094 A 
ATOM     10  C   UNL     1       2.634 -36.655  19.748  1.00  0.00     0.146 A 
ATOM     11  O   UNL     1       1.377 -36.451  20.126  1.00  0.00    -0.452 OA
ENDROOT
BRANCH   1  12
ATOM     12  C   UNL     1      -0.397 -35.715  21.585  1.00  0.00     0.025 A 
ATOM     13  C   UNL     1      -0.888 -34.552  22.204  1.00  0.00     0.016 A 
ATOM     14  C   UNL     1      -2.248 -34.434  22.508  1.00  0.00     0.051 A 
ATOM     15  C   UNL     1      -3.131 -35.480  22.211  1.00  0.00     0.157 A 
ATOM     16  C   UNL     1      -1.284 -36.769  21.310  1.00  0.00     0.062 A 
ATOM     17  C   UNL     1      -2.648 -36.651  21.614  1.00  0.00     0.158 A 
BRANCH  15  18
ATOM     18  O   UNL     1      -4.487 -35.365  22.511  1.00  0.00    -0.504 OA
ATOM     19  H   UNL     1      -5.066 -36.181  22.669  1.00  0.00     0.293 HD
ENDBRANCH  15  18
BRANCH  17  20
ATOM     20  O   UNL     1      -3.527 -37.692  21.326  1.00  0.00    -0.504 OA
ATOM     21  H   UNL     1      -4.306 -37.912  21.935  1.00  0.00     0.293 HD
ENDBRANCH  17  20
ENDBRANCH   1  12
BRANCH   2  22
ATOM     22  O   UNL     1       1.712 -34.756  23.331  1.00  0.00    -0.502 OA
ATOM     23  H   UNL     1       0.858 -34.220  23.427  1.00  0.00     0.293 HD
ENDBRANCH   2  22
BRANCH   6  24
ATOM     24  O   UNL     1       6.124 -36.112  20.935  1.00  0.00    -0.507 OA
ATOM     25  H   UNL     1       7.079 -36.248  20.624  1.00  0.00     0.293 HD
ENDBRANCH   6  24
BRANCH   8  26
ATOM     26  O   UNL     1       4.455 -38.125  16.880  1.00  0.00    -0.508 OA
ATOM     27  H   UNL     1       4.147 -39.072  16.690  1.00  0.00     0.293 HD
ENDBRANCH   8  26
TORSDOF 6
ENDMDL
MODEL 7
REMARK VINA RESULT:    -4.029      1.400      1.900
REMARK INTER + INTRA:          -4.568
REMARK INTER:                  -4.823
REMARK INTRA:                   0.256
REMARK UNBOUND:                 0.286
REMARK SMILES O=c1c(O)c(-c2ccc(O)c(O)c2)oc2cc(O)cc(O)c12
REMARK SMILES IDX 5 1 3 2 2 3 1 4 22 5 20 6 19 7 17 8 16 9 15 10 14 11 6 12
REMARK SMILES IDX 7 13 8 14 9 15 13 16 11 17 10 18 12 20 4 22 21 24 18 26
REMARK H PARENT 10 19 12 21 4 23 21 25 18 27
REMARK Flexibility Score: inf
ROOT
ATOM      1  C   UNL     1       0.234 -35.339  21.683  1.00  0.00     0.180 A 
ATOM      2  C   UNL     1       0.065 -36.149  20.543  1.00  0.00     0.208 A 
ATOM      3  C   UNL     1       1.186 -36.794  19.997  1.00  0.00     0.238 A 
ATOM      4  O   UNL     1       1.048 -37.513  18.970  1.00  0.00    -0.285 OA
ATOM      5  C   UNL     1       2.447 -36.637  20.607  1.00  0.00     0.111 A 
ATOM      6  C   UNL     1       3.625 -37.256  20.123  1.00  0.00     0.134 A 
ATOM      7  C   UNL     1       4.842 -37.056  20.792  1.00  0.00     0.093 A 
ATOM      8  C   UNL     1       4.903 -36.255  21.934  1.00  0.00     0.123 A 
ATOM      9  C   UNL     1       3.744 -35.640  22.418  1.00  0.00     0.094 A 
ATOM     10  C   UNL     1       2.523 -35.825  21.764  1.00  0.00     0.146 A 
ATOM     11  O   UNL     1       1.437 -35.225  22.240  1.00  0.00    -0.452 OA
ENDROOT
BRANCH   1  12
ATOM     12  C   UNL     1      -0.895 -34.611  22.306  1.00  0.00     0.025 A 
ATOM     13  C   UNL     1      -2.203 -35.125  22.274  1.00  0.00     0.016 A 
ATOM     14  C   UNL     1      -3.257 -34.408  22.848  1.00  0.00     0.051 A 
ATOM     15  C   UNL     1      -3.022 -33.164  23.447  1.00  0.00     0.157 A 
ATOM     16  C   UNL     1      -0.669 -33.353  22.888  1.00  0.00     0.062 A 
ATOM     17  C   UNL     1      -1.726 -32.634  23.465  1.00  0.00     0.158 A 
BRANCH  15  18
ATOM     18  O   UNL     1      -4.070 -32.448  24.021  1.00  0.00    -0.504 OA
ATOM     19  H   UNL     1      -3.957 -31.952  24.896  1.00  0.00     0.293 HD
ENDBRANCH  15  18
BRANCH  17  20
ATOM     20  O   UNL     1      -1.496 -31.393  24.054  1.00  0.00    -0.504 OA
ATOM     21  H   UNL     1      -0.577 -30.965  24.047  1.00  0.00     0.293 HD
ENDBRANCH  17  20
ENDBRANCH   1  12
BRANCH   2  22
ATOM     22  O   UNL     1      -1.204 -36.328  19.988  1.00  0.00    -0.502 OA
ATOM     23  H   UNL     1      -1.344 -36.766  19.085  1.00  0.00     0.293 HD
ENDBRANCH   2  22
BRANCH   6  24
ATOM     24  O   UNL     1       3.595 -38.064  18.986  1.00  0.00    -0.507 OA
ATOM     25  H   UNL     1       3.498 -37.671  18.056  1.00  0.00     0.293 HD
ENDBRANCH   6  24
BRANCH   8  26
ATOM     26  O   UNL     1       6.125 -36.074  22.580  1.00  0.00    -0.508 OA
ATOM     27  H   UNL     1       6.443 -36.712  23.300  1.00  0.00     0.293 HD
ENDBRANCH   8  26
TORSDOF 6
ENDMDL
