MODEL 1
REMARK VINA RESULT:    -5.047      0.000      0.000
REMARK INTER + INTRA:         -14.461
REMARK INTER:                 -11.539
REMARK INTRA:                  -2.922
REMARK UNBOUND:                -2.922
REMARK SMILES CCCCCCCCCCCCCCCCCCCCCCCC(=O)[O-]
REMARK SMILES IDX 13 1 14 2 15 3 16 4 17 5 18 6 19 7 20 8 21 9 22 10 23 11
REMARK SMILES IDX 24 12 25 13 26 14 12 15 11 16 10 17 9 18 8 19 7 20 6 21 5 22
REMARK SMILES IDX 4 23 3 24 2 25 1 26
REMARK H PARENT
REMARK Flexibility Score: inf
ROOT
ATOM      1  C   UNL     1       6.906  -1.745  51.226  1.00  0.00     0.000 C 
ENDROOT
BRANCH   1   2
ATOM      2  C   UNL     1       6.655  -0.753  52.383  1.00  0.00     0.000 C 
BRANCH   2   3
ATOM      3  C   UNL     1       7.741  -0.784  53.473  1.00  0.00     0.000 C 
BRANCH   3   4
ATOM      4  C   UNL     1       8.132   0.616  53.965  1.00  0.00     0.000 C 
BRANCH   4   5
ATOM      5  C   UNL     1       9.092   0.532  55.161  1.00  0.00     0.000 C 
BRANCH   5   6
ATOM      6  C   UNL     1      10.031   1.751  55.261  1.00  0.00     0.000 C 
BRANCH   6   7
ATOM      7  C   UNL     1      10.818   2.073  53.976  1.00  0.00     0.000 C 
BRANCH   7   8
ATOM      8  C   UNL     1      10.925   3.570  53.627  1.00  0.00     0.000 C 
BRANCH   8   9
ATOM      9  C   UNL     1      10.105   4.493  54.556  1.00  0.00     0.000 C 
BRANCH   9  10
ATOM     10  C   UNL     1       8.982   5.238  53.811  1.00  0.00     0.006 C 
BRANCH  10  11
ATOM     11  C   UNL     1       7.803   4.316  53.470  1.00  0.00     0.053 C 
BRANCH  11  12
ATOM     12  C   UNL     1       6.562   5.095  53.156  1.00  0.00     0.041 C 
ATOM     13  O   UNL     1       5.565   4.521  52.643  1.00  0.00    -0.550 OA
ATOM     14  O   UNL     1       6.524   6.465  53.392  1.00  0.00    -0.550 OA
ENDBRANCH  11  12
ENDBRANCH  10  11
ENDBRANCH   9  10
ENDBRANCH   8   9
ENDBRANCH   7   8
ENDBRANCH   6   7
ENDBRANCH   5   6
ENDBRANCH   4   5
ENDBRANCH   3   4
ENDBRANCH   2   3
ENDBRANCH   1   2
BRANCH   1  15
ATOM     15  C   UNL     1       5.600  -2.225  50.569  1.00  0.00     0.000 C 
BRANCH  15  16
ATOM     16  C   UNL     1       5.430  -3.755  50.615  1.00  0.00     0.000 C 
BRANCH  16  17
ATOM     17  C   UNL     1       5.287  -4.434  49.241  1.00  0.00     0.000 C 
BRANCH  17  18
ATOM     18  C   UNL     1       4.726  -3.493  48.161  1.00  0.00    -0.000 C 
BRANCH  18  19
ATOM     19  C   UNL     1       5.293  -3.799  46.766  1.00  0.00    -0.000 C 
BRANCH  19  20
ATOM     20  C   UNL     1       5.518  -2.530  45.931  1.00  0.00    -0.000 C 
BRANCH  20  21
ATOM     21  C   UNL     1       5.657  -1.296  46.831  1.00  0.00    -0.000 C 
BRANCH  21  22
ATOM     22  C   UNL     1       7.078  -0.721  46.763  1.00  0.00    -0.000 C 
BRANCH  22  23
ATOM     23  C   UNL     1       7.954  -1.281  47.889  1.00  0.00    -0.000 C 
BRANCH  23  24
ATOM     24  C   UNL     1       8.712  -2.531  47.429  1.00  0.00    -0.000 C 
BRANCH  24  25
ATOM     25  C   UNL     1       8.903  -3.515  48.588  1.00  0.00    -0.003 C 
ATOM     26  C   UNL     1       8.782  -4.959  48.111  1.00  0.00     0.004 C 
ENDBRANCH  24  25
ENDBRANCH  23  24
ENDBRANCH  22  23
ENDBRANCH  21  22
ENDBRANCH  20  21
ENDBRANCH  19  20
ENDBRANCH  18  19
ENDBRANCH  17  18
ENDBRANCH  16  17
ENDBRANCH  15  16
ENDBRANCH   1  15
TORSDOF 22
ENDMDL
MODEL 2
REMARK VINA RESULT:    -5.030      0.957      2.266
REMARK INTER + INTRA:         -14.421
REMARK INTER:                 -11.410
REMARK INTRA:                  -3.011
REMARK UNBOUND:                -2.922
REMARK SMILES CCCCCCCCCCCCCCCCCCCCCCCC(=O)[O-]
REMARK SMILES IDX 13 1 14 2 15 3 16 4 17 5 18 6 19 7 20 8 21 9 22 10 23 11
REMARK SMILES IDX 24 12 25 13 26 14 12 15 11 16 10 17 9 18 8 19 7 20 6 21 5 22
REMARK SMILES IDX 4 23 3 24 2 25 1 26
REMARK H PARENT
REMARK Flexibility Score: inf
ROOT
ATOM      1  C   UNL     1       6.726  -2.003  51.481  1.00  0.00     0.000 C 
ENDROOT
BRANCH   1   2
ATOM      2  C   UNL     1       6.615  -0.746  52.371  1.00  0.00     0.000 C 
BRANCH   2   3
ATOM      3  C   UNL     1       7.760  -0.603  53.388  1.00  0.00     0.000 C 
BRANCH   3   4
ATOM      4  C   UNL     1       7.901   0.826  53.930  1.00  0.00     0.000 C 
BRANCH   4   5
ATOM      5  C   UNL     1       8.923   0.884  55.075  1.00  0.00     0.000 C 
BRANCH   5   6
ATOM      6  C   UNL     1      10.307   1.385  54.616  1.00  0.00     0.000 C 
BRANCH   6   7
ATOM      7  C   UNL     1      10.802   2.663  55.321  1.00  0.00     0.000 C 
BRANCH   7   8
ATOM      8  C   UNL     1      10.457   3.984  54.608  1.00  0.00     0.000 C 
BRANCH   8   9
ATOM      9  C   UNL     1      10.219   3.835  53.089  1.00  0.00     0.000 C 
BRANCH   9  10
ATOM     10  C   UNL     1       8.907   4.494  52.625  1.00  0.00     0.006 C 
BRANCH  10  11
ATOM     11  C   UNL     1       7.816   4.428  53.703  1.00  0.00     0.053 C 
BRANCH  11  12
ATOM     12  C   UNL     1       6.542   5.070  53.243  1.00  0.00     0.041 C 
ATOM     13  O   UNL     1       5.644   4.377  52.696  1.00  0.00    -0.550 OA
ATOM     14  O   UNL     1       6.366   6.442  53.383  1.00  0.00    -0.550 OA
ENDBRANCH  11  12
ENDBRANCH  10  11
ENDBRANCH   9  10
ENDBRANCH   8   9
ENDBRANCH   7   8
ENDBRANCH   6   7
ENDBRANCH   5   6
ENDBRANCH   4   5
ENDBRANCH   3   4
ENDBRANCH   2   3
ENDBRANCH   1   2
BRANCH   1  15
ATOM     15  C   UNL     1       5.703  -2.004  50.332  1.00  0.00     0.000 C 
BRANCH  15  16
ATOM     16  C   UNL     1       5.146  -3.406  50.022  1.00  0.00     0.000 C 
BRANCH  16  17
ATOM     17  C   UNL     1       6.200  -4.526  49.973  1.00  0.00     0.000 C 
BRANCH  17  18
ATOM     18  C   UNL     1       6.267  -5.230  48.607  1.00  0.00    -0.000 C 
BRANCH  18  19
ATOM     19  C   UNL     1       7.707  -5.580  48.199  1.00  0.00    -0.000 C 
BRANCH  19  20
ATOM     20  C   UNL     1       8.754  -4.920  49.108  1.00  0.00    -0.000 C 
BRANCH  20  21
ATOM     21  C   UNL     1       9.600  -3.907  48.328  1.00  0.00    -0.000 C 
BRANCH  21  22
ATOM     22  C   UNL     1       9.513  -2.513  48.961  1.00  0.00    -0.000 C 
BRANCH  22  23
ATOM     23  C   UNL     1       8.501  -1.633  48.219  1.00  0.00    -0.000 C 
BRANCH  23  24
ATOM     24  C   UNL     1       8.096  -2.264  46.883  1.00  0.00    -0.000 C 
BRANCH  24  25
ATOM     25  C   UNL     1       6.662  -1.877  46.505  1.00  0.00    -0.003 C 
ATOM     26  C   UNL     1       6.312  -0.486  47.026  1.00  0.00     0.004 C 
ENDBRANCH  24  25
ENDBRANCH  23  24
ENDBRANCH  22  23
ENDBRANCH  21  22
ENDBRANCH  20  21
ENDBRANCH  19  20
ENDBRANCH  18  19
ENDBRANCH  17  18
ENDBRANCH  16  17
ENDBRANCH  15  16
ENDBRANCH   1  15
TORSDOF 22
ENDMDL
MODEL 3
REMARK VINA RESULT:    -4.854      2.568      8.593
REMARK INTER + INTRA:         -14.018
REMARK INTER:                 -11.202
REMARK INTRA:                  -2.816
REMARK UNBOUND:                -2.922
REMARK SMILES CCCCCCCCCCCCCCCCCCCCCCCC(=O)[O-]
REMARK SMILES IDX 13 1 14 2 15 3 16 4 17 5 18 6 19 7 20 8 21 9 22 10 23 11
REMARK SMILES IDX 24 12 25 13 26 14 12 15 11 16 10 17 9 18 8 19 7 20 6 21 5 22
REMARK SMILES IDX 4 23 3 24 2 25 1 26
REMARK H PARENT
REMARK Flexibility Score: inf
ROOT
ATOM      1  C   UNL     1       6.633  -0.744  52.361  1.00  0.00     0.000 C 
ENDROOT
BRANCH   1   2
ATOM      2  C   UNL     1       6.625  -1.994  51.454  1.00  0.00     0.000 C 
BRANCH   2   3
ATOM      3  C   UNL     1       5.605  -1.920  50.304  1.00  0.00     0.000 C 
BRANCH   3   4
ATOM      4  C   UNL     1       5.173  -3.303  49.799  1.00  0.00     0.000 C 
BRANCH   4   5
ATOM      5  C   UNL     1       6.144  -4.393  50.279  1.00  0.00     0.000 C 
BRANCH   5   6
ATOM      6  C   UNL     1       6.836  -5.131  49.116  1.00  0.00     0.000 C 
BRANCH   6   7
ATOM      7  C   UNL     1       8.376  -5.140  49.177  1.00  0.00     0.000 C 
BRANCH   7   8
ATOM      8  C   UNL     1       9.077  -4.115  48.264  1.00  0.00     0.000 C 
BRANCH   8   9
ATOM      9  C   UNL     1       9.291  -2.733  48.919  1.00  0.00     0.000 C 
BRANCH   9  10
ATOM     10  C   UNL     1       8.510  -1.611  48.209  1.00  0.00     0.006 C 
BRANCH  10  11
ATOM     11  C   UNL     1       7.763  -2.123  46.970  1.00  0.00     0.053 C 
BRANCH  11  12
ATOM     12  C   UNL     1       6.527  -1.321  46.697  1.00  0.00     0.041 C 
ATOM     13  O   UNL     1       6.572  -0.062  46.703  1.00  0.00    -0.550 OA
ATOM     14  O   UNL     1       5.315  -1.966  46.475  1.00  0.00    -0.550 OA
ENDBRANCH  11  12
ENDBRANCH  10  11
ENDBRANCH   9  10
ENDBRANCH   8   9
ENDBRANCH   7   8
ENDBRANCH   6   7
ENDBRANCH   5   6
ENDBRANCH   4   5
ENDBRANCH   3   4
ENDBRANCH   2   3
ENDBRANCH   1   2
BRANCH   1  15
ATOM     15  C   UNL     1       7.719  -0.813  53.448  1.00  0.00     0.000 C 
BRANCH  15  16
ATOM     16  C   UNL     1       8.146   0.574  53.962  1.00  0.00     0.000 C 
BRANCH  16  17
ATOM     17  C   UNL     1       8.914   0.565  55.295  1.00  0.00     0.000 C 
BRANCH  17  18
ATOM     18  C   UNL     1       9.325   1.972  55.764  1.00  0.00    -0.000 C 
BRANCH  18  19
ATOM     19  C   UNL     1      10.802   2.278  55.472  1.00  0.00    -0.000 C 
BRANCH  19  20
ATOM     20  C   UNL     1      11.033   2.742  54.026  1.00  0.00    -0.000 C 
BRANCH  20  21
ATOM     21  C   UNL     1      10.252   4.028  53.730  1.00  0.00    -0.000 C 
BRANCH  21  22
ATOM     22  C   UNL     1      10.027   4.202  52.223  1.00  0.00    -0.000 C 
BRANCH  22  23
ATOM     23  C   UNL     1       8.743   4.992  51.944  1.00  0.00    -0.000 C 
BRANCH  23  24
ATOM     24  C   UNL     1       8.128   5.520  53.244  1.00  0.00    -0.000 C 
BRANCH  24  25
ATOM     25  C   UNL     1       6.641   5.161  53.334  1.00  0.00    -0.003 C 
ATOM     26  C   UNL     1       6.422   3.666  53.120  1.00  0.00     0.004 C 
ENDBRANCH  24  25
ENDBRANCH  23  24
ENDBRANCH  22  23
ENDBRANCH  21  22
ENDBRANCH  20  21
ENDBRANCH  19  20
ENDBRANCH  18  19
ENDBRANCH  17  18
ENDBRANCH  16  17
ENDBRANCH  15  16
ENDBRANCH   1  15
TORSDOF 22
ENDMDL
MODEL 4
REMARK VINA RESULT:    -4.696      2.538      8.497
REMARK INTER + INTRA:         -13.659
REMARK INTER:                 -11.113
REMARK INTRA:                  -2.546
REMARK UNBOUND:                -2.922
REMARK SMILES CCCCCCCCCCCCCCCCCCCCCCCC(=O)[O-]
REMARK SMILES IDX 13 1 14 2 15 3 16 4 17 5 18 6 19 7 20 8 21 9 22 10 23 11
REMARK SMILES IDX 24 12 25 13 26 14 12 15 11 16 10 17 9 18 8 19 7 20 6 21 5 22
REMARK SMILES IDX 4 23 3 24 2 25 1 26
REMARK H PARENT
REMARK Flexibility Score: inf
ROOT
ATOM      1  C   UNL     1       5.910  -3.106  50.464  1.00  0.00     0.000 C 
ENDROOT
BRANCH   1   2
ATOM      2  C   UNL     1       4.761  -3.167  49.435  1.00  0.00     0.000 C 
BRANCH   2   3
ATOM      3  C   UNL     1       4.759  -4.448  48.582  1.00  0.00     0.000 C 
BRANCH   3   4
ATOM      4  C   UNL     1       5.837  -5.452  49.012  1.00  0.00     0.000 C 
BRANCH   4   5
ATOM      5  C   UNL     1       6.842  -5.701  47.878  1.00  0.00     0.000 C 
BRANCH   5   6
ATOM      6  C   UNL     1       8.266  -5.993  48.393  1.00  0.00     0.000 C 
BRANCH   6   7
ATOM      7  C   UNL     1       9.317  -4.923  48.041  1.00  0.00     0.000 C 
BRANCH   7   8
ATOM      8  C   UNL     1       9.364  -3.709  48.987  1.00  0.00     0.000 C 
BRANCH   8   9
ATOM      9  C   UNL     1       9.501  -2.352  48.262  1.00  0.00     0.000 C 
BRANCH   9  10
ATOM     10  C   UNL     1       8.145  -1.654  48.047  1.00  0.00     0.006 C 
BRANCH  10  11
ATOM     11  C   UNL     1       7.550  -1.961  46.666  1.00  0.00     0.053 C 
BRANCH  11  12
ATOM     12  C   UNL     1       6.267  -1.221  46.438  1.00  0.00     0.041 C 
ATOM     13  O   UNL     1       5.212  -1.851  46.156  1.00  0.00    -0.550 OA
ATOM     14  O   UNL     1       6.246   0.168  46.497  1.00  0.00    -0.550 OA
ENDBRANCH  11  12
ENDBRANCH  10  11
ENDBRANCH   9  10
ENDBRANCH   8   9
ENDBRANCH   7   8
ENDBRANCH   6   7
ENDBRANCH   5   6
ENDBRANCH   4   5
ENDBRANCH   3   4
ENDBRANCH   2   3
ENDBRANCH   1   2
BRANCH   1  15
ATOM     15  C   UNL     1       6.212  -1.669  50.925  1.00  0.00     0.000 C 
BRANCH  15  16
ATOM     16  C   UNL     1       6.917  -1.611  52.293  1.00  0.00     0.000 C 
BRANCH  16  17
ATOM     17  C   UNL     1       6.981  -0.212  52.931  1.00  0.00     0.000 C 
BRANCH  17  18
ATOM     18  C   UNL     1       8.145  -0.057  53.925  1.00  0.00    -0.000 C 
BRANCH  18  19
ATOM     19  C   UNL     1       8.413   1.411  54.289  1.00  0.00    -0.000 C 
BRANCH  19  20
ATOM     20  C   UNL     1       9.906   1.767  54.239  1.00  0.00    -0.000 C 
BRANCH  20  21
ATOM     21  C   UNL     1      10.134   3.079  53.478  1.00  0.00    -0.000 C 
BRANCH  21  22
ATOM     22  C   UNL     1      10.023   4.287  54.417  1.00  0.00    -0.000 C 
BRANCH  22  23
ATOM     23  C   UNL     1       9.469   5.510  53.678  1.00  0.00    -0.000 C 
BRANCH  23  24
ATOM     24  C   UNL     1       8.293   5.123  52.775  1.00  0.00    -0.000 C 
BRANCH  24  25
ATOM     25  C   UNL     1       7.030   4.858  53.602  1.00  0.00    -0.003 C 
ATOM     26  C   UNL     1       5.869   4.429  52.710  1.00  0.00     0.004 C 
ENDBRANCH  24  25
ENDBRANCH  23  24
ENDBRANCH  22  23
ENDBRANCH  21  22
ENDBRANCH  20  21
ENDBRANCH  19  20
ENDBRANCH  18  19
ENDBRANCH  17  18
ENDBRANCH  16  17
ENDBRANCH  15  16
ENDBRANCH   1  15
TORSDOF 22
ENDMDL
MODEL 5
REMARK VINA RESULT:    -4.691      2.388      2.516
REMARK INTER + INTRA:         -13.646
REMARK INTER:                 -10.942
REMARK INTRA:                  -2.704
REMARK UNBOUND:                -2.922
REMARK SMILES CCCCCCCCCCCCCCCCCCCCCCCC(=O)[O-]
REMARK SMILES IDX 13 1 14 2 15 3 16 4 17 5 18 6 19 7 20 8 21 9 22 10 23 11
REMARK SMILES IDX 24 12 25 13 26 14 12 15 11 16 10 17 9 18 8 19 7 20 6 21 5 22
REMARK SMILES IDX 4 23 3 24 2 25 1 26
REMARK H PARENT
REMARK Flexibility Score: inf
ROOT
ATOM      1  C   UNL     1       6.264  -1.121  51.913  1.00  0.00     0.000 C 
ENDROOT
BRANCH   1   2
ATOM      2  C   UNL     1       7.400  -1.095  52.959  1.00  0.00     0.000 C 
BRANCH   2   3
ATOM      3  C   UNL     1       7.723   0.314  53.488  1.00  0.00     0.000 C 
BRANCH   3   4
ATOM      4  C   UNL     1       8.723   0.298  54.652  1.00  0.00     0.000 C 
BRANCH   4   5
ATOM      5  C   UNL     1       8.530   1.521  55.562  1.00  0.00     0.000 C 
BRANCH   5   6
ATOM      6  C   UNL     1       8.275   2.820  54.772  1.00  0.00     0.000 C 
BRANCH   6   7
ATOM      7  C   UNL     1       9.545   3.557  54.304  1.00  0.00     0.000 C 
BRANCH   7   8
ATOM      8  C   UNL     1       9.660   3.770  52.783  1.00  0.00     0.000 C 
BRANCH   8   9
ATOM      9  C   UNL     1       8.617   4.752  52.205  1.00  0.00     0.000 C 
BRANCH   9  10
ATOM     10  C   UNL     1       9.177   5.598  51.045  1.00  0.00     0.006 C 
BRANCH  10  11
ATOM     11  C   UNL     1       9.965   4.749  50.039  1.00  0.00     0.053 C 
BRANCH  11  12
ATOM     12  C   UNL     1       9.686   5.162  48.626  1.00  0.00     0.041 C 
ATOM     13  O   UNL     1       8.522   5.067  48.154  1.00  0.00    -0.550 OA
ATOM     14  O   UNL     1      10.723   5.614  47.817  1.00  0.00    -0.550 OA
ENDBRANCH  11  12
ENDBRANCH  10  11
ENDBRANCH   9  10
ENDBRANCH   8   9
ENDBRANCH   7   8
ENDBRANCH   6   7
ENDBRANCH   5   6
ENDBRANCH   4   5
ENDBRANCH   3   4
ENDBRANCH   2   3
ENDBRANCH   1   2
BRANCH   1  15
ATOM     15  C   UNL     1       6.526  -2.134  50.785  1.00  0.00     0.000 C 
BRANCH  15  16
ATOM     16  C   UNL     1       5.841  -3.492  51.025  1.00  0.00     0.000 C 
BRANCH  16  17
ATOM     17  C   UNL     1       5.251  -4.153  49.766  1.00  0.00     0.000 C 
BRANCH  17  18
ATOM     18  C   UNL     1       4.774  -3.132  48.719  1.00  0.00    -0.000 C 
BRANCH  18  19
ATOM     19  C   UNL     1       5.051  -3.595  47.280  1.00  0.00    -0.000 C 
BRANCH  19  20
ATOM     20  C   UNL     1       5.800  -2.539  46.455  1.00  0.00    -0.000 C 
BRANCH  20  21
ATOM     21  C   UNL     1       5.932  -1.225  47.235  1.00  0.00    -0.000 C 
BRANCH  21  22
ATOM     22  C   UNL     1       7.405  -0.864  47.461  1.00  0.00    -0.000 C 
BRANCH  22  23
ATOM     23  C   UNL     1       8.309  -2.088  47.264  1.00  0.00    -0.000 C 
BRANCH  23  24
ATOM     24  C   UNL     1       9.306  -2.229  48.419  1.00  0.00    -0.000 C 
BRANCH  24  25
ATOM     25  C   UNL     1       9.429  -3.691  48.861  1.00  0.00    -0.003 C 
ATOM     26  C   UNL     1       8.580  -4.606  47.982  1.00  0.00     0.004 C 
ENDBRANCH  24  25
ENDBRANCH  23  24
ENDBRANCH  22  23
ENDBRANCH  21  22
ENDBRANCH  20  21
ENDBRANCH  19  20
ENDBRANCH  18  19
ENDBRANCH  17  18
ENDBRANCH  16  17
ENDBRANCH  15  16
ENDBRANCH   1  15
TORSDOF 22
ENDMDL
MODEL 6
REMARK VINA RESULT:    -4.601      1.833      2.924
REMARK INTER + INTRA:         -13.441
REMARK INTER:                 -10.796
REMARK INTRA:                  -2.645
REMARK UNBOUND:                -2.922
REMARK SMILES CCCCCCCCCCCCCCCCCCCCCCCC(=O)[O-]
REMARK SMILES IDX 13 1 14 2 15 3 16 4 17 5 18 6 19 7 20 8 21 9 22 10 23 11
REMARK SMILES IDX 24 12 25 13 26 14 12 15 11 16 10 17 9 18 8 19 7 20 6 21 5 22
REMARK SMILES IDX 4 23 3 24 2 25 1 26
REMARK H PARENT
REMARK Flexibility Score: inf
ROOT
ATOM      1  C   UNL     1       6.833  -1.905  51.243  1.00  0.00     0.000 C 
ENDROOT
BRANCH   1   2
ATOM      2  C   UNL     1       6.618  -0.876  52.374  1.00  0.00     0.000 C 
BRANCH   2   3
ATOM      3  C   UNL     1       7.749  -0.856  53.417  1.00  0.00     0.000 C 
BRANCH   3   4
ATOM      4  C   UNL     1       8.117   0.563  53.870  1.00  0.00     0.000 C 
BRANCH   4   5
ATOM      5  C   UNL     1       8.933   0.533  55.171  1.00  0.00     0.000 C 
BRANCH   5   6
ATOM      6  C   UNL     1       9.194   1.939  55.747  1.00  0.00     0.000 C 
BRANCH   6   7
ATOM      7  C   UNL     1      10.121   2.828  54.897  1.00  0.00     0.000 C 
BRANCH   7   8
ATOM      8  C   UNL     1       9.546   4.207  54.520  1.00  0.00     0.000 C 
BRANCH   8   9
ATOM      9  C   UNL     1       8.195   4.143  53.774  1.00  0.00     0.000 C 
BRANCH   9  10
ATOM     10  C   UNL     1       8.233   4.864  52.413  1.00  0.00     0.006 C 
BRANCH  10  11
ATOM     11  C   UNL     1       9.646   5.341  52.051  1.00  0.00     0.053 C 
BRANCH  11  12
ATOM     12  C   UNL     1      10.083   4.817  50.716  1.00  0.00     0.041 C 
ATOM     13  O   UNL     1      11.184   4.216  50.599  1.00  0.00    -0.550 OA
ATOM     14  O   UNL     1       9.290   5.028  49.594  1.00  0.00    -0.550 OA
ENDBRANCH  11  12
ENDBRANCH  10  11
ENDBRANCH   9  10
ENDBRANCH   8   9
ENDBRANCH   7   8
ENDBRANCH   6   7
ENDBRANCH   5   6
ENDBRANCH   4   5
ENDBRANCH   3   4
ENDBRANCH   2   3
ENDBRANCH   1   2
BRANCH   1  15
ATOM     15  C   UNL     1       5.686  -1.900  50.217  1.00  0.00     0.000 C 
BRANCH  15  16
ATOM     16  C   UNL     1       5.302  -3.312  49.737  1.00  0.00     0.000 C 
BRANCH  16  17
ATOM     17  C   UNL     1       6.286  -4.425  50.140  1.00  0.00     0.000 C 
BRANCH  17  18
ATOM     18  C   UNL     1       6.497  -5.471  49.032  1.00  0.00    -0.000 C 
BRANCH  18  19
ATOM     19  C   UNL     1       7.732  -5.169  48.169  1.00  0.00    -0.000 C 
BRANCH  19  20
ATOM     20  C   UNL     1       8.916  -4.649  48.997  1.00  0.00    -0.000 C 
BRANCH  20  21
ATOM     21  C   UNL     1       9.646  -3.518  48.261  1.00  0.00    -0.000 C 
BRANCH  21  22
ATOM     22  C   UNL     1       8.857  -2.205  48.348  1.00  0.00    -0.000 C 
BRANCH  22  23
ATOM     23  C   UNL     1       8.148  -1.900  47.023  1.00  0.00    -0.000 C 
BRANCH  23  24
ATOM     24  C   UNL     1       7.357  -0.590  47.111  1.00  0.00    -0.000 C 
BRANCH  24  25
ATOM     25  C   UNL     1       5.880  -0.817  46.771  1.00  0.00    -0.003 C 
ATOM     26  C   UNL     1       5.654  -2.217  46.208  1.00  0.00     0.004 C 
ENDBRANCH  24  25
ENDBRANCH  23  24
ENDBRANCH  22  23
ENDBRANCH  21  22
ENDBRANCH  20  21
ENDBRANCH  19  20
ENDBRANCH  18  19
ENDBRANCH  17  18
ENDBRANCH  16  17
ENDBRANCH  15  16
ENDBRANCH   1  15
TORSDOF 22
ENDMDL
MODEL 7
REMARK VINA RESULT:    -4.596      2.855      8.280
REMARK INTER + INTRA:         -13.430
REMARK INTER:                 -11.002
REMARK INTRA:                  -2.429
REMARK UNBOUND:                -2.922
REMARK SMILES CCCCCCCCCCCCCCCCCCCCCCCC(=O)[O-]
REMARK SMILES IDX 13 1 14 2 15 3 16 4 17 5 18 6 19 7 20 8 21 9 22 10 23 11
REMARK SMILES IDX 24 12 25 13 26 14 12 15 11 16 10 17 9 18 8 19 7 20 6 21 5 22
REMARK SMILES IDX 4 23 3 24 2 25 1 26
REMARK H PARENT
REMARK Flexibility Score: inf
ROOT
ATOM      1  C   UNL     1       5.750  -3.108  50.867  1.00  0.00     0.000 C 
ENDROOT
BRANCH   1   2
ATOM      2  C   UNL     1       5.037  -3.210  49.501  1.00  0.00     0.000 C 
BRANCH   2   3
ATOM      3  C   UNL     1       4.378  -4.577  49.246  1.00  0.00     0.000 C 
BRANCH   3   4
ATOM      4  C   UNL     1       5.369  -5.630  48.732  1.00  0.00     0.000 C 
BRANCH   4   5
ATOM      5  C   UNL     1       6.296  -5.038  47.660  1.00  0.00     0.000 C 
BRANCH   5   6
ATOM      6  C   UNL     1       7.575  -5.873  47.447  1.00  0.00     0.000 C 
BRANCH   6   7
ATOM      7  C   UNL     1       8.856  -5.264  48.046  1.00  0.00     0.000 C 
BRANCH   7   8
ATOM      8  C   UNL     1       8.642  -4.030  48.943  1.00  0.00     0.000 C 
BRANCH   8   9
ATOM      9  C   UNL     1       9.357  -2.756  48.442  1.00  0.00     0.000 C 
BRANCH   9  10
ATOM     10  C   UNL     1       8.374  -1.648  48.022  1.00  0.00     0.006 C 
BRANCH  10  11
ATOM     11  C   UNL     1       7.710  -1.946  46.671  1.00  0.00     0.053 C 
BRANCH  11  12
ATOM     12  C   UNL     1       6.401  -1.231  46.525  1.00  0.00     0.041 C 
ATOM     13  O   UNL     1       6.310  -0.008  46.813  1.00  0.00    -0.550 OA
ATOM     14  O   UNL     1       5.272  -1.928  46.110  1.00  0.00    -0.550 OA
ENDBRANCH  11  12
ENDBRANCH  10  11
ENDBRANCH   9  10
ENDBRANCH   8   9
ENDBRANCH   7   8
ENDBRANCH   6   7
ENDBRANCH   5   6
ENDBRANCH   4   5
ENDBRANCH   3   4
ENDBRANCH   2   3
ENDBRANCH   1   2
BRANCH   1  15
ATOM     15  C   UNL     1       6.422  -1.740  51.079  1.00  0.00     0.000 C 
BRANCH  15  16
ATOM     16  C   UNL     1       7.021  -1.575  52.488  1.00  0.00     0.000 C 
BRANCH  16  17
ATOM     17  C   UNL     1       7.013  -0.136  53.033  1.00  0.00     0.000 C 
BRANCH  17  18
ATOM     18  C   UNL     1       8.237   0.183  53.909  1.00  0.00    -0.000 C 
BRANCH  18  19
ATOM     19  C   UNL     1       8.151   1.577  54.550  1.00  0.00    -0.000 C 
BRANCH  19  20
ATOM     20  C   UNL     1       7.043   2.442  53.932  1.00  0.00    -0.000 C 
BRANCH  20  21
ATOM     21  C   UNL     1       7.534   3.876  53.694  1.00  0.00    -0.000 C 
BRANCH  21  22
ATOM     22  C   UNL     1       8.923   3.882  53.043  1.00  0.00    -0.000 C 
BRANCH  22  23
ATOM     23  C   UNL     1       8.948   4.787  51.806  1.00  0.00    -0.000 C 
BRANCH  23  24
ATOM     24  C   UNL     1      10.378   4.964  51.282  1.00  0.00    -0.000 C 
BRANCH  24  25
ATOM     25  C   UNL     1      10.427   4.809  49.758  1.00  0.00    -0.003 C 
ATOM     26  C   UNL     1      11.596   3.926  49.332  1.00  0.00     0.004 C 
ENDBRANCH  24  25
ENDBRANCH  23  24
ENDBRANCH  22  23
ENDBRANCH  21  22
ENDBRANCH  20  21
ENDBRANCH  19  20
ENDBRANCH  18  19
ENDBRANCH  17  18
ENDBRANCH  16  17
ENDBRANCH  15  16
ENDBRANCH   1  15
TORSDOF 22
ENDMDL
MODEL 8
REMARK VINA RESULT:    -4.512      9.010     13.245
REMARK INTER + INTRA:         -13.236
REMARK INTER:                  -9.760
REMARK INTRA:                  -3.476
REMARK UNBOUND:                -2.922
REMARK SMILES CCCCCCCCCCCCCCCCCCCCCCCC(=O)[O-]
REMARK SMILES IDX 13 1 14 2 15 3 16 4 17 5 18 6 19 7 20 8 21 9 22 10 23 11
REMARK SMILES IDX 24 12 25 13 26 14 12 15 11 16 10 17 9 18 8 19 7 20 6 21 5 22
REMARK SMILES IDX 4 23 3 24 2 25 1 26
REMARK H PARENT
REMARK Flexibility Score: inf
ROOT
ATOM      1  C   UNL     1       6.261  10.742  44.882  1.00  0.00     0.000 C 
ENDROOT
BRANCH   1   2
ATOM      2  C   UNL     1       7.061  11.902  44.250  1.00  0.00     0.000 C 
BRANCH   2   3
ATOM      3  C   UNL     1       6.994  13.212  45.055  1.00  0.00     0.000 C 
BRANCH   3   4
ATOM      4  C   UNL     1       8.354  13.630  45.629  1.00  0.00     0.000 C 
BRANCH   4   5
ATOM      5  C   UNL     1       9.392  12.511  45.460  1.00  0.00     0.000 C 
BRANCH   5   6
ATOM      6  C   UNL     1       9.835  11.897  46.803  1.00  0.00     0.000 C 
BRANCH   6   7
ATOM      7  C   UNL     1       9.635  10.374  46.919  1.00  0.00     0.000 C 
BRANCH   7   8
ATOM      8  C   UNL     1       9.756   9.591  45.598  1.00  0.00     0.000 C 
BRANCH   8   9
ATOM      9  C   UNL     1       8.930   8.287  45.562  1.00  0.00     0.000 C 
BRANCH   9  10
ATOM     10  C   UNL     1       8.592   7.758  46.969  1.00  0.00     0.006 C 
BRANCH  10  11
ATOM     11  C   UNL     1       9.637   6.754  47.475  1.00  0.00     0.053 C 
BRANCH  11  12
ATOM     12  C   UNL     1       9.005   5.642  48.256  1.00  0.00     0.041 C 
ATOM     13  O   UNL     1       7.897   5.163  47.896  1.00  0.00    -0.550 OA
ATOM     14  O   UNL     1       9.623   5.163  49.406  1.00  0.00    -0.550 OA
ENDBRANCH  11  12
ENDBRANCH  10  11
ENDBRANCH   9  10
ENDBRANCH   8   9
ENDBRANCH   7   8
ENDBRANCH   6   7
ENDBRANCH   5   6
ENDBRANCH   4   5
ENDBRANCH   3   4
ENDBRANCH   2   3
ENDBRANCH   1   2
BRANCH   1  15
ATOM     15  C   UNL     1       5.555  11.156  46.185  1.00  0.00     0.000 C 
BRANCH  15  16
ATOM     16  C   UNL     1       6.184  10.519  47.439  1.00  0.00     0.000 C 
BRANCH  16  17
ATOM     17  C   UNL     1       6.039  11.347  48.728  1.00  0.00     0.000 C 
BRANCH  17  18
ATOM     18  C   UNL     1       5.066  12.529  48.578  1.00  0.00    -0.000 C 
BRANCH  18  19
ATOM     19  C   UNL     1       4.161  12.703  49.807  1.00  0.00    -0.000 C 
BRANCH  19  20
ATOM     20  C   UNL     1       2.669  12.704  49.445  1.00  0.00    -0.000 C 
BRANCH  20  21
ATOM     21  C   UNL     1       2.232  11.333  48.913  1.00  0.00    -0.000 C 
BRANCH  21  22
ATOM     22  C   UNL     1       2.088  11.355  47.386  1.00  0.00    -0.000 C 
BRANCH  22  23
ATOM     23  C   UNL     1       2.140   9.937  46.806  1.00  0.00    -0.000 C 
BRANCH  23  24
ATOM     24  C   UNL     1       1.112   9.025  47.485  1.00  0.00    -0.000 C 
BRANCH  24  25
ATOM     25  C   UNL     1      -0.263   9.161  46.822  1.00  0.00    -0.003 C 
ATOM     26  C   UNL     1      -1.316   9.622  47.827  1.00  0.00     0.004 C 
ENDBRANCH  24  25
ENDBRANCH  23  24
ENDBRANCH  22  23
ENDBRANCH  21  22
ENDBRANCH  20  21
ENDBRANCH  19  20
ENDBRANCH  18  19
ENDBRANCH  17  18
ENDBRANCH  16  17
ENDBRANCH  15  16
ENDBRANCH   1  15
TORSDOF 22
ENDMDL
MODEL 9
REMARK VINA RESULT:    -4.395     10.031     13.565
REMARK INTER + INTRA:         -12.969
REMARK INTER:                  -9.098
REMARK INTRA:                  -3.871
REMARK UNBOUND:                -2.922
REMARK SMILES CCCCCCCCCCCCCCCCCCCCCCCC(=O)[O-]
REMARK SMILES IDX 13 1 14 2 15 3 16 4 17 5 18 6 19 7 20 8 21 9 22 10 23 11
REMARK SMILES IDX 24 12 25 13 26 14 12 15 11 16 10 17 9 18 8 19 7 20 6 21 5 22
REMARK SMILES IDX 4 23 3 24 2 25 1 26
REMARK H PARENT
REMARK Flexibility Score: inf
ROOT
ATOM      1  C   UNL     1       6.773  10.799  45.221  1.00  0.00     0.000 C 
ENDROOT
BRANCH   1   2
ATOM      2  C   UNL     1       5.539  11.091  46.101  1.00  0.00     0.000 C 
BRANCH   2   3
ATOM      3  C   UNL     1       5.752  10.778  47.592  1.00  0.00     0.000 C 
BRANCH   3   4
ATOM      4  C   UNL     1       5.593  12.011  48.490  1.00  0.00     0.000 C 
BRANCH   4   5
ATOM      5  C   UNL     1       5.128  13.229  47.678  1.00  0.00     0.000 C 
BRANCH   5   6
ATOM      6  C   UNL     1       3.617  13.500  47.816  1.00  0.00     0.000 C 
BRANCH   6   7
ATOM      7  C   UNL     1       2.979  12.977  49.118  1.00  0.00     0.000 C 
BRANCH   7   8
ATOM      8  C   UNL     1       2.142  11.692  48.972  1.00  0.00     0.000 C 
BRANCH   8   9
ATOM      9  C   UNL     1       1.613  11.446  47.542  1.00  0.00     0.000 C 
BRANCH   9  10
ATOM     10  C   UNL     1       2.041  10.078  46.977  1.00  0.00     0.006 C 
BRANCH  10  11
ATOM     11  C   UNL     1       1.096   8.951  47.415  1.00  0.00     0.053 C 
BRANCH  11  12
ATOM     12  C   UNL     1      -0.164   8.937  46.604  1.00  0.00     0.041 C 
ATOM     13  O   UNL     1      -0.119   9.110  45.357  1.00  0.00    -0.550 OA
ATOM     14  O   UNL     1      -1.393   8.772  47.234  1.00  0.00    -0.550 OA
ENDBRANCH  11  12
ENDBRANCH  10  11
ENDBRANCH   9  10
ENDBRANCH   8   9
ENDBRANCH   7   8
ENDBRANCH   6   7
ENDBRANCH   5   6
ENDBRANCH   4   5
ENDBRANCH   3   4
ENDBRANCH   2   3
ENDBRANCH   1   2
BRANCH   1  15
ATOM     15  C   UNL     1       6.971  11.853  44.116  1.00  0.00     0.000 C 
BRANCH  15  16
ATOM     16  C   UNL     1       7.378  13.232  44.666  1.00  0.00     0.000 C 
BRANCH  16  17
ATOM     17  C   UNL     1       8.747  13.272  45.368  1.00  0.00     0.000 C 
BRANCH  17  18
ATOM     18  C   UNL     1       8.646  13.620  46.864  1.00  0.00    -0.000 C 
BRANCH  18  19
ATOM     19  C   UNL     1       9.707  12.895  47.707  1.00  0.00    -0.000 C 
BRANCH  19  20
ATOM     20  C   UNL     1       9.761  11.388  47.416  1.00  0.00    -0.000 C 
BRANCH  20  21
ATOM     21  C   UNL     1       9.125  10.585  48.557  1.00  0.00    -0.000 C 
BRANCH  21  22
ATOM     22  C   UNL     1       9.569   9.118  48.512  1.00  0.00    -0.000 C 
BRANCH  22  23
ATOM     23  C   UNL     1       8.507   8.240  47.840  1.00  0.00    -0.000 C 
BRANCH  23  24
ATOM     24  C   UNL     1       9.110   7.429  46.688  1.00  0.00    -0.000 C 
BRANCH  24  25
ATOM     25  C   UNL     1       9.154   8.256  45.399  1.00  0.00    -0.003 C 
ATOM     26  C   UNL     1      10.590   8.471  44.930  1.00  0.00     0.004 C 
ENDBRANCH  24  25
ENDBRANCH  23  24
ENDBRANCH  22  23
ENDBRANCH  21  22
ENDBRANCH  20  21
ENDBRANCH  19  20
ENDBRANCH  18  19
ENDBRANCH  17  18
ENDBRANCH  16  17
ENDBRANCH  15  16
ENDBRANCH   1  15
TORSDOF 22
ENDMDL
