MODEL 1
REMARK VINA RESULT:    -1.394      0.000      0.000
REMARK INTER + INTRA:          -4.252
REMARK INTER:                  -3.024
REMARK INTRA:                  -1.228
REMARK UNBOUND:                -1.228
REMARK SMILES CCCCCCCCCCCCCCCCCCCCCC(=O)[O-]
REMARK SMILES IDX 12 1 11 2 10 3 9 4 8 5 7 6 6 7 5 8 4 9 3 10 2 11 1 12 13 13
REMARK SMILES IDX 14 14 15 15 16 16 17 17 18 18 19 19 20 20 21 21 22 22 23 23
REMARK SMILES IDX 24 24
REMARK H PARENT
REMARK Flexibility Score: inf
ROOT
ATOM      1  C   UNL     1      27.263  -0.002  43.404  1.00  0.00     0.000 C 
ENDROOT
BRANCH   1   2
ATOM      2  C   UNL     1      27.994  -1.326  43.097  1.00  0.00     0.000 C 
BRANCH   2   3
ATOM      3  C   UNL     1      29.092  -1.643  44.124  1.00  0.00     0.000 C 
BRANCH   3   4
ATOM      4  C   UNL     1      30.460  -1.143  43.643  1.00  0.00    -0.000 C 
BRANCH   4   5
ATOM      5  C   UNL     1      30.500  -1.037  42.112  1.00  0.00    -0.000 C 
BRANCH   5   6
ATOM      6  C   UNL     1      31.888  -0.651  41.571  1.00  0.00    -0.000 C 
BRANCH   6   7
ATOM      7  C   UNL     1      31.981  -0.537  40.039  1.00  0.00    -0.000 C 
BRANCH   7   8
ATOM      8  C   UNL     1      31.679   0.878  39.523  1.00  0.00    -0.000 C 
BRANCH   8   9
ATOM      9  C   UNL     1      31.414   0.865  38.010  1.00  0.00    -0.000 C 
BRANCH   9  10
ATOM     10  C   UNL     1      29.960   0.509  37.666  1.00  0.00    -0.000 C 
BRANCH  10  11
ATOM     11  C   UNL     1      29.012   0.672  38.864  1.00  0.00    -0.003 C 
ATOM     12  C   UNL     1      28.468  -0.679  39.321  1.00  0.00     0.004 C 
ENDBRANCH  10  11
ENDBRANCH   9  10
ENDBRANCH   8   9
ENDBRANCH   7   8
ENDBRANCH   6   7
ENDBRANCH   5   6
ENDBRANCH   4   5
ENDBRANCH   3   4
ENDBRANCH   2   3
ENDBRANCH   1   2
BRANCH   1  13
ATOM     13  C   UNL     1      26.280   0.439  42.303  1.00  0.00     0.000 C 
BRANCH  13  14
ATOM     14  C   UNL     1      24.996   1.125  42.809  1.00  0.00     0.000 C 
BRANCH  14  15
ATOM     15  C   UNL     1      24.189   1.874  41.731  1.00  0.00     0.000 C 
BRANCH  15  16
ATOM     16  C   UNL     1      22.807   1.274  41.414  1.00  0.00     0.000 C 
BRANCH  16  17
ATOM     17  C   UNL     1      21.973   2.109  40.420  1.00  0.00     0.000 C 
BRANCH  17  18
ATOM     18  C   UNL     1      20.735   1.354  39.909  1.00  0.00     0.000 C 
BRANCH  18  19
ATOM     19  C   UNL     1      19.443   2.058  40.342  1.00  0.00     0.000 C 
BRANCH  19  20
ATOM     20  C   UNL     1      19.310   2.068  41.872  1.00  0.00     0.006 C 
BRANCH  20  21
ATOM     21  C   UNL     1      18.233   1.093  42.369  1.00  0.00     0.053 C 
BRANCH  21  22
ATOM     22  C   UNL     1      18.819  -0.231  42.756  1.00  0.00     0.041 C 
ATOM     23  O   UNL     1      18.088  -1.124  43.258  1.00  0.00    -0.550 OA
ATOM     24  O   UNL     1      20.179  -0.464  42.597  1.00  0.00    -0.550 OA
ENDBRANCH  21  22
ENDBRANCH  20  21
ENDBRANCH  19  20
ENDBRANCH  18  19
ENDBRANCH  17  18
ENDBRANCH  16  17
ENDBRANCH  15  16
ENDBRANCH  14  15
ENDBRANCH  13  14
ENDBRANCH   1  13
TORSDOF 20
ENDMDL
MODEL 2
REMARK VINA RESULT:    -1.134      1.850      2.475
REMARK INTER + INTRA:          -3.688
REMARK INTER:                  -2.188
REMARK INTRA:                  -1.500
REMARK UNBOUND:                -1.228
REMARK SMILES CCCCCCCCCCCCCCCCCCCCCC(=O)[O-]
REMARK SMILES IDX 12 1 11 2 10 3 9 4 8 5 7 6 6 7 5 8 4 9 3 10 2 11 1 12 13 13
REMARK SMILES IDX 14 14 15 15 16 16 17 17 18 18 19 19 20 20 21 21 22 22 23 23
REMARK SMILES IDX 24 24
REMARK H PARENT
REMARK Flexibility Score: inf
ROOT
ATOM      1  C   UNL     1      27.360  -0.737  42.640  1.00  0.00     0.000 C 
ENDROOT
BRANCH   1   2
ATOM      2  C   UNL     1      28.181  -1.202  43.861  1.00  0.00     0.000 C 
BRANCH   2   3
ATOM      3  C   UNL     1      29.251  -0.179  44.274  1.00  0.00     0.000 C 
BRANCH   3   4
ATOM      4  C   UNL     1      30.646  -0.619  43.812  1.00  0.00    -0.000 C 
BRANCH   4   5
ATOM      5  C   UNL     1      30.561  -1.446  42.521  1.00  0.00    -0.000 C 
BRANCH   5   6
ATOM      6  C   UNL     1      30.661  -0.587  41.248  1.00  0.00    -0.000 C 
BRANCH   6   7
ATOM      7  C   UNL     1      29.986  -1.187  40.002  1.00  0.00    -0.000 C 
BRANCH   7   8
ATOM      8  C   UNL     1      28.905  -0.274  39.405  1.00  0.00    -0.000 C 
BRANCH   8   9
ATOM      9  C   UNL     1      29.535   0.959  38.740  1.00  0.00    -0.000 C 
BRANCH   9  10
ATOM     10  C   UNL     1      30.841   0.631  37.999  1.00  0.00    -0.000 C 
BRANCH  10  11
ATOM     11  C   UNL     1      32.018   1.505  38.458  1.00  0.00    -0.003 C 
ATOM     12  C   UNL     1      31.632   2.354  39.666  1.00  0.00     0.004 C 
ENDBRANCH  10  11
ENDBRANCH   9  10
ENDBRANCH   8   9
ENDBRANCH   7   8
ENDBRANCH   6   7
ENDBRANCH   5   6
ENDBRANCH   4   5
ENDBRANCH   3   4
ENDBRANCH   2   3
ENDBRANCH   1   2
BRANCH   1  13
ATOM     13  C   UNL     1      26.373   0.405  42.950  1.00  0.00     0.000 C 
BRANCH  13  14
ATOM     14  C   UNL     1      25.466   0.822  41.776  1.00  0.00     0.000 C 
BRANCH  14  15
ATOM     15  C   UNL     1      24.187   1.581  42.177  1.00  0.00     0.000 C 
BRANCH  15  16
ATOM     16  C   UNL     1      23.674   2.595  41.138  1.00  0.00     0.000 C 
BRANCH  16  17
ATOM     17  C   UNL     1      22.324   2.210  40.498  1.00  0.00     0.000 C 
BRANCH  17  18
ATOM     18  C   UNL     1      21.997   0.717  40.663  1.00  0.00     0.000 C 
BRANCH  18  19
ATOM     19  C   UNL     1      20.569   0.520  41.186  1.00  0.00     0.000 C 
BRANCH  19  20
ATOM     20  C   UNL     1      20.003   1.834  41.746  1.00  0.00     0.006 C 
BRANCH  20  21
ATOM     21  C   UNL     1      18.525   2.031  41.385  1.00  0.00     0.053 C 
BRANCH  21  22
ATOM     22  C   UNL     1      18.361   2.630  40.020  1.00  0.00     0.041 C 
ATOM     23  O   UNL     1      19.184   3.485  39.601  1.00  0.00    -0.550 OA
ATOM     24  O   UNL     1      17.279   2.269  39.228  1.00  0.00    -0.550 OA
ENDBRANCH  21  22
ENDBRANCH  20  21
ENDBRANCH  19  20
ENDBRANCH  18  19
ENDBRANCH  17  18
ENDBRANCH  16  17
ENDBRANCH  15  16
ENDBRANCH  14  15
ENDBRANCH  13  14
ENDBRANCH   1  13
TORSDOF 20
ENDMDL
MODEL 3
REMARK VINA RESULT:    -1.092      1.697      2.723
REMARK INTER + INTRA:          -3.597
REMARK INTER:                  -2.904
REMARK INTRA:                  -0.694
REMARK UNBOUND:                -1.228
REMARK SMILES CCCCCCCCCCCCCCCCCCCCCC(=O)[O-]
REMARK SMILES IDX 12 1 11 2 10 3 9 4 8 5 7 6 6 7 5 8 4 9 3 10 2 11 1 12 13 13
REMARK SMILES IDX 14 14 15 15 16 16 17 17 18 18 19 19 20 20 21 21 22 22 23 23
REMARK SMILES IDX 24 24
REMARK H PARENT
REMARK Flexibility Score: inf
ROOT
ATOM      1  C   UNL     1      28.356  -0.929  43.941  1.00  0.00     0.000 C 
ENDROOT
BRANCH   1   2
ATOM      2  C   UNL     1      29.681  -0.215  43.598  1.00  0.00     0.000 C 
BRANCH   2   3
ATOM      3  C   UNL     1      30.647  -1.115  42.812  1.00  0.00     0.000 C 
BRANCH   3   4
ATOM      4  C   UNL     1      30.489  -0.909  41.300  1.00  0.00    -0.000 C 
BRANCH   4   5
ATOM      5  C   UNL     1      29.165  -1.503  40.799  1.00  0.00    -0.000 C 
BRANCH   5   6
ATOM      6  C   UNL     1      28.717  -0.921  39.448  1.00  0.00    -0.000 C 
BRANCH   6   7
ATOM      7  C   UNL     1      29.163   0.528  39.183  1.00  0.00    -0.000 C 
BRANCH   7   8
ATOM      8  C   UNL     1      29.470   0.801  37.704  1.00  0.00    -0.000 C 
BRANCH   8   9
ATOM      9  C   UNL     1      30.958   0.568  37.400  1.00  0.00    -0.000 C 
BRANCH   9  10
ATOM     10  C   UNL     1      31.861   0.853  38.610  1.00  0.00    -0.000 C 
BRANCH  10  11
ATOM     11  C   UNL     1      31.846   2.332  39.025  1.00  0.00    -0.003 C 
ATOM     12  C   UNL     1      31.397   2.490  40.475  1.00  0.00     0.004 C 
ENDBRANCH  10  11
ENDBRANCH   9  10
ENDBRANCH   8   9
ENDBRANCH   7   8
ENDBRANCH   6   7
ENDBRANCH   5   6
ENDBRANCH   4   5
ENDBRANCH   3   4
ENDBRANCH   2   3
ENDBRANCH   1   2
BRANCH   1  13
ATOM     13  C   UNL     1      27.240  -0.705  42.903  1.00  0.00     0.000 C 
BRANCH  13  14
ATOM     14  C   UNL     1      26.234   0.408  43.253  1.00  0.00     0.000 C 
BRANCH  14  15
ATOM     15  C   UNL     1      25.596   1.116  42.042  1.00  0.00     0.000 C 
BRANCH  15  16
ATOM     16  C   UNL     1      24.064   1.258  42.099  1.00  0.00     0.000 C 
BRANCH  16  17
ATOM     17  C   UNL     1      23.505   2.397  41.222  1.00  0.00     0.000 C 
BRANCH  17  18
ATOM     18  C   UNL     1      22.330   1.943  40.342  1.00  0.00     0.000 C 
BRANCH  18  19
ATOM     19  C   UNL     1      21.728   0.631  40.862  1.00  0.00     0.000 C 
BRANCH  19  20
ATOM     20  C   UNL     1      20.207   0.757  41.040  1.00  0.00     0.006 C 
BRANCH  20  21
ATOM     21  C   UNL     1      19.757   2.219  41.169  1.00  0.00     0.053 C 
BRANCH  21  22
ATOM     22  C   UNL     1      18.508   2.487  40.385  1.00  0.00     0.041 C 
ATOM     23  O   UNL     1      17.445   1.870  40.658  1.00  0.00    -0.550 OA
ATOM     24  O   UNL     1      18.529   3.391  39.331  1.00  0.00    -0.550 OA
ENDBRANCH  21  22
ENDBRANCH  20  21
ENDBRANCH  19  20
ENDBRANCH  18  19
ENDBRANCH  17  18
ENDBRANCH  16  17
ENDBRANCH  15  16
ENDBRANCH  14  15
ENDBRANCH  13  14
ENDBRANCH   1  13
TORSDOF 20
ENDMDL
MODEL 4
REMARK VINA RESULT:    -1.000      3.146      9.350
REMARK INTER + INTRA:          -3.396
REMARK INTER:                  -2.204
REMARK INTRA:                  -1.192
REMARK UNBOUND:                -1.228
REMARK SMILES CCCCCCCCCCCCCCCCCCCCCC(=O)[O-]
REMARK SMILES IDX 12 1 11 2 10 3 9 4 8 5 7 6 6 7 5 8 4 9 3 10 2 11 1 12 13 13
REMARK SMILES IDX 14 14 15 15 16 16 17 17 18 18 19 19 20 20 21 21 22 22 23 23
REMARK SMILES IDX 24 24
REMARK H PARENT
REMARK Flexibility Score: inf
ROOT
ATOM      1  C   UNL     1      28.158  -0.096  43.704  1.00  0.00     0.000 C 
ENDROOT
BRANCH   1   2
ATOM      2  C   UNL     1      26.976  -0.280  42.728  1.00  0.00     0.000 C 
BRANCH   2   3
ATOM      3  C   UNL     1      25.807   0.669  43.035  1.00  0.00     0.000 C 
BRANCH   3   4
ATOM      4  C   UNL     1      25.002   0.983  41.768  1.00  0.00    -0.000 C 
BRANCH   4   5
ATOM      5  C   UNL     1      23.949   2.066  42.041  1.00  0.00    -0.000 C 
BRANCH   5   6
ATOM      6  C   UNL     1      23.517   2.819  40.771  1.00  0.00    -0.000 C 
BRANCH   6   7
ATOM      7  C   UNL     1      22.062   2.573  40.331  1.00  0.00    -0.000 C 
BRANCH   7   8
ATOM      8  C   UNL     1      21.655   1.094  40.405  1.00  0.00    -0.000 C 
BRANCH   8   9
ATOM      9  C   UNL     1      20.499   0.893  41.398  1.00  0.00    -0.000 C 
BRANCH   9  10
ATOM     10  C   UNL     1      19.450   2.013  41.321  1.00  0.00    -0.000 C 
BRANCH  10  11
ATOM     11  C   UNL     1      18.675   2.008  39.994  1.00  0.00    -0.003 C 
ATOM     12  C   UNL     1      18.526   3.423  39.441  1.00  0.00     0.004 C 
ENDBRANCH  10  11
ENDBRANCH   9  10
ENDBRANCH   8   9
ENDBRANCH   7   8
ENDBRANCH   6   7
ENDBRANCH   5   6
ENDBRANCH   4   5
ENDBRANCH   3   4
ENDBRANCH   2   3
ENDBRANCH   1   2
BRANCH   1  13
ATOM     13  C   UNL     1      28.819  -1.417  44.140  1.00  0.00     0.000 C 
BRANCH  13  14
ATOM     14  C   UNL     1      30.350  -1.468  43.976  1.00  0.00     0.000 C 
BRANCH  14  15
ATOM     15  C   UNL     1      30.916  -0.576  42.855  1.00  0.00     0.000 C 
BRANCH  15  16
ATOM     16  C   UNL     1      30.746  -1.129  41.429  1.00  0.00     0.000 C 
BRANCH  16  17
ATOM     17  C   UNL     1      31.789  -0.602  40.421  1.00  0.00     0.000 C 
BRANCH  17  18
ATOM     18  C   UNL     1      31.989   0.919  40.522  1.00  0.00     0.000 C 
BRANCH  18  19
ATOM     19  C   UNL     1      31.433   1.632  39.283  1.00  0.00     0.000 C 
BRANCH  19  20
ATOM     20  C   UNL     1      31.448   0.701  38.061  1.00  0.00     0.006 C 
BRANCH  20  21
ATOM     21  C   UNL     1      30.061   0.561  37.419  1.00  0.00     0.053 C 
BRANCH  21  22
ATOM     22  C   UNL     1      28.973   0.536  38.449  1.00  0.00     0.041 C 
ATOM     23  O   UNL     1      28.583  -0.559  38.933  1.00  0.00    -0.550 OA
ATOM     24  O   UNL     1      28.365   1.720  38.848  1.00  0.00    -0.550 OA
ENDBRANCH  21  22
ENDBRANCH  20  21
ENDBRANCH  19  20
ENDBRANCH  18  19
ENDBRANCH  17  18
ENDBRANCH  16  17
ENDBRANCH  15  16
ENDBRANCH  14  15
ENDBRANCH  13  14
ENDBRANCH   1  13
TORSDOF 20
ENDMDL
MODEL 5
REMARK VINA RESULT:    -0.921      1.264      3.289
REMARK INTER + INTRA:          -3.226
REMARK INTER:                  -2.686
REMARK INTRA:                  -0.541
REMARK UNBOUND:                -1.228
REMARK SMILES CCCCCCCCCCCCCCCCCCCCCC(=O)[O-]
REMARK SMILES IDX 12 1 11 2 10 3 9 4 8 5 7 6 6 7 5 8 4 9 3 10 2 11 1 12 13 13
REMARK SMILES IDX 14 14 15 15 16 16 17 17 18 18 19 19 20 20 21 21 22 22 23 23
REMARK SMILES IDX 24 24
REMARK H PARENT
REMARK Flexibility Score: inf
ROOT
ATOM      1  C   UNL     1      29.725  -0.611  44.286  1.00  0.00     0.000 C 
ENDROOT
BRANCH   1   2
ATOM      2  C   UNL     1      30.772  -0.993  43.217  1.00  0.00     0.000 C 
BRANCH   2   3
ATOM      3  C   UNL     1      30.589  -0.208  41.909  1.00  0.00     0.000 C 
BRANCH   3   4
ATOM      4  C   UNL     1      31.109  -1.007  40.707  1.00  0.00    -0.000 C 
BRANCH   4   5
ATOM      5  C   UNL     1      30.036  -1.119  39.615  1.00  0.00    -0.000 C 
BRANCH   5   6
ATOM      6  C   UNL     1      28.995   0.013  39.675  1.00  0.00    -0.000 C 
BRANCH   6   7
ATOM      7  C   UNL     1      29.029   0.992  38.488  1.00  0.00    -0.000 C 
BRANCH   7   8
ATOM      8  C   UNL     1      29.914   0.504  37.332  1.00  0.00    -0.000 C 
BRANCH   8   9
ATOM      9  C   UNL     1      31.397   0.518  37.732  1.00  0.00    -0.000 C 
BRANCH   9  10
ATOM     10  C   UNL     1      31.885   1.913  38.152  1.00  0.00    -0.000 C 
BRANCH  10  11
ATOM     11  C   UNL     1      32.125   2.025  39.666  1.00  0.00    -0.003 C 
ATOM     12  C   UNL     1      31.091   2.938  40.318  1.00  0.00     0.004 C 
ENDBRANCH  10  11
ENDBRANCH   9  10
ENDBRANCH   8   9
ENDBRANCH   7   8
ENDBRANCH   6   7
ENDBRANCH   5   6
ENDBRANCH   4   5
ENDBRANCH   3   4
ENDBRANCH   2   3
ENDBRANCH   1   2
BRANCH   1  13
ATOM     13  C   UNL     1      28.382  -1.350  44.135  1.00  0.00     0.000 C 
BRANCH  13  14
ATOM     14  C   UNL     1      27.880  -1.507  42.687  1.00  0.00     0.000 C 
BRANCH  14  15
ATOM     15  C   UNL     1      26.986  -0.361  42.178  1.00  0.00     0.000 C 
BRANCH  15  16
ATOM     16  C   UNL     1      26.020   0.229  43.222  1.00  0.00     0.000 C 
BRANCH  16  17
ATOM     17  C   UNL     1      25.261   1.482  42.737  1.00  0.00     0.000 C 
BRANCH  17  18
ATOM     18  C   UNL     1      24.022   1.133  41.898  1.00  0.00     0.000 C 
BRANCH  18  19
ATOM     19  C   UNL     1      23.405   2.393  41.276  1.00  0.00     0.000 C 
BRANCH  19  20
ATOM     20  C   UNL     1      22.233   2.030  40.352  1.00  0.00     0.006 C 
BRANCH  20  21
ATOM     21  C   UNL     1      21.644   0.650  40.673  1.00  0.00     0.053 C 
BRANCH  21  22
ATOM     22  C   UNL     1      20.427   0.753  41.541  1.00  0.00     0.041 C 
ATOM     23  O   UNL     1      19.650   1.737  41.428  1.00  0.00    -0.550 OA
ATOM     24  O   UNL     1      20.171  -0.219  42.500  1.00  0.00    -0.550 OA
ENDBRANCH  21  22
ENDBRANCH  20  21
ENDBRANCH  19  20
ENDBRANCH  18  19
ENDBRANCH  17  18
ENDBRANCH  16  17
ENDBRANCH  15  16
ENDBRANCH  14  15
ENDBRANCH  13  14
ENDBRANCH   1  13
TORSDOF 20
ENDMDL
MODEL 6
REMARK VINA RESULT:    -0.911      3.137     10.066
REMARK INTER + INTRA:          -3.204
REMARK INTER:                  -1.572
REMARK INTRA:                  -1.633
REMARK UNBOUND:                -1.228
REMARK SMILES CCCCCCCCCCCCCCCCCCCCCC(=O)[O-]
REMARK SMILES IDX 12 1 11 2 10 3 9 4 8 5 7 6 6 7 5 8 4 9 3 10 2 11 1 12 13 13
REMARK SMILES IDX 14 14 15 15 16 16 17 17 18 18 19 19 20 20 21 21 22 22 23 23
REMARK SMILES IDX 24 24
REMARK H PARENT
REMARK Flexibility Score: inf
ROOT
ATOM      1  C   UNL     1      25.530   0.918  41.828  1.00  0.00     0.000 C 
ENDROOT
BRANCH   1   2
ATOM      2  C   UNL     1      24.220   1.635  42.217  1.00  0.00     0.000 C 
BRANCH   2   3
ATOM      3  C   UNL     1      23.653   2.487  41.071  1.00  0.00     0.000 C 
BRANCH   3   4
ATOM      4  C   UNL     1      22.135   2.309  40.947  1.00  0.00    -0.000 C 
BRANCH   4   5
ATOM      5  C   UNL     1      21.791   1.210  39.932  1.00  0.00    -0.000 C 
BRANCH   5   6
ATOM      6  C   UNL     1      21.155  -0.032  40.580  1.00  0.00    -0.000 C 
BRANCH   6   7
ATOM      7  C   UNL     1      20.819   0.114  42.075  1.00  0.00    -0.000 C 
BRANCH   7   8
ATOM      8  C   UNL     1      19.409  -0.384  42.425  1.00  0.00    -0.000 C 
BRANCH   8   9
ATOM      9  C   UNL     1      18.517   0.777  42.891  1.00  0.00    -0.000 C 
BRANCH   9  10
ATOM     10  C   UNL     1      18.670   2.030  42.016  1.00  0.00    -0.000 C 
BRANCH  10  11
ATOM     11  C   UNL     1      17.859   1.945  40.713  1.00  0.00    -0.003 C 
ATOM     12  C   UNL     1      18.459   2.843  39.635  1.00  0.00     0.004 C 
ENDBRANCH  10  11
ENDBRANCH   9  10
ENDBRANCH   8   9
ENDBRANCH   7   8
ENDBRANCH   6   7
ENDBRANCH   5   6
ENDBRANCH   4   5
ENDBRANCH   3   4
ENDBRANCH   2   3
ENDBRANCH   1   2
BRANCH   1  13
ATOM     13  C   UNL     1      26.309   0.346  43.027  1.00  0.00     0.000 C 
BRANCH  13  14
ATOM     14  C   UNL     1      27.449  -0.625  42.665  1.00  0.00     0.000 C 
BRANCH  14  15
ATOM     15  C   UNL     1      28.345  -1.049  43.844  1.00  0.00     0.000 C 
BRANCH  15  16
ATOM     16  C   UNL     1      29.705  -0.331  43.924  1.00  0.00     0.000 C 
BRANCH  16  17
ATOM     17  C   UNL     1      30.823  -1.011  43.104  1.00  0.00     0.000 C 
BRANCH  17  18
ATOM     18  C   UNL     1      30.640  -0.825  41.590  1.00  0.00     0.000 C 
BRANCH  18  19
ATOM     19  C   UNL     1      31.995  -0.706  40.881  1.00  0.00     0.000 C 
BRANCH  19  20
ATOM     20  C   UNL     1      31.872   0.126  39.596  1.00  0.00     0.006 C 
BRANCH  20  21
ATOM     21  C   UNL     1      30.747   1.167  39.684  1.00  0.00     0.053 C 
BRANCH  21  22
ATOM     22  C   UNL     1      29.672   0.910  38.671  1.00  0.00     0.041 C 
ATOM     23  O   UNL     1      28.464   0.880  39.024  1.00  0.00    -0.550 OA
ATOM     24  O   UNL     1      30.009   0.669  37.345  1.00  0.00    -0.550 OA
ENDBRANCH  21  22
ENDBRANCH  20  21
ENDBRANCH  19  20
ENDBRANCH  18  19
ENDBRANCH  17  18
ENDBRANCH  16  17
ENDBRANCH  15  16
ENDBRANCH  14  15
ENDBRANCH  13  14
ENDBRANCH   1  13
TORSDOF 20
ENDMDL
MODEL 7
REMARK VINA RESULT:    -0.878      1.376      2.858
REMARK INTER + INTRA:          -3.132
REMARK INTER:                  -1.846
REMARK INTRA:                  -1.286
REMARK UNBOUND:                -1.228
REMARK SMILES CCCCCCCCCCCCCCCCCCCCCC(=O)[O-]
REMARK SMILES IDX 12 1 11 2 10 3 9 4 8 5 7 6 6 7 5 8 4 9 3 10 2 11 1 12 13 13
REMARK SMILES IDX 14 14 15 15 16 16 17 17 18 18 19 19 20 20 21 21 22 22 23 23
REMARK SMILES IDX 24 24
REMARK H PARENT
REMARK Flexibility Score: inf
ROOT
ATOM      1  C   UNL     1      29.775  -0.896  44.375  1.00  0.00     0.000 C 
ENDROOT
BRANCH   1   2
ATOM      2  C   UNL     1      30.343  -0.206  43.117  1.00  0.00     0.000 C 
BRANCH   2   3
ATOM      3  C   UNL     1      30.759  -1.212  42.033  1.00  0.00     0.000 C 
BRANCH   3   4
ATOM      4  C   UNL     1      31.698  -0.565  41.007  1.00  0.00    -0.000 C 
BRANCH   4   5
ATOM      5  C   UNL     1      31.558   0.964  41.022  1.00  0.00    -0.000 C 
BRANCH   5   6
ATOM      6  C   UNL     1      31.655   1.591  39.621  1.00  0.00    -0.000 C 
BRANCH   6   7
ATOM      7  C   UNL     1      31.586   0.591  38.453  1.00  0.00    -0.000 C 
BRANCH   7   8
ATOM      8  C   UNL     1      30.530   0.965  37.403  1.00  0.00    -0.000 C 
BRANCH   8   9
ATOM      9  C   UNL     1      29.119   0.602  37.889  1.00  0.00    -0.000 C 
BRANCH   9  10
ATOM     10  C   UNL     1      29.065  -0.768  38.584  1.00  0.00    -0.000 C 
BRANCH  10  11
ATOM     11  C   UNL     1      28.228  -0.747  39.872  1.00  0.00    -0.003 C 
ATOM     12  C   UNL     1      27.565  -2.099  40.117  1.00  0.00     0.004 C 
ENDBRANCH  10  11
ENDBRANCH   9  10
ENDBRANCH   8   9
ENDBRANCH   7   8
ENDBRANCH   6   7
ENDBRANCH   5   6
ENDBRANCH   4   5
ENDBRANCH   3   4
ENDBRANCH   2   3
ENDBRANCH   1   2
BRANCH   1  13
ATOM     13  C   UNL     1      28.333  -1.411  44.207  1.00  0.00     0.000 C 
BRANCH  13  14
ATOM     14  C   UNL     1      27.576  -0.853  42.987  1.00  0.00     0.000 C 
BRANCH  14  15
ATOM     15  C   UNL     1      26.859   0.490  43.222  1.00  0.00     0.000 C 
BRANCH  15  16
ATOM     16  C   UNL     1      25.324   0.441  43.103  1.00  0.00     0.000 C 
BRANCH  16  17
ATOM     17  C   UNL     1      24.733   1.512  42.161  1.00  0.00     0.000 C 
BRANCH  17  18
ATOM     18  C   UNL     1      23.259   1.246  41.819  1.00  0.00     0.000 C 
BRANCH  18  19
ATOM     19  C   UNL     1      22.773   2.184  40.706  1.00  0.00     0.000 C 
BRANCH  19  20
ATOM     20  C   UNL     1      21.426   1.711  40.139  1.00  0.00     0.006 C 
BRANCH  20  21
ATOM     21  C   UNL     1      20.475   1.217  41.237  1.00  0.00     0.053 C 
BRANCH  21  22
ATOM     22  C   UNL     1      19.137   1.888  41.157  1.00  0.00     0.041 C 
ATOM     23  O   UNL     1      18.359   1.871  42.147  1.00  0.00    -0.550 OA
ATOM     24  O   UNL     1      18.734   2.499  39.976  1.00  0.00    -0.550 OA
ENDBRANCH  21  22
ENDBRANCH  20  21
ENDBRANCH  19  20
ENDBRANCH  18  19
ENDBRANCH  17  18
ENDBRANCH  16  17
ENDBRANCH  15  16
ENDBRANCH  14  15
ENDBRANCH  13  14
ENDBRANCH   1  13
TORSDOF 20
ENDMDL
MODEL 8
REMARK VINA RESULT:    -0.836      1.780      2.428
REMARK INTER + INTRA:          -3.041
REMARK INTER:                  -1.460
REMARK INTRA:                  -1.581
REMARK UNBOUND:                -1.228
REMARK SMILES CCCCCCCCCCCCCCCCCCCCCC(=O)[O-]
REMARK SMILES IDX 12 1 11 2 10 3 9 4 8 5 7 6 6 7 5 8 4 9 3 10 2 11 1 12 13 13
REMARK SMILES IDX 14 14 15 15 16 16 17 17 18 18 19 19 20 20 21 21 22 22 23 23
REMARK SMILES IDX 24 24
REMARK H PARENT
REMARK Flexibility Score: inf
ROOT
ATOM      1  C   UNL     1      27.988  -1.774  42.359  1.00  0.00     0.000 C 
ENDROOT
BRANCH   1   2
ATOM      2  C   UNL     1      29.437  -1.998  42.841  1.00  0.00     0.000 C 
BRANCH   2   3
ATOM      3  C   UNL     1      30.051  -0.735  43.464  1.00  0.00     0.000 C 
BRANCH   3   4
ATOM      4  C   UNL     1      30.917   0.019  42.447  1.00  0.00    -0.000 C 
BRANCH   4   5
ATOM      5  C   UNL     1      31.611  -0.956  41.486  1.00  0.00    -0.000 C 
BRANCH   5   6
ATOM      6  C   UNL     1      32.099  -0.281  40.192  1.00  0.00    -0.000 C 
BRANCH   6   7
ATOM      7  C   UNL     1      32.116   1.257  40.227  1.00  0.00    -0.000 C 
BRANCH   7   8
ATOM      8  C   UNL     1      31.911   1.892  38.843  1.00  0.00    -0.000 C 
BRANCH   8   9
ATOM      9  C   UNL     1      31.549   0.825  37.799  1.00  0.00    -0.000 C 
BRANCH   9  10
ATOM     10  C   UNL     1      30.071   0.879  37.384  1.00  0.00    -0.000 C 
BRANCH  10  11
ATOM     11  C   UNL     1      29.117   0.875  38.588  1.00  0.00    -0.003 C 
ATOM     12  C   UNL     1      28.761  -0.550  39.001  1.00  0.00     0.004 C 
ENDBRANCH  10  11
ENDBRANCH   9  10
ENDBRANCH   8   9
ENDBRANCH   7   8
ENDBRANCH   6   7
ENDBRANCH   5   6
ENDBRANCH   4   5
ENDBRANCH   3   4
ENDBRANCH   2   3
ENDBRANCH   1   2
BRANCH   1  13
ATOM     13  C   UNL     1      27.569  -0.293  42.307  1.00  0.00     0.000 C 
BRANCH  13  14
ATOM     14  C   UNL     1      26.392   0.087  43.226  1.00  0.00     0.000 C 
BRANCH  14  15
ATOM     15  C   UNL     1      25.545   1.279  42.742  1.00  0.00     0.000 C 
BRANCH  15  16
ATOM     16  C   UNL     1      24.137   0.918  42.233  1.00  0.00     0.000 C 
BRANCH  16  17
ATOM     17  C   UNL     1      23.421   2.069  41.496  1.00  0.00     0.000 C 
BRANCH  17  18
ATOM     18  C   UNL     1      22.390   1.564  40.474  1.00  0.00     0.000 C 
BRANCH  18  19
ATOM     19  C   UNL     1      21.258   0.795  41.167  1.00  0.00     0.000 C 
BRANCH  19  20
ATOM     20  C   UNL     1      19.935   1.570  41.081  1.00  0.00     0.006 C 
BRANCH  20  21
ATOM     21  C   UNL     1      19.603   1.996  39.644  1.00  0.00     0.053 C 
BRANCH  21  22
ATOM     22  C   UNL     1      18.330   2.784  39.579  1.00  0.00     0.041 C 
ATOM     23  O   UNL     1      18.348   3.989  39.217  1.00  0.00    -0.550 OA
ATOM     24  O   UNL     1      17.128   2.196  39.952  1.00  0.00    -0.550 OA
ENDBRANCH  21  22
ENDBRANCH  20  21
ENDBRANCH  19  20
ENDBRANCH  18  19
ENDBRANCH  17  18
ENDBRANCH  16  17
ENDBRANCH  15  16
ENDBRANCH  14  15
ENDBRANCH  13  14
ENDBRANCH   1  13
TORSDOF 20
ENDMDL
MODEL 9
REMARK VINA RESULT:    -0.735      3.776      9.288
REMARK INTER + INTRA:          -2.822
REMARK INTER:                  -1.558
REMARK INTRA:                  -1.264
REMARK UNBOUND:                -1.228
REMARK SMILES CCCCCCCCCCCCCCCCCCCCCC(=O)[O-]
REMARK SMILES IDX 12 1 11 2 10 3 9 4 8 5 7 6 6 7 5 8 4 9 3 10 2 11 1 12 13 13
REMARK SMILES IDX 14 14 15 15 16 16 17 17 18 18 19 19 20 20 21 21 22 22 23 23
REMARK SMILES IDX 24 24
REMARK H PARENT
REMARK Flexibility Score: inf
ROOT
ATOM      1  C   UNL     1      28.656   0.960  38.485  1.00  0.00     0.000 C 
ENDROOT
BRANCH   1   2
ATOM      2  C   UNL     1      28.096   2.388  38.651  1.00  0.00     0.000 C 
BRANCH   2   3
ATOM      3  C   UNL     1      26.571   2.404  38.834  1.00  0.00     0.000 C 
BRANCH   3   4
ATOM      4  C   UNL     1      26.028   3.839  38.834  1.00  0.00    -0.000 C 
BRANCH   4   5
ATOM      5  C   UNL     1      24.536   3.862  39.195  1.00  0.00    -0.000 C 
BRANCH   5   6
ATOM      6  C   UNL     1      24.182   2.913  40.353  1.00  0.00    -0.000 C 
BRANCH   6   7
ATOM      7  C   UNL     1      22.676   2.761  40.633  1.00  0.00    -0.000 C 
BRANCH   7   8
ATOM      8  C   UNL     1      22.069   1.506  39.989  1.00  0.00    -0.000 C 
BRANCH   8   9
ATOM      9  C   UNL     1      20.911   0.958  40.838  1.00  0.00    -0.000 C 
BRANCH   9  10
ATOM     10  C   UNL     1      20.155   2.063  41.592  1.00  0.00    -0.000 C 
BRANCH  10  11
ATOM     11  C   UNL     1      18.669   2.130  41.209  1.00  0.00    -0.003 C 
ATOM     12  C   UNL     1      18.498   2.452  39.727  1.00  0.00     0.004 C 
ENDBRANCH  10  11
ENDBRANCH   9  10
ENDBRANCH   8   9
ENDBRANCH   7   8
ENDBRANCH   6   7
ENDBRANCH   5   6
ENDBRANCH   4   5
ENDBRANCH   3   4
ENDBRANCH   2   3
ENDBRANCH   1   2
BRANCH   1  13
ATOM     13  C   UNL     1      30.085   0.912  37.910  1.00  0.00     0.000 C 
BRANCH  13  14
ATOM     14  C   UNL     1      31.193   1.379  38.872  1.00  0.00     0.000 C 
BRANCH  14  15
ATOM     15  C   UNL     1      30.941   1.068  40.359  1.00  0.00     0.000 C 
BRANCH  15  16
ATOM     16  C   UNL     1      31.246  -0.380  40.785  1.00  0.00     0.000 C 
BRANCH  16  17
ATOM     17  C   UNL     1      30.056  -1.349  40.616  1.00  0.00     0.000 C 
BRANCH  17  18
ATOM     18  C   UNL     1      28.777  -0.836  41.297  1.00  0.00     0.000 C 
BRANCH  18  19
ATOM     19  C   UNL     1      28.322  -1.791  42.407  1.00  0.00     0.000 C 
BRANCH  19  20
ATOM     20  C   UNL     1      28.260  -1.068  43.761  1.00  0.00     0.006 C 
BRANCH  20  21
ATOM     21  C   UNL     1      28.864  -1.907  44.896  1.00  0.00     0.053 C 
BRANCH  21  22
ATOM     22  C   UNL     1      30.185  -1.362  45.348  1.00  0.00     0.041 C 
ATOM     23  O   UNL     1      30.577  -1.551  46.529  1.00  0.00    -0.550 OA
ATOM     24  O   UNL     1      30.965  -0.616  44.474  1.00  0.00    -0.550 OA
ENDBRANCH  21  22
ENDBRANCH  20  21
ENDBRANCH  19  20
ENDBRANCH  18  19
ENDBRANCH  17  18
ENDBRANCH  16  17
ENDBRANCH  15  16
ENDBRANCH  14  15
ENDBRANCH  13  14
ENDBRANCH   1  13
TORSDOF 20
ENDMDL
