MODEL 1
REMARK VINA RESULT:    -3.489      0.000      0.000
REMARK INTER + INTRA:         -10.621
REMARK INTER:                  -9.200
REMARK INTRA:                  -1.421
REMARK UNBOUND:                -1.421
REMARK SMILES CCCCCCCCCCCCCCCCCCCCCCCCCCCCCC(=O)[O-]
REMARK SMILES IDX 16 1 17 2 18 3 19 4 20 5 21 6 22 7 23 8 24 9 25 10 26 11
REMARK SMILES IDX 27 12 28 13 29 14 30 15 31 16 32 17 15 18 14 19 13 20 12 21
REMARK SMILES IDX 11 22 10 23 9 24 8 25 7 26 6 27 5 28 4 29 3 30 2 31 1 32
REMARK H PARENT
REMARK Flexibility Score: inf
ROOT
ATOM      1  C   UNL     1      14.553  10.761  -2.718  1.00  0.00     0.000 C 
ENDROOT
BRANCH   1   2
ATOM      2  C   UNL     1      15.322  12.033  -3.125  1.00  0.00     0.000 C 
BRANCH   2   3
ATOM      3  C   UNL     1      14.547  13.351  -2.950  1.00  0.00     0.000 C 
BRANCH   3   4
ATOM      4  C   UNL     1      15.417  14.485  -2.381  1.00  0.00     0.000 C 
BRANCH   4   5
ATOM      5  C   UNL     1      14.990  15.869  -2.902  1.00  0.00     0.000 C 
BRANCH   5   6
ATOM      6  C   UNL     1      14.061  16.605  -1.921  1.00  0.00     0.000 C 
BRANCH   6   7
ATOM      7  C   UNL     1      14.061  15.973  -0.520  1.00  0.00     0.000 C 
BRANCH   7   8
ATOM      8  C   UNL     1      13.572  16.942   0.571  1.00  0.00     0.000 C 
BRANCH   8   9
ATOM      9  C   UNL     1      12.488  17.906   0.065  1.00  0.00     0.000 C 
BRANCH   9  10
ATOM     10  C   UNL     1      11.112  17.635   0.692  1.00  0.00     0.000 C 
BRANCH  10  11
ATOM     11  C   UNL     1      10.000  17.712  -0.363  1.00  0.00     0.000 C 
BRANCH  11  12
ATOM     12  C   UNL     1      10.370  16.898  -1.614  1.00  0.00     0.000 C 
BRANCH  12  13
ATOM     13  C   UNL     1      10.120  15.393  -1.440  1.00  0.00     0.006 C 
BRANCH  13  14
ATOM     14  C   UNL     1       8.745  15.083  -0.832  1.00  0.00     0.053 C 
BRANCH  14  15
ATOM     15  C   UNL     1       8.603  13.616  -0.564  1.00  0.00     0.041 C 
ATOM     16  O   UNL     1       7.459  13.103  -0.432  1.00  0.00    -0.550 OA
ATOM     17  O   UNL     1       9.733  12.816  -0.442  1.00  0.00    -0.550 OA
ENDBRANCH  14  15
ENDBRANCH  13  14
ENDBRANCH  12  13
ENDBRANCH  11  12
ENDBRANCH  10  11
ENDBRANCH   9  10
ENDBRANCH   8   9
ENDBRANCH   7   8
ENDBRANCH   6   7
ENDBRANCH   5   6
ENDBRANCH   4   5
ENDBRANCH   3   4
ENDBRANCH   2   3
ENDBRANCH   1   2
BRANCH   1  18
ATOM     18  C   UNL     1      13.042  10.807  -3.043  1.00  0.00     0.000 C 
BRANCH  18  19
ATOM     19  C   UNL     1      12.117  10.704  -1.813  1.00  0.00     0.000 C 
BRANCH  19  20
ATOM     20  C   UNL     1      11.470   9.323  -1.580  1.00  0.00     0.000 C 
BRANCH  20  21
ATOM     21  C   UNL     1      11.519   8.358  -2.778  1.00  0.00     0.000 C 
BRANCH  21  22
ATOM     22  C   UNL     1      10.389   7.315  -2.751  1.00  0.00     0.000 C 
BRANCH  22  23
ATOM     23  C   UNL     1       9.921   6.993  -1.324  1.00  0.00     0.000 C 
BRANCH  23  24
ATOM     24  C   UNL     1      11.042   6.391  -0.459  1.00  0.00    -0.000 C 
BRANCH  24  25
ATOM     25  C   UNL     1      11.274   4.900  -0.746  1.00  0.00    -0.000 C 
BRANCH  25  26
ATOM     26  C   UNL     1      11.253   4.578  -2.250  1.00  0.00    -0.000 C 
BRANCH  26  27
ATOM     27  C   UNL     1      12.268   3.490  -2.644  1.00  0.00    -0.000 C 
BRANCH  27  28
ATOM     28  C   UNL     1      13.741   3.861  -2.400  1.00  0.00    -0.000 C 
BRANCH  28  29
ATOM     29  C   UNL     1      14.335   3.166  -1.163  1.00  0.00    -0.000 C 
BRANCH  29  30
ATOM     30  C   UNL     1      15.870   3.113  -1.198  1.00  0.00    -0.000 C 
BRANCH  30  31
ATOM     31  C   UNL     1      16.405   1.728  -1.593  1.00  0.00    -0.003 C 
ATOM     32  C   UNL     1      15.538   1.090  -2.675  1.00  0.00     0.004 C 
ENDBRANCH  30  31
ENDBRANCH  29  30
ENDBRANCH  28  29
ENDBRANCH  27  28
ENDBRANCH  26  27
ENDBRANCH  25  26
ENDBRANCH  24  25
ENDBRANCH  23  24
ENDBRANCH  22  23
ENDBRANCH  21  22
ENDBRANCH  20  21
ENDBRANCH  19  20
ENDBRANCH  18  19
ENDBRANCH   1  18
TORSDOF 28
ENDMDL
MODEL 2
REMARK VINA RESULT:    -3.488      4.535     12.575
REMARK INTER + INTRA:         -10.619
REMARK INTER:                  -8.920
REMARK INTRA:                  -1.699
REMARK UNBOUND:                -1.421
REMARK SMILES CCCCCCCCCCCCCCCCCCCCCCCCCCCCCC(=O)[O-]
REMARK SMILES IDX 16 1 17 2 18 3 19 4 20 5 21 6 22 7 23 8 24 9 25 10 26 11
REMARK SMILES IDX 27 12 28 13 29 14 30 15 31 16 32 17 15 18 14 19 13 20 12 21
REMARK SMILES IDX 11 22 10 23 9 24 8 25 7 26 6 27 5 28 4 29 3 30 2 31 1 32
REMARK H PARENT
REMARK Flexibility Score: inf
ROOT
ATOM      1  C   UNL     1      11.970  10.006  -1.281  1.00  0.00     0.000 C 
ENDROOT
BRANCH   1   2
ATOM      2  C   UNL     1      11.351   8.836  -2.069  1.00  0.00     0.000 C 
BRANCH   2   3
ATOM      3  C   UNL     1      11.717   7.433  -1.554  1.00  0.00     0.000 C 
BRANCH   3   4
ATOM      4  C   UNL     1      10.483   6.583  -1.202  1.00  0.00     0.000 C 
BRANCH   4   5
ATOM      5  C   UNL     1      10.670   5.099  -1.562  1.00  0.00     0.000 C 
BRANCH   5   6
ATOM      6  C   UNL     1      12.153   4.708  -1.690  1.00  0.00     0.000 C 
BRANCH   6   7
ATOM      7  C   UNL     1      12.429   3.834  -2.923  1.00  0.00     0.000 C 
BRANCH   7   8
ATOM      8  C   UNL     1      13.574   2.831  -2.699  1.00  0.00     0.000 C 
BRANCH   8   9
ATOM      9  C   UNL     1      14.661   3.373  -1.757  1.00  0.00     0.000 C 
BRANCH   9  10
ATOM     10  C   UNL     1      15.765   2.343  -1.471  1.00  0.00     0.000 C 
BRANCH  10  11
ATOM     11  C   UNL     1      16.632   2.105  -2.714  1.00  0.00     0.000 C 
BRANCH  11  12
ATOM     12  C   UNL     1      17.732   1.070  -2.429  1.00  0.00     0.000 C 
BRANCH  12  13
ATOM     13  C   UNL     1      19.060   1.404  -3.125  1.00  0.00     0.006 C 
BRANCH  13  14
ATOM     14  C   UNL     1      20.156   0.365  -2.851  1.00  0.00     0.053 C 
BRANCH  14  15
ATOM     15  C   UNL     1      21.335   1.002  -2.182  1.00  0.00     0.041 C 
ATOM     16  O   UNL     1      21.241   2.164  -1.702  1.00  0.00    -0.550 OA
ATOM     17  O   UNL     1      22.544   0.323  -2.103  1.00  0.00    -0.550 OA
ENDBRANCH  14  15
ENDBRANCH  13  14
ENDBRANCH  12  13
ENDBRANCH  11  12
ENDBRANCH  10  11
ENDBRANCH   9  10
ENDBRANCH   8   9
ENDBRANCH   7   8
ENDBRANCH   6   7
ENDBRANCH   5   6
ENDBRANCH   4   5
ENDBRANCH   3   4
ENDBRANCH   2   3
ENDBRANCH   1   2
BRANCH   1  18
ATOM     18  C   UNL     1      11.934  11.358  -2.028  1.00  0.00     0.000 C 
BRANCH  18  19
ATOM     19  C   UNL     1      10.833  11.470  -3.103  1.00  0.00     0.000 C 
BRANCH  19  20
ATOM     20  C   UNL     1       9.823  12.619  -2.905  1.00  0.00     0.000 C 
BRANCH  20  21
ATOM     21  C   UNL     1       8.718  12.358  -1.866  1.00  0.00     0.000 C 
BRANCH  21  22
ATOM     22  C   UNL     1       8.917  13.157  -0.568  1.00  0.00     0.000 C 
BRANCH  22  23
ATOM     23  C   UNL     1       8.894  14.675  -0.803  1.00  0.00     0.000 C 
BRANCH  23  24
ATOM     24  C   UNL     1      10.255  15.217  -1.275  1.00  0.00    -0.000 C 
BRANCH  24  25
ATOM     25  C   UNL     1      10.134  16.571  -1.992  1.00  0.00    -0.000 C 
BRANCH  25  26
ATOM     26  C   UNL     1      11.023  17.655  -1.358  1.00  0.00    -0.000 C 
BRANCH  26  27
ATOM     27  C   UNL     1      11.460  17.306   0.076  1.00  0.00    -0.000 C 
BRANCH  27  28
ATOM     28  C   UNL     1      12.918  16.831   0.209  1.00  0.00    -0.000 C 
BRANCH  28  29
ATOM     29  C   UNL     1      13.640  16.730  -1.146  1.00  0.00    -0.000 C 
BRANCH  29  30
ATOM     30  C   UNL     1      14.600  15.533  -1.213  1.00  0.00    -0.000 C 
BRANCH  30  31
ATOM     31  C   UNL     1      14.489  14.759  -2.535  1.00  0.00    -0.003 C 
ATOM     32  C   UNL     1      15.086  13.359  -2.407  1.00  0.00     0.004 C 
ENDBRANCH  30  31
ENDBRANCH  29  30
ENDBRANCH  28  29
ENDBRANCH  27  28
ENDBRANCH  26  27
ENDBRANCH  25  26
ENDBRANCH  24  25
ENDBRANCH  23  24
ENDBRANCH  22  23
ENDBRANCH  21  22
ENDBRANCH  20  21
ENDBRANCH  19  20
ENDBRANCH  18  19
ENDBRANCH   1  18
TORSDOF 28
ENDMDL
MODEL 3
REMARK VINA RESULT:    -3.360      3.683     11.478
REMARK INTER + INTRA:         -10.281
REMARK INTER:                  -7.747
REMARK INTRA:                  -2.534
REMARK UNBOUND:                -1.421
REMARK SMILES CCCCCCCCCCCCCCCCCCCCCCCCCCCCCC(=O)[O-]
REMARK SMILES IDX 16 1 17 2 18 3 19 4 20 5 21 6 22 7 23 8 24 9 25 10 26 11
REMARK SMILES IDX 27 12 28 13 29 14 30 15 31 16 32 17 15 18 14 19 13 20 12 21
REMARK SMILES IDX 11 22 10 23 9 24 8 25 7 26 6 27 5 28 4 29 3 30 2 31 1 32
REMARK H PARENT
REMARK Flexibility Score: inf
ROOT
ATOM      1  C   UNL     1      11.756  10.380  -1.245  1.00  0.00     0.000 C 
ENDROOT
BRANCH   1   2
ATOM      2  C   UNL     1      11.660   9.427  -2.451  1.00  0.00     0.000 C 
BRANCH   2   3
ATOM      3  C   UNL     1      10.250   8.885  -2.747  1.00  0.00     0.000 C 
BRANCH   3   4
ATOM      4  C   UNL     1       9.219   9.280  -1.676  1.00  0.00     0.000 C 
BRANCH   4   5
ATOM      5  C   UNL     1       7.972   8.380  -1.703  1.00  0.00     0.000 C 
BRANCH   5   6
ATOM      6  C   UNL     1       8.099   7.228  -2.716  1.00  0.00     0.000 C 
BRANCH   6   7
ATOM      7  C   UNL     1       8.692   5.955  -2.091  1.00  0.00     0.000 C 
BRANCH   7   8
ATOM      8  C   UNL     1       8.876   4.820  -3.113  1.00  0.00     0.000 C 
BRANCH   8   9
ATOM      9  C   UNL     1      10.274   4.185  -3.050  1.00  0.00     0.000 C 
BRANCH   9  10
ATOM     10  C   UNL     1      11.361   5.185  -2.626  1.00  0.00     0.000 C 
BRANCH  10  11
ATOM     11  C   UNL     1      12.474   4.487  -1.834  1.00  0.00     0.000 C 
BRANCH  11  12
ATOM     12  C   UNL     1      13.539   3.904  -2.776  1.00  0.00     0.000 C 
BRANCH  12  13
ATOM     13  C   UNL     1      14.584   3.052  -2.040  1.00  0.00     0.006 C 
BRANCH  13  14
ATOM     14  C   UNL     1      15.394   2.154  -2.985  1.00  0.00     0.053 C 
BRANCH  14  15
ATOM     15  C   UNL     1      16.729   1.826  -2.389  1.00  0.00     0.041 C 
ATOM     16  O   UNL     1      17.039   2.262  -1.248  1.00  0.00    -0.550 OA
ATOM     17  O   UNL     1      17.639   1.052  -3.099  1.00  0.00    -0.550 OA
ENDBRANCH  14  15
ENDBRANCH  13  14
ENDBRANCH  12  13
ENDBRANCH  11  12
ENDBRANCH  10  11
ENDBRANCH   9  10
ENDBRANCH   8   9
ENDBRANCH   7   8
ENDBRANCH   6   7
ENDBRANCH   5   6
ENDBRANCH   4   5
ENDBRANCH   3   4
ENDBRANCH   2   3
ENDBRANCH   1   2
BRANCH   1  18
ATOM     18  C   UNL     1      11.888  11.871  -1.629  1.00  0.00     0.000 C 
BRANCH  18  19
ATOM     19  C   UNL     1      10.571  12.542  -2.071  1.00  0.00     0.000 C 
BRANCH  19  20
ATOM     20  C   UNL     1      10.282  13.920  -1.440  1.00  0.00     0.000 C 
BRANCH  20  21
ATOM     21  C   UNL     1       8.837  14.136  -0.957  1.00  0.00     0.000 C 
BRANCH  21  22
ATOM     22  C   UNL     1       8.271  15.508  -1.359  1.00  0.00     0.000 C 
BRANCH  22  23
ATOM     23  C   UNL     1       7.742  16.301  -0.155  1.00  0.00     0.000 C 
BRANCH  23  24
ATOM     24  C   UNL     1       8.654  17.484   0.218  1.00  0.00    -0.000 C 
BRANCH  24  25
ATOM     25  C   UNL     1       9.320  18.125  -1.009  1.00  0.00    -0.000 C 
BRANCH  25  26
ATOM     26  C   UNL     1      10.798  17.722  -1.156  1.00  0.00    -0.000 C 
BRANCH  26  27
ATOM     27  C   UNL     1      11.394  17.151   0.144  1.00  0.00    -0.000 C 
BRANCH  27  28
ATOM     28  C   UNL     1      12.668  16.309  -0.044  1.00  0.00    -0.000 C 
BRANCH  28  29
ATOM     29  C   UNL     1      13.822  17.105  -0.678  1.00  0.00    -0.000 C 
BRANCH  29  30
ATOM     30  C   UNL     1      14.752  16.222  -1.524  1.00  0.00    -0.000 C 
BRANCH  30  31
ATOM     31  C   UNL     1      14.380  14.733  -1.452  1.00  0.00    -0.003 C 
ATOM     32  C   UNL     1      15.068  13.938  -2.559  1.00  0.00     0.004 C 
ENDBRANCH  30  31
ENDBRANCH  29  30
ENDBRANCH  28  29
ENDBRANCH  27  28
ENDBRANCH  26  27
ENDBRANCH  25  26
ENDBRANCH  24  25
ENDBRANCH  23  24
ENDBRANCH  22  23
ENDBRANCH  21  22
ENDBRANCH  20  21
ENDBRANCH  19  20
ENDBRANCH  18  19
ENDBRANCH   1  18
TORSDOF 28
ENDMDL
MODEL 4
REMARK VINA RESULT:    -3.264      3.628     10.918
REMARK INTER + INTRA:         -10.029
REMARK INTER:                  -7.395
REMARK INTRA:                  -2.634
REMARK UNBOUND:                -1.421
REMARK SMILES CCCCCCCCCCCCCCCCCCCCCCCCCCCCCC(=O)[O-]
REMARK SMILES IDX 16 1 17 2 18 3 19 4 20 5 21 6 22 7 23 8 24 9 25 10 26 11
REMARK SMILES IDX 27 12 28 13 29 14 30 15 31 16 32 17 15 18 14 19 13 20 12 21
REMARK SMILES IDX 11 22 10 23 9 24 8 25 7 26 6 27 5 28 4 29 3 30 2 31 1 32
REMARK H PARENT
REMARK Flexibility Score: inf
ROOT
ATOM      1  C   UNL     1      14.729  10.881  -2.081  1.00  0.00     0.000 C 
ENDROOT
BRANCH   1   2
ATOM      2  C   UNL     1      14.477   9.475  -2.656  1.00  0.00     0.000 C 
BRANCH   2   3
ATOM      3  C   UNL     1      12.999   9.056  -2.739  1.00  0.00     0.000 C 
BRANCH   3   4
ATOM      4  C   UNL     1      12.135   9.683  -1.630  1.00  0.00     0.000 C 
BRANCH   4   5
ATOM      5  C   UNL     1      10.648   9.755  -2.015  1.00  0.00     0.000 C 
BRANCH   5   6
ATOM      6  C   UNL     1      10.158   8.473  -2.712  1.00  0.00     0.000 C 
BRANCH   6   7
ATOM      7  C   UNL     1       8.752   8.054  -2.255  1.00  0.00     0.000 C 
BRANCH   7   8
ATOM      8  C   UNL     1       8.642   6.545  -1.972  1.00  0.00     0.000 C 
BRANCH   8   9
ATOM      9  C   UNL     1       9.583   5.707  -2.851  1.00  0.00     0.000 C 
BRANCH   9  10
ATOM     10  C   UNL     1      10.618   4.921  -2.032  1.00  0.00     0.000 C 
BRANCH  10  11
ATOM     11  C   UNL     1      11.323   3.869  -2.899  1.00  0.00     0.000 C 
BRANCH  11  12
ATOM     12  C   UNL     1      12.827   4.166  -3.012  1.00  0.00     0.000 C 
BRANCH  12  13
ATOM     13  C   UNL     1      13.702   2.953  -2.665  1.00  0.00     0.006 C 
BRANCH  13  14
ATOM     14  C   UNL     1      14.824   3.291  -1.673  1.00  0.00     0.053 C 
BRANCH  14  15
ATOM     15  C   UNL     1      15.800   2.160  -1.572  1.00  0.00     0.041 C 
ATOM     16  O   UNL     1      17.035   2.374  -1.703  1.00  0.00    -0.550 OA
ATOM     17  O   UNL     1      15.348   0.865  -1.349  1.00  0.00    -0.550 OA
ENDBRANCH  14  15
ENDBRANCH  13  14
ENDBRANCH  12  13
ENDBRANCH  11  12
ENDBRANCH  10  11
ENDBRANCH   9  10
ENDBRANCH   8   9
ENDBRANCH   7   8
ENDBRANCH   6   7
ENDBRANCH   5   6
ENDBRANCH   4   5
ENDBRANCH   3   4
ENDBRANCH   2   3
ENDBRANCH   1   2
BRANCH   1  18
ATOM     18  C   UNL     1      14.608  12.019  -3.121  1.00  0.00     0.000 C 
BRANCH  18  19
ATOM     19  C   UNL     1      13.314  12.851  -3.017  1.00  0.00     0.000 C 
BRANCH  19  20
ATOM     20  C   UNL     1      13.183  13.723  -1.751  1.00  0.00     0.000 C 
BRANCH  20  21
ATOM     21  C   UNL     1      13.911  15.078  -1.803  1.00  0.00     0.000 C 
BRANCH  21  22
ATOM     22  C   UNL     1      13.809  15.861  -0.484  1.00  0.00     0.000 C 
BRANCH  22  23
ATOM     23  C   UNL     1      12.755  16.977  -0.543  1.00  0.00     0.000 C 
BRANCH  23  24
ATOM     24  C   UNL     1      11.335  16.433  -0.782  1.00  0.00    -0.000 C 
BRANCH  24  25
ATOM     25  C   UNL     1      10.337  17.536  -1.164  1.00  0.00    -0.000 C 
BRANCH  25  26
ATOM     26  C   UNL     1       8.876  17.122  -0.913  1.00  0.00    -0.000 C 
BRANCH  26  27
ATOM     27  C   UNL     1       8.207  16.508  -2.156  1.00  0.00    -0.000 C 
BRANCH  27  28
ATOM     28  C   UNL     1       7.248  15.341  -1.862  1.00  0.00    -0.000 C 
BRANCH  28  29
ATOM     29  C   UNL     1       7.515  14.676  -0.500  1.00  0.00    -0.000 C 
BRANCH  29  30
ATOM     30  C   UNL     1       8.079  13.254  -0.640  1.00  0.00    -0.000 C 
BRANCH  30  31
ATOM     31  C   UNL     1       9.501  13.236  -1.222  1.00  0.00    -0.003 C 
ATOM     32  C   UNL     1      10.512  12.739  -0.192  1.00  0.00     0.004 C 
ENDBRANCH  30  31
ENDBRANCH  29  30
ENDBRANCH  28  29
ENDBRANCH  27  28
ENDBRANCH  26  27
ENDBRANCH  25  26
ENDBRANCH  24  25
ENDBRANCH  23  24
ENDBRANCH  22  23
ENDBRANCH  21  22
ENDBRANCH  20  21
ENDBRANCH  19  20
ENDBRANCH  18  19
ENDBRANCH   1  18
TORSDOF 28
ENDMDL
MODEL 5
REMARK VINA RESULT:    -3.249      2.417      4.546
REMARK INTER + INTRA:          -9.988
REMARK INTER:                  -7.916
REMARK INTRA:                  -2.072
REMARK UNBOUND:                -1.421
REMARK SMILES CCCCCCCCCCCCCCCCCCCCCCCCCCCCCC(=O)[O-]
REMARK SMILES IDX 16 1 17 2 18 3 19 4 20 5 21 6 22 7 23 8 24 9 25 10 26 11
REMARK SMILES IDX 27 12 28 13 29 14 30 15 31 16 32 17 15 18 14 19 13 20 12 21
REMARK SMILES IDX 11 22 10 23 9 24 8 25 7 26 6 27 5 28 4 29 3 30 2 31 1 32
REMARK H PARENT
REMARK Flexibility Score: inf
ROOT
ATOM      1  C   UNL     1      11.198  10.551  -2.829  1.00  0.00     0.000 C 
ENDROOT
BRANCH   1   2
ATOM      2  C   UNL     1      11.754  10.987  -1.460  1.00  0.00     0.000 C 
BRANCH   2   3
ATOM      3  C   UNL     1      11.622  12.488  -1.147  1.00  0.00     0.000 C 
BRANCH   3   4
ATOM      4  C   UNL     1      10.354  12.823  -0.343  1.00  0.00     0.000 C 
BRANCH   4   5
ATOM      5  C   UNL     1       9.511  13.924  -1.010  1.00  0.00     0.000 C 
BRANCH   5   6
ATOM      6  C   UNL     1      10.254  14.615  -2.167  1.00  0.00     0.000 C 
BRANCH   6   7
ATOM      7  C   UNL     1       9.926  16.113  -2.267  1.00  0.00     0.000 C 
BRANCH   7   8
ATOM      8  C   UNL     1      11.028  17.004  -1.667  1.00  0.00     0.000 C 
BRANCH   8   9
ATOM      9  C   UNL     1      11.521  16.501  -0.302  1.00  0.00     0.000 C 
BRANCH   9  10
ATOM     10  C   UNL     1      13.052  16.408  -0.220  1.00  0.00     0.000 C 
BRANCH  10  11
ATOM     11  C   UNL     1      13.699  16.788  -1.558  1.00  0.00     0.000 C 
BRANCH  11  12
ATOM     12  C   UNL     1      14.780  15.770  -1.957  1.00  0.00     0.000 C 
BRANCH  12  13
ATOM     13  C   UNL     1      14.294  14.769  -3.016  1.00  0.00     0.006 C 
BRANCH  13  14
ATOM     14  C   UNL     1      14.329  13.316  -2.522  1.00  0.00     0.053 C 
BRANCH  14  15
ATOM     15  C   UNL     1      15.656  12.688  -2.818  1.00  0.00     0.041 C 
ATOM     16  O   UNL     1      16.702  13.390  -2.826  1.00  0.00    -0.550 OA
ATOM     17  O   UNL     1      15.738  11.330  -3.102  1.00  0.00    -0.550 OA
ENDBRANCH  14  15
ENDBRANCH  13  14
ENDBRANCH  12  13
ENDBRANCH  11  12
ENDBRANCH  10  11
ENDBRANCH   9  10
ENDBRANCH   8   9
ENDBRANCH   7   8
ENDBRANCH   6   7
ENDBRANCH   5   6
ENDBRANCH   4   5
ENDBRANCH   3   4
ENDBRANCH   2   3
ENDBRANCH   1   2
BRANCH   1  18
ATOM     18  C   UNL     1      11.364   9.043  -3.125  1.00  0.00     0.000 C 
BRANCH  18  19
ATOM     19  C   UNL     1      11.693   8.177  -1.892  1.00  0.00     0.000 C 
BRANCH  19  20
ATOM     20  C   UNL     1      10.510   7.382  -1.302  1.00  0.00     0.000 C 
BRANCH  20  21
ATOM     21  C   UNL     1      10.893   6.144  -0.471  1.00  0.00     0.000 C 
BRANCH  21  22
ATOM     22  C   UNL     1      12.383   5.783  -0.590  1.00  0.00     0.000 C 
BRANCH  22  23
ATOM     23  C   UNL     1      12.610   4.272  -0.745  1.00  0.00     0.000 C 
BRANCH  23  24
ATOM     24  C   UNL     1      12.349   3.782  -2.180  1.00  0.00    -0.000 C 
BRANCH  24  25
ATOM     25  C   UNL     1      13.635   3.685  -3.015  1.00  0.00    -0.000 C 
BRANCH  25  26
ATOM     26  C   UNL     1      14.279   2.289  -2.945  1.00  0.00    -0.000 C 
BRANCH  26  27
ATOM     27  C   UNL     1      15.631   2.290  -2.208  1.00  0.00    -0.000 C 
BRANCH  27  28
ATOM     28  C   UNL     1      16.348   0.929  -2.173  1.00  0.00    -0.000 C 
BRANCH  28  29
ATOM     29  C   UNL     1      17.590   0.884  -3.081  1.00  0.00    -0.000 C 
BRANCH  29  30
ATOM     30  C   UNL     1      18.880   1.253  -2.334  1.00  0.00    -0.000 C 
BRANCH  30  31
ATOM     31  C   UNL     1      20.092   0.437  -2.809  1.00  0.00    -0.003 C 
ATOM     32  C   UNL     1      21.343   0.790  -2.009  1.00  0.00     0.004 C 
ENDBRANCH  30  31
ENDBRANCH  29  30
ENDBRANCH  28  29
ENDBRANCH  27  28
ENDBRANCH  26  27
ENDBRANCH  25  26
ENDBRANCH  24  25
ENDBRANCH  23  24
ENDBRANCH  22  23
ENDBRANCH  21  22
ENDBRANCH  20  21
ENDBRANCH  19  20
ENDBRANCH  18  19
ENDBRANCH   1  18
TORSDOF 28
ENDMDL
MODEL 6
REMARK VINA RESULT:    -3.151      4.844     12.627
REMARK INTER + INTRA:          -9.731
REMARK INTER:                  -8.116
REMARK INTRA:                  -1.615
REMARK UNBOUND:                -1.421
REMARK SMILES CCCCCCCCCCCCCCCCCCCCCCCCCCCCCC(=O)[O-]
REMARK SMILES IDX 16 1 17 2 18 3 19 4 20 5 21 6 22 7 23 8 24 9 25 10 26 11
REMARK SMILES IDX 27 12 28 13 29 14 30 15 31 16 32 17 15 18 14 19 13 20 12 21
REMARK SMILES IDX 11 22 10 23 9 24 8 25 7 26 6 27 5 28 4 29 3 30 2 31 1 32
REMARK H PARENT
REMARK Flexibility Score: inf
ROOT
ATOM      1  C   UNL     1      11.050   8.077  -1.260  1.00  0.00     0.000 C 
ENDROOT
BRANCH   1   2
ATOM      2  C   UNL     1      10.739   7.012  -0.191  1.00  0.00     0.000 C 
BRANCH   2   3
ATOM      3  C   UNL     1      11.112   5.570  -0.575  1.00  0.00     0.000 C 
BRANCH   3   4
ATOM      4  C   UNL     1      12.143   5.501  -1.714  1.00  0.00     0.000 C 
BRANCH   4   5
ATOM      5  C   UNL     1      11.678   4.601  -2.873  1.00  0.00     0.000 C 
BRANCH   5   6
ATOM      6  C   UNL     1      12.456   3.275  -2.937  1.00  0.00     0.000 C 
BRANCH   6   7
ATOM      7  C   UNL     1      13.977   3.486  -3.004  1.00  0.00     0.000 C 
BRANCH   7   8
ATOM      8  C   UNL     1      14.666   3.289  -1.642  1.00  0.00     0.000 C 
BRANCH   8   9
ATOM      9  C   UNL     1      15.493   1.995  -1.578  1.00  0.00     0.000 C 
BRANCH   9  10
ATOM     10  C   UNL     1      15.520   1.240  -2.916  1.00  0.00     0.000 C 
BRANCH  10  11
ATOM     11  C   UNL     1      16.844   0.487  -3.096  1.00  0.00     0.000 C 
BRANCH  11  12
ATOM     12  C   UNL     1      18.044   1.406  -2.819  1.00  0.00     0.000 C 
BRANCH  12  13
ATOM     13  C   UNL     1      19.391   0.676  -2.923  1.00  0.00     0.006 C 
BRANCH  13  14
ATOM     14  C   UNL     1      20.590   1.593  -2.643  1.00  0.00     0.053 C 
BRANCH  14  15
ATOM     15  C   UNL     1      21.688   0.836  -1.960  1.00  0.00     0.041 C 
ATOM     16  O   UNL     1      21.803   0.879  -0.706  1.00  0.00    -0.550 OA
ATOM     17  O   UNL     1      22.595   0.096  -2.709  1.00  0.00    -0.550 OA
ENDBRANCH  14  15
ENDBRANCH  13  14
ENDBRANCH  12  13
ENDBRANCH  11  12
ENDBRANCH  10  11
ENDBRANCH   9  10
ENDBRANCH   8   9
ENDBRANCH   7   8
ENDBRANCH   6   7
ENDBRANCH   5   6
ENDBRANCH   4   5
ENDBRANCH   3   4
ENDBRANCH   2   3
ENDBRANCH   1   2
BRANCH   1  18
ATOM     18  C   UNL     1       9.907   8.302  -2.276  1.00  0.00     0.000 C 
BRANCH  18  19
ATOM     19  C   UNL     1       9.464   9.772  -2.431  1.00  0.00     0.000 C 
BRANCH  19  20
ATOM     20  C   UNL     1       7.940  10.004  -2.503  1.00  0.00     0.000 C 
BRANCH  20  21
ATOM     21  C   UNL     1       7.431  11.280  -1.810  1.00  0.00     0.000 C 
BRANCH  21  22
ATOM     22  C   UNL     1       8.163  12.547  -2.280  1.00  0.00     0.000 C 
BRANCH  22  23
ATOM     23  C   UNL     1       8.124  13.671  -1.234  1.00  0.00     0.000 C 
BRANCH  23  24
ATOM     24  C   UNL     1       7.912  15.057  -1.869  1.00  0.00    -0.000 C 
BRANCH  24  25
ATOM     25  C   UNL     1       9.207  15.882  -1.932  1.00  0.00    -0.000 C 
BRANCH  25  26
ATOM     26  C   UNL     1       9.737  16.256  -0.536  1.00  0.00    -0.000 C 
BRANCH  26  27
ATOM     27  C   UNL     1      11.209  16.704  -0.556  1.00  0.00    -0.000 C 
BRANCH  27  28
ATOM     28  C   UNL     1      12.227  15.570  -0.771  1.00  0.00    -0.000 C 
BRANCH  28  29
ATOM     29  C   UNL     1      11.558  14.204  -1.007  1.00  0.00    -0.000 C 
BRANCH  29  30
ATOM     30  C   UNL     1      12.051  13.521  -2.291  1.00  0.00    -0.000 C 
BRANCH  30  31
ATOM     31  C   UNL     1      12.853  12.241  -2.011  1.00  0.00    -0.003 C 
ATOM     32  C   UNL     1      12.657  11.213  -3.122  1.00  0.00     0.004 C 
ENDBRANCH  30  31
ENDBRANCH  29  30
ENDBRANCH  28  29
ENDBRANCH  27  28
ENDBRANCH  26  27
ENDBRANCH  25  26
ENDBRANCH  24  25
ENDBRANCH  23  24
ENDBRANCH  22  23
ENDBRANCH  21  22
ENDBRANCH  20  21
ENDBRANCH  19  20
ENDBRANCH  18  19
ENDBRANCH   1  18
TORSDOF 28
ENDMDL
MODEL 7
REMARK VINA RESULT:    -1.933      1.825      2.795
REMARK INTER + INTRA:          -6.518
REMARK INTER:                  -3.584
REMARK INTRA:                  -2.934
REMARK UNBOUND:                -1.421
REMARK SMILES CCCCCCCCCCCCCCCCCCCCCCCCCCCCCC(=O)[O-]
REMARK SMILES IDX 16 1 17 2 18 3 19 4 20 5 21 6 22 7 23 8 24 9 25 10 26 11
REMARK SMILES IDX 27 12 28 13 29 14 30 15 31 16 32 17 15 18 14 19 13 20 12 21
REMARK SMILES IDX 11 22 10 23 9 24 8 25 7 26 6 27 5 28 4 29 3 30 2 31 1 32
REMARK H PARENT
REMARK Flexibility Score: inf
ROOT
ATOM      1  C   UNL     1      13.408  10.432  -1.871  1.00  0.00     0.000 C 
ENDROOT
BRANCH   1   2
ATOM      2  C   UNL     1      14.073  11.148  -3.062  1.00  0.00     0.000 C 
BRANCH   2   3
ATOM      3  C   UNL     1      15.477  11.713  -2.786  1.00  0.00     0.000 C 
BRANCH   3   4
ATOM      4  C   UNL     1      15.444  13.101  -2.122  1.00  0.00     0.000 C 
BRANCH   4   5
ATOM      5  C   UNL     1      15.077  14.217  -3.115  1.00  0.00     0.000 C 
BRANCH   5   6
ATOM      6  C   UNL     1      13.657  14.765  -2.885  1.00  0.00     0.000 C 
BRANCH   6   7
ATOM      7  C   UNL     1      13.254  14.755  -1.402  1.00  0.00     0.000 C 
BRANCH   7   8
ATOM      8  C   UNL     1      14.117  15.699  -0.545  1.00  0.00     0.000 C 
BRANCH   8   9
ATOM      9  C   UNL     1      13.275  16.665   0.303  1.00  0.00     0.000 C 
BRANCH   9  10
ATOM     10  C   UNL     1      11.794  16.678  -0.105  1.00  0.00     0.000 C 
BRANCH  10  11
ATOM     11  C   UNL     1      11.442  17.967  -0.859  1.00  0.00     0.000 C 
BRANCH  11  12
ATOM     12  C   UNL     1      10.520  17.672  -2.054  1.00  0.00     0.000 C 
BRANCH  12  13
ATOM     13  C   UNL     1      10.036  16.215  -2.088  1.00  0.00     0.006 C 
BRANCH  13  14
ATOM     14  C   UNL     1       8.531  16.079  -1.817  1.00  0.00     0.053 C 
BRANCH  14  15
ATOM     15  C   UNL     1       8.142  14.638  -1.697  1.00  0.00     0.041 C 
ATOM     16  O   UNL     1       7.458  14.088  -2.602  1.00  0.00    -0.550 OA
ATOM     17  O   UNL     1       8.518  13.904  -0.580  1.00  0.00    -0.550 OA
ENDBRANCH  14  15
ENDBRANCH  13  14
ENDBRANCH  12  13
ENDBRANCH  11  12
ENDBRANCH  10  11
ENDBRANCH   9  10
ENDBRANCH   8   9
ENDBRANCH   7   8
ENDBRANCH   6   7
ENDBRANCH   5   6
ENDBRANCH   4   5
ENDBRANCH   3   4
ENDBRANCH   2   3
ENDBRANCH   1   2
BRANCH   1  18
ATOM     18  C   UNL     1      12.018  10.992  -1.494  1.00  0.00     0.000 C 
BRANCH  18  19
ATOM     19  C   UNL     1      11.282  11.713  -2.642  1.00  0.00     0.000 C 
BRANCH  19  20
ATOM     20  C   UNL     1       9.970  11.051  -3.112  1.00  0.00     0.000 C 
BRANCH  20  21
ATOM     21  C   UNL     1       8.957  10.725  -2.000  1.00  0.00     0.000 C 
BRANCH  21  22
ATOM     22  C   UNL     1       7.507  10.676  -2.508  1.00  0.00     0.000 C 
BRANCH  22  23
ATOM     23  C   UNL     1       6.962   9.243  -2.590  1.00  0.00     0.000 C 
BRANCH  23  24
ATOM     24  C   UNL     1       8.050   8.184  -2.335  1.00  0.00    -0.000 C 
BRANCH  24  25
ATOM     25  C   UNL     1       7.464   6.799  -2.022  1.00  0.00    -0.000 C 
BRANCH  25  26
ATOM     26  C   UNL     1       7.763   5.769  -3.125  1.00  0.00    -0.000 C 
BRANCH  26  27
ATOM     27  C   UNL     1       8.873   4.777  -2.732  1.00  0.00    -0.000 C 
BRANCH  27  28
ATOM     28  C   UNL     1      10.207   5.427  -2.327  1.00  0.00    -0.000 C 
BRANCH  28  29
ATOM     29  C   UNL     1      10.628   5.081  -0.887  1.00  0.00    -0.000 C 
BRANCH  29  30
ATOM     30  C   UNL     1      12.154   5.035  -0.715  1.00  0.00    -0.000 C 
BRANCH  30  31
ATOM     31  C   UNL     1      12.883   4.628  -2.004  1.00  0.00    -0.003 C 
ATOM     32  C   UNL     1      14.029   3.665  -1.709  1.00  0.00     0.004 C 
ENDBRANCH  30  31
ENDBRANCH  29  30
ENDBRANCH  28  29
ENDBRANCH  27  28
ENDBRANCH  26  27
ENDBRANCH  25  26
ENDBRANCH  24  25
ENDBRANCH  23  24
ENDBRANCH  22  23
ENDBRANCH  21  22
ENDBRANCH  20  21
ENDBRANCH  19  20
ENDBRANCH  18  19
ENDBRANCH   1  18
TORSDOF 28
ENDMDL
MODEL 8
REMARK VINA RESULT:    -1.537      4.232      8.580
REMARK INTER + INTRA:          -5.474
REMARK INTER:                  -3.038
REMARK INTRA:                  -2.436
REMARK UNBOUND:                -1.421
REMARK SMILES CCCCCCCCCCCCCCCCCCCCCCCCCCCCCC(=O)[O-]
REMARK SMILES IDX 16 1 17 2 18 3 19 4 20 5 21 6 22 7 23 8 24 9 25 10 26 11
REMARK SMILES IDX 27 12 28 13 29 14 30 15 31 16 32 17 15 18 14 19 13 20 12 21
REMARK SMILES IDX 11 22 10 23 9 24 8 25 7 26 6 27 5 28 4 29 3 30 2 31 1 32
REMARK H PARENT
REMARK Flexibility Score: inf
ROOT
ATOM      1  C   UNL     1      12.922   8.338  -2.789  1.00  0.00     0.000 C 
ENDROOT
BRANCH   1   2
ATOM      2  C   UNL     1      14.332   8.958  -2.795  1.00  0.00     0.000 C 
BRANCH   2   3
ATOM      3  C   UNL     1      14.491  10.234  -1.949  1.00  0.00     0.000 C 
BRANCH   3   4
ATOM      4  C   UNL     1      14.692  11.498  -2.803  1.00  0.00     0.000 C 
BRANCH   4   5
ATOM      5  C   UNL     1      13.374  12.248  -3.060  1.00  0.00     0.000 C 
BRANCH   5   6
ATOM      6  C   UNL     1      13.559  13.776  -3.071  1.00  0.00     0.000 C 
BRANCH   6   7
ATOM      7  C   UNL     1      14.884  14.214  -2.426  1.00  0.00     0.000 C 
BRANCH   7   8
ATOM      8  C   UNL     1      14.787  15.590  -1.742  1.00  0.00     0.000 C 
BRANCH   8   9
ATOM      9  C   UNL     1      14.958  16.756  -2.728  1.00  0.00     0.000 C 
BRANCH   9  10
ATOM     10  C   UNL     1      15.868  17.867  -2.181  1.00  0.00     0.000 C 
BRANCH  10  11
ATOM     11  C   UNL     1      17.050  18.125  -3.125  1.00  0.00     0.000 C 
BRANCH  11  12
ATOM     12  C   UNL     1      18.141  17.057  -2.947  1.00  0.00     0.000 C 
BRANCH  12  13
ATOM     13  C   UNL     1      19.367  17.579  -2.182  1.00  0.00     0.006 C 
BRANCH  13  14
ATOM     14  C   UNL     1      20.664  17.485  -2.998  1.00  0.00     0.053 C 
BRANCH  14  15
ATOM     15  C   UNL     1      21.861  17.544  -2.100  1.00  0.00     0.041 C 
ATOM     16  O   UNL     1      22.967  17.080  -2.486  1.00  0.00    -0.550 OA
ATOM     17  O   UNL     1      21.753  18.096  -0.829  1.00  0.00    -0.550 OA
ENDBRANCH  14  15
ENDBRANCH  13  14
ENDBRANCH  12  13
ENDBRANCH  11  12
ENDBRANCH  10  11
ENDBRANCH   9  10
ENDBRANCH   8   9
ENDBRANCH   7   8
ENDBRANCH   6   7
ENDBRANCH   5   6
ENDBRANCH   4   5
ENDBRANCH   3   4
ENDBRANCH   2   3
ENDBRANCH   1   2
BRANCH   1  18
ATOM     18  C   UNL     1      12.914   6.793  -2.754  1.00  0.00     0.000 C 
BRANCH  18  19
ATOM     19  C   UNL     1      12.599   6.182  -1.373  1.00  0.00     0.000 C 
BRANCH  19  20
ATOM     20  C   UNL     1      11.161   6.403  -0.859  1.00  0.00     0.000 C 
BRANCH  20  21
ATOM     21  C   UNL     1      10.043   5.861  -1.767  1.00  0.00     0.000 C 
BRANCH  21  22
ATOM     22  C   UNL     1       9.511   6.914  -2.752  1.00  0.00     0.000 C 
BRANCH  22  23
ATOM     23  C   UNL     1       8.079   7.359  -2.420  1.00  0.00     0.000 C 
BRANCH  23  24
ATOM     24  C   UNL     1       7.976   8.876  -2.179  1.00  0.00    -0.000 C 
BRANCH  24  25
ATOM     25  C   UNL     1       9.254   9.626  -2.585  1.00  0.00    -0.000 C 
BRANCH  25  26
ATOM     26  C   UNL     1       9.007  11.127  -2.819  1.00  0.00    -0.000 C 
BRANCH  26  27
ATOM     27  C   UNL     1      10.046  12.021  -2.118  1.00  0.00    -0.000 C 
BRANCH  27  28
ATOM     28  C   UNL     1       9.547  13.430  -1.756  1.00  0.00    -0.000 C 
BRANCH  28  29
ATOM     29  C   UNL     1      10.660  14.332  -1.193  1.00  0.00    -0.000 C 
BRANCH  29  30
ATOM     30  C   UNL     1      10.465  15.809  -1.565  1.00  0.00    -0.000 C 
BRANCH  30  31
ATOM     31  C   UNL     1      10.993  16.766  -0.485  1.00  0.00    -0.003 C 
ATOM     32  C   UNL     1       9.846  17.428   0.274  1.00  0.00     0.004 C 
ENDBRANCH  30  31
ENDBRANCH  29  30
ENDBRANCH  28  29
ENDBRANCH  27  28
ENDBRANCH  26  27
ENDBRANCH  25  26
ENDBRANCH  24  25
ENDBRANCH  23  24
ENDBRANCH  22  23
ENDBRANCH  21  22
ENDBRANCH  20  21
ENDBRANCH  19  20
ENDBRANCH  18  19
ENDBRANCH   1  18
TORSDOF 28
ENDMDL
