MODEL 1
REMARK VINA RESULT:    -3.940      0.000      0.000
REMARK INTER + INTRA:         -14.142
REMARK INTER:                  -9.930
REMARK INTRA:                  -4.212
REMARK UNBOUND:                -4.212
REMARK SMILES CCCCCCCCCCCCCCCCCCCCCCCCCCCC(=O)[O-]
REMARK SMILES IDX 15 1 16 2 17 3 18 4 19 5 20 6 21 7 22 8 23 9 24 10 25 11
REMARK SMILES IDX 26 12 27 13 28 14 29 15 30 16 14 17 13 18 12 19 11 20 10 21
REMARK SMILES IDX 9 22 8 23 7 24 6 25 5 26 4 27 3 28 2 29 1 30
REMARK H PARENT
REMARK Flexibility Score: inf
ROOT
ATOM      1  C   UNL     1      28.131  33.995   4.010  1.00  0.00     0.000 C 
ENDROOT
BRANCH   1   2
ATOM      2  C   UNL     1      29.472  33.244   3.866  1.00  0.00     0.000 C 
BRANCH   2   3
ATOM      3  C   UNL     1      30.291  33.619   2.616  1.00  0.00     0.000 C 
BRANCH   3   4
ATOM      4  C   UNL     1      30.306  35.134   2.312  1.00  0.00     0.000 C 
BRANCH   4   5
ATOM      5  C   UNL     1      30.662  35.470   0.850  1.00  0.00     0.000 C 
BRANCH   5   6
ATOM      6  C   UNL     1      30.085  34.501  -0.201  1.00  0.00     0.000 C 
BRANCH   6   7
ATOM      7  C   UNL     1      31.102  33.974  -1.233  1.00  0.00     0.000 C 
BRANCH   7   8
ATOM      8  C   UNL     1      31.942  32.770  -0.754  1.00  0.00     0.000 C 
BRANCH   8   9
ATOM      9  C   UNL     1      33.343  33.140  -0.229  1.00  0.00     0.000 C 
BRANCH   9  10
ATOM     10  C   UNL     1      33.521  32.918   1.287  1.00  0.00     0.000 C 
BRANCH  10  11
ATOM     11  C   UNL     1      34.302  34.064   1.957  1.00  0.00     0.000 C 
BRANCH  11  12
ATOM     12  C   UNL     1      34.098  34.107   3.481  1.00  0.00     0.006 C 
BRANCH  12  13
ATOM     13  C   UNL     1      35.356  34.560   4.233  1.00  0.00     0.053 C 
BRANCH  13  14
ATOM     14  C   UNL     1      34.983  35.278   5.492  1.00  0.00     0.041 C 
ATOM     15  O   UNL     1      34.957  36.539   5.521  1.00  0.00    -0.550 OA
ATOM     16  O   UNL     1      34.671  34.557   6.636  1.00  0.00    -0.550 OA
ENDBRANCH  13  14
ENDBRANCH  12  13
ENDBRANCH  11  12
ENDBRANCH  10  11
ENDBRANCH   9  10
ENDBRANCH   8   9
ENDBRANCH   7   8
ENDBRANCH   6   7
ENDBRANCH   5   6
ENDBRANCH   4   5
ENDBRANCH   3   4
ENDBRANCH   2   3
ENDBRANCH   1   2
BRANCH   1  17
ATOM     17  C   UNL     1      26.887  33.246   3.482  1.00  0.00     0.000 C 
BRANCH  17  18
ATOM     18  C   UNL     1      26.091  33.985   2.384  1.00  0.00     0.000 C 
BRANCH  18  19
ATOM     19  C   UNL     1      26.709  33.874   0.979  1.00  0.00     0.000 C 
BRANCH  19  20
ATOM     20  C   UNL     1      26.733  35.226   0.245  1.00  0.00     0.000 C 
BRANCH  20  21
ATOM     21  C   UNL     1      27.036  36.402   1.193  1.00  0.00     0.000 C 
BRANCH  21  22
ATOM     22  C   UNL     1      26.119  37.628   0.995  1.00  0.00    -0.000 C 
BRANCH  22  23
ATOM     23  C   UNL     1      24.894  37.674   1.927  1.00  0.00    -0.000 C 
BRANCH  23  24
ATOM     24  C   UNL     1      23.560  37.483   1.183  1.00  0.00    -0.000 C 
BRANCH  24  25
ATOM     25  C   UNL     1      23.194  35.998   1.021  1.00  0.00    -0.000 C 
BRANCH  25  26
ATOM     26  C   UNL     1      23.191  35.556  -0.454  1.00  0.00    -0.000 C 
BRANCH  26  27
ATOM     27  C   UNL     1      22.508  34.187  -0.653  1.00  0.00    -0.000 C 
BRANCH  27  28
ATOM     28  C   UNL     1      23.387  32.987  -0.254  1.00  0.00    -0.000 C 
BRANCH  28  29
ATOM     29  C   UNL     1      22.610  31.665  -0.104  1.00  0.00    -0.003 C 
ATOM     30  C   UNL     1      21.491  31.522  -1.134  1.00  0.00     0.004 C 
ENDBRANCH  28  29
ENDBRANCH  27  28
ENDBRANCH  26  27
ENDBRANCH  25  26
ENDBRANCH  24  25
ENDBRANCH  23  24
ENDBRANCH  22  23
ENDBRANCH  21  22
ENDBRANCH  20  21
ENDBRANCH  19  20
ENDBRANCH  18  19
ENDBRANCH  17  18
ENDBRANCH   1  17
TORSDOF 26
ENDMDL
MODEL 2
REMARK VINA RESULT:    -3.852      4.001      8.717
REMARK INTER + INTRA:         -13.920
REMARK INTER:                  -8.549
REMARK INTRA:                  -5.370
REMARK UNBOUND:                -4.212
REMARK SMILES CCCCCCCCCCCCCCCCCCCCCCCCCCCC(=O)[O-]
REMARK SMILES IDX 15 1 16 2 17 3 18 4 19 5 20 6 21 7 22 8 23 9 24 10 25 11
REMARK SMILES IDX 26 12 27 13 28 14 29 15 30 16 14 17 13 18 12 19 11 20 10 21
REMARK SMILES IDX 9 22 8 23 7 24 6 25 5 26 4 27 3 28 2 29 1 30
REMARK H PARENT
REMARK Flexibility Score: inf
ROOT
ATOM      1  C   UNL     1      27.901  32.852   2.821  1.00  0.00     0.000 C 
ENDROOT
BRANCH   1   2
ATOM      2  C   UNL     1      26.593  33.600   3.155  1.00  0.00     0.000 C 
BRANCH   2   3
ATOM      3  C   UNL     1      25.694  33.903   1.940  1.00  0.00     0.000 C 
BRANCH   3   4
ATOM      4  C   UNL     1      26.419  33.777   0.581  1.00  0.00     0.000 C 
BRANCH   4   5
ATOM      5  C   UNL     1      25.636  34.386  -0.598  1.00  0.00     0.000 C 
BRANCH   5   6
ATOM      6  C   UNL     1      26.384  35.481  -1.383  1.00  0.00     0.000 C 
BRANCH   6   7
ATOM      7  C   UNL     1      27.559  36.138  -0.629  1.00  0.00     0.000 C 
BRANCH   7   8
ATOM      8  C   UNL     1      27.232  37.507   0.007  1.00  0.00     0.000 C 
BRANCH   8   9
ATOM      9  C   UNL     1      26.833  37.438   1.494  1.00  0.00     0.000 C 
BRANCH   9  10
ATOM     10  C   UNL     1      25.314  37.545   1.740  1.00  0.00     0.000 C 
BRANCH  10  11
ATOM     11  C   UNL     1      24.566  38.125   0.525  1.00  0.00     0.000 C 
BRANCH  11  12
ATOM     12  C   UNL     1      23.342  37.283   0.127  1.00  0.00     0.006 C 
BRANCH  12  13
ATOM     13  C   UNL     1      22.712  36.553   1.320  1.00  0.00     0.053 C 
BRANCH  13  14
ATOM     14  C   UNL     1      21.510  37.295   1.812  1.00  0.00     0.041 C 
ATOM     15  O   UNL     1      20.582  37.605   1.016  1.00  0.00    -0.550 OA
ATOM     16  O   UNL     1      21.415  37.652   3.151  1.00  0.00    -0.550 OA
ENDBRANCH  13  14
ENDBRANCH  12  13
ENDBRANCH  11  12
ENDBRANCH  10  11
ENDBRANCH   9  10
ENDBRANCH   8   9
ENDBRANCH   7   8
ENDBRANCH   6   7
ENDBRANCH   5   6
ENDBRANCH   4   5
ENDBRANCH   3   4
ENDBRANCH   2   3
ENDBRANCH   1   2
BRANCH   1  17
ATOM     17  C   UNL     1      29.201  33.543   3.289  1.00  0.00     0.000 C 
BRANCH  17  18
ATOM     18  C   UNL     1      29.170  35.087   3.268  1.00  0.00     0.000 C 
BRANCH  18  19
ATOM     19  C   UNL     1      29.979  35.716   2.120  1.00  0.00     0.000 C 
BRANCH  19  20
ATOM     20  C   UNL     1      30.348  37.183   2.403  1.00  0.00     0.000 C 
BRANCH  20  21
ATOM     21  C   UNL     1      31.819  37.492   2.067  1.00  0.00     0.000 C 
BRANCH  21  22
ATOM     22  C   UNL     1      32.687  36.242   1.811  1.00  0.00    -0.000 C 
BRANCH  22  23
ATOM     23  C   UNL     1      33.709  35.929   2.921  1.00  0.00    -0.000 C 
BRANCH  23  24
ATOM     24  C   UNL     1      34.089  34.438   2.989  1.00  0.00    -0.000 C 
BRANCH  24  25
ATOM     25  C   UNL     1      32.879  33.546   3.316  1.00  0.00    -0.000 C 
BRANCH  25  26
ATOM     26  C   UNL     1      32.550  32.569   2.174  1.00  0.00    -0.000 C 
BRANCH  26  27
ATOM     27  C   UNL     1      33.483  32.752   0.959  1.00  0.00    -0.000 C 
BRANCH  27  28
ATOM     28  C   UNL     1      32.749  33.130  -0.341  1.00  0.00    -0.000 C 
BRANCH  28  29
ATOM     29  C   UNL     1      31.262  33.480  -0.140  1.00  0.00    -0.003 C 
ATOM     30  C   UNL     1      30.623  34.069  -1.397  1.00  0.00     0.004 C 
ENDBRANCH  28  29
ENDBRANCH  27  28
ENDBRANCH  26  27
ENDBRANCH  25  26
ENDBRANCH  24  25
ENDBRANCH  23  24
ENDBRANCH  22  23
ENDBRANCH  21  22
ENDBRANCH  20  21
ENDBRANCH  19  20
ENDBRANCH  18  19
ENDBRANCH  17  18
ENDBRANCH   1  17
TORSDOF 26
ENDMDL
MODEL 3
REMARK VINA RESULT:    -3.817      3.648      9.068
REMARK INTER + INTRA:         -13.831
REMARK INTER:                  -8.827
REMARK INTRA:                  -5.004
REMARK UNBOUND:                -4.212
REMARK SMILES CCCCCCCCCCCCCCCCCCCCCCCCCCCC(=O)[O-]
REMARK SMILES IDX 15 1 16 2 17 3 18 4 19 5 20 6 21 7 22 8 23 9 24 10 25 11
REMARK SMILES IDX 26 12 27 13 28 14 29 15 30 16 14 17 13 18 12 19 11 20 10 21
REMARK SMILES IDX 9 22 8 23 7 24 6 25 5 26 4 27 3 28 2 29 1 30
REMARK H PARENT
REMARK Flexibility Score: inf
ROOT
ATOM      1  C   UNL     1      27.489  33.461   2.009  1.00  0.00     0.000 C 
ENDROOT
BRANCH   1   2
ATOM      2  C   UNL     1      27.207  34.766   2.783  1.00  0.00     0.000 C 
BRANCH   2   3
ATOM      3  C   UNL     1      27.845  36.029   2.174  1.00  0.00     0.000 C 
BRANCH   3   4
ATOM      4  C   UNL     1      28.909  36.689   3.079  1.00  0.00     0.000 C 
BRANCH   4   5
ATOM      5  C   UNL     1      30.058  37.358   2.299  1.00  0.00     0.000 C 
BRANCH   5   6
ATOM      6  C   UNL     1      31.276  36.453   2.027  1.00  0.00     0.000 C 
BRANCH   6   7
ATOM      7  C   UNL     1      31.579  36.196   0.537  1.00  0.00     0.000 C 
BRANCH   7   8
ATOM      8  C   UNL     1      30.632  35.186  -0.149  1.00  0.00     0.000 C 
BRANCH   8   9
ATOM      9  C   UNL     1      29.637  35.820  -1.140  1.00  0.00     0.000 C 
BRANCH   9  10
ATOM     10  C   UNL     1      28.528  34.858  -1.613  1.00  0.00     0.000 C 
BRANCH  10  11
ATOM     11  C   UNL     1      27.118  35.422  -1.360  1.00  0.00     0.000 C 
BRANCH  11  12
ATOM     12  C   UNL     1      26.047  34.321  -1.272  1.00  0.00     0.006 C 
BRANCH  12  13
ATOM     13  C   UNL     1      24.643  34.881  -1.012  1.00  0.00     0.053 C 
BRANCH  13  14
ATOM     14  C   UNL     1      24.178  34.514   0.362  1.00  0.00     0.041 C 
ATOM     15  O   UNL     1      23.724  35.399   1.139  1.00  0.00    -0.550 OA
ATOM     16  O   UNL     1      24.251  33.195   0.790  1.00  0.00    -0.550 OA
ENDBRANCH  13  14
ENDBRANCH  12  13
ENDBRANCH  11  12
ENDBRANCH  10  11
ENDBRANCH   9  10
ENDBRANCH   8   9
ENDBRANCH   7   8
ENDBRANCH   6   7
ENDBRANCH   5   6
ENDBRANCH   4   5
ENDBRANCH   3   4
ENDBRANCH   2   3
ENDBRANCH   1   2
BRANCH   1  17
ATOM     17  C   UNL     1      28.885  32.839   2.236  1.00  0.00     0.000 C 
BRANCH  17  18
ATOM     18  C   UNL     1      29.539  33.171   3.595  1.00  0.00     0.000 C 
BRANCH  18  19
ATOM     19  C   UNL     1      31.078  33.171   3.567  1.00  0.00     0.000 C 
BRANCH  19  20
ATOM     20  C   UNL     1      31.635  32.764   2.191  1.00  0.00     0.000 C 
BRANCH  20  21
ATOM     21  C   UNL     1      33.163  32.572   2.211  1.00  0.00     0.000 C 
BRANCH  21  22
ATOM     22  C   UNL     1      33.863  32.927   0.882  1.00  0.00    -0.000 C 
BRANCH  22  23
ATOM     23  C   UNL     1      34.545  34.308   0.861  1.00  0.00    -0.000 C 
BRANCH  23  24
ATOM     24  C   UNL     1      35.258  34.650   2.182  1.00  0.00    -0.000 C 
BRANCH  24  25
ATOM     25  C   UNL     1      34.890  36.053   2.693  1.00  0.00    -0.000 C 
BRANCH  25  26
ATOM     26  C   UNL     1      34.700  36.086   4.220  1.00  0.00    -0.000 C 
BRANCH  26  27
ATOM     27  C   UNL     1      34.643  34.671   4.833  1.00  0.00    -0.000 C 
BRANCH  27  28
ATOM     28  C   UNL     1      35.055  34.617   6.317  1.00  0.00    -0.000 C 
BRANCH  28  29
ATOM     29  C   UNL     1      35.015  35.983   7.027  1.00  0.00    -0.003 C 
ATOM     30  C   UNL     1      34.257  35.934   8.352  1.00  0.00     0.004 C 
ENDBRANCH  28  29
ENDBRANCH  27  28
ENDBRANCH  26  27
ENDBRANCH  25  26
ENDBRANCH  24  25
ENDBRANCH  23  24
ENDBRANCH  22  23
ENDBRANCH  21  22
ENDBRANCH  20  21
ENDBRANCH  19  20
ENDBRANCH  18  19
ENDBRANCH  17  18
ENDBRANCH   1  17
TORSDOF 26
ENDMDL
MODEL 4
REMARK VINA RESULT:    -3.793      3.793      9.442
REMARK INTER + INTRA:         -13.770
REMARK INTER:                  -8.789
REMARK INTRA:                  -4.981
REMARK UNBOUND:                -4.212
REMARK SMILES CCCCCCCCCCCCCCCCCCCCCCCCCCCC(=O)[O-]
REMARK SMILES IDX 15 1 16 2 17 3 18 4 19 5 20 6 21 7 22 8 23 9 24 10 25 11
REMARK SMILES IDX 26 12 27 13 28 14 29 15 30 16 14 17 13 18 12 19 11 20 10 21
REMARK SMILES IDX 9 22 8 23 7 24 6 25 5 26 4 27 3 28 2 29 1 30
REMARK H PARENT
REMARK Flexibility Score: inf
ROOT
ATOM      1  C   UNL     1      29.394  33.602   3.298  1.00  0.00     0.000 C 
ENDROOT
BRANCH   1   2
ATOM      2  C   UNL     1      28.162  32.873   2.723  1.00  0.00     0.000 C 
BRANCH   2   3
ATOM      3  C   UNL     1      26.805  33.403   3.225  1.00  0.00     0.000 C 
BRANCH   3   4
ATOM      4  C   UNL     1      25.873  33.900   2.096  1.00  0.00     0.000 C 
BRANCH   4   5
ATOM      5  C   UNL     1      26.614  34.254   0.792  1.00  0.00     0.000 C 
BRANCH   5   6
ATOM      6  C   UNL     1      26.605  35.751   0.422  1.00  0.00     0.000 C 
BRANCH   6   7
ATOM      7  C   UNL     1      26.612  36.721   1.621  1.00  0.00     0.000 C 
BRANCH   7   8
ATOM      8  C   UNL     1      25.372  37.638   1.715  1.00  0.00     0.000 C 
BRANCH   8   9
ATOM      9  C   UNL     1      24.293  37.359   0.650  1.00  0.00     0.000 C 
BRANCH   9  10
ATOM     10  C   UNL     1      23.078  36.574   1.184  1.00  0.00     0.000 C 
BRANCH  10  11
ATOM     11  C   UNL     1      22.336  35.817   0.068  1.00  0.00     0.000 C 
BRANCH  11  12
ATOM     12  C   UNL     1      23.123  34.601  -0.448  1.00  0.00     0.006 C 
BRANCH  12  13
ATOM     13  C   UNL     1      22.221  33.541  -1.091  1.00  0.00     0.053 C 
BRANCH  13  14
ATOM     14  C   UNL     1      22.587  32.174  -0.603  1.00  0.00     0.041 C 
ATOM     15  O   UNL     1      22.162  31.149  -1.202  1.00  0.00    -0.550 OA
ATOM     16  O   UNL     1      23.393  32.031   0.519  1.00  0.00    -0.550 OA
ENDBRANCH  13  14
ENDBRANCH  12  13
ENDBRANCH  11  12
ENDBRANCH  10  11
ENDBRANCH   9  10
ENDBRANCH   8   9
ENDBRANCH   7   8
ENDBRANCH   6   7
ENDBRANCH   5   6
ENDBRANCH   4   5
ENDBRANCH   3   4
ENDBRANCH   2   3
ENDBRANCH   1   2
BRANCH   1  17
ATOM     17  C   UNL     1      29.577  35.066   2.836  1.00  0.00     0.000 C 
BRANCH  17  18
ATOM     18  C   UNL     1      30.733  35.302   1.840  1.00  0.00     0.000 C 
BRANCH  18  19
ATOM     19  C   UNL     1      30.287  35.884   0.487  1.00  0.00     0.000 C 
BRANCH  19  20
ATOM     20  C   UNL     1      30.102  34.793  -0.583  1.00  0.00     0.000 C 
BRANCH  20  21
ATOM     21  C   UNL     1      30.654  33.428  -0.129  1.00  0.00     0.000 C 
BRANCH  21  22
ATOM     22  C   UNL     1      31.771  32.865  -1.033  1.00  0.00    -0.000 C 
BRANCH  22  23
ATOM     23  C   UNL     1      32.641  33.931  -1.724  1.00  0.00    -0.000 C 
BRANCH  23  24
ATOM     24  C   UNL     1      34.047  34.055  -1.110  1.00  0.00    -0.000 C 
BRANCH  24  25
ATOM     25  C   UNL     1      34.369  35.499  -0.686  1.00  0.00    -0.000 C 
BRANCH  25  26
ATOM     26  C   UNL     1      34.149  35.727   0.820  1.00  0.00    -0.000 C 
BRANCH  26  27
ATOM     27  C   UNL     1      34.756  34.597   1.678  1.00  0.00    -0.000 C 
BRANCH  27  28
ATOM     28  C   UNL     1      34.252  34.579   3.133  1.00  0.00    -0.000 C 
BRANCH  28  29
ATOM     29  C   UNL     1      33.221  33.472   3.424  1.00  0.00    -0.003 C 
ATOM     30  C   UNL     1      33.125  32.448   2.293  1.00  0.00     0.004 C 
ENDBRANCH  28  29
ENDBRANCH  27  28
ENDBRANCH  26  27
ENDBRANCH  25  26
ENDBRANCH  24  25
ENDBRANCH  23  24
ENDBRANCH  22  23
ENDBRANCH  21  22
ENDBRANCH  20  21
ENDBRANCH  19  20
ENDBRANCH  18  19
ENDBRANCH  17  18
ENDBRANCH   1  17
TORSDOF 26
ENDMDL
MODEL 5
REMARK VINA RESULT:    -3.740      3.949      8.555
REMARK INTER + INTRA:         -13.638
REMARK INTER:                  -7.671
REMARK INTRA:                  -5.967
REMARK UNBOUND:                -4.212
REMARK SMILES CCCCCCCCCCCCCCCCCCCCCCCCCCCC(=O)[O-]
REMARK SMILES IDX 15 1 16 2 17 3 18 4 19 5 20 6 21 7 22 8 23 9 24 10 25 11
REMARK SMILES IDX 26 12 27 13 28 14 29 15 30 16 14 17 13 18 12 19 11 20 10 21
REMARK SMILES IDX 9 22 8 23 7 24 6 25 5 26 4 27 3 28 2 29 1 30
REMARK H PARENT
REMARK Flexibility Score: inf
ROOT
ATOM      1  C   UNL     1      27.820  32.868   2.752  1.00  0.00     0.000 C 
ENDROOT
BRANCH   1   2
ATOM      2  C   UNL     1      26.409  33.429   2.470  1.00  0.00     0.000 C 
BRANCH   2   3
ATOM      3  C   UNL     1      26.116  33.726   0.987  1.00  0.00     0.000 C 
BRANCH   3   4
ATOM      4  C   UNL     1      27.333  34.274   0.209  1.00  0.00     0.000 C 
BRANCH   4   5
ATOM      5  C   UNL     1      26.976  34.845  -1.178  1.00  0.00     0.000 C 
BRANCH   5   6
ATOM      6  C   UNL     1      27.321  36.334  -1.380  1.00  0.00     0.000 C 
BRANCH   6   7
ATOM      7  C   UNL     1      27.770  37.079  -0.106  1.00  0.00     0.000 C 
BRANCH   7   8
ATOM      8  C   UNL     1      26.697  38.003   0.512  1.00  0.00     0.000 C 
BRANCH   8   9
ATOM      9  C   UNL     1      25.951  37.394   1.715  1.00  0.00     0.000 C 
BRANCH   9  10
ATOM     10  C   UNL     1      24.517  36.929   1.390  1.00  0.00     0.000 C 
BRANCH  10  11
ATOM     11  C   UNL     1      24.026  37.455   0.029  1.00  0.00     0.000 C 
BRANCH  11  12
ATOM     12  C   UNL     1      23.550  36.330  -0.904  1.00  0.00     0.006 C 
BRANCH  12  13
ATOM     13  C   UNL     1      23.018  35.112  -0.139  1.00  0.00     0.053 C 
BRANCH  13  14
ATOM     14  C   UNL     1      22.898  33.931  -1.051  1.00  0.00     0.041 C 
ATOM     15  O   UNL     1      23.767  33.724  -1.942  1.00  0.00    -0.550 OA
ATOM     16  O   UNL     1      21.824  33.060  -0.921  1.00  0.00    -0.550 OA
ENDBRANCH  13  14
ENDBRANCH  12  13
ENDBRANCH  11  12
ENDBRANCH  10  11
ENDBRANCH   9  10
ENDBRANCH   8   9
ENDBRANCH   7   8
ENDBRANCH   6   7
ENDBRANCH   5   6
ENDBRANCH   4   5
ENDBRANCH   3   4
ENDBRANCH   2   3
ENDBRANCH   1   2
BRANCH   1  17
ATOM     17  C   UNL     1      28.694  33.713   3.705  1.00  0.00     0.000 C 
BRANCH  17  18
ATOM     18  C   UNL     1      28.624  35.239   3.484  1.00  0.00     0.000 C 
BRANCH  18  19
ATOM     19  C   UNL     1      29.725  35.791   2.560  1.00  0.00     0.000 C 
BRANCH  19  20
ATOM     20  C   UNL     1      30.035  37.271   2.844  1.00  0.00     0.000 C 
BRANCH  20  21
ATOM     21  C   UNL     1      31.506  37.627   2.556  1.00  0.00     0.000 C 
BRANCH  21  22
ATOM     22  C   UNL     1      32.246  36.597   1.678  1.00  0.00    -0.000 C 
BRANCH  22  23
ATOM     23  C   UNL     1      33.661  36.231   2.166  1.00  0.00    -0.000 C 
BRANCH  23  24
ATOM     24  C   UNL     1      33.905  34.712   2.226  1.00  0.00    -0.000 C 
BRANCH  24  25
ATOM     25  C   UNL     1      32.946  34.008   3.201  1.00  0.00    -0.000 C 
BRANCH  25  26
ATOM     26  C   UNL     1      32.194  32.841   2.537  1.00  0.00    -0.000 C 
BRANCH  26  27
ATOM     27  C   UNL     1      32.228  32.923   0.997  1.00  0.00    -0.000 C 
BRANCH  27  28
ATOM     28  C   UNL     1      30.882  33.322   0.362  1.00  0.00    -0.000 C 
BRANCH  28  29
ATOM     29  C   UNL     1      31.003  34.399  -0.733  1.00  0.00    -0.003 C 
ATOM     30  C   UNL     1      30.662  33.862  -2.123  1.00  0.00     0.004 C 
ENDBRANCH  28  29
ENDBRANCH  27  28
ENDBRANCH  26  27
ENDBRANCH  25  26
ENDBRANCH  24  25
ENDBRANCH  23  24
ENDBRANCH  22  23
ENDBRANCH  21  22
ENDBRANCH  20  21
ENDBRANCH  19  20
ENDBRANCH  18  19
ENDBRANCH  17  18
ENDBRANCH   1  17
TORSDOF 26
ENDMDL
MODEL 6
REMARK VINA RESULT:    -3.720      1.959      4.178
REMARK INTER + INTRA:         -13.586
REMARK INTER:                  -7.540
REMARK INTRA:                  -6.047
REMARK UNBOUND:                -4.212
REMARK SMILES CCCCCCCCCCCCCCCCCCCCCCCCCCCC(=O)[O-]
REMARK SMILES IDX 15 1 16 2 17 3 18 4 19 5 20 6 21 7 22 8 23 9 24 10 25 11
REMARK SMILES IDX 26 12 27 13 28 14 29 15 30 16 14 17 13 18 12 19 11 20 10 21
REMARK SMILES IDX 9 22 8 23 7 24 6 25 5 26 4 27 3 28 2 29 1 30
REMARK H PARENT
REMARK Flexibility Score: inf
ROOT
ATOM      1  C   UNL     1      30.009  36.598   2.716  1.00  0.00     0.000 C 
ENDROOT
BRANCH   1   2
ATOM      2  C   UNL     1      31.221  37.492   2.376  1.00  0.00     0.000 C 
BRANCH   2   3
ATOM      3  C   UNL     1      31.793  37.293   0.959  1.00  0.00     0.000 C 
BRANCH   3   4
ATOM      4  C   UNL     1      31.216  36.064   0.221  1.00  0.00     0.000 C 
BRANCH   4   5
ATOM      5  C   UNL     1      31.265  36.185  -1.315  1.00  0.00     0.000 C 
BRANCH   5   6
ATOM      6  C   UNL     1      31.102  34.857  -2.080  1.00  0.00     0.000 C 
BRANCH   6   7
ATOM      7  C   UNL     1      30.865  33.617  -1.194  1.00  0.00     0.000 C 
BRANCH   7   8
ATOM      8  C   UNL     1      32.076  32.663  -1.082  1.00  0.00     0.000 C 
BRANCH   8   9
ATOM      9  C   UNL     1      33.183  32.917  -2.124  1.00  0.00     0.000 C 
BRANCH   9  10
ATOM     10  C   UNL     1      34.554  33.258  -1.506  1.00  0.00     0.000 C 
BRANCH  10  11
ATOM     11  C   UNL     1      34.486  34.478  -0.569  1.00  0.00     0.000 C 
BRANCH  11  12
ATOM     12  C   UNL     1      34.962  34.156   0.857  1.00  0.00     0.006 C 
BRANCH  12  13
ATOM     13  C   UNL     1      33.799  33.934   1.833  1.00  0.00     0.053 C 
BRANCH  13  14
ATOM     14  C   UNL     1      34.049  34.656   3.119  1.00  0.00     0.041 C 
ATOM     15  O   UNL     1      34.298  35.893   3.118  1.00  0.00    -0.550 OA
ATOM     16  O   UNL     1      34.014  33.962   4.322  1.00  0.00    -0.550 OA
ENDBRANCH  13  14
ENDBRANCH  12  13
ENDBRANCH  11  12
ENDBRANCH  10  11
ENDBRANCH   9  10
ENDBRANCH   8   9
ENDBRANCH   7   8
ENDBRANCH   6   7
ENDBRANCH   5   6
ENDBRANCH   4   5
ENDBRANCH   3   4
ENDBRANCH   2   3
ENDBRANCH   1   2
BRANCH   1  17
ATOM     17  C   UNL     1      28.636  37.306   2.708  1.00  0.00     0.000 C 
BRANCH  17  18
ATOM     18  C   UNL     1      27.665  36.845   1.599  1.00  0.00     0.000 C 
BRANCH  18  19
ATOM     19  C   UNL     1      27.791  37.637   0.285  1.00  0.00     0.000 C 
BRANCH  19  20
ATOM     20  C   UNL     1      27.615  36.741  -0.953  1.00  0.00     0.000 C 
BRANCH  20  21
ATOM     21  C   UNL     1      27.636  35.242  -0.600  1.00  0.00     0.000 C 
BRANCH  21  22
ATOM     22  C   UNL     1      26.335  34.489  -0.952  1.00  0.00    -0.000 C 
BRANCH  22  23
ATOM     23  C   UNL     1      25.156  34.759   0.002  1.00  0.00    -0.000 C 
BRANCH  23  24
ATOM     24  C   UNL     1      24.778  33.535   0.856  1.00  0.00    -0.000 C 
BRANCH  24  25
ATOM     25  C   UNL     1      26.006  32.895   1.527  1.00  0.00    -0.000 C 
BRANCH  25  26
ATOM     26  C   UNL     1      26.416  33.631   2.815  1.00  0.00    -0.000 C 
BRANCH  26  27
ATOM     27  C   UNL     1      27.885  33.360   3.202  1.00  0.00    -0.000 C 
BRANCH  27  28
ATOM     28  C   UNL     1      28.821  33.157   1.995  1.00  0.00    -0.000 C 
BRANCH  28  29
ATOM     29  C   UNL     1      30.281  32.854   2.380  1.00  0.00    -0.003 C 
ATOM     30  C   UNL     1      30.587  33.201   3.837  1.00  0.00     0.004 C 
ENDBRANCH  28  29
ENDBRANCH  27  28
ENDBRANCH  26  27
ENDBRANCH  25  26
ENDBRANCH  24  25
ENDBRANCH  23  24
ENDBRANCH  22  23
ENDBRANCH  21  22
ENDBRANCH  20  21
ENDBRANCH  19  20
ENDBRANCH  18  19
ENDBRANCH  17  18
ENDBRANCH   1  17
TORSDOF 26
ENDMDL
MODEL 7
REMARK VINA RESULT:    -3.719      3.950      9.096
REMARK INTER + INTRA:         -13.584
REMARK INTER:                  -8.328
REMARK INTRA:                  -5.256
REMARK UNBOUND:                -4.212
REMARK SMILES CCCCCCCCCCCCCCCCCCCCCCCCCCCC(=O)[O-]
REMARK SMILES IDX 15 1 16 2 17 3 18 4 19 5 20 6 21 7 22 8 23 9 24 10 25 11
REMARK SMILES IDX 26 12 27 13 28 14 29 15 30 16 14 17 13 18 12 19 11 20 10 21
REMARK SMILES IDX 9 22 8 23 7 24 6 25 5 26 4 27 3 28 2 29 1 30
REMARK H PARENT
REMARK Flexibility Score: inf
ROOT
ATOM      1  C   UNL     1      27.742  33.248   3.156  1.00  0.00     0.000 C 
ENDROOT
BRANCH   1   2
ATOM      2  C   UNL     1      26.256  33.632   2.997  1.00  0.00     0.000 C 
BRANCH   2   3
ATOM      3  C   UNL     1      25.747  33.658   1.543  1.00  0.00     0.000 C 
BRANCH   3   4
ATOM      4  C   UNL     1      26.851  33.946   0.501  1.00  0.00     0.000 C 
BRANCH   4   5
ATOM      5  C   UNL     1      26.309  34.420  -0.862  1.00  0.00     0.000 C 
BRANCH   5   6
ATOM      6  C   UNL     1      26.708  35.854  -1.262  1.00  0.00     0.000 C 
BRANCH   6   7
ATOM      7  C   UNL     1      27.567  36.606  -0.225  1.00  0.00     0.000 C 
BRANCH   7   8
ATOM      8  C   UNL     1      26.831  37.739   0.522  1.00  0.00     0.000 C 
BRANCH   8   9
ATOM      9  C   UNL     1      26.039  37.275   1.761  1.00  0.00     0.000 C 
BRANCH   9  10
ATOM     10  C   UNL     1      24.511  37.428   1.619  1.00  0.00     0.000 C 
BRANCH  10  11
ATOM     11  C   UNL     1      24.103  37.951   0.229  1.00  0.00     0.000 C 
BRANCH  11  12
ATOM     12  C   UNL     1      23.347  36.900  -0.601  1.00  0.00     0.006 C 
BRANCH  12  13
ATOM     13  C   UNL     1      22.900  35.695   0.236  1.00  0.00     0.053 C 
BRANCH  13  14
ATOM     14  C   UNL     1      22.398  34.599  -0.650  1.00  0.00     0.041 C 
ATOM     15  O   UNL     1      21.461  34.818  -1.466  1.00  0.00    -0.550 OA
ATOM     16  O   UNL     1      22.960  33.331  -0.572  1.00  0.00    -0.550 OA
ENDBRANCH  13  14
ENDBRANCH  12  13
ENDBRANCH  11  12
ENDBRANCH  10  11
ENDBRANCH   9  10
ENDBRANCH   8   9
ENDBRANCH   7   8
ENDBRANCH   6   7
ENDBRANCH   5   6
ENDBRANCH   4   5
ENDBRANCH   3   4
ENDBRANCH   2   3
ENDBRANCH   1   2
BRANCH   1  17
ATOM     17  C   UNL     1      28.635  34.308   3.838  1.00  0.00     0.000 C 
BRANCH  17  18
ATOM     18  C   UNL     1      29.095  35.466   2.925  1.00  0.00     0.000 C 
BRANCH  18  19
ATOM     19  C   UNL     1      30.465  35.236   2.262  1.00  0.00     0.000 C 
BRANCH  19  20
ATOM     20  C   UNL     1      30.344  34.502   0.916  1.00  0.00     0.000 C 
BRANCH  20  21
ATOM     21  C   UNL     1      30.772  33.025   1.013  1.00  0.00     0.000 C 
BRANCH  21  22
ATOM     22  C   UNL     1      31.539  32.672   2.305  1.00  0.00    -0.000 C 
BRANCH  22  23
ATOM     23  C   UNL     1      33.062  32.521   2.130  1.00  0.00    -0.000 C 
BRANCH  23  24
ATOM     24  C   UNL     1      33.865  33.620   2.848  1.00  0.00    -0.000 C 
BRANCH  24  25
ATOM     25  C   UNL     1      34.674  34.483   1.865  1.00  0.00    -0.000 C 
BRANCH  25  26
ATOM     26  C   UNL     1      34.544  33.990   0.413  1.00  0.00    -0.000 C 
BRANCH  26  27
ATOM     27  C   UNL     1      33.790  34.996  -0.481  1.00  0.00    -0.000 C 
BRANCH  27  28
ATOM     28  C   UNL     1      33.612  34.526  -1.937  1.00  0.00    -0.000 C 
BRANCH  28  29
ATOM     29  C   UNL     1      32.495  33.481  -2.125  1.00  0.00    -0.003 C 
ATOM     30  C   UNL     1      33.009  32.047  -2.016  1.00  0.00     0.004 C 
ENDBRANCH  28  29
ENDBRANCH  27  28
ENDBRANCH  26  27
ENDBRANCH  25  26
ENDBRANCH  24  25
ENDBRANCH  23  24
ENDBRANCH  22  23
ENDBRANCH  21  22
ENDBRANCH  20  21
ENDBRANCH  19  20
ENDBRANCH  18  19
ENDBRANCH  17  18
ENDBRANCH   1  17
TORSDOF 26
ENDMDL
MODEL 8
REMARK VINA RESULT:    -3.717      2.743      8.723
REMARK INTER + INTRA:         -13.578
REMARK INTER:                  -9.170
REMARK INTRA:                  -4.408
REMARK UNBOUND:                -4.212
REMARK SMILES CCCCCCCCCCCCCCCCCCCCCCCCCCCC(=O)[O-]
REMARK SMILES IDX 15 1 16 2 17 3 18 4 19 5 20 6 21 7 22 8 23 9 24 10 25 11
REMARK SMILES IDX 26 12 27 13 28 14 29 15 30 16 14 17 13 18 12 19 11 20 10 21
REMARK SMILES IDX 9 22 8 23 7 24 6 25 5 26 4 27 3 28 2 29 1 30
REMARK H PARENT
REMARK Flexibility Score: inf
ROOT
ATOM      1  C   UNL     1      27.023  32.973   2.234  1.00  0.00     0.000 C 
ENDROOT
BRANCH   1   2
ATOM      2  C   UNL     1      26.284  33.778   1.144  1.00  0.00     0.000 C 
BRANCH   2   3
ATOM      3  C   UNL     1      24.765  33.921   1.365  1.00  0.00     0.000 C 
BRANCH   3   4
ATOM      4  C   UNL     1      23.924  32.854   0.630  1.00  0.00     0.000 C 
BRANCH   4   5
ATOM      5  C   UNL     1      22.983  33.436  -0.443  1.00  0.00     0.000 C 
BRANCH   5   6
ATOM      6  C   UNL     1      23.641  34.434  -1.416  1.00  0.00     0.000 C 
BRANCH   6   7
ATOM      7  C   UNL     1      22.900  35.778  -1.574  1.00  0.00     0.000 C 
BRANCH   7   8
ATOM      8  C   UNL     1      21.470  35.798  -0.990  1.00  0.00     0.000 C 
BRANCH   8   9
ATOM      9  C   UNL     1      21.249  36.851   0.113  1.00  0.00     0.000 C 
BRANCH   9  10
ATOM     10  C   UNL     1      22.186  36.689   1.327  1.00  0.00     0.000 C 
BRANCH  10  11
ATOM     11  C   UNL     1      23.074  37.927   1.549  1.00  0.00     0.000 C 
BRANCH  11  12
ATOM     12  C   UNL     1      24.564  37.571   1.683  1.00  0.00     0.006 C 
BRANCH  12  13
ATOM     13  C   UNL     1      25.327  37.712   0.360  1.00  0.00     0.053 C 
BRANCH  13  14
ATOM     14  C   UNL     1      26.791  37.484   0.572  1.00  0.00     0.041 C 
ATOM     15  O   UNL     1      27.224  37.141   1.706  1.00  0.00    -0.550 OA
ATOM     16  O   UNL     1      27.680  37.657  -0.481  1.00  0.00    -0.550 OA
ENDBRANCH  13  14
ENDBRANCH  12  13
ENDBRANCH  11  12
ENDBRANCH  10  11
ENDBRANCH   9  10
ENDBRANCH   8   9
ENDBRANCH   7   8
ENDBRANCH   6   7
ENDBRANCH   5   6
ENDBRANCH   4   5
ENDBRANCH   3   4
ENDBRANCH   2   3
ENDBRANCH   1   2
BRANCH   1  17
ATOM     17  C   UNL     1      27.184  33.687   3.595  1.00  0.00     0.000 C 
BRANCH  17  18
ATOM     18  C   UNL     1      28.585  34.277   3.866  1.00  0.00     0.000 C 
BRANCH  18  19
ATOM     19  C   UNL     1      29.693  33.220   4.020  1.00  0.00     0.000 C 
BRANCH  19  20
ATOM     20  C   UNL     1      30.590  33.131   2.773  1.00  0.00     0.000 C 
BRANCH  20  21
ATOM     21  C   UNL     1      32.089  33.193   3.125  1.00  0.00     0.000 C 
BRANCH  21  22
ATOM     22  C   UNL     1      33.004  32.450   2.129  1.00  0.00    -0.000 C 
BRANCH  22  23
ATOM     23  C   UNL     1      33.998  33.351   1.371  1.00  0.00    -0.000 C 
BRANCH  23  24
ATOM     24  C   UNL     1      33.674  33.481  -0.128  1.00  0.00    -0.000 C 
BRANCH  24  25
ATOM     25  C   UNL     1      32.403  32.706  -0.516  1.00  0.00    -0.000 C 
BRANCH  25  26
ATOM     26  C   UNL     1      31.407  33.576  -1.303  1.00  0.00    -0.000 C 
BRANCH  26  27
ATOM     27  C   UNL     1      31.389  35.037  -0.809  1.00  0.00    -0.000 C 
BRANCH  27  28
ATOM     28  C   UNL     1      30.252  35.347   0.184  1.00  0.00    -0.000 C 
BRANCH  28  29
ATOM     29  C   UNL     1      30.593  36.455   1.198  1.00  0.00    -0.003 C 
ATOM     30  C   UNL     1      32.090  36.543   1.490  1.00  0.00     0.004 C 
ENDBRANCH  28  29
ENDBRANCH  27  28
ENDBRANCH  26  27
ENDBRANCH  25  26
ENDBRANCH  24  25
ENDBRANCH  23  24
ENDBRANCH  22  23
ENDBRANCH  21  22
ENDBRANCH  20  21
ENDBRANCH  19  20
ENDBRANCH  18  19
ENDBRANCH  17  18
ENDBRANCH   1  17
TORSDOF 26
ENDMDL
MODEL 9
REMARK VINA RESULT:    -3.687      3.951      8.940
REMARK INTER + INTRA:         -13.502
REMARK INTER:                  -8.202
REMARK INTRA:                  -5.300
REMARK UNBOUND:                -4.212
REMARK SMILES CCCCCCCCCCCCCCCCCCCCCCCCCCCC(=O)[O-]
REMARK SMILES IDX 15 1 16 2 17 3 18 4 19 5 20 6 21 7 22 8 23 9 24 10 25 11
REMARK SMILES IDX 26 12 27 13 28 14 29 15 30 16 14 17 13 18 12 19 11 20 10 21
REMARK SMILES IDX 9 22 8 23 7 24 6 25 5 26 4 27 3 28 2 29 1 30
REMARK H PARENT
REMARK Flexibility Score: inf
ROOT
ATOM      1  C   UNL     1      27.457  32.967   2.893  1.00  0.00     0.000 C 
ENDROOT
BRANCH   1   2
ATOM      2  C   UNL     1      26.153  33.626   2.395  1.00  0.00     0.000 C 
BRANCH   2   3
ATOM      3  C   UNL     1      25.992  33.664   0.863  1.00  0.00     0.000 C 
BRANCH   3   4
ATOM      4  C   UNL     1      27.101  34.461   0.140  1.00  0.00     0.000 C 
BRANCH   4   5
ATOM      5  C   UNL     1      26.564  35.500  -0.864  1.00  0.00     0.000 C 
BRANCH   5   6
ATOM      6  C   UNL     1      26.970  36.959  -0.573  1.00  0.00     0.000 C 
BRANCH   6   7
ATOM      7  C   UNL     1      27.156  37.301   0.919  1.00  0.00     0.000 C 
BRANCH   7   8
ATOM      8  C   UNL     1      25.858  37.266   1.755  1.00  0.00     0.000 C 
BRANCH   8   9
ATOM      9  C   UNL     1      24.692  38.074   1.153  1.00  0.00     0.000 C 
BRANCH   9  10
ATOM     10  C   UNL     1      23.356  37.305   1.108  1.00  0.00     0.000 C 
BRANCH  10  11
ATOM     11  C   UNL     1      23.168  36.537  -0.214  1.00  0.00     0.000 C 
BRANCH  11  12
ATOM     12  C   UNL     1      22.590  35.128  -0.003  1.00  0.00     0.006 C 
BRANCH  12  13
ATOM     13  C   UNL     1      22.970  34.158  -1.128  1.00  0.00     0.053 C 
BRANCH  13  14
ATOM     14  C   UNL     1      22.410  32.797  -0.859  1.00  0.00     0.041 C 
ATOM     15  O   UNL     1      21.365  32.410  -1.450  1.00  0.00    -0.550 OA
ATOM     16  O   UNL     1      23.037  31.956   0.051  1.00  0.00    -0.550 OA
ENDBRANCH  13  14
ENDBRANCH  12  13
ENDBRANCH  11  12
ENDBRANCH  10  11
ENDBRANCH   9  10
ENDBRANCH   8   9
ENDBRANCH   7   8
ENDBRANCH   6   7
ENDBRANCH   5   6
ENDBRANCH   4   5
ENDBRANCH   3   4
ENDBRANCH   2   3
ENDBRANCH   1   2
BRANCH   1  17
ATOM     17  C   UNL     1      28.258  33.779   3.936  1.00  0.00     0.000 C 
BRANCH  17  18
ATOM     18  C   UNL     1      28.665  35.201   3.490  1.00  0.00     0.000 C 
BRANCH  18  19
ATOM     19  C   UNL     1      29.797  35.231   2.448  1.00  0.00     0.000 C 
BRANCH  19  20
ATOM     20  C   UNL     1      30.474  36.610   2.363  1.00  0.00     0.000 C 
BRANCH  20  21
ATOM     21  C   UNL     1      31.407  36.731   1.143  1.00  0.00     0.000 C 
BRANCH  21  22
ATOM     22  C   UNL     1      30.678  36.705  -0.217  1.00  0.00    -0.000 C 
BRANCH  22  23
ATOM     23  C   UNL     1      30.822  35.387  -1.001  1.00  0.00    -0.000 C 
BRANCH  23  24
ATOM     24  C   UNL     1      32.286  34.940  -1.169  1.00  0.00    -0.000 C 
BRANCH  24  25
ATOM     25  C   UNL     1      32.551  33.570  -0.523  1.00  0.00    -0.000 C 
BRANCH  25  26
ATOM     26  C   UNL     1      31.275  32.950   0.074  1.00  0.00    -0.000 C 
BRANCH  26  27
ATOM     27  C   UNL     1      31.477  32.485   1.531  1.00  0.00    -0.000 C 
BRANCH  27  28
ATOM     28  C   UNL     1      32.921  32.645   2.043  1.00  0.00    -0.000 C 
BRANCH  28  29
ATOM     29  C   UNL     1      33.062  33.632   3.218  1.00  0.00    -0.003 C 
ATOM     30  C   UNL     1      34.081  34.736   2.937  1.00  0.00     0.004 C 
ENDBRANCH  28  29
ENDBRANCH  27  28
ENDBRANCH  26  27
ENDBRANCH  25  26
ENDBRANCH  24  25
ENDBRANCH  23  24
ENDBRANCH  22  23
ENDBRANCH  21  22
ENDBRANCH  20  21
ENDBRANCH  19  20
ENDBRANCH  18  19
ENDBRANCH  17  18
ENDBRANCH   1  17
TORSDOF 26
ENDMDL
