MODEL 1
REMARK VINA RESULT:     0.360      0.000      0.000
REMARK INTER + INTRA:           0.074
REMARK INTER:                   0.824
REMARK INTRA:                  -0.750
REMARK UNBOUND:                -0.750
REMARK SMILES CCCCCCCCCCCCCCCCCCCCCCCC(=O)[O-]
REMARK SMILES IDX 13 1 14 2 15 3 16 4 17 5 18 6 19 7 20 8 21 9 22 10 23 11
REMARK SMILES IDX 24 12 25 13 26 14 12 15 11 16 10 17 9 18 8 19 7 20 6 21 5 22
REMARK SMILES IDX 4 23 3 24 2 25 1 26
REMARK H PARENT
REMARK Flexibility Score: inf
ROOT
ATOM      1  C   UNL     1     -27.686   8.389  -5.729  1.00  0.00     0.000 C 
ENDROOT
BRANCH   1   2
ATOM      2  C   UNL     1     -26.943   9.712  -5.986  1.00  0.00     0.000 C 
BRANCH   2   3
ATOM      3  C   UNL     1     -27.039  10.689  -4.804  1.00  0.00     0.000 C 
BRANCH   3   4
ATOM      4  C   UNL     1     -25.663  11.044  -4.214  1.00  0.00     0.000 C 
BRANCH   4   5
ATOM      5  C   UNL     1     -24.820   9.798  -3.893  1.00  0.00     0.000 C 
BRANCH   5   6
ATOM      6  C   UNL     1     -23.658   9.603  -4.880  1.00  0.00     0.000 C 
BRANCH   6   7
ATOM      7  C   UNL     1     -22.504   8.783  -4.283  1.00  0.00     0.000 C 
BRANCH   7   8
ATOM      8  C   UNL     1     -21.555   8.287  -5.381  1.00  0.00     0.000 C 
BRANCH   8   9
ATOM      9  C   UNL     1     -21.757   6.789  -5.648  1.00  0.00     0.000 C 
BRANCH   9  10
ATOM     10  C   UNL     1     -23.186   6.307  -5.336  1.00  0.00     0.006 C 
BRANCH  10  11
ATOM     11  C   UNL     1     -23.831   5.488  -6.469  1.00  0.00     0.053 C 
BRANCH  11  12
ATOM     12  C   UNL     1     -25.270   5.164  -6.199  1.00  0.00     0.041 C 
ATOM     13  O   UNL     1     -26.038   6.036  -5.717  1.00  0.00    -0.550 OA
ATOM     14  O   UNL     1     -25.770   3.906  -6.511  1.00  0.00    -0.550 OA
ENDBRANCH  11  12
ENDBRANCH  10  11
ENDBRANCH   9  10
ENDBRANCH   8   9
ENDBRANCH   7   8
ENDBRANCH   6   7
ENDBRANCH   5   6
ENDBRANCH   4   5
ENDBRANCH   3   4
ENDBRANCH   2   3
ENDBRANCH   1   2
BRANCH   1  15
ATOM     15  C   UNL     1     -28.572   8.411  -4.466  1.00  0.00     0.000 C 
BRANCH  15  16
ATOM     16  C   UNL     1     -30.040   8.726  -4.791  1.00  0.00     0.000 C 
BRANCH  16  17
ATOM     17  C   UNL     1     -30.329   8.528  -6.284  1.00  0.00     0.000 C 
BRANCH  17  18
ATOM     18  C   UNL     1     -31.832   8.338  -6.535  1.00  0.00    -0.000 C 
BRANCH  18  19
ATOM     19  C   UNL     1     -32.256   8.718  -7.965  1.00  0.00    -0.000 C 
BRANCH  19  20
ATOM     20  C   UNL     1     -33.553   8.052  -8.461  1.00  0.00    -0.000 C 
BRANCH  20  21
ATOM     21  C   UNL     1     -33.943   6.813  -7.636  1.00  0.00    -0.000 C 
BRANCH  21  22
ATOM     22  C   UNL     1     -34.120   5.557  -8.503  1.00  0.00    -0.000 C 
BRANCH  22  23
ATOM     23  C   UNL     1     -34.074   5.862 -10.008  1.00  0.00    -0.000 C 
BRANCH  23  24
ATOM     24  C   UNL     1     -32.629   5.827 -10.528  1.00  0.00    -0.000 C 
BRANCH  24  25
ATOM     25  C   UNL     1     -32.551   5.758 -12.061  1.00  0.00    -0.003 C 
ATOM     26  C   UNL     1     -31.135   5.492 -12.572  1.00  0.00     0.004 C 
ENDBRANCH  24  25
ENDBRANCH  23  24
ENDBRANCH  22  23
ENDBRANCH  21  22
ENDBRANCH  20  21
ENDBRANCH  19  20
ENDBRANCH  18  19
ENDBRANCH  17  18
ENDBRANCH  16  17
ENDBRANCH  15  16
ENDBRANCH   1  15
TORSDOF 22
ENDMDL
MODEL 2
REMARK VINA RESULT:     1.224      1.559      2.683
REMARK INTER + INTRA:           2.049
REMARK INTER:                   3.353
REMARK INTRA:                  -1.303
REMARK UNBOUND:                -0.750
REMARK SMILES CCCCCCCCCCCCCCCCCCCCCCCC(=O)[O-]
REMARK SMILES IDX 13 1 14 2 15 3 16 4 17 5 18 6 19 7 20 8 21 9 22 10 23 11
REMARK SMILES IDX 24 12 25 13 26 14 12 15 11 16 10 17 9 18 8 19 7 20 6 21 5 22
REMARK SMILES IDX 4 23 3 24 2 25 1 26
REMARK H PARENT
REMARK Flexibility Score: inf
ROOT
ATOM      1  C   UNL     1     -26.502  10.583  -6.110  1.00  0.00     0.000 C 
ENDROOT
BRANCH   1   2
ATOM      2  C   UNL     1     -26.686  11.079  -4.665  1.00  0.00     0.000 C 
BRANCH   2   3
ATOM      3  C   UNL     1     -25.368  11.123  -3.877  1.00  0.00     0.000 C 
BRANCH   3   4
ATOM      4  C   UNL     1     -24.498   9.875  -4.106  1.00  0.00     0.000 C 
BRANCH   4   5
ATOM      5  C   UNL     1     -22.999  10.158  -3.906  1.00  0.00     0.000 C 
BRANCH   5   6
ATOM      6  C   UNL     1     -22.108   9.242  -4.759  1.00  0.00     0.000 C 
BRANCH   6   7
ATOM      7  C   UNL     1     -22.123   7.783  -4.277  1.00  0.00     0.000 C 
BRANCH   7   8
ATOM      8  C   UNL     1     -21.730   6.825  -5.407  1.00  0.00     0.000 C 
BRANCH   8   9
ATOM      9  C   UNL     1     -22.961   6.389  -6.213  1.00  0.00     0.000 C 
BRANCH   9  10
ATOM     10  C   UNL     1     -24.288   6.638  -5.471  1.00  0.00     0.006 C 
BRANCH  10  11
ATOM     11  C   UNL     1     -25.519   6.034  -6.172  1.00  0.00     0.053 C 
BRANCH  11  12
ATOM     12  C   UNL     1     -25.380   4.561  -6.416  1.00  0.00     0.041 C 
ATOM     13  O   UNL     1     -26.062   3.740  -5.749  1.00  0.00    -0.550 OA
ATOM     14  O   UNL     1     -24.520   4.097  -7.404  1.00  0.00    -0.550 OA
ENDBRANCH  11  12
ENDBRANCH  10  11
ENDBRANCH   9  10
ENDBRANCH   8   9
ENDBRANCH   7   8
ENDBRANCH   6   7
ENDBRANCH   5   6
ENDBRANCH   4   5
ENDBRANCH   3   4
ENDBRANCH   2   3
ENDBRANCH   1   2
BRANCH   1  15
ATOM     15  C   UNL     1     -27.331   9.324  -6.444  1.00  0.00     0.000 C 
BRANCH  15  16
ATOM     16  C   UNL     1     -27.313   8.297  -5.303  1.00  0.00     0.000 C 
BRANCH  16  17
ATOM     17  C   UNL     1     -28.706   7.692  -5.084  1.00  0.00     0.000 C 
BRANCH  17  18
ATOM     18  C   UNL     1     -29.558   8.588  -4.174  1.00  0.00    -0.000 C 
BRANCH  18  19
ATOM     19  C   UNL     1     -31.013   8.728  -4.660  1.00  0.00    -0.000 C 
BRANCH  19  20
ATOM     20  C   UNL     1     -31.324   8.038  -6.001  1.00  0.00    -0.000 C 
BRANCH  20  21
ATOM     21  C   UNL     1     -31.546   9.036  -7.151  1.00  0.00    -0.000 C 
BRANCH  21  22
ATOM     22  C   UNL     1     -32.966   9.625  -7.156  1.00  0.00    -0.000 C 
BRANCH  22  23
ATOM     23  C   UNL     1     -33.852   9.029  -8.260  1.00  0.00    -0.000 C 
BRANCH  23  24
ATOM     24  C   UNL     1     -33.347   7.639  -8.676  1.00  0.00    -0.000 C 
BRANCH  24  25
ATOM     25  C   UNL     1     -34.125   6.499  -8.003  1.00  0.00    -0.003 C 
ATOM     26  C   UNL     1     -34.043   5.184  -8.780  1.00  0.00     0.004 C 
ENDBRANCH  24  25
ENDBRANCH  23  24
ENDBRANCH  22  23
ENDBRANCH  21  22
ENDBRANCH  20  21
ENDBRANCH  19  20
ENDBRANCH  18  19
ENDBRANCH  17  18
ENDBRANCH  16  17
ENDBRANCH  15  16
ENDBRANCH   1  15
TORSDOF 22
ENDMDL
MODEL 3
REMARK VINA RESULT:     1.252      2.694      8.887
REMARK INTER + INTRA:           2.113
REMARK INTER:                   1.546
REMARK INTRA:                   0.568
REMARK UNBOUND:                -0.750
REMARK SMILES CCCCCCCCCCCCCCCCCCCCCCCC(=O)[O-]
REMARK SMILES IDX 13 1 14 2 15 3 16 4 17 5 18 6 19 7 20 8 21 9 22 10 23 11
REMARK SMILES IDX 24 12 25 13 26 14 12 15 11 16 10 17 9 18 8 19 7 20 6 21 5 22
REMARK SMILES IDX 4 23 3 24 2 25 1 26
REMARK H PARENT
REMARK Flexibility Score: inf
ROOT
ATOM      1  C   UNL     1     -27.910   9.024  -4.238  1.00  0.00     0.000 C 
ENDROOT
BRANCH   1   2
ATOM      2  C   UNL     1     -28.101   8.717  -5.733  1.00  0.00     0.000 C 
BRANCH   2   3
ATOM      3  C   UNL     1     -29.217   7.694  -5.994  1.00  0.00     0.000 C 
BRANCH   3   4
ATOM      4  C   UNL     1     -30.603   8.206  -5.566  1.00  0.00     0.000 C 
BRANCH   4   5
ATOM      5  C   UNL     1     -31.127   9.324  -6.484  1.00  0.00     0.000 C 
BRANCH   5   6
ATOM      6  C   UNL     1     -31.826   8.775  -7.739  1.00  0.00     0.000 C 
BRANCH   6   7
ATOM      7  C   UNL     1     -33.269   9.284  -7.883  1.00  0.00     0.000 C 
BRANCH   7   8
ATOM      8  C   UNL     1     -34.124   8.292  -8.680  1.00  0.00     0.000 C 
BRANCH   8   9
ATOM      9  C   UNL     1     -34.027   6.879  -8.087  1.00  0.00     0.000 C 
BRANCH   9  10
ATOM     10  C   UNL     1     -33.687   5.805  -9.136  1.00  0.00     0.006 C 
BRANCH  10  11
ATOM     11  C   UNL     1     -32.558   6.209 -10.101  1.00  0.00     0.053 C 
BRANCH  11  12
ATOM     12  C   UNL     1     -32.695   5.570 -11.450  1.00  0.00     0.041 C 
ATOM     13  O   UNL     1     -33.748   4.952 -11.756  1.00  0.00    -0.550 OA
ATOM     14  O   UNL     1     -31.671   5.686 -12.383  1.00  0.00    -0.550 OA
ENDBRANCH  11  12
ENDBRANCH  10  11
ENDBRANCH   9  10
ENDBRANCH   8   9
ENDBRANCH   7   8
ENDBRANCH   6   7
ENDBRANCH   5   6
ENDBRANCH   4   5
ENDBRANCH   3   4
ENDBRANCH   2   3
ENDBRANCH   1   2
BRANCH   1  15
ATOM     15  C   UNL     1     -27.063  10.286  -3.966  1.00  0.00     0.000 C 
BRANCH  15  16
ATOM     16  C   UNL     1     -26.731  11.052  -5.256  1.00  0.00     0.000 C 
BRANCH  16  17
ATOM     17  C   UNL     1     -25.320  10.712  -5.751  1.00  0.00     0.000 C 
BRANCH  17  18
ATOM     18  C   UNL     1     -24.321  10.677  -4.586  1.00  0.00    -0.000 C 
BRANCH  18  19
ATOM     19  C   UNL     1     -24.027   9.250  -4.088  1.00  0.00    -0.000 C 
BRANCH  19  20
ATOM     20  C   UNL     1     -22.539   8.853  -4.083  1.00  0.00    -0.000 C 
BRANCH  20  21
ATOM     21  C   UNL     1     -22.171   7.895  -5.229  1.00  0.00    -0.000 C 
BRANCH  21  22
ATOM     22  C   UNL     1     -23.299   6.904  -5.556  1.00  0.00    -0.000 C 
BRANCH  22  23
ATOM     23  C   UNL     1     -24.697   7.524  -5.410  1.00  0.00    -0.000 C 
BRANCH  23  24
ATOM     24  C   UNL     1     -25.785   6.525  -5.830  1.00  0.00    -0.000 C 
BRANCH  24  25
ATOM     25  C   UNL     1     -25.353   5.063  -5.642  1.00  0.00    -0.003 C 
ATOM     26  C   UNL     1     -25.618   4.203  -6.878  1.00  0.00     0.004 C 
ENDBRANCH  24  25
ENDBRANCH  23  24
ENDBRANCH  22  23
ENDBRANCH  21  22
ENDBRANCH  20  21
ENDBRANCH  19  20
ENDBRANCH  18  19
ENDBRANCH  17  18
ENDBRANCH  16  17
ENDBRANCH  15  16
ENDBRANCH   1  15
TORSDOF 22
ENDMDL
MODEL 4
REMARK VINA RESULT:     2.774      2.809      9.012
REMARK INTER + INTRA:           5.593
REMARK INTER:                   1.561
REMARK INTRA:                   4.032
REMARK UNBOUND:                -0.750
REMARK SMILES CCCCCCCCCCCCCCCCCCCCCCCC(=O)[O-]
REMARK SMILES IDX 13 1 14 2 15 3 16 4 17 5 18 6 19 7 20 8 21 9 22 10 23 11
REMARK SMILES IDX 24 12 25 13 26 14 12 15 11 16 10 17 9 18 8 19 7 20 6 21 5 22
REMARK SMILES IDX 4 23 3 24 2 25 1 26
REMARK H PARENT
REMARK Flexibility Score: inf
ROOT
ATOM      1  C   UNL     1     -27.284  10.100  -6.404  1.00  0.00     0.000 C 
ENDROOT
BRANCH   1   2
ATOM      2  C   UNL     1     -27.988  10.061  -5.036  1.00  0.00     0.000 C 
BRANCH   2   3
ATOM      3  C   UNL     1     -28.024   8.653  -4.423  1.00  0.00     0.000 C 
BRANCH   3   4
ATOM      4  C   UNL     1     -29.314   7.888  -4.767  1.00  0.00     0.000 C 
BRANCH   4   5
ATOM      5  C   UNL     1     -30.369   8.786  -5.437  1.00  0.00     0.000 C 
BRANCH   5   6
ATOM      6  C   UNL     1     -30.434   8.582  -6.959  1.00  0.00     0.000 C 
BRANCH   6   7
ATOM      7  C   UNL     1     -31.853   8.763  -7.521  1.00  0.00     0.000 C 
BRANCH   7   8
ATOM      8  C   UNL     1     -32.409   7.434  -8.048  1.00  0.00     0.000 C 
BRANCH   8   9
ATOM      9  C   UNL     1     -33.582   6.947  -7.187  1.00  0.00     0.000 C 
BRANCH   9  10
ATOM     10  C   UNL     1     -33.789   5.422  -7.255  1.00  0.00     0.006 C 
BRANCH  10  11
ATOM     11  C   UNL     1     -34.112   4.898  -8.666  1.00  0.00     0.053 C 
BRANCH  11  12
ATOM     12  C   UNL     1     -34.007   5.962  -9.717  1.00  0.00     0.041 C 
ATOM     13  O   UNL     1     -33.980   5.651 -10.936  1.00  0.00    -0.550 OA
ATOM     14  O   UNL     1     -33.972   7.301  -9.349  1.00  0.00    -0.550 OA
ENDBRANCH  11  12
ENDBRANCH  10  11
ENDBRANCH   9  10
ENDBRANCH   8   9
ENDBRANCH   7   8
ENDBRANCH   6   7
ENDBRANCH   5   6
ENDBRANCH   4   5
ENDBRANCH   3   4
ENDBRANCH   2   3
ENDBRANCH   1   2
BRANCH   1  15
ATOM     15  C   UNL     1     -26.121  11.111  -6.475  1.00  0.00     0.000 C 
BRANCH  15  16
ATOM     16  C   UNL     1     -24.820  10.544  -5.886  1.00  0.00     0.000 C 
BRANCH  16  17
ATOM     17  C   UNL     1     -24.916  10.413  -4.361  1.00  0.00     0.000 C 
BRANCH  17  18
ATOM     18  C   UNL     1     -24.243   9.122  -3.875  1.00  0.00    -0.000 C 
BRANCH  18  19
ATOM     19  C   UNL     1     -22.717   9.123  -4.086  1.00  0.00    -0.000 C 
BRANCH  19  20
ATOM     20  C   UNL     1     -22.253   8.786  -5.515  1.00  0.00    -0.000 C 
BRANCH  20  21
ATOM     21  C   UNL     1     -21.084   7.786  -5.544  1.00  0.00    -0.000 C 
BRANCH  21  22
ATOM     22  C   UNL     1     -21.549   6.338  -5.760  1.00  0.00    -0.000 C 
BRANCH  22  23
ATOM     23  C   UNL     1     -22.991   6.100  -5.288  1.00  0.00    -0.000 C 
BRANCH  23  24
ATOM     24  C   UNL     1     -23.872   5.610  -6.447  1.00  0.00    -0.000 C 
BRANCH  24  25
ATOM     25  C   UNL     1     -25.337   5.405  -6.033  1.00  0.00    -0.003 C 
ATOM     26  C   UNL     1     -26.068   6.722  -5.769  1.00  0.00     0.004 C 
ENDBRANCH  24  25
ENDBRANCH  23  24
ENDBRANCH  22  23
ENDBRANCH  21  22
ENDBRANCH  20  21
ENDBRANCH  19  20
ENDBRANCH  18  19
ENDBRANCH  17  18
ENDBRANCH  16  17
ENDBRANCH  15  16
ENDBRANCH   1  15
TORSDOF 22
ENDMDL
MODEL 5
REMARK VINA RESULT:     3.195      3.217      4.133
REMARK INTER + INTRA:           6.555
REMARK INTER:                   7.388
REMARK INTRA:                  -0.833
REMARK UNBOUND:                -0.750
REMARK SMILES CCCCCCCCCCCCCCCCCCCCCCCC(=O)[O-]
REMARK SMILES IDX 13 1 14 2 15 3 16 4 17 5 18 6 19 7 20 8 21 9 22 10 23 11
REMARK SMILES IDX 24 12 25 13 26 14 12 15 11 16 10 17 9 18 8 19 7 20 6 21 5 22
REMARK SMILES IDX 4 23 3 24 2 25 1 26
REMARK H PARENT
REMARK Flexibility Score: inf
ROOT
ATOM      1  C   UNL     1     -26.883   9.780  -6.222  1.00  0.00     0.000 C 
ENDROOT
BRANCH   1   2
ATOM      2  C   UNL     1     -25.916  10.855  -5.696  1.00  0.00     0.000 C 
BRANCH   2   3
ATOM      3  C   UNL     1     -25.290  10.482  -4.343  1.00  0.00     0.000 C 
BRANCH   3   4
ATOM      4  C   UNL     1     -24.784   9.030  -4.303  1.00  0.00     0.000 C 
BRANCH   4   5
ATOM      5  C   UNL     1     -23.309   8.931  -3.876  1.00  0.00     0.000 C 
BRANCH   5   6
ATOM      6  C   UNL     1     -22.353   8.854  -5.077  1.00  0.00     0.000 C 
BRANCH   6   7
ATOM      7  C   UNL     1     -22.578   7.599  -5.935  1.00  0.00     0.000 C 
BRANCH   7   8
ATOM      8  C   UNL     1     -21.287   6.782  -6.064  1.00  0.00     0.000 C 
BRANCH   8   9
ATOM      9  C   UNL     1     -20.153   7.410  -5.241  1.00  0.00     0.000 C 
BRANCH   9  10
ATOM     10  C   UNL     1     -18.762   6.865  -5.614  1.00  0.00     0.006 C 
BRANCH  10  11
ATOM     11  C   UNL     1     -17.598   7.593  -4.917  1.00  0.00     0.053 C 
BRANCH  11  12
ATOM     12  C   UNL     1     -16.812   8.457  -5.856  1.00  0.00     0.041 C 
ATOM     13  O   UNL     1     -16.581   8.071  -7.032  1.00  0.00    -0.550 OA
ATOM     14  O   UNL     1     -16.361   9.704  -5.442  1.00  0.00    -0.550 OA
ENDBRANCH  11  12
ENDBRANCH  10  11
ENDBRANCH   9  10
ENDBRANCH   8   9
ENDBRANCH   7   8
ENDBRANCH   6   7
ENDBRANCH   5   6
ENDBRANCH   4   5
ENDBRANCH   3   4
ENDBRANCH   2   3
ENDBRANCH   1   2
BRANCH   1  15
ATOM     15  C   UNL     1     -27.483   8.888  -5.114  1.00  0.00     0.000 C 
BRANCH  15  16
ATOM     16  C   UNL     1     -28.948   9.238  -4.816  1.00  0.00     0.000 C 
BRANCH  16  17
ATOM     17  C   UNL     1     -29.778   7.972  -4.571  1.00  0.00     0.000 C 
BRANCH  17  18
ATOM     18  C   UNL     1     -30.836   7.786  -5.668  1.00  0.00    -0.000 C 
BRANCH  18  19
ATOM     19  C   UNL     1     -30.555   8.633  -6.923  1.00  0.00    -0.000 C 
BRANCH  19  20
ATOM     20  C   UNL     1     -31.637   8.560  -8.017  1.00  0.00    -0.000 C 
BRANCH  20  21
ATOM     21  C   UNL     1     -33.064   8.690  -7.457  1.00  0.00    -0.000 C 
BRANCH  21  22
ATOM     22  C   UNL     1     -34.032   7.661  -8.062  1.00  0.00    -0.000 C 
BRANCH  22  23
ATOM     23  C   UNL     1     -33.522   6.217  -7.933  1.00  0.00    -0.000 C 
BRANCH  23  24
ATOM     24  C   UNL     1     -34.117   5.328  -9.036  1.00  0.00    -0.000 C 
BRANCH  24  25
ATOM     25  C   UNL     1     -34.124   6.012 -10.411  1.00  0.00    -0.003 C 
ATOM     26  C   UNL     1     -33.736   5.065 -11.547  1.00  0.00     0.004 C 
ENDBRANCH  24  25
ENDBRANCH  23  24
ENDBRANCH  22  23
ENDBRANCH  21  22
ENDBRANCH  20  21
ENDBRANCH  19  20
ENDBRANCH  18  19
ENDBRANCH  17  18
ENDBRANCH  16  17
ENDBRANCH  15  16
ENDBRANCH   1  15
TORSDOF 22
ENDMDL
MODEL 6
REMARK VINA RESULT:     3.234      2.617      3.190
REMARK INTER + INTRA:           6.644
REMARK INTER:                   8.000
REMARK INTRA:                  -1.356
REMARK UNBOUND:                -0.750
REMARK SMILES CCCCCCCCCCCCCCCCCCCCCCCC(=O)[O-]
REMARK SMILES IDX 13 1 14 2 15 3 16 4 17 5 18 6 19 7 20 8 21 9 22 10 23 11
REMARK SMILES IDX 24 12 25 13 26 14 12 15 11 16 10 17 9 18 8 19 7 20 6 21 5 22
REMARK SMILES IDX 4 23 3 24 2 25 1 26
REMARK H PARENT
REMARK Flexibility Score: inf
ROOT
ATOM      1  C   UNL     1     -27.949   9.148  -6.365  1.00  0.00     0.000 C 
ENDROOT
BRANCH   1   2
ATOM      2  C   UNL     1     -26.967  10.326  -6.246  1.00  0.00     0.000 C 
BRANCH   2   3
ATOM      3  C   UNL     1     -26.958  10.956  -4.844  1.00  0.00     0.000 C 
BRANCH   3   4
ATOM      4  C   UNL     1     -25.538  11.103  -4.270  1.00  0.00     0.000 C 
BRANCH   4   5
ATOM      5  C   UNL     1     -24.913   9.750  -3.888  1.00  0.00     0.000 C 
BRANCH   5   6
ATOM      6  C   UNL     1     -23.856   9.284  -4.901  1.00  0.00     0.000 C 
BRANCH   6   7
ATOM      7  C   UNL     1     -22.985   8.137  -4.363  1.00  0.00     0.000 C 
BRANCH   7   8
ATOM      8  C   UNL     1     -23.078   6.904  -5.269  1.00  0.00     0.000 C 
BRANCH   8   9
ATOM      9  C   UNL     1     -21.878   6.831  -6.224  1.00  0.00     0.000 C 
BRANCH   9  10
ATOM     10  C   UNL     1     -20.553   6.516  -5.507  1.00  0.00     0.006 C 
BRANCH  10  11
ATOM     11  C   UNL     1     -19.362   7.363  -5.993  1.00  0.00     0.053 C 
BRANCH  11  12
ATOM     12  C   UNL     1     -18.173   7.263  -5.085  1.00  0.00     0.041 C 
ATOM     13  O   UNL     1     -17.972   6.215  -4.416  1.00  0.00    -0.550 OA
ATOM     14  O   UNL     1     -17.270   8.315  -5.001  1.00  0.00    -0.550 OA
ENDBRANCH  11  12
ENDBRANCH  10  11
ENDBRANCH   9  10
ENDBRANCH   8   9
ENDBRANCH   7   8
ENDBRANCH   6   7
ENDBRANCH   5   6
ENDBRANCH   4   5
ENDBRANCH   3   4
ENDBRANCH   2   3
ENDBRANCH   1   2
BRANCH   1  15
ATOM     15  C   UNL     1     -28.598   8.743  -5.024  1.00  0.00     0.000 C 
BRANCH  15  16
ATOM     16  C   UNL     1     -30.090   8.415  -5.177  1.00  0.00     0.000 C 
BRANCH  16  17
ATOM     17  C   UNL     1     -30.552   8.607  -6.626  1.00  0.00     0.000 C 
BRANCH  17  18
ATOM     18  C   UNL     1     -32.061   8.882  -6.692  1.00  0.00    -0.000 C 
BRANCH  18  19
ATOM     19  C   UNL     1     -32.666   8.588  -8.077  1.00  0.00    -0.000 C 
BRANCH  19  20
ATOM     20  C   UNL     1     -34.082   7.982  -8.057  1.00  0.00    -0.000 C 
BRANCH  20  21
ATOM     21  C   UNL     1     -34.124   6.578  -7.429  1.00  0.00    -0.000 C 
BRANCH  21  22
ATOM     22  C   UNL     1     -34.074   5.459  -8.480  1.00  0.00    -0.000 C 
BRANCH  22  23
ATOM     23  C   UNL     1     -34.022   5.996  -9.919  1.00  0.00    -0.000 C 
BRANCH  23  24
ATOM     24  C   UNL     1     -32.629   5.783 -10.531  1.00  0.00    -0.000 C 
BRANCH  24  25
ATOM     25  C   UNL     1     -32.682   5.485 -12.037  1.00  0.00    -0.003 C 
ATOM     26  C   UNL     1     -33.783   4.490 -12.407  1.00  0.00     0.004 C 
ENDBRANCH  24  25
ENDBRANCH  23  24
ENDBRANCH  22  23
ENDBRANCH  21  22
ENDBRANCH  20  21
ENDBRANCH  19  20
ENDBRANCH  18  19
ENDBRANCH  17  18
ENDBRANCH  16  17
ENDBRANCH  15  16
ENDBRANCH   1  15
TORSDOF 22
ENDMDL
