MODEL 1
REMARK VINA RESULT:    -7.538      0.000      0.000
REMARK INTER + INTRA:          -9.289
REMARK INTER:                  -9.080
REMARK INTRA:                  -0.209
REMARK UNBOUND:                -0.209
REMARK SMILES O=c1c(O)c(-c2ccc(O)cc2O)oc2cc(O)cc(O)c12
REMARK SMILES IDX 5 1 3 2 2 3 1 4 22 5 20 6 19 7 17 8 16 9 15 10 14 11 6 12
REMARK SMILES IDX 8 13 7 14 9 15 11 16 12 17 10 18 13 20 4 22 21 24 18 26
REMARK H PARENT 10 19 13 21 4 23 21 25 18 27
REMARK Flexibility Score: inf
ROOT
ATOM      1  C   UNL     1       5.260 -23.985 -23.370  1.00  0.00     0.184 A 
ATOM      2  C   UNL     1       6.356 -24.834 -23.582  1.00  0.00     0.208 A 
ATOM      3  C   UNL     1       6.837 -25.013 -24.888  1.00  0.00     0.238 A 
ATOM      4  O   UNL     1       7.781 -25.823 -25.079  1.00  0.00    -0.285 OA
ATOM      5  C   UNL     1       6.231 -24.316 -25.962  1.00  0.00     0.111 A 
ATOM      6  C   UNL     1       6.660 -24.390 -27.322  1.00  0.00     0.134 A 
ATOM      7  C   UNL     1       5.911 -23.753 -28.318  1.00  0.00     0.093 A 
ATOM      8  C   UNL     1       4.783 -22.993 -27.997  1.00  0.00     0.123 A 
ATOM      9  C   UNL     1       4.390 -22.866 -26.667  1.00  0.00     0.094 A 
ATOM     10  C   UNL     1       5.097 -23.520 -25.654  1.00  0.00     0.146 A 
ATOM     11  O   UNL     1       4.678 -23.384 -24.401  1.00  0.00    -0.451 OA
ENDROOT
BRANCH   1  12
ATOM     12  C   UNL     1       4.725 -23.741 -22.013  1.00  0.00     0.063 A 
ATOM     13  C   UNL     1       2.890 -23.951 -20.427  1.00  0.00     0.047 A 
ATOM     14  C   UNL     1       3.404 -24.119 -21.714  1.00  0.00     0.020 A 
ATOM     15  C   UNL     1       3.692 -23.408 -19.417  1.00  0.00     0.119 A 
ATOM     16  C   UNL     1       5.007 -23.030 -19.702  1.00  0.00     0.093 A 
ATOM     17  C   UNL     1       5.530 -23.185 -20.991  1.00  0.00     0.130 A 
BRANCH  15  18
ATOM     18  O   UNL     1       3.192 -23.241 -18.127  1.00  0.00    -0.508 OA
ATOM     19  H   UNL     1       2.222 -22.997 -17.962  1.00  0.00     0.293 HD
ENDBRANCH  15  18
BRANCH  17  20
ATOM     20  O   UNL     1       6.838 -22.756 -21.228  1.00  0.00    -0.507 OA
ATOM     21  H   UNL     1       7.448 -23.193 -21.907  1.00  0.00     0.293 HD
ENDBRANCH  17  20
ENDBRANCH   1  12
BRANCH   2  22
ATOM     22  O   UNL     1       6.937 -25.506 -22.502  1.00  0.00    -0.502 OA
ATOM     23  H   UNL     1       7.184 -25.037 -21.641  1.00  0.00     0.293 HD
ENDBRANCH   2  22
BRANCH   6  24
ATOM     24  O   UNL     1       7.821 -25.047 -27.739  1.00  0.00    -0.507 OA
ATOM     25  H   UNL     1       7.904 -26.044 -27.868  1.00  0.00     0.293 HD
ENDBRANCH   6  24
BRANCH   8  26
ATOM     26  O   UNL     1       4.052 -22.349 -28.993  1.00  0.00    -0.508 OA
ATOM     27  H   UNL     1       4.496 -21.724 -29.656  1.00  0.00     0.293 HD
ENDBRANCH   8  26
TORSDOF 6
ENDMDL
MODEL 2
REMARK VINA RESULT:    -7.140      9.330     10.212
REMARK INTER + INTRA:          -8.810
REMARK INTER:                  -8.474
REMARK INTRA:                  -0.336
REMARK UNBOUND:                -0.209
REMARK SMILES O=c1c(O)c(-c2ccc(O)cc2O)oc2cc(O)cc(O)c12
REMARK SMILES IDX 5 1 3 2 2 3 1 4 22 5 20 6 19 7 17 8 16 9 15 10 14 11 6 12
REMARK SMILES IDX 8 13 7 14 9 15 11 16 12 17 10 18 13 20 4 22 21 24 18 26
REMARK H PARENT 10 19 13 21 4 23 21 25 18 27
REMARK Flexibility Score: inf
ROOT
ATOM      1  C   UNL     1       2.531 -33.277 -22.245  1.00  0.00     0.184 A 
ATOM      2  C   UNL     1       1.644 -32.928 -23.275  1.00  0.00     0.208 A 
ATOM      3  C   UNL     1       2.099 -32.951 -24.602  1.00  0.00     0.238 A 
ATOM      4  O   UNL     1       1.317 -32.578 -25.515  1.00  0.00    -0.285 OA
ATOM      5  C   UNL     1       3.428 -33.350 -24.883  1.00  0.00     0.111 A 
ATOM      6  C   UNL     1       3.986 -33.449 -26.194  1.00  0.00     0.134 A 
ATOM      7  C   UNL     1       5.347 -33.737 -26.346  1.00  0.00     0.093 A 
ATOM      8  C   UNL     1       6.158 -33.993 -25.238  1.00  0.00     0.123 A 
ATOM      9  C   UNL     1       5.611 -33.956 -23.957  1.00  0.00     0.094 A 
ATOM     10  C   UNL     1       4.264 -33.637 -23.772  1.00  0.00     0.146 A 
ATOM     11  O   UNL     1       3.787 -33.599 -22.533  1.00  0.00    -0.451 OA
ENDROOT
BRANCH   1  12
ATOM     12  C   UNL     1       2.101 -33.293 -20.830  1.00  0.00     0.063 A 
ATOM     13  C   UNL     1       1.675 -34.561 -18.797  1.00  0.00     0.047 A 
ATOM     14  C   UNL     1       2.024 -34.520 -20.148  1.00  0.00     0.020 A 
ATOM     15  C   UNL     1       1.404 -33.375 -18.105  1.00  0.00     0.119 A 
ATOM     16  C   UNL     1       1.479 -32.150 -18.774  1.00  0.00     0.093 A 
ATOM     17  C   UNL     1       1.818 -32.097 -20.131  1.00  0.00     0.130 A 
BRANCH  15  18
ATOM     18  O   UNL     1       1.059 -33.403 -16.756  1.00  0.00    -0.508 OA
ATOM     19  H   UNL     1       0.095 -33.329 -16.453  1.00  0.00     0.293 HD
ENDBRANCH  15  18
BRANCH  17  20
ATOM     20  O   UNL     1       1.842 -30.848 -20.756  1.00  0.00    -0.507 OA
ATOM     21  H   UNL     1       1.176 -30.573 -21.467  1.00  0.00     0.293 HD
ENDBRANCH  17  20
ENDBRANCH   1  12
BRANCH   2  22
ATOM     22  O   UNL     1       0.337 -32.541 -22.968  1.00  0.00    -0.502 OA
ATOM     23  H   UNL     1      -0.344 -33.184 -22.585  1.00  0.00     0.293 HD
ENDBRANCH   2  22
BRANCH   6  24
ATOM     24  O   UNL     1       3.245 -33.301 -27.371  1.00  0.00    -0.507 OA
ATOM     25  H   UNL     1       3.641 -33.205 -28.293  1.00  0.00     0.293 HD
ENDBRANCH   6  24
BRANCH   8  26
ATOM     26  O   UNL     1       7.509 -34.295 -25.399  1.00  0.00    -0.508 OA
ATOM     27  H   UNL     1       8.229 -33.771 -24.917  1.00  0.00     0.293 HD
ENDBRANCH   8  26
TORSDOF 6
ENDMDL
MODEL 3
REMARK VINA RESULT:    -7.096      1.804      6.863
REMARK INTER + INTRA:          -8.757
REMARK INTER:                  -8.360
REMARK INTRA:                  -0.397
REMARK UNBOUND:                -0.209
REMARK SMILES O=c1c(O)c(-c2ccc(O)cc2O)oc2cc(O)cc(O)c12
REMARK SMILES IDX 5 1 3 2 2 3 1 4 22 5 20 6 19 7 17 8 16 9 15 10 14 11 6 12
REMARK SMILES IDX 8 13 7 14 9 15 11 16 12 17 10 18 13 20 4 22 21 24 18 26
REMARK H PARENT 10 19 13 21 4 23 21 25 18 27
REMARK Flexibility Score: inf
ROOT
ATOM      1  C   UNL     1       5.068 -23.944 -25.185  1.00  0.00     0.184 A 
ATOM      2  C   UNL     1       4.099 -24.859 -24.751  1.00  0.00     0.208 A 
ATOM      3  C   UNL     1       3.676 -24.821 -23.413  1.00  0.00     0.238 A 
ATOM      4  O   UNL     1       2.852 -25.684 -23.015  1.00  0.00    -0.285 OA
ATOM      5  C   UNL     1       4.209 -23.846 -22.536  1.00  0.00     0.111 A 
ATOM      6  C   UNL     1       3.825 -23.687 -21.169  1.00  0.00     0.134 A 
ATOM      7  C   UNL     1       4.507 -22.768 -20.362  1.00  0.00     0.093 A 
ATOM      8  C   UNL     1       5.516 -21.957 -20.887  1.00  0.00     0.123 A 
ATOM      9  C   UNL     1       5.859 -22.063 -22.233  1.00  0.00     0.094 A 
ATOM     10  C   UNL     1       5.221 -22.996 -23.055  1.00  0.00     0.146 A 
ATOM     11  O   UNL     1       5.589 -23.073 -24.329  1.00  0.00    -0.451 OA
ENDROOT
BRANCH   1  12
ATOM     12  C   UNL     1       5.535 -23.923 -26.589  1.00  0.00     0.063 A 
ATOM     13  C   UNL     1       7.118 -24.690 -28.270  1.00  0.00     0.047 A 
ATOM     14  C   UNL     1       6.687 -24.647 -26.943  1.00  0.00     0.020 A 
ATOM     15  C   UNL     1       6.401 -24.016 -29.264  1.00  0.00     0.119 A 
ATOM     16  C   UNL     1       5.254 -23.294 -28.923  1.00  0.00     0.093 A 
ATOM     17  C   UNL     1       4.817 -23.235 -27.595  1.00  0.00     0.130 A 
BRANCH  15  18
ATOM     18  O   UNL     1       6.820 -24.056 -30.592  1.00  0.00    -0.508 OA
ATOM     19  H   UNL     1       7.797 -24.172 -30.837  1.00  0.00     0.293 HD
ENDBRANCH  15  18
BRANCH  17  20
ATOM     20  O   UNL     1       3.685 -22.468 -27.307  1.00  0.00    -0.507 OA
ATOM     21  H   UNL     1       3.718 -21.468 -27.157  1.00  0.00     0.293 HD
ENDBRANCH  17  20
ENDBRANCH   1  12
BRANCH   2  22
ATOM     22  O   UNL     1       3.587 -25.809 -25.641  1.00  0.00    -0.502 OA
ATOM     23  H   UNL     1       2.920 -25.571 -26.363  1.00  0.00     0.293 HD
ENDBRANCH   2  22
BRANCH   6  24
ATOM     24  O   UNL     1       2.772 -24.382 -20.569  1.00  0.00    -0.507 OA
ATOM     25  H   UNL     1       2.561 -25.356 -20.725  1.00  0.00     0.293 HD
ENDBRANCH   6  24
BRANCH   8  26
ATOM     26  O   UNL     1       6.179 -21.035 -20.080  1.00  0.00    -0.508 OA
ATOM     27  H   UNL     1       7.190 -20.979 -20.060  1.00  0.00     0.293 HD
ENDBRANCH   8  26
TORSDOF 6
ENDMDL
MODEL 4
REMARK VINA RESULT:    -7.004      2.072      7.153
REMARK INTER + INTRA:          -8.646
REMARK INTER:                  -8.235
REMARK INTRA:                  -0.412
REMARK UNBOUND:                -0.209
REMARK SMILES O=c1c(O)c(-c2ccc(O)cc2O)oc2cc(O)cc(O)c12
REMARK SMILES IDX 5 1 3 2 2 3 1 4 22 5 20 6 19 7 17 8 16 9 15 10 14 11 6 12
REMARK SMILES IDX 8 13 7 14 9 15 11 16 12 17 10 18 13 20 4 22 21 24 18 26
REMARK H PARENT 10 19 13 21 4 23 21 25 18 27
REMARK Flexibility Score: inf
ROOT
ATOM      1  C   UNL     1       4.629 -24.364 -25.557  1.00  0.00     0.184 A 
ATOM      2  C   UNL     1       3.304 -24.161 -25.145  1.00  0.00     0.208 A 
ATOM      3  C   UNL     1       3.019 -24.108 -23.772  1.00  0.00     0.238 A 
ATOM      4  O   UNL     1       1.820 -23.986 -23.408  1.00  0.00    -0.285 OA
ATOM      5  C   UNL     1       4.069 -24.230 -22.830  1.00  0.00     0.111 A 
ATOM      6  C   UNL     1       3.903 -24.151 -21.414  1.00  0.00     0.134 A 
ATOM      7  C   UNL     1       4.994 -24.408 -20.575  1.00  0.00     0.093 A 
ATOM      8  C   UNL     1       6.260 -24.678 -21.101  1.00  0.00     0.123 A 
ATOM      9  C   UNL     1       6.446 -24.699 -22.481  1.00  0.00     0.094 A 
ATOM     10  C   UNL     1       5.369 -24.482 -23.344  1.00  0.00     0.146 A 
ATOM     11  O   UNL     1       5.587 -24.526 -24.653  1.00  0.00    -0.451 OA
ENDROOT
BRANCH   1  12
ATOM     12  C   UNL     1       4.993 -24.406 -26.991  1.00  0.00     0.063 A 
ATOM     13  C   UNL     1       5.866 -23.261 -28.953  1.00  0.00     0.047 A 
ATOM     14  C   UNL     1       5.464 -23.238 -27.616  1.00  0.00     0.020 A 
ATOM     15  C   UNL     1       5.810 -24.454 -29.683  1.00  0.00     0.119 A 
ATOM     16  C   UNL     1       5.344 -25.620 -29.070  1.00  0.00     0.093 A 
ATOM     17  C   UNL     1       4.929 -25.608 -27.734  1.00  0.00     0.130 A 
BRANCH  15  18
ATOM     18  O   UNL     1       6.214 -24.490 -31.016  1.00  0.00    -0.508 OA
ATOM     19  H   UNL     1       5.559 -24.329 -31.772  1.00  0.00     0.293 HD
ENDBRANCH  15  18
BRANCH  17  20
ATOM     20  O   UNL     1       4.439 -26.795 -27.184  1.00  0.00    -0.507 OA
ATOM     21  H   UNL     1       4.417 -26.975 -26.188  1.00  0.00     0.293 HD
ENDBRANCH  17  20
ENDBRANCH   1  12
BRANCH   2  22
ATOM     22  O   UNL     1       2.288 -24.040 -26.097  1.00  0.00    -0.502 OA
ATOM     23  H   UNL     1       2.378 -24.405 -27.036  1.00  0.00     0.293 HD
ENDBRANCH   2  22
BRANCH   6  24
ATOM     24  O   UNL     1       2.703 -23.801 -20.788  1.00  0.00    -0.507 OA
ATOM     25  H   UNL     1       1.898 -23.417 -21.258  1.00  0.00     0.293 HD
ENDBRANCH   6  24
BRANCH   8  26
ATOM     26  O   UNL     1       7.343 -24.916 -20.258  1.00  0.00    -0.508 OA
ATOM     27  H   UNL     1       7.967 -24.170 -19.972  1.00  0.00     0.293 HD
ENDBRANCH   8  26
TORSDOF 6
ENDMDL
MODEL 5
REMARK VINA RESULT:    -6.965      1.999      2.464
REMARK INTER + INTRA:          -8.599
REMARK INTER:                  -8.344
REMARK INTRA:                  -0.255
REMARK UNBOUND:                -0.209
REMARK SMILES O=c1c(O)c(-c2ccc(O)cc2O)oc2cc(O)cc(O)c12
REMARK SMILES IDX 5 1 3 2 2 3 1 4 22 5 20 6 19 7 17 8 16 9 15 10 14 11 6 12
REMARK SMILES IDX 8 13 7 14 9 15 11 16 12 17 10 18 13 20 4 22 21 24 18 26
REMARK H PARENT 10 19 13 21 4 23 21 25 18 27
REMARK Flexibility Score: inf
ROOT
ATOM      1  C   UNL     1       5.516 -24.583 -22.992  1.00  0.00     0.184 A 
ATOM      2  C   UNL     1       6.624 -23.922 -23.543  1.00  0.00     0.208 A 
ATOM      3  C   UNL     1       7.094 -24.317 -24.805  1.00  0.00     0.238 A 
ATOM      4  O   UNL     1       8.125 -23.762 -25.267  1.00  0.00    -0.285 OA
ATOM      5  C   UNL     1       6.431 -25.350 -25.511  1.00  0.00     0.111 A 
ATOM      6  C   UNL     1       6.795 -25.807 -26.814  1.00  0.00     0.134 A 
ATOM      7  C   UNL     1       6.144 -26.917 -27.364  1.00  0.00     0.093 A 
ATOM      8  C   UNL     1       5.099 -27.549 -26.686  1.00  0.00     0.123 A 
ATOM      9  C   UNL     1       4.696 -27.075 -25.440  1.00  0.00     0.094 A 
ATOM     10  C   UNL     1       5.351 -25.992 -24.849  1.00  0.00     0.146 A 
ATOM     11  O   UNL     1       4.944 -25.582 -23.653  1.00  0.00    -0.451 OA
ENDROOT
BRANCH   1  12
ATOM     12  C   UNL     1       4.962 -24.194 -21.677  1.00  0.00     0.063 A 
ATOM     13  C   UNL     1       3.074 -23.399 -20.363  1.00  0.00     0.047 A 
ATOM     14  C   UNL     1       3.640 -23.722 -21.598  1.00  0.00     0.020 A 
ATOM     15  C   UNL     1       3.818 -23.551 -19.188  1.00  0.00     0.119 A 
ATOM     16  C   UNL     1       5.132 -24.021 -19.255  1.00  0.00     0.093 A 
ATOM     17  C   UNL     1       5.715 -24.337 -20.488  1.00  0.00     0.130 A 
BRANCH  15  18
ATOM     18  O   UNL     1       3.261 -23.237 -17.950  1.00  0.00    -0.508 OA
ATOM     19  H   UNL     1       2.529 -23.805 -17.539  1.00  0.00     0.293 HD
ENDBRANCH  15  18
BRANCH  17  20
ATOM     20  O   UNL     1       7.044 -24.768 -20.498  1.00  0.00    -0.507 OA
ATOM     21  H   UNL     1       7.830 -24.133 -20.552  1.00  0.00     0.293 HD
ENDBRANCH  17  20
ENDBRANCH   1  12
BRANCH   2  22
ATOM     22  O   UNL     1       7.257 -22.903 -22.826  1.00  0.00    -0.502 OA
ATOM     23  H   UNL     1       8.199 -22.599 -23.032  1.00  0.00     0.293 HD
ENDBRANCH   2  22
BRANCH   6  24
ATOM     24  O   UNL     1       7.763 -25.192 -27.613  1.00  0.00    -0.507 OA
ATOM     25  H   UNL     1       8.755 -25.367 -27.555  1.00  0.00     0.293 HD
ENDBRANCH   6  24
BRANCH   8  26
ATOM     26  O   UNL     1       4.446 -28.644 -27.249  1.00  0.00    -0.508 OA
ATOM     27  H   UNL     1       3.750 -29.169 -26.732  1.00  0.00     0.293 HD
ENDBRANCH   8  26
TORSDOF 6
ENDMDL
MODEL 6
REMARK VINA RESULT:    -6.941      1.809      1.932
REMARK INTER + INTRA:          -8.571
REMARK INTER:                  -8.234
REMARK INTRA:                  -0.337
REMARK UNBOUND:                -0.209
REMARK SMILES O=c1c(O)c(-c2ccc(O)cc2O)oc2cc(O)cc(O)c12
REMARK SMILES IDX 5 1 3 2 2 3 1 4 22 5 20 6 19 7 17 8 16 9 15 10 14 11 6 12
REMARK SMILES IDX 8 13 7 14 9 15 11 16 12 17 10 18 13 20 4 22 21 24 18 26
REMARK H PARENT 10 19 13 21 4 23 21 25 18 27
REMARK Flexibility Score: inf
ROOT
ATOM      1  C   UNL     1       5.007 -25.175 -23.596  1.00  0.00     0.184 A 
ATOM      2  C   UNL     1       5.008 -26.559 -23.820  1.00  0.00     0.208 A 
ATOM      3  C   UNL     1       5.301 -27.042 -25.104  1.00  0.00     0.238 A 
ATOM      4  O   UNL     1       5.240 -28.281 -25.313  1.00  0.00    -0.285 OA
ATOM      5  C   UNL     1       5.618 -26.132 -26.142  1.00  0.00     0.111 A 
ATOM      6  C   UNL     1       5.970 -26.509 -27.473  1.00  0.00     0.134 A 
ATOM      7  C   UNL     1       6.145 -25.520 -28.448  1.00  0.00     0.093 A 
ATOM      8  C   UNL     1       6.043 -24.164 -28.126  1.00  0.00     0.123 A 
ATOM      9  C   UNL     1       5.757 -23.784 -26.818  1.00  0.00     0.094 A 
ATOM     10  C   UNL     1       5.542 -24.748 -25.830  1.00  0.00     0.146 A 
ATOM     11  O   UNL     1       5.258 -24.341 -24.598  1.00  0.00    -0.451 OA
ENDROOT
BRANCH   1  12
ATOM     12  C   UNL     1       4.728 -24.610 -22.257  1.00  0.00     0.063 A 
ATOM     13  C   UNL     1       3.146 -23.592 -20.714  1.00  0.00     0.047 A 
ATOM     14  C   UNL     1       3.454 -24.081 -21.985  1.00  0.00     0.020 A 
ATOM     15  C   UNL     1       4.104 -23.630 -19.695  1.00  0.00     0.119 A 
ATOM     16  C   UNL     1       5.372 -24.155 -19.956  1.00  0.00     0.093 A 
ATOM     17  C   UNL     1       5.697 -24.640 -21.228  1.00  0.00     0.130 A 
BRANCH  15  18
ATOM     18  O   UNL     1       3.805 -23.150 -18.422  1.00  0.00    -0.508 OA
ATOM     19  H   UNL     1       4.172 -22.265 -18.090  1.00  0.00     0.293 HD
ENDBRANCH  15  18
BRANCH  17  20
ATOM     20  O   UNL     1       6.992 -25.120 -21.440  1.00  0.00    -0.507 OA
ATOM     21  H   UNL     1       7.702 -24.593 -21.932  1.00  0.00     0.293 HD
ENDBRANCH  17  20
ENDBRANCH   1  12
BRANCH   2  22
ATOM     22  O   UNL     1       4.694 -27.435 -22.776  1.00  0.00    -0.502 OA
ATOM     23  H   UNL     1       4.372 -27.110 -21.873  1.00  0.00     0.293 HD
ENDBRANCH   2  22
BRANCH   6  24
ATOM     24  O   UNL     1       6.185 -27.829 -27.879  1.00  0.00    -0.507 OA
ATOM     25  H   UNL     1       5.842 -28.232 -28.738  1.00  0.00     0.293 HD
ENDBRANCH   6  24
BRANCH   8  26
ATOM     26  O   UNL     1       6.235 -23.186 -29.100  1.00  0.00    -0.508 OA
ATOM     27  H   UNL     1       5.522 -22.979 -29.790  1.00  0.00     0.293 HD
ENDBRANCH   8  26
TORSDOF 6
ENDMDL
MODEL 7
REMARK VINA RESULT:    -6.781      4.605      5.801
REMARK INTER + INTRA:          -8.377
REMARK INTER:                  -8.005
REMARK INTRA:                  -0.373
REMARK UNBOUND:                -0.209
REMARK SMILES O=c1c(O)c(-c2ccc(O)cc2O)oc2cc(O)cc(O)c12
REMARK SMILES IDX 5 1 3 2 2 3 1 4 22 5 20 6 19 7 17 8 16 9 15 10 14 11 6 12
REMARK SMILES IDX 8 13 7 14 9 15 11 16 12 17 10 18 13 20 4 22 21 24 18 26
REMARK H PARENT 10 19 13 21 4 23 21 25 18 27
REMARK Flexibility Score: inf
ROOT
ATOM      1  C   UNL     1       4.585 -28.136 -26.184  1.00  0.00     0.184 A 
ATOM      2  C   UNL     1       5.689 -27.768 -25.401  1.00  0.00     0.208 A 
ATOM      3  C   UNL     1       6.562 -26.777 -25.876  1.00  0.00     0.238 A 
ATOM      4  O   UNL     1       7.583 -26.495 -25.198  1.00  0.00    -0.285 OA
ATOM      5  C   UNL     1       6.300 -26.147 -27.117  1.00  0.00     0.111 A 
ATOM      6  C   UNL     1       7.094 -25.102 -27.680  1.00  0.00     0.134 A 
ATOM      7  C   UNL     1       6.811 -24.637 -28.970  1.00  0.00     0.093 A 
ATOM      8  C   UNL     1       5.724 -25.135 -29.693  1.00  0.00     0.123 A 
ATOM      9  C   UNL     1       4.909 -26.114 -29.130  1.00  0.00     0.094 A 
ATOM     10  C   UNL     1       5.187 -26.623 -27.859  1.00  0.00     0.146 A 
ATOM     11  O   UNL     1       4.392 -27.566 -27.366  1.00  0.00    -0.451 OA
ENDROOT
BRANCH   1  12
ATOM     12  C   UNL     1       3.620 -29.158 -25.723  1.00  0.00     0.063 A 
ATOM     13  C   UNL     1       3.124 -31.493 -25.249  1.00  0.00     0.047 A 
ATOM     14  C   UNL     1       3.995 -30.513 -25.730  1.00  0.00     0.020 A 
ATOM     15  C   UNL     1       1.869 -31.132 -24.748  1.00  0.00     0.119 A 
ATOM     16  C   UNL     1       1.487 -29.788 -24.735  1.00  0.00     0.093 A 
ATOM     17  C   UNL     1       2.346 -28.797 -25.224  1.00  0.00     0.130 A 
BRANCH  15  18
ATOM     18  O   UNL     1       0.994 -32.101 -24.261  1.00  0.00    -0.508 OA
ATOM     19  H   UNL     1       0.104 -31.852 -23.846  1.00  0.00     0.293 HD
ENDBRANCH  15  18
BRANCH  17  20
ATOM     20  O   UNL     1       1.898 -27.474 -25.220  1.00  0.00    -0.507 OA
ATOM     21  H   UNL     1       0.996 -27.198 -24.853  1.00  0.00     0.293 HD
ENDBRANCH  17  20
ENDBRANCH   1  12
BRANCH   2  22
ATOM     22  O   UNL     1       5.921 -28.404 -24.177  1.00  0.00    -0.502 OA
ATOM     23  H   UNL     1       6.181 -29.380 -24.114  1.00  0.00     0.293 HD
ENDBRANCH   2  22
BRANCH   6  24
ATOM     24  O   UNL     1       8.146 -24.472 -27.008  1.00  0.00    -0.507 OA
ATOM     25  H   UNL     1       8.830 -24.945 -26.437  1.00  0.00     0.293 HD
ENDBRANCH   6  24
BRANCH   8  26
ATOM     26  O   UNL     1       5.441 -24.656 -30.970  1.00  0.00    -0.508 OA
ATOM     27  H   UNL     1       5.805 -23.768 -31.295  1.00  0.00     0.293 HD
ENDBRANCH   8  26
TORSDOF 6
ENDMDL
MODEL 8
REMARK VINA RESULT:    -6.665      7.108      9.558
REMARK INTER + INTRA:          -8.237
REMARK INTER:                  -7.900
REMARK INTRA:                  -0.337
REMARK UNBOUND:                -0.209
REMARK SMILES O=c1c(O)c(-c2ccc(O)cc2O)oc2cc(O)cc(O)c12
REMARK SMILES IDX 5 1 3 2 2 3 1 4 22 5 20 6 19 7 17 8 16 9 15 10 14 11 6 12
REMARK SMILES IDX 8 13 7 14 9 15 11 16 12 17 10 18 13 20 4 22 21 24 18 26
REMARK H PARENT 10 19 13 21 4 23 21 25 18 27
REMARK Flexibility Score: inf
ROOT
ATOM      1  C   UNL     1       2.977 -29.978 -21.611  1.00  0.00     0.184 A 
ATOM      2  C   UNL     1       4.241 -30.551 -21.812  1.00  0.00     0.208 A 
ATOM      3  C   UNL     1       4.615 -31.663 -21.041  1.00  0.00     0.238 A 
ATOM      4  O   UNL     1       5.773 -32.134 -21.183  1.00  0.00    -0.285 OA
ATOM      5  C   UNL     1       3.706 -32.203 -20.099  1.00  0.00     0.111 A 
ATOM      6  C   UNL     1       3.963 -33.351 -19.290  1.00  0.00     0.134 A 
ATOM      7  C   UNL     1       3.040 -33.723 -18.306  1.00  0.00     0.093 A 
ATOM      8  C   UNL     1       1.840 -33.027 -18.143  1.00  0.00     0.123 A 
ATOM      9  C   UNL     1       1.553 -31.940 -18.965  1.00  0.00     0.094 A 
ATOM     10  C   UNL     1       2.471 -31.523 -19.933  1.00  0.00     0.146 A 
ATOM     11  O   UNL     1       2.164 -30.473 -20.686  1.00  0.00    -0.451 OA
ENDROOT
BRANCH   1  12
ATOM     12  C   UNL     1       2.519 -28.820 -22.411  1.00  0.00     0.063 A 
ATOM     13  C   UNL     1       2.810 -26.495 -23.065  1.00  0.00     0.047 A 
ATOM     14  C   UNL     1       3.185 -27.589 -22.283  1.00  0.00     0.020 A 
ATOM     15  C   UNL     1       1.769 -26.617 -23.992  1.00  0.00     0.119 A 
ATOM     16  C   UNL     1       1.102 -27.837 -24.128  1.00  0.00     0.093 A 
ATOM     17  C   UNL     1       1.461 -28.939 -23.342  1.00  0.00     0.130 A 
BRANCH  15  18
ATOM     18  O   UNL     1       1.390 -25.533 -24.781  1.00  0.00    -0.508 OA
ATOM     19  H   UNL     1       1.103 -24.653 -24.370  1.00  0.00     0.293 HD
ENDBRANCH  15  18
BRANCH  17  20
ATOM     20  O   UNL     1       0.736 -30.123 -23.495  1.00  0.00    -0.507 OA
ATOM     21  H   UNL     1       0.226 -30.353 -24.338  1.00  0.00     0.293 HD
ENDBRANCH  17  20
ENDBRANCH   1  12
BRANCH   2  22
ATOM     22  O   UNL     1       5.116 -29.999 -22.752  1.00  0.00    -0.502 OA
ATOM     23  H   UNL     1       4.850 -29.234 -23.358  1.00  0.00     0.293 HD
ENDBRANCH   2  22
BRANCH   6  24
ATOM     24  O   UNL     1       5.087 -34.170 -19.432  1.00  0.00    -0.507 OA
ATOM     25  H   UNL     1       5.933 -34.087 -18.889  1.00  0.00     0.293 HD
ENDBRANCH   6  24
BRANCH   8  26
ATOM     26  O   UNL     1       0.920 -33.414 -17.171  1.00  0.00    -0.508 OA
ATOM     27  H   UNL     1      -0.034 -33.072 -17.178  1.00  0.00     0.293 HD
ENDBRANCH   8  26
TORSDOF 6
ENDMDL
MODEL 9
REMARK VINA RESULT:    -6.648      6.026      8.115
REMARK INTER + INTRA:          -8.217
REMARK INTER:                  -7.859
REMARK INTRA:                  -0.358
REMARK UNBOUND:                -0.209
REMARK SMILES O=c1c(O)c(-c2ccc(O)cc2O)oc2cc(O)cc(O)c12
REMARK SMILES IDX 5 1 3 2 2 3 1 4 22 5 20 6 19 7 17 8 16 9 15 10 14 11 6 12
REMARK SMILES IDX 8 13 7 14 9 15 11 16 12 17 10 18 13 20 4 22 21 24 18 26
REMARK H PARENT 10 19 13 21 4 23 21 25 18 27
REMARK Flexibility Score: inf
ROOT
ATOM      1  C   UNL     1       2.142 -27.941 -27.777  1.00  0.00     0.184 A 
ATOM      2  C   UNL     1       1.310 -26.892 -27.359  1.00  0.00     0.208 A 
ATOM      3  C   UNL     1       1.847 -25.601 -27.242  1.00  0.00     0.238 A 
ATOM      4  O   UNL     1       1.112 -24.677 -26.808  1.00  0.00    -0.285 OA
ATOM      5  C   UNL     1       3.205 -25.373 -27.575  1.00  0.00     0.111 A 
ATOM      6  C   UNL     1       3.847 -24.098 -27.533  1.00  0.00     0.134 A 
ATOM      7  C   UNL     1       5.225 -24.010 -27.766  1.00  0.00     0.093 A 
ATOM      8  C   UNL     1       5.972 -25.142 -28.101  1.00  0.00     0.123 A 
ATOM      9  C   UNL     1       5.345 -26.381 -28.201  1.00  0.00     0.094 A 
ATOM     10  C   UNL     1       3.978 -26.506 -27.940  1.00  0.00     0.146 A 
ATOM     11  O   UNL     1       3.423 -27.709 -28.033  1.00  0.00    -0.451 OA
ENDROOT
BRANCH   1  12
ATOM     12  C   UNL     1       1.624 -29.318 -27.939  1.00  0.00     0.063 A 
ATOM     13  C   UNL     1       0.702 -31.330 -26.928  1.00  0.00     0.047 A 
ATOM     14  C   UNL     1       1.244 -30.050 -26.801  1.00  0.00     0.020 A 
ATOM     15  C   UNL     1       0.524 -31.894 -28.196  1.00  0.00     0.119 A 
ATOM     16  C   UNL     1       0.897 -31.174 -29.334  1.00  0.00     0.093 A 
ATOM     17  C   UNL     1       1.451 -29.895 -29.219  1.00  0.00     0.130 A 
BRANCH  15  18
ATOM     18  O   UNL     1      -0.022 -33.169 -28.335  1.00  0.00    -0.508 OA
ATOM     19  H   UNL     1      -0.224 -33.750 -27.530  1.00  0.00     0.293 HD
ENDBRANCH  15  18
BRANCH  17  20
ATOM     20  O   UNL     1       1.839 -29.236 -30.389  1.00  0.00    -0.507 OA
ATOM     21  H   UNL     1       1.975 -28.235 -30.440  1.00  0.00     0.293 HD
ENDBRANCH  17  20
ENDBRANCH   1  12
BRANCH   2  22
ATOM     22  O   UNL     1      -0.028 -27.147 -27.040  1.00  0.00    -0.502 OA
ATOM     23  H   UNL     1      -0.489 -26.716 -26.249  1.00  0.00     0.293 HD
ENDBRANCH   2  22
BRANCH   6  24
ATOM     24  O   UNL     1       3.177 -22.894 -27.297  1.00  0.00    -0.507 OA
ATOM     25  H   UNL     1       3.335 -22.293 -26.502  1.00  0.00     0.293 HD
ENDBRANCH   6  24
BRANCH   8  26
ATOM     26  O   UNL     1       7.341 -25.043 -28.346  1.00  0.00    -0.508 OA
ATOM     27  H   UNL     1       7.699 -24.842 -29.272  1.00  0.00     0.293 HD
ENDBRANCH   8  26
TORSDOF 6
ENDMDL
