MODEL 1
REMARK VINA RESULT:   112.851      0.000      0.000
REMARK INTER + INTRA:         123.218
REMARK INTER:                 122.747
REMARK INTRA:                   0.471
REMARK UNBOUND:                 0.471
REMARK SMILES CC1(C)CC[C@@]2(C(=O)[O-])CC[C@@]3(C)C(=CC[C@@H]4[C@]5(C)CC[C@@H](O)C(C)(C)[C@H]5CC[C@@]43C)[C@@H]2C1
REMARK SMILES IDX 6 1 5 2 10 3 32 4 4 5 11 6 14 7 33 8 2 9 12 10 15 11 1 12
REMARK SMILES IDX 3 13 13 14 30 15 16 16 17 17 29 18 31 19 18 20 28 21 27 22
REMARK SMILES IDX 20 23 19 24 24 25 21 26 22 27 25 28 26 29 7 30 8 31 9 32
REMARK SMILES IDX 23 33
REMARK H PARENT 23 34
REMARK Flexibility Score: inf
ROOT
ATOM      1  C   UNL     1      58.307 133.219  -4.850  1.00  0.00     0.017 C 
ATOM      2  C   UNL     1      56.974 134.032  -4.789  1.00  0.00     0.014 C 
ATOM      3  C   UNL     1      58.279 132.195  -6.045  1.00  0.00     0.014 C 
ATOM      4  C   UNL     1      59.441 134.259  -5.075  1.00  0.00     0.028 C 
ATOM      5  C   UNL     1      56.976 135.162  -3.725  1.00  0.00     0.007 C 
ATOM      6  C   UNL     1      59.093 132.658  -7.273  1.00  0.00     0.013 C 
ATOM      7  C   UNL     1      60.698 133.541  -5.549  1.00  0.00    -0.064 C 
ATOM      8  C   UNL     1      59.547 135.266  -3.909  1.00  0.00     0.015 C 
ATOM      9  C   UNL     1      58.229 136.092  -3.748  1.00  0.00    -0.035 C 
ATOM     10  C   UNL     1      60.649 132.936  -6.974  1.00  0.00    -0.006 C 
ATOM     11  C   UNL     1      61.645 133.230  -4.657  1.00  0.00    -0.027 C 
ATOM     12  C   UNL     1      58.300 136.858  -2.408  1.00  0.00     0.011 C 
ATOM     13  C   UNL     1      58.087 137.143  -4.878  1.00  0.00     0.011 C 
ATOM     14  C   UNL     1      61.039 134.100  -7.932  1.00  0.00     0.017 C 
ATOM     15  C   UNL     1      61.659 131.641  -7.189  1.00  0.00    -0.020 C 
ATOM     16  C   UNL     1      62.641 132.155  -4.873  1.00  0.00     0.032 C 
ATOM     17  C   UNL     1      62.123 131.012  -5.797  1.00  0.00     0.006 C 
ATOM     18  C   UNL     1      62.975 132.013  -7.967  1.00  0.00     0.008 C 
ATOM     19  C   UNL     1      60.922 130.605  -8.090  1.00  0.00     0.012 C 
ATOM     20  C   UNL     1      63.192 129.808  -5.898  1.00  0.00    -0.025 C 
ATOM     21  C   UNL     1      63.999 130.869  -8.124  1.00  0.00     0.005 C 
ATOM     22  C   UNL     1      64.428 130.270  -6.763  1.00  0.00     0.003 C 
ATOM     23  C   UNL     1      63.753 129.418  -4.484  1.00  0.00     0.010 C 
ATOM     24  C   UNL     1      62.470 128.535  -6.458  1.00  0.00     0.012 C 
ATOM     25  C   UNL     1      65.652 129.258  -6.832  1.00  0.00    -0.006 C 
ATOM     26  C   UNL     1      64.883 128.374  -4.525  1.00  0.00     0.033 C 
ATOM     27  C   UNL     1      66.069 128.863  -5.374  1.00  0.00     0.120 C 
ATOM     28  C   UNL     1      65.368 127.985  -7.676  1.00  0.00     0.014 C 
ATOM     29  C   UNL     1      66.876 129.966  -7.481  1.00  0.00     0.014 C 
ENDROOT
BRANCH   1  30
ATOM     30  C   UNL     1      58.525 132.415  -3.560  1.00  0.00     0.048 C 
ATOM     31  O   UNL     1      57.832 132.622  -2.525  1.00  0.00    -0.550 OA
ATOM     32  O   UNL     1      59.509 131.433  -3.510  1.00  0.00    -0.550 OA
ENDBRANCH   1  30
BRANCH  27  33
ATOM     33  O   UNL     1      67.075 127.878  -5.401  1.00  0.00    -0.393 OA
ATOM     34  H   UNL     1      67.351 127.769  -6.351  1.00  0.00     0.210 HD
ENDBRANCH  27  33
TORSDOF 2
ENDMDL
