MODEL 1
REMARK VINA RESULT:    -4.630      0.000      0.000
REMARK INTER + INTRA:          -7.909
REMARK INTER:                  -7.337
REMARK INTRA:                  -0.572
REMARK UNBOUND:                -0.572
REMARK SMILES CCCCCCCCCCCC(=O)[O-]
REMARK SMILES IDX 7 1 8 2 9 3 10 4 11 5 12 6 13 7 14 8 6 9 5 10 4 11 3 12 2 13
REMARK SMILES IDX 1 14
REMARK H PARENT
REMARK Flexibility Score: inf
ROOT
ATOM      1  C   UNL     1      45.749  29.668  14.855  1.00  0.00     0.000 C 
ENDROOT
BRANCH   1   2
ATOM      2  C   UNL     1      45.080  28.661  15.806  1.00  0.00     0.000 C 
BRANCH   2   3
ATOM      3  C   UNL     1      46.043  27.654  16.467  1.00  0.00     0.000 C 
BRANCH   3   4
ATOM      4  C   UNL     1      45.409  26.755  17.549  1.00  0.00     0.006 C 
BRANCH   4   5
ATOM      5  C   UNL     1      43.942  27.083  17.868  1.00  0.00     0.053 C 
BRANCH   5   6
ATOM      6  C   UNL     1      42.997  26.136  17.194  1.00  0.00     0.041 C 
ATOM      7  O   UNL     1      42.954  24.928  17.546  1.00  0.00    -0.550 OA
ATOM      8  O   UNL     1      42.140  26.595  16.202  1.00  0.00    -0.550 OA
ENDBRANCH   5   6
ENDBRANCH   4   5
ENDBRANCH   3   4
ENDBRANCH   2   3
ENDBRANCH   1   2
BRANCH   1   9
ATOM      9  C   UNL     1      47.037  29.120  14.217  1.00  0.00     0.000 C 
BRANCH   9  10
ATOM     10  C   UNL     1      48.194  30.130  14.260  1.00  0.00    -0.000 C 
BRANCH  10  11
ATOM     11  C   UNL     1      47.821  31.425  14.997  1.00  0.00    -0.000 C 
BRANCH  11  12
ATOM     12  C   UNL     1      48.983  32.429  14.965  1.00  0.00    -0.000 C 
BRANCH  12  13
ATOM     13  C   UNL     1      49.820  32.324  13.681  1.00  0.00    -0.003 C 
ATOM     14  C   UNL     1      51.287  31.995  13.957  1.00  0.00     0.004 C 
ENDBRANCH  12  13
ENDBRANCH  11  12
ENDBRANCH  10  11
ENDBRANCH   9  10
ENDBRANCH   1   9
TORSDOF 10
ENDMDL
MODEL 2
REMARK VINA RESULT:    -4.563      0.766      1.633
REMARK INTER + INTRA:          -7.802
REMARK INTER:                  -7.044
REMARK INTRA:                  -0.759
REMARK UNBOUND:                -0.572
REMARK SMILES CCCCCCCCCCCC(=O)[O-]
REMARK SMILES IDX 7 1 8 2 9 3 10 4 11 5 12 6 13 7 14 8 6 9 5 10 4 11 3 12 2 13
REMARK SMILES IDX 1 14
REMARK H PARENT
REMARK Flexibility Score: inf
ROOT
ATOM      1  C   UNL     1      45.916  29.159  14.540  1.00  0.00     0.000 C 
ENDROOT
BRANCH   1   2
ATOM      2  C   UNL     1      45.272  28.685  15.854  1.00  0.00     0.000 C 
BRANCH   2   3
ATOM      3  C   UNL     1      46.114  27.679  16.665  1.00  0.00     0.000 C 
BRANCH   3   4
ATOM      4  C   UNL     1      45.310  26.752  17.599  1.00  0.00     0.006 C 
BRANCH   4   5
ATOM      5  C   UNL     1      43.851  27.184  17.819  1.00  0.00     0.053 C 
BRANCH   5   6
ATOM      6  C   UNL     1      42.888  26.284  17.107  1.00  0.00     0.041 C 
ATOM      7  O   UNL     1      42.096  26.755  16.248  1.00  0.00    -0.550 OA
ATOM      8  O   UNL     1      42.888  24.919  17.366  1.00  0.00    -0.550 OA
ENDBRANCH   5   6
ENDBRANCH   4   5
ENDBRANCH   3   4
ENDBRANCH   2   3
ENDBRANCH   1   2
BRANCH   1   9
ATOM      9  C   UNL     1      47.073  28.254  14.082  1.00  0.00     0.000 C 
BRANCH   9  10
ATOM     10  C   UNL     1      48.264  29.051  13.530  1.00  0.00    -0.000 C 
BRANCH  10  11
ATOM     11  C   UNL     1      48.947  29.912  14.603  1.00  0.00    -0.000 C 
BRANCH  11  12
ATOM     12  C   UNL     1      49.529  31.195  13.990  1.00  0.00    -0.000 C 
BRANCH  12  13
ATOM     13  C   UNL     1      48.891  32.468  14.568  1.00  0.00    -0.003 C 
ATOM     14  C   UNL     1      47.555  32.198  15.261  1.00  0.00     0.004 C 
ENDBRANCH  12  13
ENDBRANCH  11  12
ENDBRANCH  10  11
ENDBRANCH   9  10
ENDBRANCH   1   9
TORSDOF 10
ENDMDL
MODEL 3
REMARK VINA RESULT:    -4.539      4.035      7.573
REMARK INTER + INTRA:          -7.765
REMARK INTER:                  -7.108
REMARK INTRA:                  -0.657
REMARK UNBOUND:                -0.572
REMARK SMILES CCCCCCCCCCCC(=O)[O-]
REMARK SMILES IDX 7 1 8 2 9 3 10 4 11 5 12 6 13 7 14 8 6 9 5 10 4 11 3 12 2 13
REMARK SMILES IDX 1 14
REMARK H PARENT
REMARK Flexibility Score: inf
ROOT
ATOM      1  C   UNL     1      45.769  29.691  14.592  1.00  0.00     0.000 C 
ENDROOT
BRANCH   1   2
ATOM      2  C   UNL     1      47.108  29.071  14.157  1.00  0.00     0.000 C 
BRANCH   2   3
ATOM      3  C   UNL     1      48.312  30.033  14.191  1.00  0.00     0.000 C 
BRANCH   3   4
ATOM      4  C   UNL     1      48.079  31.349  14.961  1.00  0.00     0.006 C 
BRANCH   4   5
ATOM      5  C   UNL     1      49.048  32.482  14.589  1.00  0.00     0.053 C 
BRANCH   5   6
ATOM      6  C   UNL     1      50.478  32.089  14.803  1.00  0.00     0.041 C 
ATOM      7  O   UNL     1      51.251  31.952  13.819  1.00  0.00    -0.550 OA
ATOM      8  O   UNL     1      50.966  31.907  16.091  1.00  0.00    -0.550 OA
ENDBRANCH   5   6
ENDBRANCH   4   5
ENDBRANCH   3   4
ENDBRANCH   2   3
ENDBRANCH   1   2
BRANCH   1   9
ATOM      9  C   UNL     1      44.974  28.784  15.546  1.00  0.00     0.000 C 
BRANCH   9  10
ATOM     10  C   UNL     1      45.882  27.921  16.435  1.00  0.00    -0.000 C 
BRANCH  10  11
ATOM     11  C   UNL     1      45.102  26.855  17.219  1.00  0.00    -0.000 C 
BRANCH  11  12
ATOM     12  C   UNL     1      43.640  27.281  17.420  1.00  0.00    -0.000 C 
BRANCH  12  13
ATOM     13  C   UNL     1      42.643  26.254  16.861  1.00  0.00    -0.003 C 
ATOM     14  C   UNL     1      43.047  24.811  17.166  1.00  0.00     0.004 C 
ENDBRANCH  12  13
ENDBRANCH  11  12
ENDBRANCH  10  11
ENDBRANCH   9  10
ENDBRANCH   1   9
TORSDOF 10
ENDMDL
MODEL 4
REMARK VINA RESULT:    -4.515      0.618      1.360
REMARK INTER + INTRA:          -7.727
REMARK INTER:                  -6.983
REMARK INTRA:                  -0.744
REMARK UNBOUND:                -0.572
REMARK SMILES CCCCCCCCCCCC(=O)[O-]
REMARK SMILES IDX 7 1 8 2 9 3 10 4 11 5 12 6 13 7 14 8 6 9 5 10 4 11 3 12 2 13
REMARK SMILES IDX 1 14
REMARK H PARENT
REMARK Flexibility Score: inf
ROOT
ATOM      1  C   UNL     1      45.161  28.559  15.906  1.00  0.00     0.000 C 
ENDROOT
BRANCH   1   2
ATOM      2  C   UNL     1      46.251  27.768  16.650  1.00  0.00     0.000 C 
BRANCH   2   3
ATOM      3  C   UNL     1      45.932  26.276  16.875  1.00  0.00     0.000 C 
BRANCH   3   4
ATOM      4  C   UNL     1      45.329  25.934  18.253  1.00  0.00     0.006 C 
BRANCH   4   5
ATOM      5  C   UNL     1      43.830  26.249  18.385  1.00  0.00     0.053 C 
BRANCH   5   6
ATOM      6  C   UNL     1      43.037  25.682  17.248  1.00  0.00     0.041 C 
ATOM      7  O   UNL     1      42.946  24.435  17.098  1.00  0.00    -0.550 OA
ATOM      8  O   UNL     1      42.369  26.530  16.373  1.00  0.00    -0.550 OA
ENDBRANCH   5   6
ENDBRANCH   4   5
ENDBRANCH   3   4
ENDBRANCH   2   3
ENDBRANCH   1   2
BRANCH   1   9
ATOM      9  C   UNL     1      45.737  29.518  14.850  1.00  0.00     0.000 C 
BRANCH   9  10
ATOM     10  C   UNL     1      47.045  29.000  14.232  1.00  0.00    -0.000 C 
BRANCH  10  11
ATOM     11  C   UNL     1      48.166  30.050  14.255  1.00  0.00    -0.000 C 
BRANCH  11  12
ATOM     12  C   UNL     1      47.729  31.303  15.029  1.00  0.00    -0.000 C 
BRANCH  12  13
ATOM     13  C   UNL     1      48.744  32.450  14.916  1.00  0.00    -0.003 C 
ATOM     14  C   UNL     1      49.762  32.232  13.797  1.00  0.00     0.004 C 
ENDBRANCH  12  13
ENDBRANCH  11  12
ENDBRANCH  10  11
ENDBRANCH   9  10
ENDBRANCH   1   9
TORSDOF 10
ENDMDL
MODEL 5
REMARK VINA RESULT:    -4.487      1.235      2.274
REMARK INTER + INTRA:          -7.682
REMARK INTER:                  -6.946
REMARK INTRA:                  -0.736
REMARK UNBOUND:                -0.572
REMARK SMILES CCCCCCCCCCCC(=O)[O-]
REMARK SMILES IDX 7 1 8 2 9 3 10 4 11 5 12 6 13 7 14 8 6 9 5 10 4 11 3 12 2 13
REMARK SMILES IDX 1 14
REMARK H PARENT
REMARK Flexibility Score: inf
ROOT
ATOM      1  C   UNL     1      47.727  28.965  13.574  1.00  0.00     0.000 C 
ENDROOT
BRANCH   1   2
ATOM      2  C   UNL     1      46.711  28.351  14.553  1.00  0.00     0.000 C 
BRANCH   2   3
ATOM      3  C   UNL     1      45.499  29.247  14.878  1.00  0.00     0.000 C 
BRANCH   3   4
ATOM      4  C   UNL     1      44.411  28.588  15.750  1.00  0.00     0.006 C 
BRANCH   4   5
ATOM      5  C   UNL     1      44.951  27.624  16.818  1.00  0.00     0.053 C 
BRANCH   5   6
ATOM      6  C   UNL     1      43.847  26.918  17.544  1.00  0.00     0.041 C 
ATOM      7  O   UNL     1      43.996  26.581  18.749  1.00  0.00    -0.550 OA
ATOM      8  O   UNL     1      42.643  26.662  16.902  1.00  0.00    -0.550 OA
ENDBRANCH   5   6
ENDBRANCH   4   5
ENDBRANCH   3   4
ENDBRANCH   2   3
ENDBRANCH   1   2
BRANCH   1   9
ATOM      9  C   UNL     1      49.186  28.715  13.995  1.00  0.00     0.000 C 
BRANCH   9  10
ATOM     10  C   UNL     1      50.191  29.496  13.135  1.00  0.00    -0.000 C 
BRANCH  10  11
ATOM     11  C   UNL     1      50.769  30.718  13.865  1.00  0.00    -0.000 C 
BRANCH  11  12
ATOM     12  C   UNL     1      49.870  31.948  13.673  1.00  0.00    -0.000 C 
BRANCH  12  13
ATOM     13  C   UNL     1      49.310  32.483  15.000  1.00  0.00    -0.003 C 
ATOM     14  C   UNL     1      47.827  32.161  15.188  1.00  0.00     0.004 C 
ENDBRANCH  12  13
ENDBRANCH  11  12
ENDBRANCH  10  11
ENDBRANCH   9  10
ENDBRANCH   1   9
TORSDOF 10
ENDMDL
MODEL 6
REMARK VINA RESULT:    -4.445      1.485      2.780
REMARK INTER + INTRA:          -7.615
REMARK INTER:                  -6.868
REMARK INTRA:                  -0.747
REMARK UNBOUND:                -0.572
REMARK SMILES CCCCCCCCCCCC(=O)[O-]
REMARK SMILES IDX 7 1 8 2 9 3 10 4 11 5 12 6 13 7 14 8 6 9 5 10 4 11 3 12 2 13
REMARK SMILES IDX 1 14
REMARK H PARENT
REMARK Flexibility Score: inf
ROOT
ATOM      1  C   UNL     1      47.422  31.941  15.233  1.00  0.00     0.000 C 
ENDROOT
BRANCH   1   2
ATOM      2  C   UNL     1      47.268  30.449  14.889  1.00  0.00     0.000 C 
BRANCH   2   3
ATOM      3  C   UNL     1      45.815  29.935  14.860  1.00  0.00     0.000 C 
BRANCH   3   4
ATOM      4  C   UNL     1      45.561  28.640  15.658  1.00  0.00     0.006 C 
BRANCH   4   5
ATOM      5  C   UNL     1      44.078  28.351  15.944  1.00  0.00     0.053 C 
BRANCH   5   6
ATOM      6  C   UNL     1      43.904  27.411  17.097  1.00  0.00     0.041 C 
ATOM      7  O   UNL     1      44.887  27.112  17.825  1.00  0.00    -0.550 OA
ATOM      8  O   UNL     1      42.649  26.892  17.389  1.00  0.00    -0.550 OA
ENDBRANCH   5   6
ENDBRANCH   4   5
ENDBRANCH   3   4
ENDBRANCH   2   3
ENDBRANCH   1   2
BRANCH   1   9
ATOM      9  C   UNL     1      48.802  32.501  14.847  1.00  0.00     0.000 C 
BRANCH   9  10
ATOM     10  C   UNL     1      49.959  31.685  15.441  1.00  0.00    -0.000 C 
BRANCH  10  11
ATOM     11  C   UNL     1      51.077  31.416  14.422  1.00  0.00    -0.000 C 
BRANCH  11  12
ATOM     12  C   UNL     1      50.577  31.638  12.987  1.00  0.00    -0.000 C 
BRANCH  12  13
ATOM     13  C   UNL     1      50.688  30.374  12.120  1.00  0.00    -0.003 C 
ATOM     14  C   UNL     1      49.947  29.179  12.720  1.00  0.00     0.004 C 
ENDBRANCH  12  13
ENDBRANCH  11  12
ENDBRANCH  10  11
ENDBRANCH   9  10
ENDBRANCH   1   9
TORSDOF 10
ENDMDL
MODEL 7
REMARK VINA RESULT:    -4.422      1.121      1.816
REMARK INTER + INTRA:          -7.579
REMARK INTER:                  -7.232
REMARK INTRA:                  -0.347
REMARK UNBOUND:                -0.572
REMARK SMILES CCCCCCCCCCCC(=O)[O-]
REMARK SMILES IDX 7 1 8 2 9 3 10 4 11 5 12 6 13 7 14 8 6 9 5 10 4 11 3 12 2 13
REMARK SMILES IDX 1 14
REMARK H PARENT
REMARK Flexibility Score: inf
ROOT
ATOM      1  C   UNL     1      46.232  30.452  14.974  1.00  0.00     0.000 C 
ENDROOT
BRANCH   1   2
ATOM      2  C   UNL     1      45.723  29.006  14.845  1.00  0.00     0.000 C 
BRANCH   2   3
ATOM      3  C   UNL     1      44.506  28.664  15.727  1.00  0.00     0.000 C 
BRANCH   3   4
ATOM      4  C   UNL     1      44.671  27.416  16.618  1.00  0.00     0.006 C 
BRANCH   4   5
ATOM      5  C   UNL     1      43.572  27.244  17.679  1.00  0.00     0.053 C 
BRANCH   5   6
ATOM      6  C   UNL     1      43.196  25.806  17.867  1.00  0.00     0.041 C 
ATOM      7  O   UNL     1      42.803  25.121  16.886  1.00  0.00    -0.550 OA
ATOM      8  O   UNL     1      43.313  25.212  19.118  1.00  0.00    -0.550 OA
ENDBRANCH   5   6
ENDBRANCH   4   5
ENDBRANCH   3   4
ENDBRANCH   2   3
ENDBRANCH   1   2
BRANCH   1   9
ATOM      9  C   UNL     1      47.757  30.564  14.806  1.00  0.00     0.000 C 
BRANCH   9  10
ATOM     10  C   UNL     1      48.267  32.003  14.978  1.00  0.00    -0.000 C 
BRANCH  10  11
ATOM     11  C   UNL     1      49.671  32.207  14.390  1.00  0.00    -0.000 C 
BRANCH  11  12
ATOM     12  C   UNL     1      49.959  31.178  13.286  1.00  0.00    -0.000 C 
BRANCH  12  13
ATOM     13  C   UNL     1      51.153  31.576  12.404  1.00  0.00    -0.003 C 
ATOM     14  C   UNL     1      51.257  33.088  12.198  1.00  0.00     0.004 C 
ENDBRANCH  12  13
ENDBRANCH  11  12
ENDBRANCH  10  11
ENDBRANCH   9  10
ENDBRANCH   1   9
TORSDOF 10
ENDMDL
MODEL 8
REMARK VINA RESULT:    -4.408      1.880      2.466
REMARK INTER + INTRA:          -7.557
REMARK INTER:                  -7.013
REMARK INTRA:                  -0.544
REMARK UNBOUND:                -0.572
REMARK SMILES CCCCCCCCCCCC(=O)[O-]
REMARK SMILES IDX 7 1 8 2 9 3 10 4 11 5 12 6 13 7 14 8 6 9 5 10 4 11 3 12 2 13
REMARK SMILES IDX 1 14
REMARK H PARENT
REMARK Flexibility Score: inf
ROOT
ATOM      1  C   UNL     1      45.282  28.618  16.000  1.00  0.00     0.000 C 
ENDROOT
BRANCH   1   2
ATOM      2  C   UNL     1      43.797  28.232  15.890  1.00  0.00     0.000 C 
BRANCH   2   3
ATOM      3  C   UNL     1      43.357  27.071  16.805  1.00  0.00     0.000 C 
BRANCH   3   4
ATOM      4  C   UNL     1      43.991  27.067  18.211  1.00  0.00     0.006 C 
BRANCH   4   5
ATOM      5  C   UNL     1      44.355  25.671  18.739  1.00  0.00     0.053 C 
BRANCH   5   6
ATOM      6  C   UNL     1      45.829  25.526  18.967  1.00  0.00     0.041 C 
ATOM      7  O   UNL     1      46.259  24.724  19.838  1.00  0.00    -0.550 OA
ATOM      8  O   UNL     1      46.728  26.249  18.195  1.00  0.00    -0.550 OA
ENDBRANCH   5   6
ENDBRANCH   4   5
ENDBRANCH   3   4
ENDBRANCH   2   3
ENDBRANCH   1   2
BRANCH   1   9
ATOM      9  C   UNL     1      45.730  29.584  14.890  1.00  0.00     0.000 C 
BRANCH   9  10
ATOM     10  C   UNL     1      47.009  29.117  14.180  1.00  0.00    -0.000 C 
BRANCH  10  11
ATOM     11  C   UNL     1      48.208  30.038  14.455  1.00  0.00    -0.000 C 
BRANCH  11  12
ATOM     12  C   UNL     1      47.745  31.381  15.038  1.00  0.00    -0.000 C 
BRANCH  12  13
ATOM     13  C   UNL     1      48.792  32.493  14.863  1.00  0.00    -0.003 C 
ATOM     14  C   UNL     1      49.785  32.198  13.738  1.00  0.00     0.004 C 
ENDBRANCH  12  13
ENDBRANCH  11  12
ENDBRANCH  10  11
ENDBRANCH   9  10
ENDBRANCH   1   9
TORSDOF 10
ENDMDL
MODEL 9
REMARK VINA RESULT:    -4.371      4.094      7.505
REMARK INTER + INTRA:          -7.499
REMARK INTER:                  -6.760
REMARK INTRA:                  -0.739
REMARK UNBOUND:                -0.572
REMARK SMILES CCCCCCCCCCCC(=O)[O-]
REMARK SMILES IDX 7 1 8 2 9 3 10 4 11 5 12 6 13 7 14 8 6 9 5 10 4 11 3 12 2 13
REMARK SMILES IDX 1 14
REMARK H PARENT
REMARK Flexibility Score: inf
ROOT
ATOM      1  C   UNL     1      48.240  29.983  14.512  1.00  0.00     0.000 C 
ENDROOT
BRANCH   1   2
ATOM      2  C   UNL     1      47.917  31.408  14.996  1.00  0.00     0.000 C 
BRANCH   2   3
ATOM      3  C   UNL     1      49.054  32.432  14.808  1.00  0.00     0.000 C 
BRANCH   3   4
ATOM      4  C   UNL     1      49.884  32.262  13.520  1.00  0.00     0.006 C 
BRANCH   4   5
ATOM      5  C   UNL     1      51.404  32.214  13.746  1.00  0.00     0.053 C 
BRANCH   5   6
ATOM      6  C   UNL     1      51.803  31.075  14.633  1.00  0.00     0.041 C 
ATOM      7  O   UNL     1      51.814  29.898  14.186  1.00  0.00    -0.550 OA
ATOM      8  O   UNL     1      52.195  31.317  15.944  1.00  0.00    -0.550 OA
ENDBRANCH   5   6
ENDBRANCH   4   5
ENDBRANCH   3   4
ENDBRANCH   2   3
ENDBRANCH   1   2
BRANCH   1   9
ATOM      9  C   UNL     1      46.978  29.150  14.228  1.00  0.00     0.000 C 
BRANCH   9  10
ATOM     10  C   UNL     1      45.717  29.753  14.863  1.00  0.00    -0.000 C 
BRANCH  10  11
ATOM     11  C   UNL     1      44.885  28.713  15.628  1.00  0.00    -0.000 C 
BRANCH  11  12
ATOM     12  C   UNL     1      45.788  27.800  16.471  1.00  0.00    -0.000 C 
BRANCH  12  13
ATOM     13  C   UNL     1      44.989  26.875  17.402  1.00  0.00    -0.003 C 
ATOM     14  C   UNL     1      43.507  27.248  17.476  1.00  0.00     0.004 C 
ENDBRANCH  12  13
ENDBRANCH  11  12
ENDBRANCH  10  11
ENDBRANCH   9  10
ENDBRANCH   1   9
TORSDOF 10
ENDMDL
