MODEL 1
REMARK VINA RESULT:    -7.542      0.000      0.000
REMARK INTER + INTRA:          -9.090
REMARK INTER:                  -9.085
REMARK INTRA:                  -0.006
REMARK UNBOUND:                -0.006
REMARK SMILES O=c1c(O)c(-c2ccc(O)cc2O)oc2cc(O)cc(O)c12
REMARK SMILES IDX 5 1 3 2 2 3 1 4 22 5 20 6 19 7 17 8 16 9 15 10 14 11 6 12
REMARK SMILES IDX 8 13 7 14 9 15 11 16 12 17 10 18 13 20 4 22 21 24 18 26
REMARK H PARENT 10 19 13 21 4 23 21 25 18 27
REMARK Flexibility Score: inf
ROOT
ATOM      1  C   UNL     1      34.274  27.002  20.920  1.00  0.00     0.184 A 
ATOM      2  C   UNL     1      34.616  25.641  20.913  1.00  0.00     0.208 A 
ATOM      3  C   UNL     1      34.467  24.910  19.724  1.00  0.00     0.238 A 
ATOM      4  O   UNL     1      34.845  23.709  19.704  1.00  0.00    -0.285 OA
ATOM      5  C   UNL     1      33.926  25.535  18.574  1.00  0.00     0.111 A 
ATOM      6  C   UNL     1      33.690  24.879  17.328  1.00  0.00     0.134 A 
ATOM      7  C   UNL     1      33.249  25.626  16.227  1.00  0.00     0.093 A 
ATOM      8  C   UNL     1      32.976  26.990  16.346  1.00  0.00     0.123 A 
ATOM      9  C   UNL     1      33.151  27.628  17.571  1.00  0.00     0.094 A 
ATOM     10  C   UNL     1      33.626  26.920  18.677  1.00  0.00     0.146 A 
ATOM     11  O   UNL     1      33.799  27.571  19.820  1.00  0.00    -0.451 OA
ENDROOT
BRANCH   1  12
ATOM     12  C   UNL     1      34.414  27.831  22.136  1.00  0.00     0.063 A 
ATOM     13  C   UNL     1      34.175  28.037  24.546  1.00  0.00     0.047 A 
ATOM     14  C   UNL     1      34.063  27.280  23.378  1.00  0.00     0.020 A 
ATOM     15  C   UNL     1      34.628  29.360  24.486  1.00  0.00     0.119 A 
ATOM     16  C   UNL     1      34.957  29.925  23.250  1.00  0.00     0.093 A 
ATOM     17  C   UNL     1      34.841  29.173  22.071  1.00  0.00     0.130 A 
BRANCH  15  18
ATOM     18  O   UNL     1      34.749  30.124  25.644  1.00  0.00    -0.508 OA
ATOM     19  H   UNL     1      34.246  29.884  26.491  1.00  0.00     0.293 HD
ENDBRANCH  15  18
BRANCH  17  20
ATOM     20  O   UNL     1      35.125  29.765  20.840  1.00  0.00    -0.507 OA
ATOM     21  H   UNL     1      34.551  30.509  20.463  1.00  0.00     0.293 HD
ENDBRANCH  17  20
ENDBRANCH   1  12
BRANCH   2  22
ATOM     22  O   UNL     1      35.080  25.030  22.081  1.00  0.00    -0.502 OA
ATOM     23  H   UNL     1      36.012  24.640  22.156  1.00  0.00     0.293 HD
ENDBRANCH   2  22
BRANCH   6  24
ATOM     24  O   UNL     1      33.845  23.505  17.124  1.00  0.00    -0.507 OA
ATOM     25  H   UNL     1      33.170  22.907  16.672  1.00  0.00     0.293 HD
ENDBRANCH   6  24
BRANCH   8  26
ATOM     26  O   UNL     1      32.522  27.721  15.250  1.00  0.00    -0.508 OA
ATOM     27  H   UNL     1      33.145  27.994  14.499  1.00  0.00     0.293 HD
ENDBRANCH   8  26
TORSDOF 6
ENDMDL
MODEL 2
REMARK VINA RESULT:    -7.020      1.263      3.191
REMARK INTER + INTRA:          -8.462
REMARK INTER:                  -8.265
REMARK INTRA:                  -0.196
REMARK UNBOUND:                -0.006
REMARK SMILES O=c1c(O)c(-c2ccc(O)cc2O)oc2cc(O)cc(O)c12
REMARK SMILES IDX 5 1 3 2 2 3 1 4 22 5 20 6 19 7 17 8 16 9 15 10 14 11 6 12
REMARK SMILES IDX 8 13 7 14 9 15 11 16 12 17 10 18 13 20 4 22 21 24 18 26
REMARK H PARENT 10 19 13 21 4 23 21 25 18 27
REMARK Flexibility Score: inf
ROOT
ATOM      1  C   UNL     1      34.008  27.830  20.456  1.00  0.00     0.184 A 
ATOM      2  C   UNL     1      33.435  28.614  19.443  1.00  0.00     0.208 A 
ATOM      3  C   UNL     1      33.067  28.000  18.236  1.00  0.00     0.238 A 
ATOM      4  O   UNL     1      32.487  28.692  17.359  1.00  0.00    -0.285 OA
ATOM      5  C   UNL     1      33.328  26.621  18.037  1.00  0.00     0.111 A 
ATOM      6  C   UNL     1      33.037  25.904  16.837  1.00  0.00     0.134 A 
ATOM      7  C   UNL     1      33.241  24.519  16.795  1.00  0.00     0.093 A 
ATOM      8  C   UNL     1      33.785  23.837  17.885  1.00  0.00     0.123 A 
ATOM      9  C   UNL     1      34.124  24.536  19.041  1.00  0.00     0.094 A 
ATOM     10  C   UNL     1      33.896  25.911  19.129  1.00  0.00     0.146 A 
ATOM     11  O   UNL     1      34.212  26.535  20.257  1.00  0.00    -0.451 OA
ENDROOT
BRANCH   1  12
ATOM     12  C   UNL     1      34.411  28.414  21.753  1.00  0.00     0.063 A 
ATOM     13  C   UNL     1      35.638  30.125  22.969  1.00  0.00     0.047 A 
ATOM     14  C   UNL     1      35.232  29.552  21.761  1.00  0.00     0.020 A 
ATOM     15  C   UNL     1      35.239  29.558  24.185  1.00  0.00     0.119 A 
ATOM     16  C   UNL     1      34.442  28.410  24.187  1.00  0.00     0.093 A 
ATOM     17  C   UNL     1      34.035  27.825  22.978  1.00  0.00     0.130 A 
BRANCH  15  18
ATOM     18  O   UNL     1      35.634  30.122  25.395  1.00  0.00    -0.508 OA
ATOM     19  H   UNL     1      34.959  30.358  26.114  1.00  0.00     0.293 HD
ENDBRANCH  15  18
BRANCH  17  20
ATOM     20  O   UNL     1      33.281  26.651  22.994  1.00  0.00    -0.507 OA
ATOM     21  H   UNL     1      33.194  26.064  22.174  1.00  0.00     0.293 HD
ENDBRANCH  17  20
ENDBRANCH   1  12
BRANCH   2  22
ATOM     22  O   UNL     1      33.255  29.986  19.636  1.00  0.00    -0.502 OA
ATOM     23  H   UNL     1      32.465  30.363  20.145  1.00  0.00     0.293 HD
ENDBRANCH   2  22
BRANCH   6  24
ATOM     24  O   UNL     1      32.574  26.500  15.661  1.00  0.00    -0.507 OA
ATOM     25  H   UNL     1      33.161  26.913  14.952  1.00  0.00     0.293 HD
ENDBRANCH   6  24
BRANCH   8  26
ATOM     26  O   UNL     1      34.001  22.462  17.827  1.00  0.00    -0.508 OA
ATOM     27  H   UNL     1      33.812  21.861  18.621  1.00  0.00     0.293 HD
ENDBRANCH   8  26
TORSDOF 6
ENDMDL
MODEL 3
REMARK VINA RESULT:    -6.809      1.140      6.298
REMARK INTER + INTRA:          -8.208
REMARK INTER:                  -8.759
REMARK INTRA:                   0.552
REMARK UNBOUND:                -0.006
REMARK SMILES O=c1c(O)c(-c2ccc(O)cc2O)oc2cc(O)cc(O)c12
REMARK SMILES IDX 5 1 3 2 2 3 1 4 22 5 20 6 19 7 17 8 16 9 15 10 14 11 6 12
REMARK SMILES IDX 8 13 7 14 9 15 11 16 12 17 10 18 13 20 4 22 21 24 18 26
REMARK H PARENT 10 19 13 21 4 23 21 25 18 27
REMARK Flexibility Score: inf
ROOT
ATOM      1  C   UNL     1      33.996  26.525  19.454  1.00  0.00     0.184 A 
ATOM      2  C   UNL     1      34.343  25.290  20.024  1.00  0.00     0.208 A 
ATOM      3  C   UNL     1      34.688  25.242  21.384  1.00  0.00     0.238 A 
ATOM      4  O   UNL     1      34.926  24.122  21.907  1.00  0.00    -0.285 OA
ATOM      5  C   UNL     1      34.736  26.438  22.142  1.00  0.00     0.111 A 
ATOM      6  C   UNL     1      35.115  26.514  23.517  1.00  0.00     0.134 A 
ATOM      7  C   UNL     1      35.022  27.739  24.191  1.00  0.00     0.093 A 
ATOM      8  C   UNL     1      34.626  28.900  23.525  1.00  0.00     0.123 A 
ATOM      9  C   UNL     1      34.307  28.848  22.170  1.00  0.00     0.094 A 
ATOM     10  C   UNL     1      34.352  27.635  21.479  1.00  0.00     0.146 A 
ATOM     11  O   UNL     1      34.019  27.625  20.194  1.00  0.00    -0.451 OA
ENDROOT
BRANCH   1  12
ATOM     12  C   UNL     1      33.616  26.643  18.031  1.00  0.00     0.063 A 
ATOM     13  C   UNL     1      33.505  25.636  15.821  1.00  0.00     0.047 A 
ATOM     14  C   UNL     1      33.845  25.556  17.173  1.00  0.00     0.020 A 
ATOM     15  C   UNL     1      32.943  26.810  15.306  1.00  0.00     0.119 A 
ATOM     16  C   UNL     1      32.733  27.906  16.147  1.00  0.00     0.093 A 
ATOM     17  C   UNL     1      33.079  27.836  17.505  1.00  0.00     0.130 A 
BRANCH  15  18
ATOM     18  O   UNL     1      32.596  26.900  13.960  1.00  0.00    -0.508 OA
ATOM     19  H   UNL     1      33.176  27.399  13.296  1.00  0.00     0.293 HD
ENDBRANCH  15  18
BRANCH  17  20
ATOM     20  O   UNL     1      32.910  28.954  18.322  1.00  0.00    -0.507 OA
ATOM     21  H   UNL     1      33.157  28.937  19.305  1.00  0.00     0.293 HD
ENDBRANCH  17  20
ENDBRANCH   1  12
BRANCH   2  22
ATOM     22  O   UNL     1      34.358  24.135  19.237  1.00  0.00    -0.502 OA
ATOM     23  H   UNL     1      33.510  23.705  18.889  1.00  0.00     0.293 HD
ENDBRANCH   2  22
BRANCH   6  24
ATOM     24  O   UNL     1      35.609  25.434  24.253  1.00  0.00    -0.507 OA
ATOM     25  H   UNL     1      35.258  24.490  24.203  1.00  0.00     0.293 HD
ENDBRANCH   6  24
BRANCH   8  26
ATOM     26  O   UNL     1      34.554  30.117  24.201  1.00  0.00    -0.508 OA
ATOM     27  H   UNL     1      34.437  30.993  23.705  1.00  0.00     0.293 HD
ENDBRANCH   8  26
TORSDOF 6
ENDMDL
MODEL 4
REMARK VINA RESULT:    -6.809      1.383      1.780
REMARK INTER + INTRA:          -8.207
REMARK INTER:                  -8.399
REMARK INTRA:                   0.192
REMARK UNBOUND:                -0.006
REMARK SMILES O=c1c(O)c(-c2ccc(O)cc2O)oc2cc(O)cc(O)c12
REMARK SMILES IDX 5 1 3 2 2 3 1 4 22 5 20 6 19 7 17 8 16 9 15 10 14 11 6 12
REMARK SMILES IDX 8 13 7 14 9 15 11 16 12 17 10 18 13 20 4 22 21 24 18 26
REMARK H PARENT 10 19 13 21 4 23 21 25 18 27
REMARK Flexibility Score: inf
ROOT
ATOM      1  C   UNL     1      33.927  26.862  20.497  1.00  0.00     0.184 A 
ATOM      2  C   UNL     1      34.296  25.681  19.836  1.00  0.00     0.208 A 
ATOM      3  C   UNL     1      34.119  25.597  18.446  1.00  0.00     0.238 A 
ATOM      4  O   UNL     1      34.520  24.564  17.848  1.00  0.00    -0.285 OA
ATOM      5  C   UNL     1      33.524  26.674  17.744  1.00  0.00     0.111 A 
ATOM      6  C   UNL     1      33.256  26.680  16.341  1.00  0.00     0.134 A 
ATOM      7  C   UNL     1      32.760  27.844  15.739  1.00  0.00     0.093 A 
ATOM      8  C   UNL     1      32.464  28.978  16.498  1.00  0.00     0.123 A 
ATOM      9  C   UNL     1      32.670  28.963  17.875  1.00  0.00     0.094 A 
ATOM     10  C   UNL     1      33.199  27.832  18.500  1.00  0.00     0.146 A 
ATOM     11  O   UNL     1      33.400  27.868  19.811  1.00  0.00    -0.451 OA
ENDROOT
BRANCH   1  12
ATOM     12  C   UNL     1      34.094  27.019  21.957  1.00  0.00     0.063 A 
ATOM     13  C   UNL     1      34.142  25.997  24.163  1.00  0.00     0.047 A 
ATOM     14  C   UNL     1      33.997  25.884  22.778  1.00  0.00     0.020 A 
ATOM     15  C   UNL     1      34.373  27.248  24.746  1.00  0.00     0.119 A 
ATOM     16  C   UNL     1      34.448  28.387  23.939  1.00  0.00     0.093 A 
ATOM     17  C   UNL     1      34.297  28.283  22.548  1.00  0.00     0.130 A 
BRANCH  15  18
ATOM     18  O   UNL     1      34.524  27.373  26.125  1.00  0.00    -0.508 OA
ATOM     19  H   UNL     1      33.867  26.949  26.770  1.00  0.00     0.293 HD
ENDBRANCH  15  18
BRANCH  17  20
ATOM     20  O   UNL     1      34.324  29.434  21.759  1.00  0.00    -0.507 OA
ATOM     21  H   UNL     1      34.493  30.349  22.159  1.00  0.00     0.293 HD
ENDBRANCH  17  20
ENDBRANCH   1  12
BRANCH   2  22
ATOM     22  O   UNL     1      34.815  24.605  20.562  1.00  0.00    -0.502 OA
ATOM     23  H   UNL     1      34.227  23.874  20.943  1.00  0.00     0.293 HD
ENDBRANCH   2  22
BRANCH   6  24
ATOM     24  O   UNL     1      33.431  25.574  15.506  1.00  0.00    -0.507 OA
ATOM     25  H   UNL     1      34.302  25.308  15.072  1.00  0.00     0.293 HD
ENDBRANCH   6  24
BRANCH   8  26
ATOM     26  O   UNL     1      31.956  30.125  15.892  1.00  0.00    -0.508 OA
ATOM     27  H   UNL     1      31.110  30.100  15.335  1.00  0.00     0.293 HD
ENDBRANCH   8  26
TORSDOF 6
ENDMDL
MODEL 5
REMARK VINA RESULT:    -6.741      2.237      6.382
REMARK INTER + INTRA:          -8.126
REMARK INTER:                  -8.586
REMARK INTRA:                   0.460
REMARK UNBOUND:                -0.006
REMARK SMILES O=c1c(O)c(-c2ccc(O)cc2O)oc2cc(O)cc(O)c12
REMARK SMILES IDX 5 1 3 2 2 3 1 4 22 5 20 6 19 7 17 8 16 9 15 10 14 11 6 12
REMARK SMILES IDX 8 13 7 14 9 15 11 16 12 17 10 18 13 20 4 22 21 24 18 26
REMARK H PARENT 10 19 13 21 4 23 21 25 18 27
REMARK Flexibility Score: inf
ROOT
ATOM      1  C   UNL     1      33.700  25.130  18.675  1.00  0.00     0.184 A 
ATOM      2  C   UNL     1      33.296  25.748  17.482  1.00  0.00     0.208 A 
ATOM      3  C   UNL     1      33.168  27.145  17.450  1.00  0.00     0.238 A 
ATOM      4  O   UNL     1      32.877  27.699  16.358  1.00  0.00    -0.285 OA
ATOM      5  C   UNL     1      33.391  27.901  18.627  1.00  0.00     0.111 A 
ATOM      6  C   UNL     1      33.248  29.319  18.722  1.00  0.00     0.134 A 
ATOM      7  C   UNL     1      33.599  29.970  19.912  1.00  0.00     0.093 A 
ATOM      8  C   UNL     1      34.027  29.249  21.029  1.00  0.00     0.123 A 
ATOM      9  C   UNL     1      34.118  27.861  20.964  1.00  0.00     0.094 A 
ATOM     10  C   UNL     1      33.813  27.185  19.780  1.00  0.00     0.146 A 
ATOM     11  O   UNL     1      33.934  25.864  19.755  1.00  0.00    -0.451 OA
ENDROOT
BRANCH   1  12
ATOM     12  C   UNL     1      33.862  23.664  18.774  1.00  0.00     0.063 A 
ATOM     13  C   UNL     1      33.378  21.457  17.876  1.00  0.00     0.047 A 
ATOM     14  C   UNL     1      33.252  22.846  17.809  1.00  0.00     0.020 A 
ATOM     15  C   UNL     1      34.104  20.866  18.917  1.00  0.00     0.119 A 
ATOM     16  C   UNL     1      34.695  21.671  19.895  1.00  0.00     0.093 A 
ATOM     17  C   UNL     1      34.568  23.067  19.839  1.00  0.00     0.130 A 
BRANCH  15  18
ATOM     18  O   UNL     1      34.241  19.482  18.992  1.00  0.00    -0.508 OA
ATOM     19  H   UNL     1      34.707  19.038  19.775  1.00  0.00     0.293 HD
ENDBRANCH  15  18
BRANCH  17  20
ATOM     20  O   UNL     1      35.120  23.856  20.849  1.00  0.00    -0.507 OA
ATOM     21  H   UNL     1      35.279  24.848  20.722  1.00  0.00     0.293 HD
ENDBRANCH  17  20
ENDBRANCH   1  12
BRANCH   2  22
ATOM     22  O   UNL     1      33.012  24.973  16.354  1.00  0.00    -0.502 OA
ATOM     23  H   UNL     1      32.598  24.051  16.419  1.00  0.00     0.293 HD
ENDBRANCH   2  22
BRANCH   6  24
ATOM     24  O   UNL     1      32.745  30.125  17.698  1.00  0.00    -0.507 OA
ATOM     25  H   UNL     1      32.270  31.005  17.833  1.00  0.00     0.293 HD
ENDBRANCH   6  24
BRANCH   8  26
ATOM     26  O   UNL     1      34.358  29.904  22.213  1.00  0.00    -0.508 OA
ATOM     27  H   UNL     1      35.074  29.547  22.835  1.00  0.00     0.293 HD
ENDBRANCH   8  26
TORSDOF 6
ENDMDL
MODEL 6
REMARK VINA RESULT:    -6.310      2.584      4.495
REMARK INTER + INTRA:          -7.606
REMARK INTER:                  -7.458
REMARK INTRA:                  -0.148
REMARK UNBOUND:                -0.006
REMARK SMILES O=c1c(O)c(-c2ccc(O)cc2O)oc2cc(O)cc(O)c12
REMARK SMILES IDX 5 1 3 2 2 3 1 4 22 5 20 6 19 7 17 8 16 9 15 10 14 11 6 12
REMARK SMILES IDX 8 13 7 14 9 15 11 16 12 17 10 18 13 20 4 22 21 24 18 26
REMARK H PARENT 10 19 13 21 4 23 21 25 18 27
REMARK Flexibility Score: inf
ROOT
ATOM      1  C   UNL     1      34.825  25.102  20.461  1.00  0.00     0.184 A 
ATOM      2  C   UNL     1      34.365  25.064  19.136  1.00  0.00     0.208 A 
ATOM      3  C   UNL     1      33.953  23.837  18.595  1.00  0.00     0.238 A 
ATOM      4  O   UNL     1      33.472  23.821  17.431  1.00  0.00    -0.285 OA
ATOM      5  C   UNL     1      34.059  22.654  19.367  1.00  0.00     0.111 A 
ATOM      6  C   UNL     1      33.711  21.348  18.906  1.00  0.00     0.134 A 
ATOM      7  C   UNL     1      33.758  20.267  19.795  1.00  0.00     0.093 A 
ATOM      8  C   UNL     1      34.200  20.434  21.110  1.00  0.00     0.123 A 
ATOM      9  C   UNL     1      34.593  21.693  21.554  1.00  0.00     0.094 A 
ATOM     10  C   UNL     1      34.521  22.799  20.703  1.00  0.00     0.146 A 
ATOM     11  O   UNL     1      34.885  23.985  21.173  1.00  0.00    -0.451 OA
ENDROOT
BRANCH   1  12
ATOM     12  C   UNL     1      35.267  26.363  21.093  1.00  0.00     0.063 A 
ATOM     13  C   UNL     1      37.003  27.606  22.254  1.00  0.00     0.047 A 
ATOM     14  C   UNL     1      36.556  26.433  21.643  1.00  0.00     0.020 A 
ATOM     15  C   UNL     1      36.161  28.722  22.336  1.00  0.00     0.119 A 
ATOM     16  C   UNL     1      34.867  28.654  21.812  1.00  0.00     0.093 A 
ATOM     17  C   UNL     1      34.408  27.477  21.202  1.00  0.00     0.130 A 
BRANCH  15  18
ATOM     18  O   UNL     1      36.597  29.899  22.939  1.00  0.00    -0.508 OA
ATOM     19  H   UNL     1      36.483  30.799  22.486  1.00  0.00     0.293 HD
ENDBRANCH  15  18
BRANCH  17  20
ATOM     20  O   UNL     1      33.098  27.406  20.728  1.00  0.00    -0.507 OA
ATOM     21  H   UNL     1      32.441  28.165  20.865  1.00  0.00     0.293 HD
ENDBRANCH  17  20
ENDBRANCH   1  12
BRANCH   2  22
ATOM     22  O   UNL     1      34.338  26.234  18.370  1.00  0.00    -0.502 OA
ATOM     23  H   UNL     1      34.085  27.133  18.762  1.00  0.00     0.293 HD
ENDBRANCH   2  22
BRANCH   6  24
ATOM     24  O   UNL     1      33.343  21.055  17.590  1.00  0.00    -0.507 OA
ATOM     25  H   UNL     1      33.191  21.740  16.865  1.00  0.00     0.293 HD
ENDBRANCH   6  24
BRANCH   8  26
ATOM     26  O   UNL     1      34.259  19.349  21.982  1.00  0.00    -0.508 OA
ATOM     27  H   UNL     1      33.439  18.792  22.192  1.00  0.00     0.293 HD
ENDBRANCH   8  26
TORSDOF 6
ENDMDL
MODEL 7
REMARK VINA RESULT:    -6.290      2.255      5.868
REMARK INTER + INTRA:          -7.583
REMARK INTER:                  -8.193
REMARK INTRA:                   0.611
REMARK UNBOUND:                -0.006
REMARK SMILES O=c1c(O)c(-c2ccc(O)cc2O)oc2cc(O)cc(O)c12
REMARK SMILES IDX 5 1 3 2 2 3 1 4 22 5 20 6 19 7 17 8 16 9 15 10 14 11 6 12
REMARK SMILES IDX 8 13 7 14 9 15 11 16 12 17 10 18 13 20 4 22 21 24 18 26
REMARK H PARENT 10 19 13 21 4 23 21 25 18 27
REMARK Flexibility Score: inf
ROOT
ATOM      1  C   UNL     1      34.000  25.179  19.628  1.00  0.00     0.184 A 
ATOM      2  C   UNL     1      34.508  25.728  20.816  1.00  0.00     0.208 A 
ATOM      3  C   UNL     1      34.400  27.111  21.027  1.00  0.00     0.238 A 
ATOM      4  O   UNL     1      34.790  27.586  22.125  1.00  0.00    -0.285 OA
ATOM      5  C   UNL     1      33.835  27.935  20.022  1.00  0.00     0.111 A 
ATOM      6  C   UNL     1      33.715  29.356  20.109  1.00  0.00     0.134 A 
ATOM      7  C   UNL     1      33.042  30.054  19.098  1.00  0.00     0.093 A 
ATOM      8  C   UNL     1      32.543  29.392  17.975  1.00  0.00     0.123 A 
ATOM      9  C   UNL     1      32.704  28.014  17.854  1.00  0.00     0.094 A 
ATOM     10  C   UNL     1      33.335  27.284  18.863  1.00  0.00     0.146 A 
ATOM     11  O   UNL     1      33.447  25.970  18.718  1.00  0.00    -0.451 OA
ENDROOT
BRANCH   1  12
ATOM     12  C   UNL     1      34.075  23.730  19.349  1.00  0.00     0.063 A 
ATOM     13  C   UNL     1      34.750  21.509  20.070  1.00  0.00     0.047 A 
ATOM     14  C   UNL     1      34.656  22.882  20.304  1.00  0.00     0.020 A 
ATOM     15  C   UNL     1      34.277  20.967  18.869  1.00  0.00     0.119 A 
ATOM     16  C   UNL     1      33.718  21.806  17.901  1.00  0.00     0.093 A 
ATOM     17  C   UNL     1      33.626  23.188  18.126  1.00  0.00     0.130 A 
BRANCH  15  18
ATOM     18  O   UNL     1      34.361  19.598  18.625  1.00  0.00    -0.508 OA
ATOM     19  H   UNL     1      33.556  19.065  18.315  1.00  0.00     0.293 HD
ENDBRANCH  15  18
BRANCH  17  20
ATOM     20  O   UNL     1      33.112  24.021  17.132  1.00  0.00    -0.507 OA
ATOM     21  H   UNL     1      33.309  23.862  16.151  1.00  0.00     0.293 HD
ENDBRANCH  17  20
ENDBRANCH   1  12
BRANCH   2  22
ATOM     22  O   UNL     1      35.125  24.902  21.760  1.00  0.00    -0.502 OA
ATOM     23  H   UNL     1      35.956  24.363  21.549  1.00  0.00     0.293 HD
ENDBRANCH   2  22
BRANCH   6  24
ATOM     24  O   UNL     1      34.255  30.125  21.143  1.00  0.00    -0.507 OA
ATOM     25  H   UNL     1      35.239  30.295  21.286  1.00  0.00     0.293 HD
ENDBRANCH   6  24
BRANCH   8  26
ATOM     26  O   UNL     1      31.891  30.099  16.966  1.00  0.00    -0.508 OA
ATOM     27  H   UNL     1      32.324  30.259  16.065  1.00  0.00     0.293 HD
ENDBRANCH   8  26
TORSDOF 6
ENDMDL
MODEL 8
REMARK VINA RESULT:    -6.131      2.314      6.736
REMARK INTER + INTRA:          -7.391
REMARK INTER:                  -7.737
REMARK INTRA:                   0.346
REMARK UNBOUND:                -0.006
REMARK SMILES O=c1c(O)c(-c2ccc(O)cc2O)oc2cc(O)cc(O)c12
REMARK SMILES IDX 5 1 3 2 2 3 1 4 22 5 20 6 19 7 17 8 16 9 15 10 14 11 6 12
REMARK SMILES IDX 8 13 7 14 9 15 11 16 12 17 10 18 13 20 4 22 21 24 18 26
REMARK H PARENT 10 19 13 21 4 23 21 25 18 27
REMARK Flexibility Score: inf
ROOT
ATOM      1  C   UNL     1      34.544  25.107  20.141  1.00  0.00     0.184 A 
ATOM      2  C   UNL     1      33.627  26.090  19.738  1.00  0.00     0.208 A 
ATOM      3  C   UNL     1      33.816  27.412  20.167  1.00  0.00     0.238 A 
ATOM      4  O   UNL     1      33.033  28.302  19.742  1.00  0.00    -0.285 OA
ATOM      5  C   UNL     1      34.889  27.725  21.038  1.00  0.00     0.111 A 
ATOM      6  C   UNL     1      35.151  29.024  21.571  1.00  0.00     0.134 A 
ATOM      7  C   UNL     1      36.304  29.235  22.338  1.00  0.00     0.093 A 
ATOM      8  C   UNL     1      37.168  28.182  22.645  1.00  0.00     0.123 A 
ATOM      9  C   UNL     1      36.893  26.900  22.175  1.00  0.00     0.094 A 
ATOM     10  C   UNL     1      35.772  26.665  21.375  1.00  0.00     0.146 A 
ATOM     11  O   UNL     1      35.559  25.432  20.931  1.00  0.00    -0.451 OA
ENDROOT
BRANCH   1  12
ATOM     12  C   UNL     1      34.407  23.697  19.719  1.00  0.00     0.063 A 
ATOM     13  C   UNL     1      34.464  21.339  20.306  1.00  0.00     0.047 A 
ATOM     14  C   UNL     1      34.579  22.682  20.672  1.00  0.00     0.020 A 
ATOM     15  C   UNL     1      34.187  20.994  18.978  1.00  0.00     0.119 A 
ATOM     16  C   UNL     1      34.037  21.997  18.016  1.00  0.00     0.093 A 
ATOM     17  C   UNL     1      34.159  23.348  18.375  1.00  0.00     0.130 A 
BRANCH  15  18
ATOM     18  O   UNL     1      34.065  19.658  18.601  1.00  0.00    -0.508 OA
ATOM     19  H   UNL     1      33.279  19.334  18.049  1.00  0.00     0.293 HD
ENDBRANCH  15  18
BRANCH  17  20
ATOM     20  O   UNL     1      34.057  24.338  17.396  1.00  0.00    -0.507 OA
ATOM     21  H   UNL     1      34.651  24.338  16.576  1.00  0.00     0.293 HD
ENDBRANCH  17  20
ENDBRANCH   1  12
BRANCH   2  22
ATOM     22  O   UNL     1      32.536  25.742  18.936  1.00  0.00    -0.502 OA
ATOM     23  H   UNL     1      31.615  25.569  19.319  1.00  0.00     0.293 HD
ENDBRANCH   2  22
BRANCH   6  24
ATOM     24  O   UNL     1      34.307  30.125  21.401  1.00  0.00    -0.507 OA
ATOM     25  H   UNL     1      33.786  30.575  22.138  1.00  0.00     0.293 HD
ENDBRANCH   6  24
BRANCH   8  26
ATOM     26  O   UNL     1      38.303  28.399  23.423  1.00  0.00    -0.508 OA
ATOM     27  H   UNL     1      39.214  28.055  23.141  1.00  0.00     0.293 HD
ENDBRANCH   8  26
TORSDOF 6
ENDMDL
MODEL 9
REMARK VINA RESULT:    -5.723      2.201      3.434
REMARK INTER + INTRA:          -6.900
REMARK INTER:                  -6.544
REMARK INTRA:                  -0.356
REMARK UNBOUND:                -0.006
REMARK SMILES O=c1c(O)c(-c2ccc(O)cc2O)oc2cc(O)cc(O)c12
REMARK SMILES IDX 5 1 3 2 2 3 1 4 22 5 20 6 19 7 17 8 16 9 15 10 14 11 6 12
REMARK SMILES IDX 8 13 7 14 9 15 11 16 12 17 10 18 13 20 4 22 21 24 18 26
REMARK H PARENT 10 19 13 21 4 23 21 25 18 27
REMARK Flexibility Score: inf
ROOT
ATOM      1  C   UNL     1      34.076  27.285  20.666  1.00  0.00     0.184 A 
ATOM      2  C   UNL     1      33.475  28.553  20.633  1.00  0.00     0.208 A 
ATOM      3  C   UNL     1      32.937  29.019  19.424  1.00  0.00     0.238 A 
ATOM      4  O   UNL     1      32.335  30.124  19.418  1.00  0.00    -0.285 OA
ATOM      5  C   UNL     1      33.056  28.234  18.250  1.00  0.00     0.111 A 
ATOM      6  C   UNL     1      32.587  28.626  16.960  1.00  0.00     0.134 A 
ATOM      7  C   UNL     1      32.665  27.722  15.893  1.00  0.00     0.093 A 
ATOM      8  C   UNL     1      33.253  26.466  16.055  1.00  0.00     0.123 A 
ATOM      9  C   UNL     1      33.764  26.095  17.296  1.00  0.00     0.094 A 
ATOM     10  C   UNL     1      33.666  26.959  18.389  1.00  0.00     0.146 A 
ATOM     11  O   UNL     1      34.146  26.557  19.559  1.00  0.00    -0.451 OA
ENDROOT
BRANCH   1  12
ATOM     12  C   UNL     1      34.654  26.732  21.908  1.00  0.00     0.063 A 
ATOM     13  C   UNL     1      34.403  25.304  23.860  1.00  0.00     0.047 A 
ATOM     14  C   UNL     1      33.890  25.839  22.676  1.00  0.00     0.020 A 
ATOM     15  C   UNL     1      35.682  25.664  24.298  1.00  0.00     0.119 A 
ATOM     16  C   UNL     1      36.442  26.571  23.553  1.00  0.00     0.093 A 
ATOM     17  C   UNL     1      35.931  27.118  22.366  1.00  0.00     0.130 A 
BRANCH  15  18
ATOM     18  O   UNL     1      36.207  25.134  25.474  1.00  0.00    -0.508 OA
ATOM     19  H   UNL     1      37.123  24.701  25.497  1.00  0.00     0.293 HD
ENDBRANCH  15  18
BRANCH  17  20
ATOM     20  O   UNL     1      36.679  28.060  21.658  1.00  0.00    -0.507 OA
ATOM     21  H   UNL     1      36.554  28.198  20.662  1.00  0.00     0.293 HD
ENDBRANCH  17  20
ENDBRANCH   1  12
BRANCH   2  22
ATOM     22  O   UNL     1      33.434  29.338  21.789  1.00  0.00    -0.502 OA
ATOM     23  H   UNL     1      32.838  29.115  22.576  1.00  0.00     0.293 HD
ENDBRANCH   2  22
BRANCH   6  24
ATOM     24  O   UNL     1      32.064  29.889  16.667  1.00  0.00    -0.507 OA
ATOM     25  H   UNL     1      31.370  30.371  17.219  1.00  0.00     0.293 HD
ENDBRANCH   6  24
BRANCH   8  26
ATOM     26  O   UNL     1      33.342  25.580  14.983  1.00  0.00    -0.508 OA
ATOM     27  H   UNL     1      34.177  25.519  14.412  1.00  0.00     0.293 HD
ENDBRANCH   8  26
TORSDOF 6
ENDMDL
