MODEL 1
REMARK VINA RESULT:    -4.470      0.000      0.000
REMARK INTER + INTRA:         -14.216
REMARK INTER:                 -10.219
REMARK INTRA:                  -3.997
REMARK UNBOUND:                -3.997
REMARK SMILES CCCCCCCCCCCCCCCCCCCCCCCC(=O)[O-]
REMARK SMILES IDX 13 1 14 2 15 3 16 4 17 5 18 6 19 7 20 8 21 9 22 10 23 11
REMARK SMILES IDX 24 12 25 13 26 14 12 15 11 16 10 17 9 18 8 19 7 20 6 21 5 22
REMARK SMILES IDX 4 23 3 24 2 25 1 26
REMARK H PARENT
REMARK Flexibility Score: inf
ROOT
ATOM      1  C   UNL     1     -48.678  11.789 -29.864  1.00  0.00     0.000 C 
ENDROOT
BRANCH   1   2
ATOM      2  C   UNL     1     -49.634  12.993 -29.901  1.00  0.00     0.000 C 
BRANCH   2   3
ATOM      3  C   UNL     1     -49.571  13.754 -31.234  1.00  0.00     0.000 C 
BRANCH   3   4
ATOM      4  C   UNL     1     -50.965  13.901 -31.853  1.00  0.00     0.000 C 
BRANCH   4   5
ATOM      5  C   UNL     1     -51.761  12.591 -31.734  1.00  0.00     0.000 C 
BRANCH   5   6
ATOM      6  C   UNL     1     -53.151  12.806 -31.102  1.00  0.00     0.000 C 
BRANCH   6   7
ATOM      7  C   UNL     1     -53.331  12.090 -29.752  1.00  0.00     0.000 C 
BRANCH   7   8
ATOM      8  C   UNL     1     -53.115  13.019 -28.550  1.00  0.00     0.000 C 
BRANCH   8   9
ATOM      9  C   UNL     1     -53.276  14.489 -28.956  1.00  0.00     0.000 C 
BRANCH   9  10
ATOM     10  C   UNL     1     -52.063  15.321 -28.511  1.00  0.00     0.006 C 
BRANCH  10  11
ATOM     11  C   UNL     1     -52.316  16.830 -28.633  1.00  0.00     0.053 C 
BRANCH  11  12
ATOM     12  C   UNL     1     -52.051  17.329 -30.021  1.00  0.00     0.041 C 
ATOM     13  O   UNL     1     -53.001  17.756 -30.730  1.00  0.00    -0.550 OA
ATOM     14  O   UNL     1     -50.752  17.380 -30.507  1.00  0.00    -0.550 OA
ENDBRANCH  11  12
ENDBRANCH  10  11
ENDBRANCH   9  10
ENDBRANCH   8   9
ENDBRANCH   7   8
ENDBRANCH   6   7
ENDBRANCH   5   6
ENDBRANCH   4   5
ENDBRANCH   3   4
ENDBRANCH   2   3
ENDBRANCH   1   2
BRANCH   1  15
ATOM     15  C   UNL     1     -49.322  10.544 -29.228  1.00  0.00     0.000 C 
BRANCH  15  16
ATOM     16  C   UNL     1     -48.583   9.241 -29.601  1.00  0.00     0.000 C 
BRANCH  16  17
ATOM     17  C   UNL     1     -47.185   9.464 -30.207  1.00  0.00     0.000 C 
BRANCH  17  18
ATOM     18  C   UNL     1     -46.807   8.506 -31.353  1.00  0.00    -0.000 C 
BRANCH  18  19
ATOM     19  C   UNL     1     -47.780   7.331 -31.571  1.00  0.00    -0.000 C 
BRANCH  19  20
ATOM     20  C   UNL     1     -48.610   7.405 -32.867  1.00  0.00    -0.000 C 
BRANCH  20  21
ATOM     21  C   UNL     1     -48.887   8.847 -33.353  1.00  0.00    -0.000 C 
BRANCH  21  22
ATOM     22  C   UNL     1     -50.277   9.394 -32.969  1.00  0.00    -0.000 C 
BRANCH  22  23
ATOM     23  C   UNL     1     -51.232   8.357 -32.345  1.00  0.00    -0.000 C 
BRANCH  23  24
ATOM     24  C   UNL     1     -51.978   8.892 -31.113  1.00  0.00    -0.000 C 
BRANCH  24  25
ATOM     25  C   UNL     1     -52.820   7.790 -30.458  1.00  0.00    -0.003 C 
ATOM     26  C   UNL     1     -52.192   6.415 -30.674  1.00  0.00     0.004 C 
ENDBRANCH  24  25
ENDBRANCH  23  24
ENDBRANCH  22  23
ENDBRANCH  21  22
ENDBRANCH  20  21
ENDBRANCH  19  20
ENDBRANCH  18  19
ENDBRANCH  17  18
ENDBRANCH  16  17
ENDBRANCH  15  16
ENDBRANCH   1  15
TORSDOF 22
ENDMDL
MODEL 2
REMARK VINA RESULT:    -4.458      1.150      2.954
REMARK INTER + INTRA:         -14.189
REMARK INTER:                 -10.117
REMARK INTRA:                  -4.072
REMARK UNBOUND:                -3.997
REMARK SMILES CCCCCCCCCCCCCCCCCCCCCCCC(=O)[O-]
REMARK SMILES IDX 13 1 14 2 15 3 16 4 17 5 18 6 19 7 20 8 21 9 22 10 23 11
REMARK SMILES IDX 24 12 25 13 26 14 12 15 11 16 10 17 9 18 8 19 7 20 6 21 5 22
REMARK SMILES IDX 4 23 3 24 2 25 1 26
REMARK H PARENT
REMARK Flexibility Score: inf
ROOT
ATOM      1  C   UNL     1     -48.824  11.958 -29.638  1.00  0.00     0.000 C 
ENDROOT
BRANCH   1   2
ATOM      2  C   UNL     1     -49.693  13.201 -29.894  1.00  0.00     0.000 C 
BRANCH   2   3
ATOM      3  C   UNL     1     -49.635  13.670 -31.356  1.00  0.00     0.000 C 
BRANCH   3   4
ATOM      4  C   UNL     1     -51.036  13.997 -31.885  1.00  0.00     0.000 C 
BRANCH   4   5
ATOM      5  C   UNL     1     -51.967  12.780 -31.771  1.00  0.00     0.000 C 
BRANCH   5   6
ATOM      6  C   UNL     1     -53.250  13.097 -30.975  1.00  0.00     0.000 C 
BRANCH   6   7
ATOM      7  C   UNL     1     -53.438  12.211 -29.732  1.00  0.00     0.000 C 
BRANCH   7   8
ATOM      8  C   UNL     1     -53.097  12.938 -28.424  1.00  0.00     0.000 C 
BRANCH   8   9
ATOM      9  C   UNL     1     -53.546  14.403 -28.477  1.00  0.00     0.000 C 
BRANCH   9  10
ATOM     10  C   UNL     1     -52.410  15.345 -28.049  1.00  0.00     0.006 C 
BRANCH  10  11
ATOM     11  C   UNL     1     -51.914  16.223 -29.206  1.00  0.00     0.053 C 
BRANCH  11  12
ATOM     12  C   UNL     1     -53.014  17.063 -29.780  1.00  0.00     0.041 C 
ATOM     13  O   UNL     1     -53.398  16.879 -30.966  1.00  0.00    -0.550 OA
ATOM     14  O   UNL     1     -53.655  18.006 -28.988  1.00  0.00    -0.550 OA
ENDBRANCH  11  12
ENDBRANCH  10  11
ENDBRANCH   9  10
ENDBRANCH   8   9
ENDBRANCH   7   8
ENDBRANCH   6   7
ENDBRANCH   5   6
ENDBRANCH   4   5
ENDBRANCH   3   4
ENDBRANCH   2   3
ENDBRANCH   1   2
BRANCH   1  15
ATOM     15  C   UNL     1     -49.658  10.728 -29.238  1.00  0.00     0.000 C 
BRANCH  15  16
ATOM     16  C   UNL     1     -50.099   9.890 -30.457  1.00  0.00     0.000 C 
BRANCH  16  17
ATOM     17  C   UNL     1     -51.536   9.345 -30.356  1.00  0.00     0.000 C 
BRANCH  17  18
ATOM     18  C   UNL     1     -52.213   9.030 -31.704  1.00  0.00    -0.000 C 
BRANCH  18  19
ATOM     19  C   UNL     1     -51.249   8.838 -32.891  1.00  0.00    -0.000 C 
BRANCH  19  20
ATOM     20  C   UNL     1     -51.331   7.462 -33.582  1.00  0.00    -0.000 C 
BRANCH  20  21
ATOM     21  C   UNL     1     -50.913   6.280 -32.676  1.00  0.00    -0.000 C 
BRANCH  21  22
ATOM     22  C   UNL     1     -49.612   6.515 -31.882  1.00  0.00    -0.000 C 
BRANCH  22  23
ATOM     23  C   UNL     1     -48.339   6.635 -32.743  1.00  0.00    -0.000 C 
BRANCH  23  24
ATOM     24  C   UNL     1     -47.095   7.017 -31.926  1.00  0.00    -0.000 C 
BRANCH  24  25
ATOM     25  C   UNL     1     -47.010   8.536 -31.732  1.00  0.00    -0.003 C 
ATOM     26  C   UNL     1     -46.449   8.885 -30.356  1.00  0.00     0.004 C 
ENDBRANCH  24  25
ENDBRANCH  23  24
ENDBRANCH  22  23
ENDBRANCH  21  22
ENDBRANCH  20  21
ENDBRANCH  19  20
ENDBRANCH  18  19
ENDBRANCH  17  18
ENDBRANCH  16  17
ENDBRANCH  15  16
ENDBRANCH   1  15
TORSDOF 22
ENDMDL
MODEL 3
REMARK VINA RESULT:    -4.448      1.188      2.129
REMARK INTER + INTRA:         -14.167
REMARK INTER:                 -10.338
REMARK INTRA:                  -3.828
REMARK UNBOUND:                -3.997
REMARK SMILES CCCCCCCCCCCCCCCCCCCCCCCC(=O)[O-]
REMARK SMILES IDX 13 1 14 2 15 3 16 4 17 5 18 6 19 7 20 8 21 9 22 10 23 11
REMARK SMILES IDX 24 12 25 13 26 14 12 15 11 16 10 17 9 18 8 19 7 20 6 21 5 22
REMARK SMILES IDX 4 23 3 24 2 25 1 26
REMARK H PARENT
REMARK Flexibility Score: inf
ROOT
ATOM      1  C   UNL     1     -48.900  12.807 -29.758  1.00  0.00     0.000 C 
ENDROOT
BRANCH   1   2
ATOM      2  C   UNL     1     -49.552  12.552 -31.126  1.00  0.00     0.000 C 
BRANCH   2   3
ATOM      3  C   UNL     1     -50.235  13.805 -31.696  1.00  0.00     0.000 C 
BRANCH   3   4
ATOM      4  C   UNL     1     -51.739  13.576 -31.883  1.00  0.00     0.000 C 
BRANCH   4   5
ATOM      5  C   UNL     1     -52.096  12.091 -31.710  1.00  0.00     0.000 C 
BRANCH   5   6
ATOM      6  C   UNL     1     -53.166  11.870 -30.622  1.00  0.00     0.000 C 
BRANCH   6   7
ATOM      7  C   UNL     1     -52.640  12.072 -29.190  1.00  0.00     0.000 C 
BRANCH   7   8
ATOM      8  C   UNL     1     -53.390  13.174 -28.429  1.00  0.00     0.000 C 
BRANCH   8   9
ATOM      9  C   UNL     1     -52.588  14.480 -28.422  1.00  0.00     0.000 C 
BRANCH   9  10
ATOM     10  C   UNL     1     -53.485  15.681 -28.763  1.00  0.00     0.006 C 
BRANCH  10  11
ATOM     11  C   UNL     1     -53.112  16.324 -30.106  1.00  0.00     0.053 C 
BRANCH  11  12
ATOM     12  C   UNL     1     -51.816  17.072 -30.025  1.00  0.00     0.041 C 
ATOM     13  O   UNL     1     -51.410  17.516 -28.918  1.00  0.00    -0.550 OA
ATOM     14  O   UNL     1     -51.029  17.227 -31.158  1.00  0.00    -0.550 OA
ENDBRANCH  11  12
ENDBRANCH  10  11
ENDBRANCH   9  10
ENDBRANCH   8   9
ENDBRANCH   7   8
ENDBRANCH   6   7
ENDBRANCH   5   6
ENDBRANCH   4   5
ENDBRANCH   3   4
ENDBRANCH   2   3
ENDBRANCH   1   2
BRANCH   1  15
ATOM     15  C   UNL     1     -48.491  11.504 -29.047  1.00  0.00     0.000 C 
BRANCH  15  16
ATOM     16  C   UNL     1     -49.403  10.316 -29.419  1.00  0.00     0.000 C 
BRANCH  16  17
ATOM     17  C   UNL     1     -48.640   9.046 -29.839  1.00  0.00     0.000 C 
BRANCH  17  18
ATOM     18  C   UNL     1     -47.112   9.210 -29.959  1.00  0.00    -0.000 C 
BRANCH  18  19
ATOM     19  C   UNL     1     -46.343   7.921 -30.312  1.00  0.00    -0.000 C 
BRANCH  19  20
ATOM     20  C   UNL     1     -47.202   6.643 -30.361  1.00  0.00    -0.000 C 
BRANCH  20  21
ATOM     21  C   UNL     1     -47.129   5.889 -31.709  1.00  0.00    -0.000 C 
BRANCH  21  22
ATOM     22  C   UNL     1     -47.261   6.792 -32.952  1.00  0.00    -0.000 C 
BRANCH  22  23
ATOM     23  C   UNL     1     -48.698   7.251 -33.270  1.00  0.00    -0.000 C 
BRANCH  23  24
ATOM     24  C   UNL     1     -48.820   8.774 -33.434  1.00  0.00    -0.000 C 
BRANCH  24  25
ATOM     25  C   UNL     1     -50.233   9.255 -33.081  1.00  0.00    -0.003 C 
ATOM     26  C   UNL     1     -51.071   8.120 -32.499  1.00  0.00     0.004 C 
ENDBRANCH  24  25
ENDBRANCH  23  24
ENDBRANCH  22  23
ENDBRANCH  21  22
ENDBRANCH  20  21
ENDBRANCH  19  20
ENDBRANCH  18  19
ENDBRANCH  17  18
ENDBRANCH  16  17
ENDBRANCH  15  16
ENDBRANCH   1  15
TORSDOF 22
ENDMDL
MODEL 4
REMARK VINA RESULT:    -4.435      3.068      7.822
REMARK INTER + INTRA:         -14.137
REMARK INTER:                 -10.329
REMARK INTRA:                  -3.808
REMARK UNBOUND:                -3.997
REMARK SMILES CCCCCCCCCCCCCCCCCCCCCCCC(=O)[O-]
REMARK SMILES IDX 13 1 14 2 15 3 16 4 17 5 18 6 19 7 20 8 21 9 22 10 23 11
REMARK SMILES IDX 24 12 25 13 26 14 12 15 11 16 10 17 9 18 8 19 7 20 6 21 5 22
REMARK SMILES IDX 4 23 3 24 2 25 1 26
REMARK H PARENT
REMARK Flexibility Score: inf
ROOT
ATOM      1  C   UNL     1     -48.728  11.631 -29.927  1.00  0.00     0.000 C 
ENDROOT
BRANCH   1   2
ATOM      2  C   UNL     1     -49.344  10.245 -29.678  1.00  0.00     0.000 C 
BRANCH   2   3
ATOM      3  C   UNL     1     -50.062   9.687 -30.916  1.00  0.00     0.000 C 
BRANCH   3   4
ATOM      4  C   UNL     1     -51.380   9.008 -30.530  1.00  0.00     0.000 C 
BRANCH   4   5
ATOM      5  C   UNL     1     -52.356   8.984 -31.717  1.00  0.00     0.000 C 
BRANCH   5   6
ATOM      6  C   UNL     1     -51.631   8.804 -33.067  1.00  0.00     0.000 C 
BRANCH   6   7
ATOM      7  C   UNL     1     -51.923   7.456 -33.748  1.00  0.00     0.000 C 
BRANCH   7   8
ATOM      8  C   UNL     1     -50.649   6.668 -34.082  1.00  0.00     0.000 C 
BRANCH   8   9
ATOM      9  C   UNL     1     -49.684   6.653 -32.891  1.00  0.00     0.000 C 
BRANCH   9  10
ATOM     10  C   UNL     1     -48.253   6.996 -33.335  1.00  0.00     0.006 C 
BRANCH  10  11
ATOM     11  C   UNL     1     -47.198   6.484 -32.344  1.00  0.00     0.053 C 
BRANCH  11  12
ATOM     12  C   UNL     1     -46.944   7.469 -31.242  1.00  0.00     0.041 C 
ATOM     13  O   UNL     1     -46.952   7.089 -30.041  1.00  0.00    -0.550 OA
ATOM     14  O   UNL     1     -46.640   8.789 -31.545  1.00  0.00    -0.550 OA
ENDBRANCH  11  12
ENDBRANCH  10  11
ENDBRANCH   9  10
ENDBRANCH   8   9
ENDBRANCH   7   8
ENDBRANCH   6   7
ENDBRANCH   5   6
ENDBRANCH   4   5
ENDBRANCH   3   4
ENDBRANCH   2   3
ENDBRANCH   1   2
BRANCH   1  15
ATOM     15  C   UNL     1     -49.771  12.762 -29.852  1.00  0.00     0.000 C 
BRANCH  15  16
ATOM     16  C   UNL     1     -49.651  13.755 -31.028  1.00  0.00     0.000 C 
BRANCH  16  17
ATOM     17  C   UNL     1     -50.928  13.874 -31.880  1.00  0.00     0.000 C 
BRANCH  17  18
ATOM     18  C   UNL     1     -51.827  12.622 -31.893  1.00  0.00    -0.000 C 
BRANCH  18  19
ATOM     19  C   UNL     1     -53.178  12.779 -31.167  1.00  0.00    -0.000 C 
BRANCH  19  20
ATOM     20  C   UNL     1     -53.263  12.088 -29.792  1.00  0.00    -0.000 C 
BRANCH  20  21
ATOM     21  C   UNL     1     -53.631  13.041 -28.632  1.00  0.00    -0.000 C 
BRANCH  21  22
ATOM     22  C   UNL     1     -52.817  14.350 -28.600  1.00  0.00    -0.000 C 
BRANCH  22  23
ATOM     23  C   UNL     1     -53.627  15.626 -28.902  1.00  0.00    -0.000 C 
BRANCH  23  24
ATOM     24  C   UNL     1     -53.050  16.443 -30.069  1.00  0.00    -0.000 C 
BRANCH  24  25
ATOM     25  C   UNL     1     -51.838  17.267 -29.617  1.00  0.00    -0.003 C 
ATOM     26  C   UNL     1     -50.837  17.446 -30.755  1.00  0.00     0.004 C 
ENDBRANCH  24  25
ENDBRANCH  23  24
ENDBRANCH  22  23
ENDBRANCH  21  22
ENDBRANCH  20  21
ENDBRANCH  19  20
ENDBRANCH  18  19
ENDBRANCH  17  18
ENDBRANCH  16  17
ENDBRANCH  15  16
ENDBRANCH   1  15
TORSDOF 22
ENDMDL
MODEL 5
REMARK VINA RESULT:    -4.430      2.547      4.087
REMARK INTER + INTRA:         -14.125
REMARK INTER:                 -10.919
REMARK INTRA:                  -3.206
REMARK UNBOUND:                -3.997
REMARK SMILES CCCCCCCCCCCCCCCCCCCCCCCC(=O)[O-]
REMARK SMILES IDX 13 1 14 2 15 3 16 4 17 5 18 6 19 7 20 8 21 9 22 10 23 11
REMARK SMILES IDX 24 12 25 13 26 14 12 15 11 16 10 17 9 18 8 19 7 20 6 21 5 22
REMARK SMILES IDX 4 23 3 24 2 25 1 26
REMARK H PARENT
REMARK Flexibility Score: inf
ROOT
ATOM      1  C   UNL     1     -49.419  14.513 -31.433  1.00  0.00     0.000 C 
ENDROOT
BRANCH   1   2
ATOM      2  C   UNL     1     -50.752  15.248 -31.650  1.00  0.00     0.000 C 
BRANCH   2   3
ATOM      3  C   UNL     1     -50.708  16.705 -31.162  1.00  0.00     0.000 C 
BRANCH   3   4
ATOM      4  C   UNL     1     -52.019  17.095 -30.472  1.00  0.00     0.000 C 
BRANCH   4   5
ATOM      5  C   UNL     1     -51.835  17.183 -28.949  1.00  0.00     0.000 C 
BRANCH   5   6
ATOM      6  C   UNL     1     -52.665  16.122 -28.197  1.00  0.00     0.000 C 
BRANCH   6   7
ATOM      7  C   UNL     1     -52.218  14.677 -28.478  1.00  0.00     0.000 C 
BRANCH   7   8
ATOM      8  C   UNL     1     -53.394  13.734 -28.766  1.00  0.00     0.000 C 
BRANCH   8   9
ATOM      9  C   UNL     1     -53.838  13.842 -30.230  1.00  0.00     0.000 C 
BRANCH   9  10
ATOM     10  C   UNL     1     -53.311  12.659 -31.056  1.00  0.00     0.006 C 
BRANCH  10  11
ATOM     11  C   UNL     1     -52.909  11.467 -30.175  1.00  0.00     0.053 C 
BRANCH  11  12
ATOM     12  C   UNL     1     -52.446  10.300 -30.994  1.00  0.00     0.041 C 
ATOM     13  O   UNL     1     -51.940  10.487 -32.132  1.00  0.00    -0.550 OA
ATOM     14  O   UNL     1     -52.516   9.014 -30.475  1.00  0.00    -0.550 OA
ENDBRANCH  11  12
ENDBRANCH  10  11
ENDBRANCH   9  10
ENDBRANCH   8   9
ENDBRANCH   7   8
ENDBRANCH   6   7
ENDBRANCH   5   6
ENDBRANCH   4   5
ENDBRANCH   3   4
ENDBRANCH   2   3
ENDBRANCH   1   2
BRANCH   1  15
ATOM     15  C   UNL     1     -49.614  13.021 -31.110  1.00  0.00     0.000 C 
BRANCH  15  16
ATOM     16  C   UNL     1     -49.177  12.665 -29.673  1.00  0.00     0.000 C 
BRANCH  16  17
ATOM     17  C   UNL     1     -49.307  11.170 -29.330  1.00  0.00     0.000 C 
BRANCH  17  18
ATOM     18  C   UNL     1     -47.973  10.416 -29.168  1.00  0.00    -0.000 C 
BRANCH  18  19
ATOM     19  C   UNL     1     -47.670   9.379 -30.268  1.00  0.00    -0.000 C 
BRANCH  19  20
ATOM     20  C   UNL     1     -48.718   9.304 -31.397  1.00  0.00    -0.000 C 
BRANCH  20  21
ATOM     21  C   UNL     1     -48.207   8.607 -32.680  1.00  0.00    -0.000 C 
BRANCH  21  22
ATOM     22  C   UNL     1     -49.004   7.349 -33.082  1.00  0.00    -0.000 C 
BRANCH  22  23
ATOM     23  C   UNL     1     -49.994   6.841 -32.016  1.00  0.00    -0.000 C 
BRANCH  23  24
ATOM     24  C   UNL     1     -51.340   6.394 -32.610  1.00  0.00    -0.000 C 
BRANCH  24  25
ATOM     25  C   UNL     1     -51.376   6.626 -34.126  1.00  0.00    -0.003 C 
ATOM     26  C   UNL     1     -52.768   7.050 -34.586  1.00  0.00     0.004 C 
ENDBRANCH  24  25
ENDBRANCH  23  24
ENDBRANCH  22  23
ENDBRANCH  21  22
ENDBRANCH  20  21
ENDBRANCH  19  20
ENDBRANCH  18  19
ENDBRANCH  17  18
ENDBRANCH  16  17
ENDBRANCH  15  16
ENDBRANCH   1  15
TORSDOF 22
ENDMDL
MODEL 6
REMARK VINA RESULT:    -4.416      1.025      3.680
REMARK INTER + INTRA:         -14.092
REMARK INTER:                 -10.556
REMARK INTRA:                  -3.536
REMARK UNBOUND:                -3.997
REMARK SMILES CCCCCCCCCCCCCCCCCCCCCCCC(=O)[O-]
REMARK SMILES IDX 13 1 14 2 15 3 16 4 17 5 18 6 19 7 20 8 21 9 22 10 23 11
REMARK SMILES IDX 24 12 25 13 26 14 12 15 11 16 10 17 9 18 8 19 7 20 6 21 5 22
REMARK SMILES IDX 4 23 3 24 2 25 1 26
REMARK H PARENT
REMARK Flexibility Score: inf
ROOT
ATOM      1  C   UNL     1     -50.231   9.258 -32.835  1.00  0.00     0.000 C 
ENDROOT
BRANCH   1   2
ATOM      2  C   UNL     1     -50.947   8.195 -31.986  1.00  0.00     0.000 C 
BRANCH   2   3
ATOM      3  C   UNL     1     -51.996   8.802 -31.043  1.00  0.00     0.000 C 
BRANCH   3   4
ATOM      4  C   UNL     1     -52.275  10.267 -31.398  1.00  0.00     0.000 C 
BRANCH   4   5
ATOM      5  C   UNL     1     -53.371  10.854 -30.495  1.00  0.00     0.000 C 
BRANCH   5   6
ATOM      6  C   UNL     1     -53.088  12.320 -30.109  1.00  0.00     0.000 C 
BRANCH   6   7
ATOM      7  C   UNL     1     -53.157  12.584 -28.595  1.00  0.00     0.000 C 
BRANCH   7   8
ATOM      8  C   UNL     1     -53.574  14.022 -28.258  1.00  0.00     0.000 C 
BRANCH   8   9
ATOM      9  C   UNL     1     -52.367  14.966 -28.293  1.00  0.00     0.000 C 
BRANCH   9  10
ATOM     10  C   UNL     1     -52.806  16.430 -28.124  1.00  0.00     0.006 C 
BRANCH  10  11
ATOM     11  C   UNL     1     -51.810  17.412 -28.756  1.00  0.00     0.053 C 
BRANCH  11  12
ATOM     12  C   UNL     1     -51.774  17.288 -30.249  1.00  0.00     0.041 C 
ATOM     13  O   UNL     1     -52.848  17.277 -30.908  1.00  0.00    -0.550 OA
ATOM     14  O   UNL     1     -50.558  17.247 -30.916  1.00  0.00    -0.550 OA
ENDBRANCH  11  12
ENDBRANCH  10  11
ENDBRANCH   9  10
ENDBRANCH   8   9
ENDBRANCH   7   8
ENDBRANCH   6   7
ENDBRANCH   5   6
ENDBRANCH   4   5
ENDBRANCH   3   4
ENDBRANCH   2   3
ENDBRANCH   1   2
BRANCH   1  15
ATOM     15  C   UNL     1     -48.854   8.785 -33.337  1.00  0.00     0.000 C 
BRANCH  15  16
ATOM     16  C   UNL     1     -48.800   7.259 -33.560  1.00  0.00     0.000 C 
BRANCH  16  17
ATOM     17  C   UNL     1     -47.680   6.550 -32.775  1.00  0.00     0.000 C 
BRANCH  17  18
ATOM     18  C   UNL     1     -48.101   5.969 -31.411  1.00  0.00    -0.000 C 
BRANCH  18  19
ATOM     19  C   UNL     1     -47.921   6.921 -30.212  1.00  0.00    -0.000 C 
BRANCH  19  20
ATOM     20  C   UNL     1     -46.608   7.730 -30.215  1.00  0.00    -0.000 C 
BRANCH  20  21
ATOM     21  C   UNL     1     -46.816   9.262 -30.201  1.00  0.00    -0.000 C 
BRANCH  21  22
ATOM     22  C   UNL     1     -48.216   9.711 -29.734  1.00  0.00    -0.000 C 
BRANCH  22  23
ATOM     23  C   UNL     1     -48.260  11.095 -29.057  1.00  0.00    -0.000 C 
BRANCH  23  24
ATOM     24  C   UNL     1     -49.488  11.925 -29.465  1.00  0.00    -0.000 C 
BRANCH  24  25
ATOM     25  C   UNL     1     -49.421  12.314 -30.947  1.00  0.00    -0.003 C 
ATOM     26  C   UNL     1     -49.742  13.793 -31.144  1.00  0.00     0.004 C 
ENDBRANCH  24  25
ENDBRANCH  23  24
ENDBRANCH  22  23
ENDBRANCH  21  22
ENDBRANCH  20  21
ENDBRANCH  19  20
ENDBRANCH  18  19
ENDBRANCH  17  18
ENDBRANCH  16  17
ENDBRANCH  15  16
ENDBRANCH   1  15
TORSDOF 22
ENDMDL
MODEL 7
REMARK VINA RESULT:    -4.380      2.553      7.348
REMARK INTER + INTRA:         -14.010
REMARK INTER:                 -10.437
REMARK INTRA:                  -3.573
REMARK UNBOUND:                -3.997
REMARK SMILES CCCCCCCCCCCCCCCCCCCCCCCC(=O)[O-]
REMARK SMILES IDX 13 1 14 2 15 3 16 4 17 5 18 6 19 7 20 8 21 9 22 10 23 11
REMARK SMILES IDX 24 12 25 13 26 14 12 15 11 16 10 17 9 18 8 19 7 20 6 21 5 22
REMARK SMILES IDX 4 23 3 24 2 25 1 26
REMARK H PARENT
REMARK Flexibility Score: inf
ROOT
ATOM      1  C   UNL     1     -48.052  11.175 -29.219  1.00  0.00     0.000 C 
ENDROOT
BRANCH   1   2
ATOM      2  C   UNL     1     -48.124   9.787 -29.878  1.00  0.00     0.000 C 
BRANCH   2   3
ATOM      3  C   UNL     1     -46.747   9.278 -30.331  1.00  0.00     0.000 C 
BRANCH   3   4
ATOM      4  C   UNL     1     -46.607   7.772 -30.083  1.00  0.00     0.000 C 
BRANCH   4   5
ATOM      5  C   UNL     1     -47.608   6.978 -30.937  1.00  0.00     0.000 C 
BRANCH   5   6
ATOM      6  C   UNL     1     -47.247   7.005 -32.437  1.00  0.00     0.000 C 
BRANCH   6   7
ATOM      7  C   UNL     1     -48.452   7.274 -33.355  1.00  0.00     0.000 C 
BRANCH   7   8
ATOM      8  C   UNL     1     -48.882   8.748 -33.358  1.00  0.00     0.000 C 
BRANCH   8   9
ATOM      9  C   UNL     1     -50.387   8.881 -33.099  1.00  0.00     0.000 C 
BRANCH   9  10
ATOM     10  C   UNL     1     -50.912   7.697 -32.272  1.00  0.00     0.006 C 
BRANCH  10  11
ATOM     11  C   UNL     1     -51.284   8.106 -30.840  1.00  0.00     0.053 C 
BRANCH  11  12
ATOM     12  C   UNL     1     -52.534   8.933 -30.803  1.00  0.00     0.041 C 
ATOM     13  O   UNL     1     -53.620   8.457 -31.230  1.00  0.00    -0.550 OA
ATOM     14  O   UNL     1     -52.513  10.202 -30.243  1.00  0.00    -0.550 OA
ENDBRANCH  11  12
ENDBRANCH  10  11
ENDBRANCH   9  10
ENDBRANCH   8   9
ENDBRANCH   7   8
ENDBRANCH   6   7
ENDBRANCH   5   6
ENDBRANCH   4   5
ENDBRANCH   3   4
ENDBRANCH   2   3
ENDBRANCH   1   2
BRANCH   1  15
ATOM     15  C   UNL     1     -49.233  12.078 -29.616  1.00  0.00     0.000 C 
BRANCH  15  16
ATOM     16  C   UNL     1     -49.681  11.858 -31.076  1.00  0.00     0.000 C 
BRANCH  16  17
ATOM     17  C   UNL     1     -50.431  13.055 -31.690  1.00  0.00     0.000 C 
BRANCH  17  18
ATOM     18  C   UNL     1     -49.798  14.434 -31.417  1.00  0.00    -0.000 C 
BRANCH  18  19
ATOM     19  C   UNL     1     -50.681  15.643 -31.787  1.00  0.00    -0.000 C 
BRANCH  19  20
ATOM     20  C   UNL     1     -50.341  16.949 -31.043  1.00  0.00    -0.000 C 
BRANCH  20  21
ATOM     21  C   UNL     1     -51.460  17.439 -30.094  1.00  0.00    -0.000 C 
BRANCH  21  22
ATOM     22  C   UNL     1     -52.880  16.998 -30.502  1.00  0.00    -0.000 C 
BRANCH  22  23
ATOM     23  C   UNL     1     -53.617  16.138 -29.455  1.00  0.00    -0.000 C 
BRANCH  23  24
ATOM     24  C   UNL     1     -52.662  15.407 -28.498  1.00  0.00    -0.000 C 
BRANCH  24  25
ATOM     25  C   UNL     1     -52.556  13.920 -28.855  1.00  0.00    -0.003 C 
ATOM     26  C   UNL     1     -53.690  13.494 -29.784  1.00  0.00     0.004 C 
ENDBRANCH  24  25
ENDBRANCH  23  24
ENDBRANCH  22  23
ENDBRANCH  21  22
ENDBRANCH  20  21
ENDBRANCH  19  20
ENDBRANCH  18  19
ENDBRANCH  17  18
ENDBRANCH  16  17
ENDBRANCH  15  16
ENDBRANCH   1  15
TORSDOF 22
ENDMDL
MODEL 8
REMARK VINA RESULT:    -4.379      3.365      8.122
REMARK INTER + INTRA:         -14.008
REMARK INTER:                 -10.018
REMARK INTRA:                  -3.990
REMARK UNBOUND:                -3.997
REMARK SMILES CCCCCCCCCCCCCCCCCCCCCCCC(=O)[O-]
REMARK SMILES IDX 13 1 14 2 15 3 16 4 17 5 18 6 19 7 20 8 21 9 22 10 23 11
REMARK SMILES IDX 24 12 25 13 26 14 12 15 11 16 10 17 9 18 8 19 7 20 6 21 5 22
REMARK SMILES IDX 4 23 3 24 2 25 1 26
REMARK H PARENT
REMARK Flexibility Score: inf
ROOT
ATOM      1  C   UNL     1     -50.057  13.966 -30.733  1.00  0.00     0.000 C 
ENDROOT
BRANCH   1   2
ATOM      2  C   UNL     1     -49.480  12.548 -30.874  1.00  0.00     0.000 C 
BRANCH   2   3
ATOM      3  C   UNL     1     -49.063  11.945 -29.524  1.00  0.00     0.000 C 
BRANCH   3   4
ATOM      4  C   UNL     1     -49.252  10.424 -29.517  1.00  0.00     0.000 C 
BRANCH   4   5
ATOM      5  C   UNL     1     -50.658  10.041 -30.004  1.00  0.00     0.000 C 
BRANCH   5   6
ATOM      6  C   UNL     1     -50.631   8.867 -31.005  1.00  0.00     0.000 C 
BRANCH   6   7
ATOM      7  C   UNL     1     -50.543   9.313 -32.475  1.00  0.00     0.000 C 
BRANCH   7   8
ATOM      8  C   UNL     1     -49.106   9.315 -33.012  1.00  0.00     0.000 C 
BRANCH   8   9
ATOM      9  C   UNL     1     -48.726   7.938 -33.571  1.00  0.00     0.000 C 
BRANCH   9  10
ATOM     10  C   UNL     1     -47.476   7.383 -32.870  1.00  0.00     0.006 C 
BRANCH  10  11
ATOM     11  C   UNL     1     -46.971   8.314 -31.758  1.00  0.00     0.053 C 
BRANCH  11  12
ATOM     12  C   UNL     1     -46.933   7.624 -30.428  1.00  0.00     0.041 C 
ATOM     13  O   UNL     1     -47.887   6.881 -30.074  1.00  0.00    -0.550 OA
ATOM     14  O   UNL     1     -45.820   7.753 -29.609  1.00  0.00    -0.550 OA
ENDBRANCH  11  12
ENDBRANCH  10  11
ENDBRANCH   9  10
ENDBRANCH   8   9
ENDBRANCH   7   8
ENDBRANCH   6   7
ENDBRANCH   5   6
ENDBRANCH   4   5
ENDBRANCH   3   4
ENDBRANCH   2   3
ENDBRANCH   1   2
BRANCH   1  15
ATOM     15  C   UNL     1     -51.336  14.168 -31.566  1.00  0.00     0.000 C 
BRANCH  15  16
ATOM     16  C   UNL     1     -52.100  12.848 -31.805  1.00  0.00     0.000 C 
BRANCH  16  17
ATOM     17  C   UNL     1     -53.486  12.795 -31.137  1.00  0.00     0.000 C 
BRANCH  17  18
ATOM     18  C   UNL     1     -53.566  11.936 -29.860  1.00  0.00    -0.000 C 
BRANCH  18  19
ATOM     19  C   UNL     1     -53.047  12.620 -28.580  1.00  0.00    -0.000 C 
BRANCH  19  20
ATOM     20  C   UNL     1     -53.541  14.064 -28.366  1.00  0.00    -0.000 C 
BRANCH  20  21
ATOM     21  C   UNL     1     -52.412  15.073 -28.052  1.00  0.00    -0.000 C 
BRANCH  21  22
ATOM     22  C   UNL     1     -52.781  16.546 -28.321  1.00  0.00    -0.000 C 
BRANCH  22  23
ATOM     23  C   UNL     1     -53.958  16.752 -29.295  1.00  0.00    -0.000 C 
BRANCH  23  24
ATOM     24  C   UNL     1     -53.505  17.132 -30.713  1.00  0.00    -0.000 C 
BRANCH  24  25
ATOM     25  C   UNL     1     -52.087  17.717 -30.700  1.00  0.00    -0.003 C 
ATOM     26  C   UNL     1     -52.019  19.015 -31.499  1.00  0.00     0.004 C 
ENDBRANCH  24  25
ENDBRANCH  23  24
ENDBRANCH  22  23
ENDBRANCH  21  22
ENDBRANCH  20  21
ENDBRANCH  19  20
ENDBRANCH  18  19
ENDBRANCH  17  18
ENDBRANCH  16  17
ENDBRANCH  15  16
ENDBRANCH   1  15
TORSDOF 22
ENDMDL
MODEL 9
REMARK VINA RESULT:    -4.373      2.931      7.651
REMARK INTER + INTRA:         -13.995
REMARK INTER:                 -10.023
REMARK INTRA:                  -3.972
REMARK UNBOUND:                -3.997
REMARK SMILES CCCCCCCCCCCCCCCCCCCCCCCC(=O)[O-]
REMARK SMILES IDX 13 1 14 2 15 3 16 4 17 5 18 6 19 7 20 8 21 9 22 10 23 11
REMARK SMILES IDX 24 12 25 13 26 14 12 15 11 16 10 17 9 18 8 19 7 20 6 21 5 22
REMARK SMILES IDX 4 23 3 24 2 25 1 26
REMARK H PARENT
REMARK Flexibility Score: inf
ROOT
ATOM      1  C   UNL     1     -52.348  10.481 -30.475  1.00  0.00     0.000 C 
ENDROOT
BRANCH   1   2
ATOM      2  C   UNL     1     -53.139   9.228 -30.886  1.00  0.00     0.000 C 
BRANCH   2   3
ATOM      3  C   UNL     1     -52.545   7.938 -30.301  1.00  0.00     0.000 C 
BRANCH   3   4
ATOM      4  C   UNL     1     -53.062   6.704 -31.049  1.00  0.00     0.000 C 
BRANCH   4   5
ATOM      5  C   UNL     1     -53.952   7.111 -32.234  1.00  0.00     0.000 C 
BRANCH   5   6
ATOM      6  C   UNL     1     -53.411   6.584 -33.579  1.00  0.00     0.000 C 
BRANCH   6   7
ATOM      7  C   UNL     1     -52.192   7.365 -34.102  1.00  0.00     0.000 C 
BRANCH   7   8
ATOM      8  C   UNL     1     -50.899   6.539 -34.074  1.00  0.00     0.000 C 
BRANCH   8   9
ATOM      9  C   UNL     1     -49.767   7.315 -33.391  1.00  0.00     0.000 C 
BRANCH   9  10
ATOM     10  C   UNL     1     -50.222   8.731 -33.004  1.00  0.00     0.006 C 
BRANCH  10  11
ATOM     11  C   UNL     1     -49.071   9.582 -32.449  1.00  0.00     0.053 C 
BRANCH  11  12
ATOM     12  C   UNL     1     -48.351   8.887 -31.334  1.00  0.00     0.041 C 
ATOM     13  O   UNL     1     -48.956   8.616 -30.262  1.00  0.00    -0.550 OA
ATOM     14  O   UNL     1     -47.033   8.485 -31.500  1.00  0.00    -0.550 OA
ENDBRANCH  11  12
ENDBRANCH  10  11
ENDBRANCH   9  10
ENDBRANCH   8   9
ENDBRANCH   7   8
ENDBRANCH   6   7
ENDBRANCH   5   6
ENDBRANCH   4   5
ENDBRANCH   3   4
ENDBRANCH   2   3
ENDBRANCH   1   2
BRANCH   1  15
ATOM     15  C   UNL     1     -52.741  11.723 -31.296  1.00  0.00     0.000 C 
BRANCH  15  16
ATOM     16  C   UNL     1     -53.523  12.759 -30.462  1.00  0.00     0.000 C 
BRANCH  16  17
ATOM     17  C   UNL     1     -53.184  12.740 -28.959  1.00  0.00     0.000 C 
BRANCH  17  18
ATOM     18  C   UNL     1     -53.007  14.126 -28.309  1.00  0.00    -0.000 C 
BRANCH  18  19
ATOM     19  C   UNL     1     -53.394  15.321 -29.203  1.00  0.00    -0.000 C 
BRANCH  19  20
ATOM     20  C   UNL     1     -52.301  16.397 -29.359  1.00  0.00    -0.000 C 
BRANCH  20  21
ATOM     21  C   UNL     1     -51.906  16.681 -30.826  1.00  0.00    -0.000 C 
BRANCH  21  22
ATOM     22  C   UNL     1     -50.556  16.069 -31.253  1.00  0.00    -0.000 C 
BRANCH  22  23
ATOM     23  C   UNL     1     -50.660  14.726 -32.001  1.00  0.00    -0.000 C 
BRANCH  23  24
ATOM     24  C   UNL     1     -49.613  13.699 -31.541  1.00  0.00    -0.000 C 
BRANCH  24  25
ATOM     25  C   UNL     1     -49.808  13.339 -30.063  1.00  0.00    -0.003 C 
ATOM     26  C   UNL     1     -48.894  12.189 -29.650  1.00  0.00     0.004 C 
ENDBRANCH  24  25
ENDBRANCH  23  24
ENDBRANCH  22  23
ENDBRANCH  21  22
ENDBRANCH  20  21
ENDBRANCH  19  20
ENDBRANCH  18  19
ENDBRANCH  17  18
ENDBRANCH  16  17
ENDBRANCH  15  16
ENDBRANCH   1  15
TORSDOF 22
ENDMDL
