MODEL 1
REMARK VINA RESULT:    -3.836      0.000      0.000
REMARK INTER + INTRA:         -16.414
REMARK INTER:                 -10.114
REMARK INTRA:                  -6.300
REMARK UNBOUND:                -6.300
REMARK SMILES CCCCCCCCCCCCCCCCCCCCCCCCCCCCCC(=O)[O-]
REMARK SMILES IDX 16 1 17 2 18 3 19 4 20 5 21 6 22 7 23 8 24 9 25 10 26 11
REMARK SMILES IDX 27 12 28 13 29 14 30 15 31 16 32 17 15 18 14 19 13 20 12 21
REMARK SMILES IDX 11 22 10 23 9 24 8 25 7 26 6 27 5 28 4 29 3 30 2 31 1 32
REMARK H PARENT
REMARK Flexibility Score: inf
ROOT
ATOM      1  C   UNL     1     101.687  96.240  98.409  1.00  0.00     0.000 C 
ENDROOT
BRANCH   1   2
ATOM      2  C   UNL     1     101.299  97.590  99.043  1.00  0.00     0.000 C 
BRANCH   2   3
ATOM      3  C   UNL     1     102.291  98.054 100.121  1.00  0.00     0.000 C 
BRANCH   3   4
ATOM      4  C   UNL     1     101.762  99.234 100.953  1.00  0.00     0.000 C 
BRANCH   4   5
ATOM      5  C   UNL     1     100.617  99.987 100.249  1.00  0.00     0.000 C 
BRANCH   5   6
ATOM      6  C   UNL     1     100.858 101.495 100.042  1.00  0.00     0.000 C 
BRANCH   6   7
ATOM      7  C   UNL     1      99.965 102.161  98.978  1.00  0.00     0.000 C 
BRANCH   7   8
ATOM      8  C   UNL     1      99.155 101.143  98.158  1.00  0.00     0.000 C 
BRANCH   8   9
ATOM      9  C   UNL     1      99.329 101.383  96.650  1.00  0.00     0.000 C 
BRANCH   9  10
ATOM     10  C   UNL     1      98.836 100.196  95.805  1.00  0.00     0.000 C 
BRANCH  10  11
ATOM     11  C   UNL     1      98.885  98.863  96.572  1.00  0.00     0.000 C 
BRANCH  11  12
ATOM     12  C   UNL     1      99.611  97.757  95.788  1.00  0.00     0.000 C 
BRANCH  12  13
ATOM     13  C   UNL     1      98.972  96.374  95.974  1.00  0.00     0.006 C 
BRANCH  13  14
ATOM     14  C   UNL     1      98.117  96.333  97.245  1.00  0.00     0.053 C 
BRANCH  14  15
ATOM     15  C   UNL     1      98.125  94.960  97.843  1.00  0.00     0.041 C 
ATOM     16  O   UNL     1      98.848  94.055  97.349  1.00  0.00    -0.550 OA
ATOM     17  O   UNL     1      97.333  94.681  98.951  1.00  0.00    -0.550 OA
ENDBRANCH  14  15
ENDBRANCH  13  14
ENDBRANCH  12  13
ENDBRANCH  11  12
ENDBRANCH  10  11
ENDBRANCH   9  10
ENDBRANCH   8   9
ENDBRANCH   7   8
ENDBRANCH   6   7
ENDBRANCH   5   6
ENDBRANCH   4   5
ENDBRANCH   3   4
ENDBRANCH   2   3
ENDBRANCH   1   2
BRANCH   1  18
ATOM     18  C   UNL     1     103.014  95.680  98.962  1.00  0.00     0.000 C 
BRANCH  18  19
ATOM     19  C   UNL     1     104.182  95.706  97.955  1.00  0.00     0.000 C 
BRANCH  19  20
ATOM     20  C   UNL     1     104.535  97.090  97.386  1.00  0.00     0.000 C 
BRANCH  20  21
ATOM     21  C   UNL     1     105.561  97.025  96.242  1.00  0.00     0.000 C 
BRANCH  21  22
ATOM     22  C   UNL     1     105.052  97.689  94.953  1.00  0.00     0.000 C 
BRANCH  22  23
ATOM     23  C   UNL     1     103.611  98.218  95.083  1.00  0.00     0.000 C 
BRANCH  23  24
ATOM     24  C   UNL     1     103.482  99.697  94.680  1.00  0.00    -0.000 C 
BRANCH  24  25
ATOM     25  C   UNL     1     102.562 100.491  95.622  1.00  0.00    -0.000 C 
BRANCH  25  26
ATOM     26  C   UNL     1     102.927 100.304  97.105  1.00  0.00    -0.000 C 
BRANCH  26  27
ATOM     27  C   UNL     1     103.614 101.515  97.771  1.00  0.00    -0.000 C 
BRANCH  27  28
ATOM     28  C   UNL     1     105.014 101.235  98.351  1.00  0.00    -0.000 C 
BRANCH  28  29
ATOM     29  C   UNL     1     105.924 100.482  97.366  1.00  0.00    -0.000 C 
BRANCH  29  30
ATOM     30  C   UNL     1     106.456 101.383  96.241  1.00  0.00    -0.000 C 
BRANCH  30  31
ATOM     31  C   UNL     1     107.300 100.609  95.217  1.00  0.00    -0.003 C 
ATOM     32  C   UNL     1     108.199  99.584  95.903  1.00  0.00     0.004 C 
ENDBRANCH  30  31
ENDBRANCH  29  30
ENDBRANCH  28  29
ENDBRANCH  27  28
ENDBRANCH  26  27
ENDBRANCH  25  26
ENDBRANCH  24  25
ENDBRANCH  23  24
ENDBRANCH  22  23
ENDBRANCH  21  22
ENDBRANCH  20  21
ENDBRANCH  19  20
ENDBRANCH  18  19
ENDBRANCH   1  18
TORSDOF 28
ENDMDL
MODEL 2
REMARK VINA RESULT:    -3.723      2.706      4.808
REMARK INTER + INTRA:         -16.117
REMARK INTER:                 -10.016
REMARK INTRA:                  -6.100
REMARK UNBOUND:                -6.300
REMARK SMILES CCCCCCCCCCCCCCCCCCCCCCCCCCCCCC(=O)[O-]
REMARK SMILES IDX 16 1 17 2 18 3 19 4 20 5 21 6 22 7 23 8 24 9 25 10 26 11
REMARK SMILES IDX 27 12 28 13 29 14 30 15 31 16 32 17 15 18 14 19 13 20 12 21
REMARK SMILES IDX 11 22 10 23 9 24 8 25 7 26 6 27 5 28 4 29 3 30 2 31 1 32
REMARK H PARENT
REMARK Flexibility Score: inf
ROOT
ATOM      1  C   UNL     1      99.285  94.918  97.876  1.00  0.00     0.000 C 
ENDROOT
BRANCH   1   2
ATOM      2  C   UNL     1      98.614  95.109  96.503  1.00  0.00     0.000 C 
BRANCH   2   3
ATOM      3  C   UNL     1      99.266  96.221  95.665  1.00  0.00     0.000 C 
BRANCH   3   4
ATOM      4  C   UNL     1      98.246  97.231  95.114  1.00  0.00     0.000 C 
BRANCH   4   5
ATOM      5  C   UNL     1      96.879  97.133  95.816  1.00  0.00     0.000 C 
BRANCH   5   6
ATOM      6  C   UNL     1      96.593  98.244  96.846  1.00  0.00     0.000 C 
BRANCH   6   7
ATOM      7  C   UNL     1      96.674  97.806  98.321  1.00  0.00     0.000 C 
BRANCH   7   8
ATOM      8  C   UNL     1      98.020  98.159  98.974  1.00  0.00     0.000 C 
BRANCH   8   9
ATOM      9  C   UNL     1      98.588  99.467  98.400  1.00  0.00     0.000 C 
BRANCH   9  10
ATOM     10  C   UNL     1     100.125  99.466  98.343  1.00  0.00     0.000 C 
BRANCH  10  11
ATOM     11  C   UNL     1     100.663  99.352  96.905  1.00  0.00     0.000 C 
BRANCH  11  12
ATOM     12  C   UNL     1      99.891 100.239  95.913  1.00  0.00     0.000 C 
BRANCH  12  13
ATOM     13  C   UNL     1     100.717 101.431  95.409  1.00  0.00     0.006 C 
BRANCH  13  14
ATOM     14  C   UNL     1     100.024 102.756  95.739  1.00  0.00     0.053 C 
BRANCH  14  15
ATOM     15  C   UNL     1      99.980 102.976  97.219  1.00  0.00     0.041 C 
ATOM     16  O   UNL     1     101.047 103.034  97.886  1.00  0.00    -0.550 OA
ATOM     17  O   UNL     1      98.757 103.121  97.863  1.00  0.00    -0.550 OA
ENDBRANCH  14  15
ENDBRANCH  13  14
ENDBRANCH  12  13
ENDBRANCH  11  12
ENDBRANCH  10  11
ENDBRANCH   9  10
ENDBRANCH   8   9
ENDBRANCH   7   8
ENDBRANCH   6   7
ENDBRANCH   5   6
ENDBRANCH   4   5
ENDBRANCH   3   4
ENDBRANCH   2   3
ENDBRANCH   1   2
BRANCH   1  18
ATOM     18  C   UNL     1     100.636  95.656  97.988  1.00  0.00     0.000 C 
BRANCH  18  19
ATOM     19  C   UNL     1     101.749  94.841  98.677  1.00  0.00     0.000 C 
BRANCH  19  20
ATOM     20  C   UNL     1     103.040  95.616  98.988  1.00  0.00     0.000 C 
BRANCH  20  21
ATOM     21  C   UNL     1     102.775  97.036  99.517  1.00  0.00     0.000 C 
BRANCH  21  22
ATOM     22  C   UNL     1     103.473  98.118  98.680  1.00  0.00     0.000 C 
BRANCH  22  23
ATOM     23  C   UNL     1     104.037  99.266  99.539  1.00  0.00     0.000 C 
BRANCH  23  24
ATOM     24  C   UNL     1     105.167 100.036  98.834  1.00  0.00    -0.000 C 
BRANCH  24  25
ATOM     25  C   UNL     1     104.711 101.406  98.304  1.00  0.00    -0.000 C 
BRANCH  25  26
ATOM     26  C   UNL     1     104.028 101.312  96.928  1.00  0.00    -0.000 C 
BRANCH  26  27
ATOM     27  C   UNL     1     104.745 100.414  95.898  1.00  0.00    -0.000 C 
BRANCH  27  28
ATOM     28  C   UNL     1     103.825  99.465  95.106  1.00  0.00    -0.000 C 
BRANCH  28  29
ATOM     29  C   UNL     1     104.322  98.011  95.118  1.00  0.00    -0.000 C 
BRANCH  29  30
ATOM     30  C   UNL     1     105.854  97.906  95.173  1.00  0.00    -0.000 C 
BRANCH  30  31
ATOM     31  C   UNL     1     106.358  97.339  96.509  1.00  0.00    -0.003 C 
ATOM     32  C   UNL     1     107.627  98.050  96.967  1.00  0.00     0.004 C 
ENDBRANCH  30  31
ENDBRANCH  29  30
ENDBRANCH  28  29
ENDBRANCH  27  28
ENDBRANCH  26  27
ENDBRANCH  25  26
ENDBRANCH  24  25
ENDBRANCH  23  24
ENDBRANCH  22  23
ENDBRANCH  21  22
ENDBRANCH  20  21
ENDBRANCH  19  20
ENDBRANCH  18  19
ENDBRANCH   1  18
TORSDOF 28
ENDMDL
MODEL 3
REMARK VINA RESULT:    -3.625      2.423      5.345
REMARK INTER + INTRA:         -15.858
REMARK INTER:                  -9.927
REMARK INTRA:                  -5.932
REMARK UNBOUND:                -6.300
REMARK SMILES CCCCCCCCCCCCCCCCCCCCCCCCCCCCCC(=O)[O-]
REMARK SMILES IDX 16 1 17 2 18 3 19 4 20 5 21 6 22 7 23 8 24 9 25 10 26 11
REMARK SMILES IDX 27 12 28 13 29 14 30 15 31 16 32 17 15 18 14 19 13 20 12 21
REMARK SMILES IDX 11 22 10 23 9 24 8 25 7 26 6 27 5 28 4 29 3 30 2 31 1 32
REMARK H PARENT
REMARK Flexibility Score: inf
ROOT
ATOM      1  C   UNL     1     104.114  99.210  99.128  1.00  0.00     0.000 C 
ENDROOT
BRANCH   1   2
ATOM      2  C   UNL     1     102.810  98.435  98.858  1.00  0.00     0.000 C 
BRANCH   2   3
ATOM      3  C   UNL     1     102.971  96.915  99.020  1.00  0.00     0.000 C 
BRANCH   3   4
ATOM      4  C   UNL     1     101.741  96.129  98.536  1.00  0.00     0.000 C 
BRANCH   4   5
ATOM      5  C   UNL     1     100.859  96.945  97.573  1.00  0.00     0.000 C 
BRANCH   5   6
ATOM      6  C   UNL     1      99.742  96.144  96.874  1.00  0.00     0.000 C 
BRANCH   6   7
ATOM      7  C   UNL     1      99.177  94.963  97.685  1.00  0.00     0.000 C 
BRANCH   7   8
ATOM      8  C   UNL     1      97.832  95.289  98.354  1.00  0.00     0.000 C 
BRANCH   8   9
ATOM      9  C   UNL     1      97.020  96.285  97.509  1.00  0.00     0.000 C 
BRANCH   9  10
ATOM     10  C   UNL     1      96.517  97.482  98.333  1.00  0.00     0.000 C 
BRANCH  10  11
ATOM     11  C   UNL     1      97.558  98.612  98.429  1.00  0.00     0.000 C 
BRANCH  11  12
ATOM     12  C   UNL     1      98.270  98.644  99.792  1.00  0.00     0.000 C 
BRANCH  12  13
ATOM     13  C   UNL     1      99.539  99.508  99.783  1.00  0.00     0.006 C 
BRANCH  13  14
ATOM     14  C   UNL     1     100.129  99.629 101.192  1.00  0.00     0.053 C 
BRANCH  14  15
ATOM     15  C   UNL     1     101.141 100.730 101.249  1.00  0.00     0.041 C 
ATOM     16  O   UNL     1     101.273 101.524 100.281  1.00  0.00    -0.550 OA
ATOM     17  O   UNL     1     101.939 100.881 102.377  1.00  0.00    -0.550 OA
ENDBRANCH  14  15
ENDBRANCH  13  14
ENDBRANCH  12  13
ENDBRANCH  11  12
ENDBRANCH  10  11
ENDBRANCH   9  10
ENDBRANCH   8   9
ENDBRANCH   7   8
ENDBRANCH   6   7
ENDBRANCH   5   6
ENDBRANCH   4   5
ENDBRANCH   3   4
ENDBRANCH   2   3
ENDBRANCH   1   2
BRANCH   1  18
ATOM     18  C   UNL     1     104.241 100.483  98.266  1.00  0.00     0.000 C 
BRANCH  18  19
ATOM     19  C   UNL     1     105.694 100.922  97.993  1.00  0.00     0.000 C 
BRANCH  19  20
ATOM     20  C   UNL     1     106.048 101.158  96.515  1.00  0.00     0.000 C 
BRANCH  20  21
ATOM     21  C   UNL     1     107.348 100.455  96.090  1.00  0.00     0.000 C 
BRANCH  21  22
ATOM     22  C   UNL     1     107.091  99.120  95.372  1.00  0.00     0.000 C 
BRANCH  22  23
ATOM     23  C   UNL     1     106.911  97.943  96.348  1.00  0.00     0.000 C 
BRANCH  23  24
ATOM     24  C   UNL     1     105.492  97.350  96.308  1.00  0.00    -0.000 C 
BRANCH  24  25
ATOM     25  C   UNL     1     104.747  97.680  95.003  1.00  0.00    -0.000 C 
BRANCH  25  26
ATOM     26  C   UNL     1     103.436  98.448  95.246  1.00  0.00    -0.000 C 
BRANCH  26  27
ATOM     27  C   UNL     1     103.335  99.815  94.537  1.00  0.00    -0.000 C 
BRANCH  27  28
ATOM     28  C   UNL     1     102.268 100.770  95.107  1.00  0.00    -0.000 C 
BRANCH  28  29
ATOM     29  C   UNL     1     101.216 100.041  95.959  1.00  0.00    -0.000 C 
BRANCH  29  30
ATOM     30  C   UNL     1      99.780 100.286  95.468  1.00  0.00    -0.000 C 
BRANCH  30  31
ATOM     31  C   UNL     1      99.066 101.388  96.266  1.00  0.00    -0.003 C 
ATOM     32  C   UNL     1      99.102 102.720  95.522  1.00  0.00     0.004 C 
ENDBRANCH  30  31
ENDBRANCH  29  30
ENDBRANCH  28  29
ENDBRANCH  27  28
ENDBRANCH  26  27
ENDBRANCH  25  26
ENDBRANCH  24  25
ENDBRANCH  23  24
ENDBRANCH  22  23
ENDBRANCH  21  22
ENDBRANCH  20  21
ENDBRANCH  19  20
ENDBRANCH  18  19
ENDBRANCH   1  18
TORSDOF 28
ENDMDL
MODEL 4
REMARK VINA RESULT:    -3.597      4.090      8.422
REMARK INTER + INTRA:         -15.784
REMARK INTER:                 -10.073
REMARK INTRA:                  -5.711
REMARK UNBOUND:                -6.300
REMARK SMILES CCCCCCCCCCCCCCCCCCCCCCCCCCCCCC(=O)[O-]
REMARK SMILES IDX 16 1 17 2 18 3 19 4 20 5 21 6 22 7 23 8 24 9 25 10 26 11
REMARK SMILES IDX 27 12 28 13 29 14 30 15 31 16 32 17 15 18 14 19 13 20 12 21
REMARK SMILES IDX 11 22 10 23 9 24 8 25 7 26 6 27 5 28 4 29 3 30 2 31 1 32
REMARK H PARENT
REMARK Flexibility Score: inf
ROOT
ATOM      1  C   UNL     1     105.329  97.042  96.729  1.00  0.00     0.000 C 
ENDROOT
BRANCH   1   2
ATOM      2  C   UNL     1     105.019  97.521  95.298  1.00  0.00     0.000 C 
BRANCH   2   3
ATOM      3  C   UNL     1     106.224  98.184  94.613  1.00  0.00     0.000 C 
BRANCH   3   4
ATOM      4  C   UNL     1     107.146  98.916  95.602  1.00  0.00     0.000 C 
BRANCH   4   5
ATOM      5  C   UNL     1     106.942 100.442  95.583  1.00  0.00     0.000 C 
BRANCH   5   6
ATOM      6  C   UNL     1     105.790 100.958  96.469  1.00  0.00     0.000 C 
BRANCH   6   7
ATOM      7  C   UNL     1     106.197 101.371  97.896  1.00  0.00     0.000 C 
BRANCH   7   8
ATOM      8  C   UNL     1     106.261 100.179  98.866  1.00  0.00     0.000 C 
BRANCH   8   9
ATOM      9  C   UNL     1     107.584 100.171  99.648  1.00  0.00     0.000 C 
BRANCH   9  10
ATOM     10  C   UNL     1     108.746  99.579  98.833  1.00  0.00     0.000 C 
BRANCH  10  11
ATOM     11  C   UNL     1     109.881 100.592  98.599  1.00  0.00     0.000 C 
BRANCH  11  12
ATOM     12  C   UNL     1     110.156 100.839  97.106  1.00  0.00     0.000 C 
BRANCH  12  13
ATOM     13  C   UNL     1     110.615 102.274  96.812  1.00  0.00     0.006 C 
BRANCH  13  14
ATOM     14  C   UNL     1     109.429 103.243  96.839  1.00  0.00     0.053 C 
BRANCH  14  15
ATOM     15  C   UNL     1     109.246 103.894  95.503  1.00  0.00     0.041 C 
ATOM     16  O   UNL     1     109.372 105.141  95.380  1.00  0.00    -0.550 OA
ATOM     17  O   UNL     1     108.940 103.120  94.390  1.00  0.00    -0.550 OA
ENDBRANCH  14  15
ENDBRANCH  13  14
ENDBRANCH  12  13
ENDBRANCH  11  12
ENDBRANCH  10  11
ENDBRANCH   9  10
ENDBRANCH   8   9
ENDBRANCH   7   8
ENDBRANCH   6   7
ENDBRANCH   5   6
ENDBRANCH   4   5
ENDBRANCH   3   4
ENDBRANCH   2   3
ENDBRANCH   1   2
BRANCH   1  18
ATOM     18  C   UNL     1     104.167  97.302  97.711  1.00  0.00     0.000 C 
BRANCH  18  19
ATOM     19  C   UNL     1     103.608  96.031  98.382  1.00  0.00     0.000 C 
BRANCH  19  20
ATOM     20  C   UNL     1     102.593  96.272  99.511  1.00  0.00     0.000 C 
BRANCH  20  21
ATOM     21  C   UNL     1     102.629  97.711 100.055  1.00  0.00     0.000 C 
BRANCH  21  22
ATOM     22  C   UNL     1     101.294  98.448  99.866  1.00  0.00     0.000 C 
BRANCH  22  23
ATOM     23  C   UNL     1     101.467  99.974  99.751  1.00  0.00     0.000 C 
BRANCH  23  24
ATOM     24  C   UNL     1     102.629 100.372  98.825  1.00  0.00    -0.000 C 
BRANCH  24  25
ATOM     25  C   UNL     1     102.314 101.615  97.975  1.00  0.00    -0.000 C 
BRANCH  25  26
ATOM     26  C   UNL     1     101.999 101.267  96.509  1.00  0.00    -0.000 C 
BRANCH  26  27
ATOM     27  C   UNL     1     102.114  99.771  96.150  1.00  0.00    -0.000 C 
BRANCH  27  28
ATOM     28  C   UNL     1     100.774  99.015  96.062  1.00  0.00    -0.000 C 
BRANCH  28  29
ATOM     29  C   UNL     1     100.925  97.510  96.340  1.00  0.00    -0.000 C 
BRANCH  29  30
ATOM     30  C   UNL     1      99.574  96.779  96.402  1.00  0.00    -0.000 C 
BRANCH  30  31
ATOM     31  C   UNL     1      99.298  96.171  97.786  1.00  0.00    -0.003 C 
ATOM     32  C   UNL     1      99.220  94.649  97.715  1.00  0.00     0.004 C 
ENDBRANCH  30  31
ENDBRANCH  29  30
ENDBRANCH  28  29
ENDBRANCH  27  28
ENDBRANCH  26  27
ENDBRANCH  25  26
ENDBRANCH  24  25
ENDBRANCH  23  24
ENDBRANCH  22  23
ENDBRANCH  21  22
ENDBRANCH  20  21
ENDBRANCH  19  20
ENDBRANCH  18  19
ENDBRANCH   1  18
TORSDOF 28
ENDMDL
MODEL 5
REMARK VINA RESULT:    -3.595      1.285      2.980
REMARK INTER + INTRA:         -15.779
REMARK INTER:                 -10.056
REMARK INTRA:                  -5.723
REMARK UNBOUND:                -6.300
REMARK SMILES CCCCCCCCCCCCCCCCCCCCCCCCCCCCCC(=O)[O-]
REMARK SMILES IDX 16 1 17 2 18 3 19 4 20 5 21 6 22 7 23 8 24 9 25 10 26 11
REMARK SMILES IDX 27 12 28 13 29 14 30 15 31 16 32 17 15 18 14 19 13 20 12 21
REMARK SMILES IDX 11 22 10 23 9 24 8 25 7 26 6 27 5 28 4 29 3 30 2 31 1 32
REMARK H PARENT
REMARK Flexibility Score: inf
ROOT
ATOM      1  C   UNL     1     102.781  98.361 100.195  1.00  0.00     0.000 C 
ENDROOT
BRANCH   1   2
ATOM      2  C   UNL     1     103.627  99.261  99.275  1.00  0.00     0.000 C 
BRANCH   2   3
ATOM      3  C   UNL     1     102.784 100.273  98.484  1.00  0.00     0.000 C 
BRANCH   3   4
ATOM      4  C   UNL     1     103.424 100.665  97.141  1.00  0.00     0.000 C 
BRANCH   4   5
ATOM      5  C   UNL     1     102.823  99.893  95.952  1.00  0.00     0.000 C 
BRANCH   5   6
ATOM      6  C   UNL     1     102.075 100.761  94.921  1.00  0.00     0.000 C 
BRANCH   6   7
ATOM      7  C   UNL     1     101.190 101.871  95.518  1.00  0.00     0.000 C 
BRANCH   7   8
ATOM      8  C   UNL     1      99.717 101.451  95.653  1.00  0.00     0.000 C 
BRANCH   8   9
ATOM      9  C   UNL     1      99.373 101.097  97.109  1.00  0.00     0.000 C 
BRANCH   9  10
ATOM     10  C   UNL     1      99.281  99.579  97.340  1.00  0.00     0.000 C 
BRANCH  10  11
ATOM     11  C   UNL     1      99.095  98.792  96.030  1.00  0.00     0.000 C 
BRANCH  11  12
ATOM     12  C   UNL     1     100.052  97.594  95.919  1.00  0.00     0.000 C 
BRANCH  12  13
ATOM     13  C   UNL     1      99.353  96.312  95.443  1.00  0.00     0.006 C 
BRANCH  13  14
ATOM     14  C   UNL     1      98.133  95.999  96.314  1.00  0.00     0.053 C 
BRANCH  14  15
ATOM     15  C   UNL     1      98.556  95.622  97.700  1.00  0.00     0.041 C 
ATOM     16  O   UNL     1      98.181  96.308  98.688  1.00  0.00    -0.550 OA
ATOM     17  O   UNL     1      99.363  94.509  97.902  1.00  0.00    -0.550 OA
ENDBRANCH  14  15
ENDBRANCH  13  14
ENDBRANCH  12  13
ENDBRANCH  11  12
ENDBRANCH  10  11
ENDBRANCH   9  10
ENDBRANCH   8   9
ENDBRANCH   7   8
ENDBRANCH   6   7
ENDBRANCH   5   6
ENDBRANCH   4   5
ENDBRANCH   3   4
ENDBRANCH   2   3
ENDBRANCH   1   2
BRANCH   1  18
ATOM     18  C   UNL     1     101.653  97.628  99.439  1.00  0.00     0.000 C 
BRANCH  18  19
ATOM     19  C   UNL     1     102.148  96.635  98.368  1.00  0.00     0.000 C 
BRANCH  19  20
ATOM     20  C   UNL     1     103.234  95.650  98.831  1.00  0.00     0.000 C 
BRANCH  20  21
ATOM     21  C   UNL     1     104.499  95.698  97.957  1.00  0.00     0.000 C 
BRANCH  21  22
ATOM     22  C   UNL     1     104.396  96.731  96.824  1.00  0.00     0.000 C 
BRANCH  22  23
ATOM     23  C   UNL     1     105.728  97.454  96.552  1.00  0.00     0.000 C 
BRANCH  23  24
ATOM     24  C   UNL     1     105.809  98.037  95.131  1.00  0.00    -0.000 C 
BRANCH  24  25
ATOM     25  C   UNL     1     107.028  98.954  94.934  1.00  0.00    -0.000 C 
BRANCH  25  26
ATOM     26  C   UNL     1     106.636 100.430  94.743  1.00  0.00    -0.000 C 
BRANCH  26  27
ATOM     27  C   UNL     1     107.557 101.450  95.445  1.00  0.00    -0.000 C 
BRANCH  27  28
ATOM     28  C   UNL     1     107.013 102.020  96.769  1.00  0.00    -0.000 C 
BRANCH  28  29
ATOM     29  C   UNL     1     106.711 100.925  97.805  1.00  0.00    -0.000 C 
BRANCH  29  30
ATOM     30  C   UNL     1     107.425 101.163  99.146  1.00  0.00    -0.000 C 
BRANCH  30  31
ATOM     31  C   UNL     1     108.460 100.072  99.462  1.00  0.00    -0.003 C 
ATOM     32  C   UNL     1     108.617  99.104  98.294  1.00  0.00     0.004 C 
ENDBRANCH  30  31
ENDBRANCH  29  30
ENDBRANCH  28  29
ENDBRANCH  27  28
ENDBRANCH  26  27
ENDBRANCH  25  26
ENDBRANCH  24  25
ENDBRANCH  23  24
ENDBRANCH  22  23
ENDBRANCH  21  22
ENDBRANCH  20  21
ENDBRANCH  19  20
ENDBRANCH  18  19
ENDBRANCH   1  18
TORSDOF 28
ENDMDL
MODEL 6
REMARK VINA RESULT:    -3.585      2.775      5.195
REMARK INTER + INTRA:         -15.752
REMARK INTER:                 -10.164
REMARK INTRA:                  -5.588
REMARK UNBOUND:                -6.300
REMARK SMILES CCCCCCCCCCCCCCCCCCCCCCCCCCCCCC(=O)[O-]
REMARK SMILES IDX 16 1 17 2 18 3 19 4 20 5 21 6 22 7 23 8 24 9 25 10 26 11
REMARK SMILES IDX 27 12 28 13 29 14 30 15 31 16 32 17 15 18 14 19 13 20 12 21
REMARK SMILES IDX 11 22 10 23 9 24 8 25 7 26 6 27 5 28 4 29 3 30 2 31 1 32
REMARK H PARENT
REMARK Flexibility Score: inf
ROOT
ATOM      1  C   UNL     1     104.932  97.833  94.999  1.00  0.00     0.000 C 
ENDROOT
BRANCH   1   2
ATOM      2  C   UNL     1     105.469  97.002  96.180  1.00  0.00     0.000 C 
BRANCH   2   3
ATOM      3  C   UNL     1     104.453  96.860  97.324  1.00  0.00     0.000 C 
BRANCH   3   4
ATOM      4  C   UNL     1     104.479  95.469  97.978  1.00  0.00     0.000 C 
BRANCH   4   5
ATOM      5  C   UNL     1     103.182  95.151  98.744  1.00  0.00     0.000 C 
BRANCH   5   6
ATOM      6  C   UNL     1     102.296  96.371  99.063  1.00  0.00     0.000 C 
BRANCH   6   7
ATOM      7  C   UNL     1     100.919  96.379  98.373  1.00  0.00     0.000 C 
BRANCH   7   8
ATOM      8  C   UNL     1     100.758  97.537  97.375  1.00  0.00     0.000 C 
BRANCH   8   9
ATOM      9  C   UNL     1      99.991  97.086  96.122  1.00  0.00     0.000 C 
BRANCH   9  10
ATOM     10  C   UNL     1      98.888  98.079  95.718  1.00  0.00     0.000 C 
BRANCH  10  11
ATOM     11  C   UNL     1      99.055  99.453  96.391  1.00  0.00     0.000 C 
BRANCH  11  12
ATOM     12  C   UNL     1      99.534 100.537  95.410  1.00  0.00     0.000 C 
BRANCH  12  13
ATOM     13  C   UNL     1     100.229 101.713  96.112  1.00  0.00     0.006 C 
BRANCH  13  14
ATOM     14  C   UNL     1     100.039 101.633  97.630  1.00  0.00     0.053 C 
BRANCH  14  15
ATOM     15  C   UNL     1     100.495 102.898  98.287  1.00  0.00     0.041 C 
ATOM     16  O   UNL     1      99.688 103.848  98.469  1.00  0.00    -0.550 OA
ATOM     17  O   UNL     1     101.815 103.028  98.704  1.00  0.00    -0.550 OA
ENDBRANCH  14  15
ENDBRANCH  13  14
ENDBRANCH  12  13
ENDBRANCH  11  12
ENDBRANCH  10  11
ENDBRANCH   9  10
ENDBRANCH   8   9
ENDBRANCH   7   8
ENDBRANCH   6   7
ENDBRANCH   5   6
ENDBRANCH   4   5
ENDBRANCH   3   4
ENDBRANCH   2   3
ENDBRANCH   1   2
BRANCH   1  18
ATOM     18  C   UNL     1     103.423  98.132  95.116  1.00  0.00     0.000 C 
BRANCH  18  19
ATOM     19  C   UNL     1     103.048  99.608  94.873  1.00  0.00     0.000 C 
BRANCH  19  20
ATOM     20  C   UNL     1     103.775 100.630  95.762  1.00  0.00     0.000 C 
BRANCH  20  21
ATOM     21  C   UNL     1     103.602 100.349  97.265  1.00  0.00     0.000 C 
BRANCH  21  22
ATOM     22  C   UNL     1     104.753 100.918  98.109  1.00  0.00     0.000 C 
BRANCH  22  23
ATOM     23  C   UNL     1     105.095 102.375  97.745  1.00  0.00     0.000 C 
BRANCH  23  24
ATOM     24  C   UNL     1     106.278 102.928  98.557  1.00  0.00    -0.000 C 
BRANCH  24  25
ATOM     25  C   UNL     1     107.542 103.130  97.704  1.00  0.00    -0.000 C 
BRANCH  25  26
ATOM     26  C   UNL     1     108.821 102.653  98.414  1.00  0.00    -0.000 C 
BRANCH  26  27
ATOM     27  C   UNL     1     108.828 101.166  98.824  1.00  0.00    -0.000 C 
BRANCH  27  28
ATOM     28  C   UNL     1     109.297 100.188  97.730  1.00  0.00    -0.000 C 
BRANCH  28  29
ATOM     29  C   UNL     1     108.141  99.371  97.130  1.00  0.00    -0.000 C 
BRANCH  29  30
ATOM     30  C   UNL     1     108.042  99.514  95.603  1.00  0.00    -0.000 C 
BRANCH  30  31
ATOM     31  C   UNL     1     107.232 100.749  95.178  1.00  0.00    -0.003 C 
ATOM     32  C   UNL     1     106.921 100.720  93.685  1.00  0.00     0.004 C 
ENDBRANCH  30  31
ENDBRANCH  29  30
ENDBRANCH  28  29
ENDBRANCH  27  28
ENDBRANCH  26  27
ENDBRANCH  25  26
ENDBRANCH  24  25
ENDBRANCH  23  24
ENDBRANCH  22  23
ENDBRANCH  21  22
ENDBRANCH  20  21
ENDBRANCH  19  20
ENDBRANCH  18  19
ENDBRANCH   1  18
TORSDOF 28
ENDMDL
MODEL 7
REMARK VINA RESULT:    -3.546      1.257      5.242
REMARK INTER + INTRA:         -15.650
REMARK INTER:                  -9.111
REMARK INTRA:                  -6.538
REMARK UNBOUND:                -6.300
REMARK SMILES CCCCCCCCCCCCCCCCCCCCCCCCCCCCCC(=O)[O-]
REMARK SMILES IDX 16 1 17 2 18 3 19 4 20 5 21 6 22 7 23 8 24 9 25 10 26 11
REMARK SMILES IDX 27 12 28 13 29 14 30 15 31 16 32 17 15 18 14 19 13 20 12 21
REMARK SMILES IDX 11 22 10 23 9 24 8 25 7 26 6 27 5 28 4 29 3 30 2 31 1 32
REMARK H PARENT
REMARK Flexibility Score: inf
ROOT
ATOM      1  C   UNL     1     106.454  97.626  96.676  1.00  0.00     0.000 C 
ENDROOT
BRANCH   1   2
ATOM      2  C   UNL     1     106.955  98.632  95.622  1.00  0.00     0.000 C 
BRANCH   2   3
ATOM      3  C   UNL     1     107.332  99.995  96.225  1.00  0.00     0.000 C 
BRANCH   3   4
ATOM      4  C   UNL     1     106.291 101.088  95.930  1.00  0.00     0.000 C 
BRANCH   4   5
ATOM      5  C   UNL     1     105.651 101.656  97.210  1.00  0.00     0.000 C 
BRANCH   5   6
ATOM      6  C   UNL     1     104.679 100.702  97.932  1.00  0.00     0.000 C 
BRANCH   6   7
ATOM      7  C   UNL     1     105.124 100.254  99.337  1.00  0.00     0.000 C 
BRANCH   7   8
ATOM      8  C   UNL     1     104.097  99.340 100.024  1.00  0.00     0.000 C 
BRANCH   8   9
ATOM      9  C   UNL     1     103.225  98.609  98.990  1.00  0.00     0.000 C 
BRANCH   9  10
ATOM     10  C   UNL     1     102.647  97.292  99.533  1.00  0.00     0.000 C 
BRANCH  10  11
ATOM     11  C   UNL     1     101.945  96.462  98.444  1.00  0.00     0.000 C 
BRANCH  11  12
ATOM     12  C   UNL     1     100.504  96.930  98.180  1.00  0.00     0.000 C 
BRANCH  12  13
ATOM     13  C   UNL     1      99.975  96.494  96.807  1.00  0.00     0.006 C 
BRANCH  13  14
ATOM     14  C   UNL     1      98.491  96.119  96.886  1.00  0.00     0.053 C 
BRANCH  14  15
ATOM     15  C   UNL     1      98.297  94.906  97.740  1.00  0.00     0.041 C 
ATOM     16  O   UNL     1      98.864  93.821  97.444  1.00  0.00    -0.550 OA
ATOM     17  O   UNL     1      97.490  94.974  98.870  1.00  0.00    -0.550 OA
ENDBRANCH  14  15
ENDBRANCH  13  14
ENDBRANCH  12  13
ENDBRANCH  11  12
ENDBRANCH  10  11
ENDBRANCH   9  10
ENDBRANCH   8   9
ENDBRANCH   7   8
ENDBRANCH   6   7
ENDBRANCH   5   6
ENDBRANCH   4   5
ENDBRANCH   3   4
ENDBRANCH   2   3
ENDBRANCH   1   2
BRANCH   1  18
ATOM     18  C   UNL     1     105.024  97.123  96.388  1.00  0.00     0.000 C 
BRANCH  18  19
ATOM     19  C   UNL     1     104.374  97.741  95.134  1.00  0.00     0.000 C 
BRANCH  19  20
ATOM     20  C   UNL     1     103.061  98.504  95.377  1.00  0.00     0.000 C 
BRANCH  20  21
ATOM     21  C   UNL     1     103.078  99.928  94.796  1.00  0.00     0.000 C 
BRANCH  21  22
ATOM     22  C   UNL     1     101.907 100.786  95.300  1.00  0.00     0.000 C 
BRANCH  22  23
ATOM     23  C   UNL     1     100.655  99.952  95.630  1.00  0.00     0.000 C 
BRANCH  23  24
ATOM     24  C   UNL     1     100.029 100.329  96.983  1.00  0.00    -0.000 C 
BRANCH  24  25
ATOM     25  C   UNL     1      98.494 100.236  96.974  1.00  0.00    -0.000 C 
BRANCH  25  26
ATOM     26  C   UNL     1      97.930  99.598  98.257  1.00  0.00    -0.000 C 
BRANCH  26  27
ATOM     27  C   UNL     1      97.460 100.596  99.335  1.00  0.00    -0.000 C 
BRANCH  27  28
ATOM     28  C   UNL     1      98.135 100.437 100.712  1.00  0.00    -0.000 C 
BRANCH  28  29
ATOM     29  C   UNL     1      99.246  99.375 100.708  1.00  0.00    -0.000 C 
BRANCH  29  30
ATOM     30  C   UNL     1     100.607  99.936 101.150  1.00  0.00    -0.000 C 
BRANCH  30  31
ATOM     31  C   UNL     1     100.663 101.470 101.073  1.00  0.00    -0.003 C 
ATOM     32  C   UNL     1     101.543 101.932  99.915  1.00  0.00     0.004 C 
ENDBRANCH  30  31
ENDBRANCH  29  30
ENDBRANCH  28  29
ENDBRANCH  27  28
ENDBRANCH  26  27
ENDBRANCH  25  26
ENDBRANCH  24  25
ENDBRANCH  23  24
ENDBRANCH  22  23
ENDBRANCH  21  22
ENDBRANCH  20  21
ENDBRANCH  19  20
ENDBRANCH  18  19
ENDBRANCH   1  18
TORSDOF 28
ENDMDL
MODEL 8
REMARK VINA RESULT:    -3.541      3.420      7.239
REMARK INTER + INTRA:         -15.636
REMARK INTER:                 -10.666
REMARK INTRA:                  -4.970
REMARK UNBOUND:                -6.300
REMARK SMILES CCCCCCCCCCCCCCCCCCCCCCCCCCCCCC(=O)[O-]
REMARK SMILES IDX 16 1 17 2 18 3 19 4 20 5 21 6 22 7 23 8 24 9 25 10 26 11
REMARK SMILES IDX 27 12 28 13 29 14 30 15 31 16 32 17 15 18 14 19 13 20 12 21
REMARK SMILES IDX 11 22 10 23 9 24 8 25 7 26 6 27 5 28 4 29 3 30 2 31 1 32
REMARK H PARENT
REMARK Flexibility Score: inf
ROOT
ATOM      1  C   UNL     1      98.884  95.123  96.542  1.00  0.00     0.000 C 
ENDROOT
BRANCH   1   2
ATOM      2  C   UNL     1      99.506  96.527  96.408  1.00  0.00     0.000 C 
BRANCH   2   3
ATOM      3  C   UNL     1      98.604  97.513  95.649  1.00  0.00     0.000 C 
BRANCH   3   4
ATOM      4  C   UNL     1      99.085  98.969  95.758  1.00  0.00     0.000 C 
BRANCH   4   5
ATOM      5  C   UNL     1     100.553  99.074  96.213  1.00  0.00     0.000 C 
BRANCH   5   6
ATOM      6  C   UNL     1     101.014 100.492  96.607  1.00  0.00     0.000 C 
BRANCH   6   7
ATOM      7  C   UNL     1     102.339 100.950  95.969  1.00  0.00     0.000 C 
BRANCH   7   8
ATOM      8  C   UNL     1     102.809 100.021  94.838  1.00  0.00     0.000 C 
BRANCH   8   9
ATOM      9  C   UNL     1     104.222  99.483  95.114  1.00  0.00     0.000 C 
BRANCH   9  10
ATOM     10  C   UNL     1     104.296  97.949  95.024  1.00  0.00     0.000 C 
BRANCH  10  11
ATOM     11  C   UNL     1     105.738  97.420  95.130  1.00  0.00     0.000 C 
BRANCH  11  12
ATOM     12  C   UNL     1     106.363  97.681  96.510  1.00  0.00     0.000 C 
BRANCH  12  13
ATOM     13  C   UNL     1     107.606  98.578  96.444  1.00  0.00     0.006 C 
BRANCH  13  14
ATOM     14  C   UNL     1     107.568  99.648  97.539  1.00  0.00     0.053 C 
BRANCH  14  15
ATOM     15  C   UNL     1     107.854 101.002  96.967  1.00  0.00     0.041 C 
ATOM     16  O   UNL     1     107.104 101.489  96.080  1.00  0.00    -0.550 OA
ATOM     17  O   UNL     1     108.950 101.728  97.417  1.00  0.00    -0.550 OA
ENDBRANCH  14  15
ENDBRANCH  13  14
ENDBRANCH  12  13
ENDBRANCH  11  12
ENDBRANCH  10  11
ENDBRANCH   9  10
ENDBRANCH   8   9
ENDBRANCH   7   8
ENDBRANCH   6   7
ENDBRANCH   5   6
ENDBRANCH   4   5
ENDBRANCH   3   4
ENDBRANCH   2   3
ENDBRANCH   1   2
BRANCH   1  18
ATOM     18  C   UNL     1      98.532  94.763  98.001  1.00  0.00     0.000 C 
BRANCH  18  19
ATOM     19  C   UNL     1      97.026  94.827  98.325  1.00  0.00     0.000 C 
BRANCH  19  20
ATOM     20  C   UNL     1      96.634  94.376  99.741  1.00  0.00     0.000 C 
BRANCH  20  21
ATOM     21  C   UNL     1      96.231  95.548 100.653  1.00  0.00     0.000 C 
BRANCH  21  22
ATOM     22  C   UNL     1      96.085  96.871  99.886  1.00  0.00     0.000 C 
BRANCH  22  23
ATOM     23  C   UNL     1      97.097  97.939 100.342  1.00  0.00     0.000 C 
BRANCH  23  24
ATOM     24  C   UNL     1      97.951  98.481  99.183  1.00  0.00    -0.000 C 
BRANCH  24  25
ATOM     25  C   UNL     1      98.987  99.521  99.643  1.00  0.00    -0.000 C 
BRANCH  25  26
ATOM     26  C   UNL     1     100.254  98.876 100.232  1.00  0.00    -0.000 C 
BRANCH  26  27
ATOM     27  C   UNL     1     101.555  99.680 100.028  1.00  0.00    -0.000 C 
BRANCH  27  28
ATOM     28  C   UNL     1     102.854  98.858 100.129  1.00  0.00    -0.000 C 
BRANCH  28  29
ATOM     29  C   UNL     1     103.469  98.551  98.754  1.00  0.00    -0.000 C 
BRANCH  29  30
ATOM     30  C   UNL     1     103.051  97.177  98.208  1.00  0.00    -0.000 C 
BRANCH  30  31
ATOM     31  C   UNL     1     102.634  96.204  99.322  1.00  0.00    -0.003 C 
ATOM     32  C   UNL     1     102.623  94.763  98.821  1.00  0.00     0.004 C 
ENDBRANCH  30  31
ENDBRANCH  29  30
ENDBRANCH  28  29
ENDBRANCH  27  28
ENDBRANCH  26  27
ENDBRANCH  25  26
ENDBRANCH  24  25
ENDBRANCH  23  24
ENDBRANCH  22  23
ENDBRANCH  21  22
ENDBRANCH  20  21
ENDBRANCH  19  20
ENDBRANCH  18  19
ENDBRANCH   1  18
TORSDOF 28
ENDMDL
MODEL 9
REMARK VINA RESULT:    -3.531      3.109      7.474
REMARK INTER + INTRA:         -15.610
REMARK INTER:                  -9.989
REMARK INTRA:                  -5.621
REMARK UNBOUND:                -6.300
REMARK SMILES CCCCCCCCCCCCCCCCCCCCCCCCCCCCCC(=O)[O-]
REMARK SMILES IDX 16 1 17 2 18 3 19 4 20 5 21 6 22 7 23 8 24 9 25 10 26 11
REMARK SMILES IDX 27 12 28 13 29 14 30 15 31 16 32 17 15 18 14 19 13 20 12 21
REMARK SMILES IDX 11 22 10 23 9 24 8 25 7 26 6 27 5 28 4 29 3 30 2 31 1 32
REMARK H PARENT
REMARK Flexibility Score: inf
ROOT
ATOM      1  C   UNL     1     102.629  97.734  99.917  1.00  0.00     0.000 C 
ENDROOT
BRANCH   1   2
ATOM      2  C   UNL     1     102.614  96.396  99.154  1.00  0.00     0.000 C 
BRANCH   2   3
ATOM      3  C   UNL     1     103.740  96.285  98.114  1.00  0.00     0.000 C 
BRANCH   3   4
ATOM      4  C   UNL     1     104.218  97.654  97.602  1.00  0.00     0.000 C 
BRANCH   4   5
ATOM      5  C   UNL     1     103.503  98.083  96.307  1.00  0.00     0.000 C 
BRANCH   5   6
ATOM      6  C   UNL     1     104.381  98.067  95.040  1.00  0.00     0.000 C 
BRANCH   6   7
ATOM      7  C   UNL     1     105.807  97.520  95.239  1.00  0.00     0.000 C 
BRANCH   7   8
ATOM      8  C   UNL     1     106.864  98.633  95.332  1.00  0.00     0.000 C 
BRANCH   8   9
ATOM      9  C   UNL     1     106.308  99.969  94.816  1.00  0.00     0.000 C 
BRANCH   9  10
ATOM     10  C   UNL     1     106.519 101.120  95.814  1.00  0.00     0.000 C 
BRANCH  10  11
ATOM     11  C   UNL     1     105.359 101.251  96.817  1.00  0.00     0.000 C 
BRANCH  11  12
ATOM     12  C   UNL     1     105.760 102.023  98.086  1.00  0.00     0.000 C 
BRANCH  12  13
ATOM     13  C   UNL     1     105.316 101.322  99.377  1.00  0.00     0.006 C 
BRANCH  13  14
ATOM     14  C   UNL     1     106.170 100.079  99.646  1.00  0.00     0.053 C 
BRANCH  14  15
ATOM     15  C   UNL     1     106.770 100.136 101.017  1.00  0.00     0.041 C 
ATOM     16  O   UNL     1     107.969  99.796 101.201  1.00  0.00    -0.550 OA
ATOM     17  O   UNL     1     106.004 100.569 102.093  1.00  0.00    -0.550 OA
ENDBRANCH  14  15
ENDBRANCH  13  14
ENDBRANCH  12  13
ENDBRANCH  11  12
ENDBRANCH  10  11
ENDBRANCH   9  10
ENDBRANCH   8   9
ENDBRANCH   7   8
ENDBRANCH   6   7
ENDBRANCH   5   6
ENDBRANCH   4   5
ENDBRANCH   3   4
ENDBRANCH   2   3
ENDBRANCH   1   2
BRANCH   1  18
ATOM     18  C   UNL     1     101.283  98.483  99.836  1.00  0.00     0.000 C 
BRANCH  18  19
ATOM     19  C   UNL     1     101.415 100.016  99.730  1.00  0.00     0.000 C 
BRANCH  19  20
ATOM     20  C   UNL     1     102.037 100.538  98.425  1.00  0.00     0.000 C 
BRANCH  20  21
ATOM     21  C   UNL     1     101.717 102.019  98.158  1.00  0.00     0.000 C 
BRANCH  21  22
ATOM     22  C   UNL     1     101.167 102.259  96.743  1.00  0.00     0.000 C 
BRANCH  22  23
ATOM     23  C   UNL     1     101.788 101.318  95.694  1.00  0.00     0.000 C 
BRANCH  23  24
ATOM     24  C   UNL     1     100.748 100.401  95.028  1.00  0.00    -0.000 C 
BRANCH  24  25
ATOM     25  C   UNL     1      99.392 100.417  95.752  1.00  0.00    -0.000 C 
BRANCH  25  26
ATOM     26  C   UNL     1      99.136  99.134  96.562  1.00  0.00    -0.000 C 
BRANCH  26  27
ATOM     27  C   UNL     1     100.130  97.983  96.300  1.00  0.00    -0.000 C 
BRANCH  27  28
ATOM     28  C   UNL     1      99.691  96.606  96.835  1.00  0.00    -0.000 C 
BRANCH  28  29
ATOM     29  C   UNL     1      98.654  96.712  97.964  1.00  0.00    -0.000 C 
BRANCH  29  30
ATOM     30  C   UNL     1      97.977  95.368  98.278  1.00  0.00    -0.000 C 
BRANCH  30  31
ATOM     31  C   UNL     1      96.700  95.535  99.116  1.00  0.00    -0.003 C 
ATOM     32  C   UNL     1      96.490  94.343 100.046  1.00  0.00     0.004 C 
ENDBRANCH  30  31
ENDBRANCH  29  30
ENDBRANCH  28  29
ENDBRANCH  27  28
ENDBRANCH  26  27
ENDBRANCH  25  26
ENDBRANCH  24  25
ENDBRANCH  23  24
ENDBRANCH  22  23
ENDBRANCH  21  22
ENDBRANCH  20  21
ENDBRANCH  19  20
ENDBRANCH  18  19
ENDBRANCH   1  18
TORSDOF 28
ENDMDL
