MODEL 1
REMARK VINA RESULT:    -4.378      0.000      0.000
REMARK INTER + INTRA:          -5.167
REMARK INTER:                  -5.017
REMARK INTRA:                  -0.150
REMARK UNBOUND:                -0.150
REMARK SMILES O=C([O-])C=Cc1ccc(O)cc1
REMARK SMILES IDX 6 1 7 2 12 3 8 4 11 5 9 6 5 7 4 8 2 9 1 10 3 11 10 12
REMARK H PARENT 10 13
REMARK Flexibility Score: inf
ROOT
ATOM      1  C   UNL     1      77.679  34.187  52.075  1.00  0.00    -0.025 A 
ATOM      2  C   UNL     1      78.778  35.037  51.833  1.00  0.00     0.012 A 
ATOM      3  C   UNL     1      77.921  32.839  52.387  1.00  0.00     0.012 A 
ATOM      4  C   UNL     1      80.083  34.535  51.879  1.00  0.00     0.047 A 
ATOM      5  C   UNL     1      79.227  32.342  52.432  1.00  0.00     0.047 A 
ATOM      6  C   UNL     1      80.311  33.186  52.176  1.00  0.00     0.115 A 
ENDROOT
BRANCH   1   7
ATOM      7  C   UNL     1      76.276  34.670  52.050  1.00  0.00     0.010 C 
ATOM      8  C   UNL     1      75.278  34.100  52.738  1.00  0.00     0.025 C 
BRANCH   8   9
ATOM      9  C   UNL     1      73.903  34.621  52.691  1.00  0.00     0.064 C 
ATOM     10  O   UNL     1      72.982  33.996  53.278  1.00  0.00    -0.545 OA
ATOM     11  O   UNL     1      73.603  35.794  52.007  1.00  0.00    -0.545 OA
ENDBRANCH   8   9
ENDBRANCH   1   7
BRANCH   6  12
ATOM     12  O   UNL     1      81.607  32.677  52.223  1.00  0.00    -0.508 OA
ATOM     13  H   UNL     1      82.404  33.231  51.933  1.00  0.00     0.293 HD
ENDBRANCH   6  12
TORSDOF 3
ENDMDL
MODEL 2
REMARK VINA RESULT:    -4.156      1.888      5.735
REMARK INTER + INTRA:          -4.913
REMARK INTER:                  -4.762
REMARK INTRA:                  -0.150
REMARK UNBOUND:                -0.150
REMARK SMILES O=C([O-])C=Cc1ccc(O)cc1
REMARK SMILES IDX 6 1 7 2 12 3 8 4 11 5 9 6 5 7 4 8 2 9 1 10 3 11 10 12
REMARK H PARENT 10 13
REMARK Flexibility Score: inf
ROOT
ATOM      1  C   UNL     1      76.014  35.301  52.245  1.00  0.00    -0.025 A 
ATOM      2  C   UNL     1      74.873  36.125  52.148  1.00  0.00     0.012 A 
ATOM      3  C   UNL     1      75.866  33.997  52.749  1.00  0.00     0.012 A 
ATOM      4  C   UNL     1      73.625  35.656  52.570  1.00  0.00     0.047 A 
ATOM      5  C   UNL     1      74.616  33.534  53.170  1.00  0.00     0.047 A 
ATOM      6  C   UNL     1      73.493  34.361  53.085  1.00  0.00     0.115 A 
ENDROOT
BRANCH   1   7
ATOM      7  C   UNL     1      77.359  35.743  51.802  1.00  0.00     0.010 C 
ATOM      8  C   UNL     1      78.393  34.913  51.613  1.00  0.00     0.025 C 
BRANCH   8   9
ATOM      9  C   UNL     1      79.707  35.397  51.161  1.00  0.00     0.064 C 
ATOM     10  O   UNL     1      79.977  35.404  49.932  1.00  0.00    -0.545 OA
ATOM     11  O   UNL     1      80.657  35.846  52.071  1.00  0.00    -0.545 OA
ENDBRANCH   8   9
ENDBRANCH   1   7
BRANCH   6  12
ATOM     12  O   UNL     1      72.254  33.886  53.509  1.00  0.00    -0.508 OA
ATOM     13  H   UNL     1      71.814  34.234  54.352  1.00  0.00     0.293 HD
ENDBRANCH   6  12
TORSDOF 3
ENDMDL
MODEL 3
REMARK VINA RESULT:    -4.136      2.467      5.868
REMARK INTER + INTRA:          -4.890
REMARK INTER:                  -4.752
REMARK INTRA:                  -0.138
REMARK UNBOUND:                -0.150
REMARK SMILES O=C([O-])C=Cc1ccc(O)cc1
REMARK SMILES IDX 6 1 7 2 12 3 8 4 11 5 9 6 5 7 4 8 2 9 1 10 3 11 10 12
REMARK H PARENT 10 13
REMARK Flexibility Score: inf
ROOT
ATOM      1  C   UNL     1      75.206  35.184  53.139  1.00  0.00    -0.025 A 
ATOM      2  C   UNL     1      74.674  33.878  53.174  1.00  0.00     0.012 A 
ATOM      3  C   UNL     1      74.762  36.122  54.086  1.00  0.00     0.012 A 
ATOM      4  C   UNL     1      73.702  33.537  54.121  1.00  0.00     0.047 A 
ATOM      5  C   UNL     1      73.791  35.776  55.030  1.00  0.00     0.047 A 
ATOM      6  C   UNL     1      73.257  34.485  55.049  1.00  0.00     0.115 A 
ENDROOT
BRANCH   1   7
ATOM      7  C   UNL     1      76.246  35.596  52.163  1.00  0.00     0.010 C 
ATOM      8  C   UNL     1      77.376  34.911  51.943  1.00  0.00     0.025 C 
BRANCH   8   9
ATOM      9  C   UNL     1      78.373  35.353  50.956  1.00  0.00     0.064 C 
ATOM     10  O   UNL     1      79.580  35.028  51.105  1.00  0.00    -0.545 OA
ATOM     11  O   UNL     1      78.005  36.125  49.859  1.00  0.00    -0.545 OA
ENDBRANCH   8   9
ENDBRANCH   1   7
BRANCH   6  12
ATOM     12  O   UNL     1      72.289  34.154  55.995  1.00  0.00    -0.508 OA
ATOM     13  H   UNL     1      71.580  33.456  55.806  1.00  0.00     0.293 HD
ENDBRANCH   6  12
TORSDOF 3
ENDMDL
MODEL 4
REMARK VINA RESULT:    -4.104     14.449     16.818
REMARK INTER + INTRA:          -4.853
REMARK INTER:                  -4.714
REMARK INTRA:                  -0.139
REMARK UNBOUND:                -0.150
REMARK SMILES O=C([O-])C=Cc1ccc(O)cc1
REMARK SMILES IDX 6 1 7 2 12 3 8 4 11 5 9 6 5 7 4 8 2 9 1 10 3 11 10 12
REMARK H PARENT 10 13
REMARK Flexibility Score: inf
ROOT
ATOM      1  C   UNL     1      85.515  29.074  64.845  1.00  0.00    -0.025 A 
ATOM      2  C   UNL     1      86.044  30.348  65.140  1.00  0.00     0.012 A 
ATOM      3  C   UNL     1      84.144  28.961  64.555  1.00  0.00     0.012 A 
ATOM      4  C   UNL     1      85.211  31.471  65.166  1.00  0.00     0.047 A 
ATOM      5  C   UNL     1      83.316  30.086  64.582  1.00  0.00     0.047 A 
ATOM      6  C   UNL     1      83.844  31.342  64.889  1.00  0.00     0.115 A 
ENDROOT
BRANCH   1   7
ATOM      7  C   UNL     1      86.356  27.852  64.794  1.00  0.00     0.010 C 
ATOM      8  C   UNL     1      87.646  27.849  64.434  1.00  0.00     0.025 C 
BRANCH   8   9
ATOM      9  C   UNL     1      88.444  26.614  64.410  1.00  0.00     0.064 C 
ATOM     10  O   UNL     1      89.121  26.291  65.421  1.00  0.00    -0.545 OA
ATOM     11  O   UNL     1      88.465  25.796  63.285  1.00  0.00    -0.545 OA
ENDBRANCH   8   9
ENDBRANCH   1   7
BRANCH   6  12
ATOM     12  O   UNL     1      83.006  32.455  64.913  1.00  0.00    -0.508 OA
ATOM     13  H   UNL     1      82.036  32.382  65.195  1.00  0.00     0.293 HD
ENDBRANCH   6  12
TORSDOF 3
ENDMDL
MODEL 5
REMARK VINA RESULT:    -4.044     15.080     16.386
REMARK INTER + INTRA:          -4.785
REMARK INTER:                  -4.644
REMARK INTRA:                  -0.141
REMARK UNBOUND:                -0.150
REMARK SMILES O=C([O-])C=Cc1ccc(O)cc1
REMARK SMILES IDX 6 1 7 2 12 3 8 4 11 5 9 6 5 7 4 8 2 9 1 10 3 11 10 12
REMARK H PARENT 10 13
REMARK Flexibility Score: inf
ROOT
ATOM      1  C   UNL     1      85.882  31.694  64.925  1.00  0.00    -0.025 A 
ATOM      2  C   UNL     1      86.715  30.570  65.107  1.00  0.00     0.012 A 
ATOM      3  C   UNL     1      84.507  31.490  64.712  1.00  0.00     0.012 A 
ATOM      4  C   UNL     1      86.181  29.278  65.051  1.00  0.00     0.047 A 
ATOM      5  C   UNL     1      83.979  30.197  64.658  1.00  0.00     0.047 A 
ATOM      6  C   UNL     1      84.813  29.088  64.824  1.00  0.00     0.115 A 
ENDROOT
BRANCH   1   7
ATOM      7  C   UNL     1      86.393  33.085  64.985  1.00  0.00     0.010 C 
ATOM      8  C   UNL     1      87.674  33.399  65.219  1.00  0.00     0.025 C 
BRANCH   8   9
ATOM      9  C   UNL     1      88.139  34.795  65.258  1.00  0.00     0.064 C 
ATOM     10  O   UNL     1      87.638  35.638  64.469  1.00  0.00    -0.545 OA
ATOM     11  O   UNL     1      89.125  35.198  66.152  1.00  0.00    -0.545 OA
ENDBRANCH   8   9
ENDBRANCH   1   7
BRANCH   6  12
ATOM     12  O   UNL     1      84.273  27.805  64.766  1.00  0.00    -0.508 OA
ATOM     13  H   UNL     1      83.963  27.323  65.601  1.00  0.00     0.293 HD
ENDBRANCH   6  12
TORSDOF 3
ENDMDL
MODEL 6
REMARK VINA RESULT:    -3.987      2.291      3.203
REMARK INTER + INTRA:          -4.720
REMARK INTER:                  -4.580
REMARK INTRA:                  -0.140
REMARK UNBOUND:                -0.150
REMARK SMILES O=C([O-])C=Cc1ccc(O)cc1
REMARK SMILES IDX 6 1 7 2 12 3 8 4 11 5 9 6 5 7 4 8 2 9 1 10 3 11 10 12
REMARK H PARENT 10 13
REMARK Flexibility Score: inf
ROOT
ATOM      1  C   UNL     1      75.194  34.602  52.884  1.00  0.00    -0.025 A 
ATOM      2  C   UNL     1      75.634  35.853  52.402  1.00  0.00     0.012 A 
ATOM      3  C   UNL     1      76.023  33.481  52.712  1.00  0.00     0.012 A 
ATOM      4  C   UNL     1      76.864  35.963  51.744  1.00  0.00     0.047 A 
ATOM      5  C   UNL     1      77.251  33.597  52.054  1.00  0.00     0.047 A 
ATOM      6  C   UNL     1      77.674  34.835  51.565  1.00  0.00     0.115 A 
ENDROOT
BRANCH   1   7
ATOM      7  C   UNL     1      73.905  34.431  53.598  1.00  0.00     0.010 C 
ATOM      8  C   UNL     1      73.799  34.317  54.929  1.00  0.00     0.025 C 
BRANCH   8   9
ATOM      9  C   UNL     1      72.496  34.160  55.595  1.00  0.00     0.064 C 
ATOM     10  O   UNL     1      71.485  33.847  54.914  1.00  0.00    -0.545 OA
ATOM     11  O   UNL     1      72.363  34.354  56.965  1.00  0.00    -0.545 OA
ENDBRANCH   8   9
ENDBRANCH   1   7
BRANCH   6  12
ATOM     12  O   UNL     1      78.899  34.936  50.910  1.00  0.00    -0.508 OA
ATOM     13  H   UNL     1      79.756  35.124  51.416  1.00  0.00     0.293 HD
ENDBRANCH   6  12
TORSDOF 3
ENDMDL
MODEL 7
REMARK VINA RESULT:    -3.843      1.172      5.897
REMARK INTER + INTRA:          -4.554
REMARK INTER:                  -4.414
REMARK INTRA:                  -0.140
REMARK UNBOUND:                -0.150
REMARK SMILES O=C([O-])C=Cc1ccc(O)cc1
REMARK SMILES IDX 6 1 7 2 12 3 8 4 11 5 9 6 5 7 4 8 2 9 1 10 3 11 10 12
REMARK H PARENT 10 13
REMARK Flexibility Score: inf
ROOT
ATOM      1  C   UNL     1      77.425  34.700  52.007  1.00  0.00    -0.025 A 
ATOM      2  C   UNL     1      76.658  33.571  52.362  1.00  0.00     0.012 A 
ATOM      3  C   UNL     1      76.826  35.971  52.064  1.00  0.00     0.012 A 
ATOM      4  C   UNL     1      75.320  33.717  52.741  1.00  0.00     0.047 A 
ATOM      5  C   UNL     1      75.488  36.110  52.443  1.00  0.00     0.047 A 
ATOM      6  C   UNL     1      74.730  34.986  52.779  1.00  0.00     0.115 A 
ENDROOT
BRANCH   1   7
ATOM      7  C   UNL     1      78.851  34.604  51.609  1.00  0.00     0.010 C 
ATOM      8  C   UNL     1      79.661  33.602  51.973  1.00  0.00     0.025 C 
BRANCH   8   9
ATOM      9  C   UNL     1      81.068  33.542  51.544  1.00  0.00     0.064 C 
ATOM     10  O   UNL     1      81.346  33.603  50.318  1.00  0.00    -0.545 OA
ATOM     11  O   UNL     1      82.096  33.418  52.472  1.00  0.00    -0.545 OA
ENDBRANCH   8   9
ENDBRANCH   1   7
BRANCH   6  12
ATOM     12  O   UNL     1      73.397  35.140  53.154  1.00  0.00    -0.508 OA
ATOM     13  H   UNL     1      72.812  34.342  53.370  1.00  0.00     0.293 HD
ENDBRANCH   6  12
TORSDOF 3
ENDMDL
