MODEL 1
REMARK VINA RESULT:    -6.906      0.000      0.000
REMARK INTER + INTRA:          -8.392
REMARK INTER:                  -8.117
REMARK INTRA:                  -0.275
REMARK UNBOUND:                -0.275
REMARK SMILES O=c1cc(-c2ccc(O)c(O)c2)oc2cc(O)cc(O)c12
REMARK SMILES IDX 4 1 3 2 2 3 1 4 21 5 19 6 18 7 16 8 15 9 14 10 13 11 5 12
REMARK SMILES IDX 6 13 7 14 8 15 12 16 10 17 9 18 11 20 20 22 17 24
REMARK H PARENT 9 19 11 21 20 23 17 25
REMARK Flexibility Score: inf
ROOT
ATOM      1  C   UNL     1      -6.359  25.386  33.801  1.00  0.00     0.138 A 
ATOM      2  C   UNL     1      -7.127  24.448  34.504  1.00  0.00     0.100 A 
ATOM      3  C   UNL     1      -7.503  23.256  33.881  1.00  0.00     0.197 A 
ATOM      4  O   UNL     1      -8.138  22.408  34.557  1.00  0.00    -0.289 OA
ATOM      5  C   UNL     1      -7.133  23.021  32.535  1.00  0.00     0.107 A 
ATOM      6  C   UNL     1      -7.494  21.861  31.786  1.00  0.00     0.134 A 
ATOM      7  C   UNL     1      -6.973  21.682  30.499  1.00  0.00     0.093 A 
ATOM      8  C   UNL     1      -6.151  22.649  29.912  1.00  0.00     0.123 A 
ATOM      9  C   UNL     1      -5.837  23.809  30.616  1.00  0.00     0.094 A 
ATOM     10  C   UNL     1      -6.314  24.000  31.915  1.00  0.00     0.146 A 
ATOM     11  O   UNL     1      -5.978  25.115  32.557  1.00  0.00    -0.456 OA
ENDROOT
BRANCH   1  12
ATOM     12  C   UNL     1      -5.933  26.669  34.415  1.00  0.00     0.021 A 
ATOM     13  C   UNL     1      -5.115  26.705  35.561  1.00  0.00     0.016 A 
ATOM     14  C   UNL     1      -4.737  27.927  36.124  1.00  0.00     0.051 A 
ATOM     15  C   UNL     1      -5.176  29.132  35.561  1.00  0.00     0.157 A 
ATOM     16  C   UNL     1      -6.379  27.884  33.863  1.00  0.00     0.062 A 
ATOM     17  C   UNL     1      -6.002  29.108  34.425  1.00  0.00     0.158 A 
BRANCH  15  18
ATOM     18  O   UNL     1      -4.796  30.349  36.124  1.00  0.00    -0.504 OA
ATOM     19  H   UNL     1      -5.096  30.619  37.054  1.00  0.00     0.293 HD
ENDBRANCH  15  18
BRANCH  17  20
ATOM     20  O   UNL     1      -6.459  30.290  33.842  1.00  0.00    -0.504 OA
ATOM     21  H   UNL     1      -5.959  30.747  33.089  1.00  0.00     0.293 HD
ENDBRANCH  17  20
ENDBRANCH   1  12
BRANCH   6  22
ATOM     22  O   UNL     1      -8.374  20.877  32.244  1.00  0.00    -0.507 OA
ATOM     23  H   UNL     1      -9.181  21.049  32.824  1.00  0.00     0.293 HD
ENDBRANCH   6  22
BRANCH   8  24
ATOM     24  O   UNL     1      -5.650  22.469  28.624  1.00  0.00    -0.508 OA
ATOM     25  H   UNL     1      -4.974  21.743  28.416  1.00  0.00     0.293 HD
ENDBRANCH   8  24
TORSDOF 5
ENDMDL
MODEL 2
REMARK VINA RESULT:    -6.669      8.796     13.391
REMARK INTER + INTRA:          -8.114
REMARK INTER:                  -7.817
REMARK INTRA:                  -0.297
REMARK UNBOUND:                -0.275
REMARK SMILES O=c1cc(-c2ccc(O)c(O)c2)oc2cc(O)cc(O)c12
REMARK SMILES IDX 4 1 3 2 2 3 1 4 21 5 19 6 18 7 16 8 15 9 14 10 13 11 5 12
REMARK SMILES IDX 6 13 7 14 8 15 12 16 10 17 9 18 11 20 20 22 17 24
REMARK H PARENT 9 19 11 21 20 23 17 25
REMARK Flexibility Score: inf
ROOT
ATOM      1  C   UNL     1      -4.450  36.834  34.303  1.00  0.00     0.138 A 
ATOM      2  C   UNL     1      -4.169  37.943  35.113  1.00  0.00     0.100 A 
ATOM      3  C   UNL     1      -3.354  38.967  34.625  1.00  0.00     0.197 A 
ATOM      4  O   UNL     1      -3.171  39.977  35.351  1.00  0.00    -0.289 OA
ATOM      5  C   UNL     1      -2.792  38.859  33.330  1.00  0.00     0.107 A 
ATOM      6  C   UNL     1      -1.915  39.821  32.744  1.00  0.00     0.134 A 
ATOM      7  C   UNL     1      -1.514  39.667  31.412  1.00  0.00     0.093 A 
ATOM      8  C   UNL     1      -1.911  38.555  30.663  1.00  0.00     0.123 A 
ATOM      9  C   UNL     1      -2.723  37.584  31.243  1.00  0.00     0.094 A 
ATOM     10  C   UNL     1      -3.168  37.728  32.560  1.00  0.00     0.146 A 
ATOM     11  O   UNL     1      -3.954  36.786  33.070  1.00  0.00    -0.456 OA
ENDROOT
BRANCH   1  12
ATOM     12  C   UNL     1      -5.309  35.719  34.773  1.00  0.00     0.021 A 
ATOM     13  C   UNL     1      -6.462  35.948  35.547  1.00  0.00     0.016 A 
ATOM     14  C   UNL     1      -7.248  34.878  35.984  1.00  0.00     0.051 A 
ATOM     15  C   UNL     1      -6.893  33.562  35.664  1.00  0.00     0.157 A 
ATOM     16  C   UNL     1      -4.953  34.393  34.466  1.00  0.00     0.062 A 
ATOM     17  C   UNL     1      -5.738  33.320  34.902  1.00  0.00     0.158 A 
BRANCH  15  18
ATOM     18  O   UNL     1      -7.679  32.497  36.100  1.00  0.00    -0.504 OA
ATOM     19  H   UNL     1      -8.656  32.622  36.337  1.00  0.00     0.293 HD
ENDBRANCH  15  18
BRANCH  17  20
ATOM     20  O   UNL     1      -5.354  32.021  34.568  1.00  0.00    -0.504 OA
ATOM     21  H   UNL     1      -5.851  31.474  33.876  1.00  0.00     0.293 HD
ENDBRANCH  17  20
ENDBRANCH   1  12
BRANCH   6  22
ATOM     22  O   UNL     1      -1.392  40.921  33.429  1.00  0.00    -0.507 OA
ATOM     23  H   UNL     1      -0.642  41.506  33.092  1.00  0.00     0.293 HD
ENDBRANCH   6  22
BRANCH   8  24
ATOM     24  O   UNL     1      -1.494  38.403  29.342  1.00  0.00    -0.508 OA
ATOM     25  H   UNL     1      -1.138  37.519  28.997  1.00  0.00     0.293 HD
ENDBRANCH   8  24
TORSDOF 5
ENDMDL
MODEL 3
REMARK VINA RESULT:    -6.502     18.936     20.349
REMARK INTER + INTRA:          -7.917
REMARK INTER:                  -7.644
REMARK INTRA:                  -0.273
REMARK UNBOUND:                -0.275
REMARK SMILES O=c1cc(-c2ccc(O)c(O)c2)oc2cc(O)cc(O)c12
REMARK SMILES IDX 4 1 3 2 2 3 1 4 21 5 19 6 18 7 16 8 15 9 14 10 13 11 5 12
REMARK SMILES IDX 6 13 7 14 8 15 12 16 10 17 9 18 11 20 20 22 17 24
REMARK H PARENT 9 19 11 21 20 23 17 25
REMARK Flexibility Score: inf
ROOT
ATOM      1  C   UNL     1      -3.727  38.760  18.814  1.00  0.00     0.138 A 
ATOM      2  C   UNL     1      -2.981  39.822  18.283  1.00  0.00     0.100 A 
ATOM      3  C   UNL     1      -1.810  39.555  17.572  1.00  0.00     0.197 A 
ATOM      4  O   UNL     1      -1.197  40.523  17.054  1.00  0.00    -0.289 OA
ATOM      5  C   UNL     1      -1.369  38.218  17.421  1.00  0.00     0.107 A 
ATOM      6  C   UNL     1      -0.170  37.830  16.752  1.00  0.00     0.134 A 
ATOM      7  C   UNL     1       0.105  36.470  16.563  1.00  0.00     0.093 A 
ATOM      8  C   UNL     1      -0.745  35.485  17.072  1.00  0.00     0.123 A 
ATOM      9  C   UNL     1      -1.890  35.854  17.774  1.00  0.00     0.094 A 
ATOM     10  C   UNL     1      -2.210  37.202  17.948  1.00  0.00     0.146 A 
ATOM     11  O   UNL     1      -3.319  37.512  18.611  1.00  0.00    -0.456 OA
ENDROOT
BRANCH   1  12
ATOM     12  C   UNL     1      -4.979  38.988  19.580  1.00  0.00     0.021 A 
ATOM     13  C   UNL     1      -6.168  38.299  19.276  1.00  0.00     0.016 A 
ATOM     14  C   UNL     1      -7.335  38.541  20.006  1.00  0.00     0.051 A 
ATOM     15  C   UNL     1      -7.337  39.479  21.046  1.00  0.00     0.157 A 
ATOM     16  C   UNL     1      -4.993  39.938  20.618  1.00  0.00     0.062 A 
ATOM     17  C   UNL     1      -6.159  40.181  21.351  1.00  0.00     0.158 A 
BRANCH  15  18
ATOM     18  O   UNL     1      -8.502  39.717  21.774  1.00  0.00    -0.504 OA
ATOM     19  H   UNL     1      -8.578  39.461  22.751  1.00  0.00     0.293 HD
ENDBRANCH  15  18
BRANCH  17  20
ATOM     20  O   UNL     1      -6.128  41.125  22.378  1.00  0.00    -0.504 OA
ATOM     21  H   UNL     1      -6.496  40.928  23.301  1.00  0.00     0.293 HD
ENDBRANCH  17  20
ENDBRANCH   1  12
BRANCH   6  22
ATOM     22  O   UNL     1       0.789  38.731  16.279  1.00  0.00    -0.507 OA
ATOM     23  H   UNL     1       0.990  38.900  15.306  1.00  0.00     0.293 HD
ENDBRANCH   6  22
BRANCH   8  24
ATOM     24  O   UNL     1      -0.455  34.133  16.893  1.00  0.00    -0.508 OA
ATOM     25  H   UNL     1      -1.189  33.447  16.762  1.00  0.00     0.293 HD
ENDBRANCH   8  24
TORSDOF 5
ENDMDL
MODEL 4
REMARK VINA RESULT:    -6.307     17.612     20.054
REMARK INTER + INTRA:          -7.689
REMARK INTER:                  -7.417
REMARK INTRA:                  -0.272
REMARK UNBOUND:                -0.275
REMARK SMILES O=c1cc(-c2ccc(O)c(O)c2)oc2cc(O)cc(O)c12
REMARK SMILES IDX 4 1 3 2 2 3 1 4 21 5 19 6 18 7 16 8 15 9 14 10 13 11 5 12
REMARK SMILES IDX 6 13 7 14 8 15 12 16 10 17 9 18 11 20 20 22 17 24
REMARK H PARENT 9 19 11 21 20 23 17 25
REMARK Flexibility Score: inf
ROOT
ATOM      1  C   UNL     1      -2.701  37.790  18.885  1.00  0.00     0.138 A 
ATOM      2  C   UNL     1      -2.788  39.186  18.795  1.00  0.00     0.100 A 
ATOM      3  C   UNL     1      -3.739  39.869  19.555  1.00  0.00     0.197 A 
ATOM      4  O   UNL     1      -3.752  41.125  19.501  1.00  0.00    -0.289 OA
ATOM      5  C   UNL     1      -4.628  39.143  20.384  1.00  0.00     0.107 A 
ATOM      6  C   UNL     1      -5.663  39.729  21.172  1.00  0.00     0.134 A 
ATOM      7  C   UNL     1      -6.406  38.924  22.044  1.00  0.00     0.093 A 
ATOM      8  C   UNL     1      -6.190  37.544  22.112  1.00  0.00     0.123 A 
ATOM      9  C   UNL     1      -5.218  36.956  21.307  1.00  0.00     0.094 A 
ATOM     10  C   UNL     1      -4.437  37.738  20.453  1.00  0.00     0.146 A 
ATOM     11  O   UNL     1      -3.510  37.138  19.713  1.00  0.00    -0.456 OA
ENDROOT
BRANCH   1  12
ATOM     12  C   UNL     1      -1.708  37.015  18.098  1.00  0.00     0.021 A 
ATOM     13  C   UNL     1      -2.077  35.876  17.356  1.00  0.00     0.016 A 
ATOM     14  C   UNL     1      -1.120  35.160  16.632  1.00  0.00     0.051 A 
ATOM     15  C   UNL     1       0.222  35.561  16.643  1.00  0.00     0.157 A 
ATOM     16  C   UNL     1      -0.356  37.404  18.113  1.00  0.00     0.062 A 
ATOM     17  C   UNL     1       0.604  36.689  17.389  1.00  0.00     0.158 A 
BRANCH  15  18
ATOM     18  O   UNL     1       1.174  34.846  15.919  1.00  0.00    -0.504 OA
ATOM     19  H   UNL     1       2.116  35.195  15.793  1.00  0.00     0.293 HD
ENDBRANCH  15  18
BRANCH  17  20
ATOM     20  O   UNL     1       1.933  37.113  17.424  1.00  0.00    -0.504 OA
ATOM     21  H   UNL     1       2.301  37.782  16.759  1.00  0.00     0.293 HD
ENDBRANCH  17  20
ENDBRANCH   1  12
BRANCH   6  22
ATOM     22  O   UNL     1      -6.018  41.080  21.118  1.00  0.00    -0.507 OA
ATOM     23  H   UNL     1      -6.938  41.443  21.316  1.00  0.00     0.293 HD
ENDBRANCH   6  22
BRANCH   8  24
ATOM     24  O   UNL     1      -6.945  36.748  22.972  1.00  0.00    -0.508 OA
ATOM     25  H   UNL     1      -7.194  37.062  23.902  1.00  0.00     0.293 HD
ENDBRANCH   8  24
TORSDOF 5
ENDMDL
MODEL 5
REMARK VINA RESULT:    -6.170     18.933     20.588
REMARK INTER + INTRA:          -7.527
REMARK INTER:                  -7.239
REMARK INTRA:                  -0.289
REMARK UNBOUND:                -0.275
REMARK SMILES O=c1cc(-c2ccc(O)c(O)c2)oc2cc(O)cc(O)c12
REMARK SMILES IDX 4 1 3 2 2 3 1 4 21 5 19 6 18 7 16 8 15 9 14 10 13 11 5 12
REMARK SMILES IDX 6 13 7 14 8 15 12 16 10 17 9 18 11 20 20 22 17 24
REMARK H PARENT 9 19 11 21 20 23 17 25
REMARK Flexibility Score: inf
ROOT
ATOM      1  C   UNL     1      -3.576  38.326  18.900  1.00  0.00     0.138 A 
ATOM      2  C   UNL     1      -3.217  36.993  18.654  1.00  0.00     0.100 A 
ATOM      3  C   UNL     1      -2.028  36.711  17.979  1.00  0.00     0.197 A 
ATOM      4  O   UNL     1      -1.702  35.506  17.829  1.00  0.00    -0.289 OA
ATOM      5  C   UNL     1      -1.213  37.773  17.520  1.00  0.00     0.107 A 
ATOM      6  C   UNL     1      -0.001  37.607  16.785  1.00  0.00     0.134 A 
ATOM      7  C   UNL     1       0.783  38.727  16.485  1.00  0.00     0.093 A 
ATOM      8  C   UNL     1       0.369  40.014  16.841  1.00  0.00     0.123 A 
ATOM      9  C   UNL     1      -0.839  40.191  17.510  1.00  0.00     0.094 A 
ATOM     10  C   UNL     1      -1.626  39.090  17.855  1.00  0.00     0.146 A 
ATOM     11  O   UNL     1      -2.765  39.302  18.507  1.00  0.00    -0.456 OA
ENDROOT
BRANCH   1  12
ATOM     12  C   UNL     1      -4.829  38.681  19.614  1.00  0.00     0.021 A 
ATOM     13  C   UNL     1      -6.076  38.156  19.225  1.00  0.00     0.016 A 
ATOM     14  C   UNL     1      -7.241  38.515  19.908  1.00  0.00     0.051 A 
ATOM     15  C   UNL     1      -7.184  39.409  20.984  1.00  0.00     0.157 A 
ATOM     16  C   UNL     1      -4.782  39.588  20.688  1.00  0.00     0.062 A 
ATOM     17  C   UNL     1      -5.946  39.949  21.374  1.00  0.00     0.158 A 
BRANCH  15  18
ATOM     18  O   UNL     1      -8.347  39.764  21.664  1.00  0.00    -0.504 OA
ATOM     19  H   UNL     1      -8.590  39.344  22.554  1.00  0.00     0.293 HD
ENDBRANCH  15  18
BRANCH  17  20
ATOM     20  O   UNL     1      -5.855  40.845  22.439  1.00  0.00    -0.504 OA
ATOM     21  H   UNL     1      -6.338  40.690  23.315  1.00  0.00     0.293 HD
ENDBRANCH  17  20
ENDBRANCH   1  12
BRANCH   6  22
ATOM     22  O   UNL     1       0.461  36.377  16.308  1.00  0.00    -0.507 OA
ATOM     23  H   UNL     1       1.341  35.954  16.562  1.00  0.00     0.293 HD
ENDBRANCH   6  22
BRANCH   8  24
ATOM     24  O   UNL     1       1.148  41.125  16.524  1.00  0.00    -0.508 OA
ATOM     25  H   UNL     1       2.117  41.029  16.243  1.00  0.00     0.293 HD
ENDBRANCH   8  24
TORSDOF 5
ENDMDL
MODEL 6
REMARK VINA RESULT:    -5.977      8.407     13.529
REMARK INTER + INTRA:          -7.301
REMARK INTER:                  -7.035
REMARK INTRA:                  -0.266
REMARK UNBOUND:                -0.275
REMARK SMILES O=c1cc(-c2ccc(O)c(O)c2)oc2cc(O)cc(O)c12
REMARK SMILES IDX 4 1 3 2 2 3 1 4 21 5 19 6 18 7 16 8 15 9 14 10 13 11 5 12
REMARK SMILES IDX 6 13 7 14 8 15 12 16 10 17 9 18 11 20 20 22 17 24
REMARK H PARENT 9 19 11 21 20 23 17 25
REMARK Flexibility Score: inf
ROOT
ATOM      1  C   UNL     1      -4.475  36.307  33.890  1.00  0.00     0.138 A 
ATOM      2  C   UNL     1      -4.130  36.334  32.531  1.00  0.00     0.100 A 
ATOM      3  C   UNL     1      -3.310  37.355  32.048  1.00  0.00     0.197 A 
ATOM      4  O   UNL     1      -2.967  37.319  30.839  1.00  0.00    -0.289 OA
ATOM      5  C   UNL     1      -2.862  38.371  32.926  1.00  0.00     0.107 A 
ATOM      6  C   UNL     1      -2.055  39.482  32.537  1.00  0.00     0.134 A 
ATOM      7  C   UNL     1      -1.575  40.361  33.515  1.00  0.00     0.093 A 
ATOM      8  C   UNL     1      -1.920  40.203  34.860  1.00  0.00     0.123 A 
ATOM      9  C   UNL     1      -2.750  39.152  35.242  1.00  0.00     0.094 A 
ATOM     10  C   UNL     1      -3.217  38.238  34.294  1.00  0.00     0.146 A 
ATOM     11  O   UNL     1      -3.995  37.241  34.703  1.00  0.00    -0.456 OA
ENDROOT
BRANCH   1  12
ATOM     12  C   UNL     1      -5.345  35.244  34.455  1.00  0.00     0.021 A 
ATOM     13  C   UNL     1      -6.543  35.548  35.130  1.00  0.00     0.016 A 
ATOM     14  C   UNL     1      -7.337  34.529  35.661  1.00  0.00     0.051 A 
ATOM     15  C   UNL     1      -6.946  33.190  35.536  1.00  0.00     0.157 A 
ATOM     16  C   UNL     1      -4.954  33.897  34.345  1.00  0.00     0.062 A 
ATOM     17  C   UNL     1      -5.747  32.874  34.875  1.00  0.00     0.158 A 
BRANCH  15  18
ATOM     18  O   UNL     1      -7.741  32.174  36.065  1.00  0.00    -0.504 OA
ATOM     19  H   UNL     1      -7.742  31.965  37.057  1.00  0.00     0.293 HD
ENDBRANCH  15  18
BRANCH  17  20
ATOM     20  O   UNL     1      -5.328  31.551  34.737  1.00  0.00    -0.504 OA
ATOM     21  H   UNL     1      -4.572  31.288  34.116  1.00  0.00     0.293 HD
ENDBRANCH  17  20
ENDBRANCH   1  12
BRANCH   6  22
ATOM     22  O   UNL     1      -1.722  39.781  31.213  1.00  0.00    -0.507 OA
ATOM     23  H   UNL     1      -1.836  39.151  30.433  1.00  0.00     0.293 HD
ENDBRANCH   6  22
BRANCH   8  24
ATOM     24  O   UNL     1      -1.449  41.092  35.824  1.00  0.00    -0.508 OA
ATOM     25  H   UNL     1      -2.047  41.806  36.223  1.00  0.00     0.293 HD
ENDBRANCH   8  24
TORSDOF 5
ENDMDL
MODEL 7
REMARK VINA RESULT:    -5.965      9.025     13.029
REMARK INTER + INTRA:          -7.286
REMARK INTER:                  -6.979
REMARK INTRA:                  -0.307
REMARK UNBOUND:                -0.275
REMARK SMILES O=c1cc(-c2ccc(O)c(O)c2)oc2cc(O)cc(O)c12
REMARK SMILES IDX 4 1 3 2 2 3 1 4 21 5 19 6 18 7 16 8 15 9 14 10 13 11 5 12
REMARK SMILES IDX 6 13 7 14 8 15 12 16 10 17 9 18 11 20 20 22 17 24
REMARK H PARENT 9 19 11 21 20 23 17 25
REMARK Flexibility Score: inf
ROOT
ATOM      1  C   UNL     1      -3.722  37.857  33.246  1.00  0.00     0.138 A 
ATOM      2  C   UNL     1      -4.655  38.551  34.029  1.00  0.00     0.100 A 
ATOM      3  C   UNL     1      -5.592  37.839  34.780  1.00  0.00     0.197 A 
ATOM      4  O   UNL     1      -6.375  38.486  35.521  1.00  0.00    -0.289 OA
ATOM      5  C   UNL     1      -5.612  36.425  34.720  1.00  0.00     0.107 A 
ATOM      6  C   UNL     1      -6.546  35.596  35.411  1.00  0.00     0.134 A 
ATOM      7  C   UNL     1      -6.396  34.205  35.369  1.00  0.00     0.093 A 
ATOM      8  C   UNL     1      -5.382  33.611  34.613  1.00  0.00     0.123 A 
ATOM      9  C   UNL     1      -4.498  34.410  33.892  1.00  0.00     0.094 A 
ATOM     10  C   UNL     1      -4.600  35.802  33.942  1.00  0.00     0.146 A 
ATOM     11  O   UNL     1      -3.727  36.528  33.251  1.00  0.00    -0.456 OA
ENDROOT
BRANCH   1  12
ATOM     12  C   UNL     1      -2.705  38.565  32.427  1.00  0.00     0.021 A 
ATOM     13  C   UNL     1      -2.237  39.847  32.775  1.00  0.00     0.016 A 
ATOM     14  C   UNL     1      -1.287  40.494  31.980  1.00  0.00     0.051 A 
ATOM     15  C   UNL     1      -0.795  39.879  30.823  1.00  0.00     0.157 A 
ATOM     16  C   UNL     1      -2.215  37.960  31.256  1.00  0.00     0.062 A 
ATOM     17  C   UNL     1      -1.264  38.605  30.459  1.00  0.00     0.158 A 
BRANCH  15  18
ATOM     18  O   UNL     1       0.154  40.527  30.033  1.00  0.00    -0.504 OA
ATOM     19  H   UNL     1       0.372  41.508  30.164  1.00  0.00     0.293 HD
ENDBRANCH  15  18
BRANCH  17  20
ATOM     20  O   UNL     1      -0.796  37.967  29.310  1.00  0.00    -0.504 OA
ATOM     21  H   UNL     1       0.093  38.203  28.888  1.00  0.00     0.293 HD
ENDBRANCH  17  20
ENDBRANCH   1  12
BRANCH   6  22
ATOM     22  O   UNL     1      -7.644  36.083  36.125  1.00  0.00    -0.507 OA
ATOM     23  H   UNL     1      -7.586  36.681  36.935  1.00  0.00     0.293 HD
ENDBRANCH   6  22
BRANCH   8  24
ATOM     24  O   UNL     1      -5.250  32.224  34.564  1.00  0.00    -0.508 OA
ATOM     25  H   UNL     1      -5.889  31.650  34.028  1.00  0.00     0.293 HD
ENDBRANCH   8  24
TORSDOF 5
ENDMDL
MODEL 8
REMARK VINA RESULT:    -5.931     18.243     20.244
REMARK INTER + INTRA:          -7.246
REMARK INTER:                  -6.942
REMARK INTRA:                  -0.304
REMARK UNBOUND:                -0.275
REMARK SMILES O=c1cc(-c2ccc(O)c(O)c2)oc2cc(O)cc(O)c12
REMARK SMILES IDX 4 1 3 2 2 3 1 4 21 5 19 6 18 7 16 8 15 9 14 10 13 11 5 12
REMARK SMILES IDX 6 13 7 14 8 15 12 16 10 17 9 18 11 20 20 22 17 24
REMARK H PARENT 9 19 11 21 20 23 17 25
REMARK Flexibility Score: inf
ROOT
ATOM      1  C   UNL     1      -2.936  38.381  19.159  1.00  0.00     0.138 A 
ATOM      2  C   UNL     1      -2.664  39.696  18.755  1.00  0.00     0.100 A 
ATOM      3  C   UNL     1      -1.635  39.938  17.842  1.00  0.00     0.197 A 
ATOM      4  O   UNL     1      -1.456  41.120  17.451  1.00  0.00    -0.289 OA
ATOM      5  C   UNL     1      -0.857  38.860  17.359  1.00  0.00     0.107 A 
ATOM      6  C   UNL     1       0.242  38.992  16.457  1.00  0.00     0.134 A 
ATOM      7  C   UNL     1       0.865  37.843  15.956  1.00  0.00     0.093 A 
ATOM      8  C   UNL     1       0.468  36.568  16.369  1.00  0.00     0.123 A 
ATOM      9  C   UNL     1      -0.568  36.431  17.290  1.00  0.00     0.094 A 
ATOM     10  C   UNL     1      -1.232  37.558  17.782  1.00  0.00     0.146 A 
ATOM     11  O   UNL     1      -2.225  37.382  18.647  1.00  0.00    -0.456 OA
ENDROOT
BRANCH   1  12
ATOM     12  C   UNL     1      -4.017  38.067  20.128  1.00  0.00     0.021 A 
ATOM     13  C   UNL     1      -5.184  38.851  20.214  1.00  0.00     0.016 A 
ATOM     14  C   UNL     1      -6.181  38.538  21.142  1.00  0.00     0.051 A 
ATOM     15  C   UNL     1      -6.028  37.446  22.004  1.00  0.00     0.157 A 
ATOM     16  C   UNL     1      -3.866  36.979  21.006  1.00  0.00     0.062 A 
ATOM     17  C   UNL     1      -4.863  36.664  21.935  1.00  0.00     0.158 A 
BRANCH  15  18
ATOM     18  O   UNL     1      -7.025  37.136  22.928  1.00  0.00    -0.504 OA
ATOM     19  H   UNL     1      -7.508  37.858  23.448  1.00  0.00     0.293 HD
ENDBRANCH  15  18
BRANCH  17  20
ATOM     20  O   UNL     1      -4.678  35.571  22.783  1.00  0.00    -0.504 OA
ATOM     21  H   UNL     1      -4.190  34.735  22.484  1.00  0.00     0.293 HD
ENDBRANCH  17  20
ENDBRANCH   1  12
BRANCH   6  22
ATOM     22  O   UNL     1       0.773  40.219  16.047  1.00  0.00    -0.507 OA
ATOM     23  H   UNL     1       0.475  40.732  15.231  1.00  0.00     0.293 HD
ENDBRANCH   6  22
BRANCH   8  24
ATOM     24  O   UNL     1       1.104  35.431  15.876  1.00  0.00    -0.508 OA
ATOM     25  H   UNL     1       0.580  34.612  15.592  1.00  0.00     0.293 HD
ENDBRANCH   8  24
TORSDOF 5
ENDMDL
MODEL 9
REMARK VINA RESULT:    -5.681      1.271      2.779
REMARK INTER + INTRA:          -6.953
REMARK INTER:                  -6.688
REMARK INTRA:                  -0.265
REMARK UNBOUND:                -0.275
REMARK SMILES O=c1cc(-c2ccc(O)c(O)c2)oc2cc(O)cc(O)c12
REMARK SMILES IDX 4 1 3 2 2 3 1 4 21 5 19 6 18 7 16 8 15 9 14 10 13 11 5 12
REMARK SMILES IDX 6 13 7 14 8 15 12 16 10 17 9 18 11 20 20 22 17 24
REMARK H PARENT 9 19 11 21 20 23 17 25
REMARK Flexibility Score: inf
ROOT
ATOM      1  C   UNL     1      -6.061  25.890  33.632  1.00  0.00     0.138 A 
ATOM      2  C   UNL     1      -5.653  25.605  32.322  1.00  0.00     0.100 A 
ATOM      3  C   UNL     1      -5.983  24.376  31.748  1.00  0.00     0.197 A 
ATOM      4  O   UNL     1      -5.657  24.174  30.550  1.00  0.00    -0.289 OA
ATOM      5  C   UNL     1      -6.698  23.417  32.504  1.00  0.00     0.107 A 
ATOM      6  C   UNL     1      -7.055  22.117  32.036  1.00  0.00     0.134 A 
ATOM      7  C   UNL     1      -7.865  21.296  32.831  1.00  0.00     0.093 A 
ATOM      8  C   UNL     1      -8.282  21.706  34.100  1.00  0.00     0.123 A 
ATOM      9  C   UNL     1      -7.894  22.952  34.587  1.00  0.00     0.094 A 
ATOM     10  C   UNL     1      -7.115  23.807  33.804  1.00  0.00     0.146 A 
ATOM     11  O   UNL     1      -6.780  24.993  34.300  1.00  0.00    -0.456 OA
ENDROOT
BRANCH   1  12
ATOM     12  C   UNL     1      -5.736  27.180  34.291  1.00  0.00     0.021 A 
ATOM     13  C   UNL     1      -4.927  27.241  35.441  1.00  0.00     0.016 A 
ATOM     14  C   UNL     1      -4.645  28.469  36.046  1.00  0.00     0.051 A 
ATOM     15  C   UNL     1      -5.173  29.655  35.520  1.00  0.00     0.157 A 
ATOM     16  C   UNL     1      -6.272  28.375  33.776  1.00  0.00     0.062 A 
ATOM     17  C   UNL     1      -5.991  29.605  34.379  1.00  0.00     0.158 A 
BRANCH  15  18
ATOM     18  O   UNL     1      -4.888  30.878  36.125  1.00  0.00    -0.504 OA
ATOM     19  H   UNL     1      -4.765  31.723  35.579  1.00  0.00     0.293 HD
ENDBRANCH  15  18
BRANCH  17  20
ATOM     20  O   UNL     1      -6.535  30.768  33.832  1.00  0.00    -0.504 OA
ATOM     21  H   UNL     1      -7.071  30.758  32.973  1.00  0.00     0.293 HD
ENDBRANCH  17  20
ENDBRANCH   1  12
BRANCH   6  22
ATOM     22  O   UNL     1      -6.622  21.577  30.822  1.00  0.00    -0.507 OA
ATOM     23  H   UNL     1      -6.002  20.787  30.730  1.00  0.00     0.293 HD
ENDBRANCH   6  22
BRANCH   8  24
ATOM     24  O   UNL     1      -9.075  20.876  34.890  1.00  0.00    -0.508 OA
ATOM     25  H   UNL     1      -9.296  21.112  35.850  1.00  0.00     0.293 HD
ENDBRANCH   8  24
TORSDOF 5
ENDMDL
