MODEL 1
REMARK VINA RESULT:    -5.262      0.000      0.000
REMARK INTER + INTRA:          -6.624
REMARK INTER:                  -6.339
REMARK INTRA:                  -0.286
REMARK UNBOUND:                -0.286
REMARK SMILES O=c1c(O)c(-c2ccc(O)c(O)c2)oc2cc(O)cc(O)c12
REMARK SMILES IDX 5 1 3 2 2 3 1 4 22 5 20 6 19 7 17 8 16 9 15 10 14 11 6 12
REMARK SMILES IDX 7 13 8 14 9 15 13 16 11 17 10 18 12 20 4 22 21 24 18 26
REMARK H PARENT 10 19 12 21 4 23 21 25 18 27
REMARK Flexibility Score: inf
ROOT
ATOM      1  C   UNL     1      24.182  29.584   6.016  1.00  0.00     0.180 A 
ATOM      2  C   UNL     1      25.541  29.726   6.356  1.00  0.00     0.208 A 
ATOM      3  C   UNL     1      26.335  28.574   6.475  1.00  0.00     0.238 A 
ATOM      4  O   UNL     1      27.557  28.689   6.768  1.00  0.00    -0.285 OA
ATOM      5  C   UNL     1      25.756  27.304   6.273  1.00  0.00     0.111 A 
ATOM      6  C   UNL     1      26.485  26.095   6.377  1.00  0.00     0.134 A 
ATOM      7  C   UNL     1      25.833  24.870   6.170  1.00  0.00     0.093 A 
ATOM      8  C   UNL     1      24.472  24.830   5.862  1.00  0.00     0.123 A 
ATOM      9  C   UNL     1      23.747  26.022   5.756  1.00  0.00     0.094 A 
ATOM     10  C   UNL     1      24.377  27.252   5.957  1.00  0.00     0.146 A 
ATOM     11  O   UNL     1      23.667  28.369   5.847  1.00  0.00    -0.452 OA
ENDROOT
BRANCH   1  12
ATOM     12  C   UNL     1      23.285  30.750   5.854  1.00  0.00     0.025 A 
ATOM     13  C   UNL     1      22.910  31.213   4.580  1.00  0.00     0.016 A 
ATOM     14  C   UNL     1      22.043  32.302   4.451  1.00  0.00     0.051 A 
ATOM     15  C   UNL     1      21.527  32.933   5.590  1.00  0.00     0.157 A 
ATOM     16  C   UNL     1      22.748  31.372   6.993  1.00  0.00     0.062 A 
ATOM     17  C   UNL     1      21.879  32.463   6.867  1.00  0.00     0.158 A 
BRANCH  15  18
ATOM     18  O   UNL     1      20.664  34.020   5.460  1.00  0.00    -0.504 OA
ATOM     19  H   UNL     1      21.001  34.974   5.511  1.00  0.00     0.293 HD
ENDBRANCH  15  18
BRANCH  17  20
ATOM     20  O   UNL     1      21.378  33.065   8.021  1.00  0.00    -0.504 OA
ATOM     21  H   UNL     1      20.887  32.537   8.732  1.00  0.00     0.293 HD
ENDBRANCH  17  20
ENDBRANCH   1  12
BRANCH   2  22
ATOM     22  O   UNL     1      26.079  30.992   6.599  1.00  0.00    -0.502 OA
ATOM     23  H   UNL     1      25.727  31.599   7.330  1.00  0.00     0.293 HD
ENDBRANCH   2  22
BRANCH   6  24
ATOM     24  O   UNL     1      27.846  26.101   6.684  1.00  0.00    -0.507 OA
ATOM     25  H   UNL     1      28.504  26.683   6.180  1.00  0.00     0.293 HD
ENDBRANCH   6  24
BRANCH   8  26
ATOM     26  O   UNL     1      23.849  23.600   5.661  1.00  0.00    -0.508 OA
ATOM     27  H   UNL     1      23.721  23.216   4.733  1.00  0.00     0.293 HD
ENDBRANCH   8  26
TORSDOF 6
ENDMDL
MODEL 2
REMARK VINA RESULT:    -4.927      2.296      5.905
REMARK INTER + INTRA:          -6.221
REMARK INTER:                  -5.959
REMARK INTRA:                  -0.261
REMARK UNBOUND:                -0.286
REMARK SMILES O=c1c(O)c(-c2ccc(O)c(O)c2)oc2cc(O)cc(O)c12
REMARK SMILES IDX 5 1 3 2 2 3 1 4 22 5 20 6 19 7 17 8 16 9 15 10 14 11 6 12
REMARK SMILES IDX 7 13 8 14 9 15 13 16 11 17 10 18 12 20 4 22 21 24 18 26
REMARK H PARENT 10 19 12 21 4 23 21 25 18 27
REMARK Flexibility Score: inf
ROOT
ATOM      1  C   UNL     1      24.459  27.461   5.930  1.00  0.00     0.180 A 
ATOM      2  C   UNL     1      25.834  27.208   6.105  1.00  0.00     0.208 A 
ATOM      3  C   UNL     1      26.621  28.164   6.766  1.00  0.00     0.238 A 
ATOM      4  O   UNL     1      27.851  27.943   6.939  1.00  0.00    -0.285 OA
ATOM      5  C   UNL     1      26.028  29.360   7.222  1.00  0.00     0.111 A 
ATOM      6  C   UNL     1      26.752  30.375   7.894  1.00  0.00     0.134 A 
ATOM      7  C   UNL     1      26.091  31.542   8.307  1.00  0.00     0.093 A 
ATOM      8  C   UNL     1      24.727  31.712   8.063  1.00  0.00     0.123 A 
ATOM      9  C   UNL     1      24.007  30.713   7.401  1.00  0.00     0.094 A 
ATOM     10  C   UNL     1      24.646  29.543   6.982  1.00  0.00     0.146 A 
ATOM     11  O   UNL     1      23.939  28.607   6.359  1.00  0.00    -0.452 OA
ENDROOT
BRANCH   1  12
ATOM     12  C   UNL     1      23.560  26.494   5.259  1.00  0.00     0.025 A 
ATOM     13  C   UNL     1      23.585  26.319   3.865  1.00  0.00     0.016 A 
ATOM     14  C   UNL     1      22.744  25.383   3.256  1.00  0.00     0.051 A 
ATOM     15  C   UNL     1      21.878  24.601   4.031  1.00  0.00     0.157 A 
ATOM     16  C   UNL     1      22.707  25.693   6.034  1.00  0.00     0.062 A 
ATOM     17  C   UNL     1      21.863  24.755   5.427  1.00  0.00     0.158 A 
BRANCH  15  18
ATOM     18  O   UNL     1      21.039  23.669   3.422  1.00  0.00    -0.504 OA
ATOM     19  H   UNL     1      20.133  23.437   3.813  1.00  0.00     0.293 HD
ENDBRANCH  15  18
BRANCH  17  20
ATOM     20  O   UNL     1      21.018  23.987   6.228  1.00  0.00    -0.504 OA
ATOM     21  H   UNL     1      21.112  23.958   7.236  1.00  0.00     0.293 HD
ENDBRANCH  17  20
ENDBRANCH   1  12
BRANCH   2  22
ATOM     22  O   UNL     1      26.405  26.037   5.601  1.00  0.00    -0.502 OA
ATOM     23  H   UNL     1      25.867  25.347   5.091  1.00  0.00     0.293 HD
ENDBRANCH   2  22
BRANCH   6  24
ATOM     24  O   UNL     1      28.116  30.235   8.151  1.00  0.00    -0.507 OA
ATOM     25  H   UNL     1      28.578  30.767   8.879  1.00  0.00     0.293 HD
ENDBRANCH   6  24
BRANCH   8  26
ATOM     26  O   UNL     1      24.095  32.881   8.485  1.00  0.00    -0.508 OA
ATOM     27  H   UNL     1      23.967  33.669   7.861  1.00  0.00     0.293 HD
ENDBRANCH   8  26
TORSDOF 6
ENDMDL
MODEL 3
REMARK VINA RESULT:    -4.770      1.363      2.910
REMARK INTER + INTRA:          -6.032
REMARK INTER:                  -5.912
REMARK INTRA:                  -0.120
REMARK UNBOUND:                -0.286
REMARK SMILES O=c1c(O)c(-c2ccc(O)c(O)c2)oc2cc(O)cc(O)c12
REMARK SMILES IDX 5 1 3 2 2 3 1 4 22 5 20 6 19 7 17 8 16 9 15 10 14 11 6 12
REMARK SMILES IDX 7 13 8 14 9 15 13 16 11 17 10 18 12 20 4 22 21 24 18 26
REMARK H PARENT 10 19 12 21 4 23 21 25 18 27
REMARK Flexibility Score: inf
ROOT
ATOM      1  C   UNL     1      23.287  29.291   5.110  1.00  0.00     0.180 A 
ATOM      2  C   UNL     1      22.647  28.201   4.488  1.00  0.00     0.208 A 
ATOM      3  C   UNL     1      23.237  26.930   4.572  1.00  0.00     0.238 A 
ATOM      4  O   UNL     1      22.667  25.945   4.028  1.00  0.00    -0.285 OA
ATOM      5  C   UNL     1      24.460  26.773   5.255  1.00  0.00     0.111 A 
ATOM      6  C   UNL     1      25.121  25.527   5.382  1.00  0.00     0.134 A 
ATOM      7  C   UNL     1      26.342  25.455   6.071  1.00  0.00     0.093 A 
ATOM      8  C   UNL     1      26.911  26.599   6.632  1.00  0.00     0.123 A 
ATOM      9  C   UNL     1      26.262  27.832   6.511  1.00  0.00     0.094 A 
ATOM     10  C   UNL     1      25.046  27.925   5.831  1.00  0.00     0.146 A 
ATOM     11  O   UNL     1      24.447  29.107   5.734  1.00  0.00    -0.452 OA
ENDROOT
BRANCH   1  12
ATOM     12  C   UNL     1      22.719  30.658   5.083  1.00  0.00     0.025 A 
ATOM     13  C   UNL     1      22.499  31.334   3.870  1.00  0.00     0.016 A 
ATOM     14  C   UNL     1      21.940  32.615   3.866  1.00  0.00     0.051 A 
ATOM     15  C   UNL     1      21.579  33.232   5.071  1.00  0.00     0.157 A 
ATOM     16  C   UNL     1      22.335  31.271   6.286  1.00  0.00     0.062 A 
ATOM     17  C   UNL     1      21.775  32.555   6.286  1.00  0.00     0.158 A 
BRANCH  15  18
ATOM     18  O   UNL     1      21.022  34.510   5.066  1.00  0.00    -0.504 OA
ATOM     19  H   UNL     1      21.603  35.341   5.079  1.00  0.00     0.293 HD
ENDBRANCH  15  18
BRANCH  17  20
ATOM     20  O   UNL     1      21.419  33.138   7.502  1.00  0.00    -0.504 OA
ATOM     21  H   UNL     1      22.038  33.128   8.304  1.00  0.00     0.293 HD
ENDBRANCH  17  20
ENDBRANCH   1  12
BRANCH   2  22
ATOM     22  O   UNL     1      21.461  28.393   3.775  1.00  0.00    -0.502 OA
ATOM     23  H   UNL     1      21.329  29.173   3.142  1.00  0.00     0.293 HD
ENDBRANCH   2  22
BRANCH   6  24
ATOM     24  O   UNL     1      24.578  24.366   4.831  1.00  0.00    -0.507 OA
ATOM     25  H   UNL     1      23.874  24.400   4.104  1.00  0.00     0.293 HD
ENDBRANCH   6  24
BRANCH   8  26
ATOM     26  O   UNL     1      28.125  26.500   7.310  1.00  0.00    -0.508 OA
ATOM     27  H   UNL     1      28.827  25.819   7.045  1.00  0.00     0.293 HD
ENDBRANCH   8  26
TORSDOF 6
ENDMDL
MODEL 4
REMARK VINA RESULT:    -4.728      1.660      6.382
REMARK INTER + INTRA:          -5.982
REMARK INTER:                  -5.685
REMARK INTRA:                  -0.296
REMARK UNBOUND:                -0.286
REMARK SMILES O=c1c(O)c(-c2ccc(O)c(O)c2)oc2cc(O)cc(O)c12
REMARK SMILES IDX 5 1 3 2 2 3 1 4 22 5 20 6 19 7 17 8 16 9 15 10 14 11 6 12
REMARK SMILES IDX 7 13 8 14 9 15 13 16 11 17 10 18 12 20 4 22 21 24 18 26
REMARK H PARENT 10 19 12 21 4 23 21 25 18 27
REMARK Flexibility Score: inf
ROOT
ATOM      1  C   UNL     1      25.042  28.156   5.903  1.00  0.00     0.180 A 
ATOM      2  C   UNL     1      26.234  28.478   6.580  1.00  0.00     0.208 A 
ATOM      3  C   UNL     1      26.283  29.656   7.343  1.00  0.00     0.238 A 
ATOM      4  O   UNL     1      27.342  29.949   7.963  1.00  0.00    -0.285 OA
ATOM      5  C   UNL     1      25.153  30.498   7.400  1.00  0.00     0.111 A 
ATOM      6  C   UNL     1      25.123  31.703   8.143  1.00  0.00     0.134 A 
ATOM      7  C   UNL     1      23.962  32.491   8.141  1.00  0.00     0.093 A 
ATOM      8  C   UNL     1      22.836  32.099   7.415  1.00  0.00     0.123 A 
ATOM      9  C   UNL     1      22.860  30.909   6.681  1.00  0.00     0.094 A 
ATOM     10  C   UNL     1      24.006  30.109   6.670  1.00  0.00     0.146 A 
ATOM     11  O   UNL     1      24.001  28.982   5.968  1.00  0.00    -0.452 OA
ENDROOT
BRANCH   1  12
ATOM     12  C   UNL     1      24.904  26.923   5.094  1.00  0.00     0.025 A 
ATOM     13  C   UNL     1      25.416  26.846   3.787  1.00  0.00     0.016 A 
ATOM     14  C   UNL     1      25.296  25.664   3.050  1.00  0.00     0.051 A 
ATOM     15  C   UNL     1      24.677  24.540   3.613  1.00  0.00     0.157 A 
ATOM     16  C   UNL     1      24.305  25.787   5.662  1.00  0.00     0.062 A 
ATOM     17  C   UNL     1      24.183  24.602   4.926  1.00  0.00     0.158 A 
BRANCH  15  18
ATOM     18  O   UNL     1      24.557  23.363   2.876  1.00  0.00    -0.504 OA
ATOM     19  H   UNL     1      25.358  22.767   2.696  1.00  0.00     0.293 HD
ENDBRANCH  15  18
BRANCH  17  20
ATOM     20  O   UNL     1      23.569  23.499   5.519  1.00  0.00    -0.504 OA
ATOM     21  H   UNL     1      23.969  23.028   6.321  1.00  0.00     0.293 HD
ENDBRANCH  17  20
ENDBRANCH   1  12
BRANCH   2  22
ATOM     22  O   UNL     1      27.355  27.652   6.467  1.00  0.00    -0.502 OA
ATOM     23  H   UNL     1      28.255  27.999   6.158  1.00  0.00     0.293 HD
ENDBRANCH   2  22
BRANCH   6  24
ATOM     24  O   UNL     1      26.233  32.123   8.877  1.00  0.00    -0.507 OA
ATOM     25  H   UNL     1      26.325  31.919   9.866  1.00  0.00     0.293 HD
ENDBRANCH   6  24
BRANCH   8  26
ATOM     26  O   UNL     1      21.696  32.900   7.431  1.00  0.00    -0.508 OA
ATOM     27  H   UNL     1      20.805  32.548   7.760  1.00  0.00     0.293 HD
ENDBRANCH   8  26
TORSDOF 6
ENDMDL
MODEL 5
REMARK VINA RESULT:    -4.713      2.429      6.543
REMARK INTER + INTRA:          -5.964
REMARK INTER:                  -5.807
REMARK INTRA:                  -0.157
REMARK UNBOUND:                -0.286
REMARK SMILES O=c1c(O)c(-c2ccc(O)c(O)c2)oc2cc(O)cc(O)c12
REMARK SMILES IDX 5 1 3 2 2 3 1 4 22 5 20 6 19 7 17 8 16 9 15 10 14 11 6 12
REMARK SMILES IDX 7 13 8 14 9 15 13 16 11 17 10 18 12 20 4 22 21 24 18 26
REMARK H PARENT 10 19 12 21 4 23 21 25 18 27
REMARK Flexibility Score: inf
ROOT
ATOM      1  C   UNL     1      23.718  27.144   5.491  1.00  0.00     0.180 A 
ATOM      2  C   UNL     1      22.940  28.262   5.133  1.00  0.00     0.208 A 
ATOM      3  C   UNL     1      23.376  29.542   5.511  1.00  0.00     0.238 A 
ATOM      4  O   UNL     1      22.692  30.551   5.186  1.00  0.00    -0.285 OA
ATOM      5  C   UNL     1      24.566  29.681   6.254  1.00  0.00     0.111 A 
ATOM      6  C   UNL     1      25.072  30.935   6.677  1.00  0.00     0.134 A 
ATOM      7  C   UNL     1      26.260  30.989   7.422  1.00  0.00     0.093 A 
ATOM      8  C   UNL     1      26.948  29.820   7.751  1.00  0.00     0.123 A 
ATOM      9  C   UNL     1      26.453  28.579   7.335  1.00  0.00     0.094 A 
ATOM     10  C   UNL     1      25.273  28.503   6.591  1.00  0.00     0.146 A 
ATOM     11  O   UNL     1      24.828  27.313   6.205  1.00  0.00    -0.452 OA
ENDROOT
BRANCH   1  12
ATOM     12  C   UNL     1      23.335  25.764   5.114  1.00  0.00     0.025 A 
ATOM     13  C   UNL     1      24.146  24.985   4.270  1.00  0.00     0.016 A 
ATOM     14  C   UNL     1      23.777  23.677   3.946  1.00  0.00     0.051 A 
ATOM     15  C   UNL     1      22.602  23.123   4.471  1.00  0.00     0.157 A 
ATOM     16  C   UNL     1      22.170  25.198   5.656  1.00  0.00     0.062 A 
ATOM     17  C   UNL     1      21.797  23.888   5.333  1.00  0.00     0.158 A 
BRANCH  15  18
ATOM     18  O   UNL     1      22.234  21.819   4.147  1.00  0.00    -0.504 OA
ATOM     19  H   UNL     1      22.928  21.105   3.954  1.00  0.00     0.293 HD
ENDBRANCH  15  18
BRANCH  17  20
ATOM     20  O   UNL     1      20.625  23.364   5.879  1.00  0.00    -0.504 OA
ATOM     21  H   UNL     1      20.476  22.367   5.976  1.00  0.00     0.293 HD
ENDBRANCH  17  20
ENDBRANCH   1  12
BRANCH   2  22
ATOM     22  O   UNL     1      21.739  28.092   4.438  1.00  0.00    -0.502 OA
ATOM     23  H   UNL     1      21.261  27.200   4.392  1.00  0.00     0.293 HD
ENDBRANCH   2  22
BRANCH   6  24
ATOM     24  O   UNL     1      24.406  32.120   6.364  1.00  0.00    -0.507 OA
ATOM     25  H   UNL     1      23.408  32.143   6.198  1.00  0.00     0.293 HD
ENDBRANCH   6  24
BRANCH   8  26
ATOM     26  O   UNL     1      28.125  29.902   8.492  1.00  0.00    -0.508 OA
ATOM     27  H   UNL     1      28.900  30.483   8.194  1.00  0.00     0.293 HD
ENDBRANCH   8  26
TORSDOF 6
ENDMDL
MODEL 6
REMARK VINA RESULT:    -4.665      1.539      2.071
REMARK INTER + INTRA:          -5.905
REMARK INTER:                  -5.582
REMARK INTRA:                  -0.324
REMARK UNBOUND:                -0.286
REMARK SMILES O=c1c(O)c(-c2ccc(O)c(O)c2)oc2cc(O)cc(O)c12
REMARK SMILES IDX 5 1 3 2 2 3 1 4 22 5 20 6 19 7 17 8 16 9 15 10 14 11 6 12
REMARK SMILES IDX 7 13 8 14 9 15 13 16 11 17 10 18 12 20 4 22 21 24 18 26
REMARK H PARENT 10 19 12 21 4 23 21 25 18 27
REMARK Flexibility Score: inf
ROOT
ATOM      1  C   UNL     1      24.720  29.450   5.961  1.00  0.00     0.180 A 
ATOM      2  C   UNL     1      25.824  29.795   5.157  1.00  0.00     0.208 A 
ATOM      3  C   UNL     1      26.605  28.770   4.601  1.00  0.00     0.238 A 
ATOM      4  O   UNL     1      27.590  29.066   3.871  1.00  0.00    -0.285 OA
ATOM      5  C   UNL     1      26.284  27.423   4.873  1.00  0.00     0.111 A 
ATOM      6  C   UNL     1      27.022  26.332   4.354  1.00  0.00     0.134 A 
ATOM      7  C   UNL     1      26.644  25.020   4.679  1.00  0.00     0.093 A 
ATOM      8  C   UNL     1      25.547  24.780   5.508  1.00  0.00     0.123 A 
ATOM      9  C   UNL     1      24.813  25.854   6.022  1.00  0.00     0.094 A 
ATOM     10  C   UNL     1      25.172  27.168   5.710  1.00  0.00     0.146 A 
ATOM     11  O   UNL     1      24.457  28.170   6.207  1.00  0.00    -0.452 OA
ENDROOT
BRANCH   1  12
ATOM     12  C   UNL     1      23.838  30.473   6.568  1.00  0.00     0.025 A 
ATOM     13  C   UNL     1      24.096  30.995   7.847  1.00  0.00     0.016 A 
ATOM     14  C   UNL     1      23.263  31.978   8.390  1.00  0.00     0.051 A 
ATOM     15  C   UNL     1      22.171  32.462   7.658  1.00  0.00     0.157 A 
ATOM     16  C   UNL     1      22.756  30.978   5.829  1.00  0.00     0.062 A 
ATOM     17  C   UNL     1      21.919  31.962   6.370  1.00  0.00     0.158 A 
BRANCH  15  18
ATOM     18  O   UNL     1      21.340  33.441   8.202  1.00  0.00    -0.504 OA
ATOM     19  H   UNL     1      21.596  33.944   9.044  1.00  0.00     0.293 HD
ENDBRANCH  15  18
BRANCH  17  20
ATOM     20  O   UNL     1      20.845  32.428   5.612  1.00  0.00    -0.504 OA
ATOM     21  H   UNL     1      20.979  32.966   4.764  1.00  0.00     0.293 HD
ENDBRANCH  17  20
ENDBRANCH   1  12
BRANCH   2  22
ATOM     22  O   UNL     1      26.150  31.137   4.944  1.00  0.00    -0.502 OA
ATOM     23  H   UNL     1      26.734  31.661   5.585  1.00  0.00     0.293 HD
ENDBRANCH   2  22
BRANCH   6  24
ATOM     24  O   UNL     1      28.124  26.539   3.524  1.00  0.00    -0.507 OA
ATOM     25  H   UNL     1      29.014  26.086   3.696  1.00  0.00     0.293 HD
ENDBRANCH   6  24
BRANCH   8  26
ATOM     26  O   UNL     1      25.193  23.468   5.815  1.00  0.00    -0.508 OA
ATOM     27  H   UNL     1      24.644  23.245   6.637  1.00  0.00     0.293 HD
ENDBRANCH   8  26
TORSDOF 6
ENDMDL
MODEL 7
REMARK VINA RESULT:    -4.615      1.480      7.046
REMARK INTER + INTRA:          -5.845
REMARK INTER:                  -5.547
REMARK INTRA:                  -0.297
REMARK UNBOUND:                -0.286
REMARK SMILES O=c1c(O)c(-c2ccc(O)c(O)c2)oc2cc(O)cc(O)c12
REMARK SMILES IDX 5 1 3 2 2 3 1 4 22 5 20 6 19 7 17 8 16 9 15 10 14 11 6 12
REMARK SMILES IDX 7 13 8 14 9 15 13 16 11 17 10 18 12 20 4 22 21 24 18 26
REMARK H PARENT 10 19 12 21 4 23 21 25 18 27
REMARK Flexibility Score: inf
ROOT
ATOM      1  C   UNL     1      24.527  28.968   5.611  1.00  0.00     0.180 A 
ATOM      2  C   UNL     1      24.103  29.223   4.292  1.00  0.00     0.208 A 
ATOM      3  C   UNL     1      23.215  30.285   4.059  1.00  0.00     0.238 A 
ATOM      4  O   UNL     1      22.837  30.530   2.880  1.00  0.00    -0.285 OA
ATOM      5  C   UNL     1      22.751  31.058   5.144  1.00  0.00     0.111 A 
ATOM      6  C   UNL     1      21.853  32.142   4.994  1.00  0.00     0.134 A 
ATOM      7  C   UNL     1      21.431  32.857   6.125  1.00  0.00     0.093 A 
ATOM      8  C   UNL     1      21.888  32.509   7.398  1.00  0.00     0.123 A 
ATOM      9  C   UNL     1      22.776  31.440   7.552  1.00  0.00     0.094 A 
ATOM     10  C   UNL     1      23.210  30.717   6.438  1.00  0.00     0.146 A 
ATOM     11  O   UNL     1      24.057  29.708   6.611  1.00  0.00    -0.452 OA
ENDROOT
BRANCH   1  12
ATOM     12  C   UNL     1      25.475  27.878   5.936  1.00  0.00     0.025 A 
ATOM     13  C   UNL     1      26.834  28.142   6.182  1.00  0.00     0.016 A 
ATOM     14  C   UNL     1      27.707  27.101   6.510  1.00  0.00     0.051 A 
ATOM     15  C   UNL     1      27.233  25.786   6.612  1.00  0.00     0.157 A 
ATOM     16  C   UNL     1      25.000  26.563   6.060  1.00  0.00     0.062 A 
ATOM     17  C   UNL     1      25.873  25.518   6.388  1.00  0.00     0.158 A 
BRANCH  15  18
ATOM     18  O   UNL     1      28.106  24.749   6.938  1.00  0.00    -0.504 OA
ATOM     19  H   UNL     1      27.778  23.906   7.397  1.00  0.00     0.293 HD
ENDBRANCH  15  18
BRANCH  17  20
ATOM     20  O   UNL     1      25.367  24.221   6.489  1.00  0.00    -0.504 OA
ATOM     21  H   UNL     1      25.234  23.632   5.676  1.00  0.00     0.293 HD
ENDBRANCH  17  20
ENDBRANCH   1  12
BRANCH   2  22
ATOM     22  O   UNL     1      24.539  28.412   3.242  1.00  0.00    -0.502 OA
ATOM     23  H   UNL     1      23.897  27.882   2.664  1.00  0.00     0.293 HD
ENDBRANCH   2  22
BRANCH   6  24
ATOM     24  O   UNL     1      21.378  32.513   3.735  1.00  0.00    -0.507 OA
ATOM     25  H   UNL     1      20.439  32.283   3.431  1.00  0.00     0.293 HD
ENDBRANCH   6  24
BRANCH   8  26
ATOM     26  O   UNL     1      21.453  33.236   8.505  1.00  0.00    -0.508 OA
ATOM     27  H   UNL     1      20.498  33.562   8.583  1.00  0.00     0.293 HD
ENDBRANCH   8  26
TORSDOF 6
ENDMDL
MODEL 8
REMARK VINA RESULT:    -4.344      1.604      6.791
REMARK INTER + INTRA:          -5.518
REMARK INTER:                  -5.232
REMARK INTRA:                  -0.287
REMARK UNBOUND:                -0.286
REMARK SMILES O=c1c(O)c(-c2ccc(O)c(O)c2)oc2cc(O)cc(O)c12
REMARK SMILES IDX 5 1 3 2 2 3 1 4 22 5 20 6 19 7 17 8 16 9 15 10 14 11 6 12
REMARK SMILES IDX 7 13 8 14 9 15 13 16 11 17 10 18 12 20 4 22 21 24 18 26
REMARK H PARENT 10 19 12 21 4 23 21 25 18 27
REMARK Flexibility Score: inf
ROOT
ATOM      1  C   UNL     1      24.761  28.931   5.832  1.00  0.00     0.180 A 
ATOM      2  C   UNL     1      24.764  29.616   7.062  1.00  0.00     0.208 A 
ATOM      3  C   UNL     1      23.899  30.709   7.232  1.00  0.00     0.238 A 
ATOM      4  O   UNL     1      23.885  31.323   8.334  1.00  0.00    -0.285 OA
ATOM      5  C   UNL     1      23.065  31.110   6.168  1.00  0.00     0.111 A 
ATOM      6  C   UNL     1      22.168  32.203   6.257  1.00  0.00     0.134 A 
ATOM      7  C   UNL     1      21.378  32.545   5.150  1.00  0.00     0.093 A 
ATOM      8  C   UNL     1      21.466  31.819   3.960  1.00  0.00     0.123 A 
ATOM      9  C   UNL     1      22.350  30.739   3.867  1.00  0.00     0.094 A 
ATOM     10  C   UNL     1      23.144  30.381   4.959  1.00  0.00     0.146 A 
ATOM     11  O   UNL     1      23.971  29.348   4.846  1.00  0.00    -0.452 OA
ENDROOT
BRANCH   1  12
ATOM     12  C   UNL     1      25.630  27.759   5.582  1.00  0.00     0.025 A 
ATOM     13  C   UNL     1      26.838  27.881   4.873  1.00  0.00     0.016 A 
ATOM     14  C   UNL     1      27.654  26.765   4.669  1.00  0.00     0.051 A 
ATOM     15  C   UNL     1      27.283  25.515   5.182  1.00  0.00     0.157 A 
ATOM     16  C   UNL     1      25.273  26.509   6.113  1.00  0.00     0.062 A 
ATOM     17  C   UNL     1      26.088  25.388   5.910  1.00  0.00     0.158 A 
BRANCH  15  18
ATOM     18  O   UNL     1      28.097  24.402   4.977  1.00  0.00    -0.504 OA
ATOM     19  H   UNL     1      27.990  23.559   5.529  1.00  0.00     0.293 HD
ENDBRANCH  15  18
BRANCH  17  20
ATOM     20  O   UNL     1      25.694  24.160   6.441  1.00  0.00    -0.504 OA
ATOM     21  H   UNL     1      26.267  23.652   7.104  1.00  0.00     0.293 HD
ENDBRANCH  17  20
ENDBRANCH   1  12
BRANCH   2  22
ATOM     22  O   UNL     1      25.636  29.229   8.083  1.00  0.00    -0.502 OA
ATOM     23  H   UNL     1      25.883  29.845   8.848  1.00  0.00     0.293 HD
ENDBRANCH   2  22
BRANCH   6  24
ATOM     24  O   UNL     1      22.058  32.948   7.432  1.00  0.00    -0.507 OA
ATOM     25  H   UNL     1      22.511  33.848   7.536  1.00  0.00     0.293 HD
ENDBRANCH   6  24
BRANCH   8  26
ATOM     26  O   UNL     1      20.670  32.180   2.875  1.00  0.00    -0.508 OA
ATOM     27  H   UNL     1      20.915  32.957   2.273  1.00  0.00     0.293 HD
ENDBRANCH   8  26
TORSDOF 6
ENDMDL
MODEL 9
REMARK VINA RESULT:    -4.153      1.971      6.995
REMARK INTER + INTRA:          -5.289
REMARK INTER:                  -5.036
REMARK INTRA:                  -0.254
REMARK UNBOUND:                -0.286
REMARK SMILES O=c1c(O)c(-c2ccc(O)c(O)c2)oc2cc(O)cc(O)c12
REMARK SMILES IDX 5 1 3 2 2 3 1 4 22 5 20 6 19 7 17 8 16 9 15 10 14 11 6 12
REMARK SMILES IDX 7 13 8 14 9 15 13 16 11 17 10 18 12 20 4 22 21 24 18 26
REMARK H PARENT 10 19 12 21 4 23 21 25 18 27
REMARK Flexibility Score: inf
ROOT
ATOM      1  C   UNL     1      26.220  28.333   5.659  1.00  0.00     0.180 A 
ATOM      2  C   UNL     1      26.950  29.010   4.663  1.00  0.00     0.208 A 
ATOM      3  C   UNL     1      26.505  30.269   4.232  1.00  0.00     0.238 A 
ATOM      4  O   UNL     1      27.157  30.890   3.349  1.00  0.00    -0.285 OA
ATOM      5  C   UNL     1      25.331  30.820   4.787  1.00  0.00     0.111 A 
ATOM      6  C   UNL     1      24.813  32.082   4.405  1.00  0.00     0.134 A 
ATOM      7  C   UNL     1      23.633  32.557   4.998  1.00  0.00     0.093 A 
ATOM      8  C   UNL     1      22.964  31.798   5.961  1.00  0.00     0.123 A 
ATOM      9  C   UNL     1      23.472  30.552   6.342  1.00  0.00     0.094 A 
ATOM     10  C   UNL     1      24.646  30.062   5.765  1.00  0.00     0.146 A 
ATOM     11  O   UNL     1      25.110  28.878   6.148  1.00  0.00    -0.452 OA
ENDROOT
BRANCH   1  12
ATOM     12  C   UNL     1      26.636  27.011   6.179  1.00  0.00     0.025 A 
ATOM     13  C   UNL     1      27.764  26.872   7.006  1.00  0.00     0.016 A 
ATOM     14  C   UNL     1      28.124  25.617   7.505  1.00  0.00     0.051 A 
ATOM     15  C   UNL     1      27.356  24.486   7.196  1.00  0.00     0.157 A 
ATOM     16  C   UNL     1      25.856  25.879   5.890  1.00  0.00     0.062 A 
ATOM     17  C   UNL     1      26.215  24.620   6.388  1.00  0.00     0.158 A 
BRANCH  15  18
ATOM     18  O   UNL     1      27.717  23.235   7.693  1.00  0.00    -0.504 OA
ATOM     19  H   UNL     1      27.041  22.485   7.783  1.00  0.00     0.293 HD
ENDBRANCH  15  18
BRANCH  17  20
ATOM     20  O   UNL     1      25.424  23.516   6.068  1.00  0.00    -0.504 OA
ATOM     21  H   UNL     1      24.738  23.142   6.713  1.00  0.00     0.293 HD
ENDBRANCH  17  20
ENDBRANCH   1  12
BRANCH   2  22
ATOM     22  O   UNL     1      28.082  28.420   4.095  1.00  0.00    -0.502 OA
ATOM     23  H   UNL     1      28.738  28.941   3.526  1.00  0.00     0.293 HD
ENDBRANCH   2  22
BRANCH   6  24
ATOM     24  O   UNL     1      25.458  32.863   3.446  1.00  0.00    -0.507 OA
ATOM     25  H   UNL     1      26.410  33.183   3.571  1.00  0.00     0.293 HD
ENDBRANCH   6  24
BRANCH   8  26
ATOM     26  O   UNL     1      21.795  32.294   6.534  1.00  0.00    -0.508 OA
ATOM     27  H   UNL     1      20.932  31.762   6.522  1.00  0.00     0.293 HD
ENDBRANCH   8  26
TORSDOF 6
ENDMDL
