MODEL 1
REMARK VINA RESULT:    12.953      0.000      0.000
REMARK INTER + INTRA:          24.215
REMARK INTER:                  25.069
REMARK INTRA:                  -0.854
REMARK UNBOUND:                -0.854
REMARK SMILES CCCCCCCCCCCCCCCCCC(=O)[O-]
REMARK SMILES IDX 10 1 11 2 12 3 13 4 14 5 15 6 16 7 17 8 18 9 19 10 20 11
REMARK SMILES IDX 9 12 8 13 7 14 6 15 5 16 4 17 3 18 2 19 1 20
REMARK H PARENT
REMARK Flexibility Score: inf
ROOT
ATOM      1  C   UNL     1       5.005  17.835  27.466  1.00  0.00     0.000 C 
ENDROOT
BRANCH   1   2
ATOM      2  C   UNL     1       5.688  18.246  26.143  1.00  0.00     0.000 C 
BRANCH   2   3
ATOM      3  C   UNL     1       7.223  18.223  26.243  1.00  0.00     0.000 C 
BRANCH   3   4
ATOM      4  C   UNL     1       7.743  17.080  27.129  1.00  0.00     0.000 C 
BRANCH   4   5
ATOM      5  C   UNL     1       8.927  17.509  28.015  1.00  0.00     0.000 C 
BRANCH   5   6
ATOM      6  C   UNL     1       8.739  17.075  29.485  1.00  0.00     0.000 C 
BRANCH   6   7
ATOM      7  C   UNL     1       9.078  18.180  30.500  1.00  0.00     0.006 C 
BRANCH   7   8
ATOM      8  C   UNL     1       9.401  17.631  31.895  1.00  0.00     0.053 C 
BRANCH   8   9
ATOM      9  C   UNL     1       8.148  17.466  32.696  1.00  0.00     0.041 C 
ATOM     10  O   UNL     1       7.737  16.315  33.003  1.00  0.00    -0.550 OA
ATOM     11  O   UNL     1       7.445  18.585  33.125  1.00  0.00    -0.550 OA
ENDBRANCH   8   9
ENDBRANCH   7   8
ENDBRANCH   6   7
ENDBRANCH   5   6
ENDBRANCH   4   5
ENDBRANCH   3   4
ENDBRANCH   2   3
ENDBRANCH   1   2
BRANCH   1  12
ATOM     12  C   UNL     1       3.466  17.859  27.404  1.00  0.00     0.000 C 
BRANCH  12  13
ATOM     13  C   UNL     1       2.870  17.901  25.985  1.00  0.00    -0.000 C 
BRANCH  13  14
ATOM     14  C   UNL     1       1.344  18.102  25.928  1.00  0.00    -0.000 C 
BRANCH  14  15
ATOM     15  C   UNL     1       0.682  17.321  24.783  1.00  0.00    -0.000 C 
BRANCH  15  16
ATOM     16  C   UNL     1       0.238  18.264  23.659  1.00  0.00    -0.000 C 
BRANCH  16  17
ATOM     17  C   UNL     1       0.915  19.636  23.793  1.00  0.00    -0.000 C 
BRANCH  17  18
ATOM     18  C   UNL     1       1.633  20.073  22.507  1.00  0.00    -0.000 C 
BRANCH  18  19
ATOM     19  C   UNL     1       2.600  21.244  22.737  1.00  0.00    -0.003 C 
ATOM     20  C   UNL     1       4.042  20.828  22.462  1.00  0.00     0.004 C 
ENDBRANCH  18  19
ENDBRANCH  17  18
ENDBRANCH  16  17
ENDBRANCH  15  16
ENDBRANCH  14  15
ENDBRANCH  13  14
ENDBRANCH  12  13
ENDBRANCH   1  12
TORSDOF 16
ENDMDL
MODEL 2
REMARK VINA RESULT:    12.980      4.035      9.006
REMARK INTER + INTRA:          24.267
REMARK INTER:                  25.174
REMARK INTRA:                  -0.907
REMARK UNBOUND:                -0.854
REMARK SMILES CCCCCCCCCCCCCCCCCC(=O)[O-]
REMARK SMILES IDX 10 1 11 2 12 3 13 4 14 5 15 6 16 7 17 8 18 9 19 10 20 11
REMARK SMILES IDX 9 12 8 13 7 14 6 15 5 16 4 17 3 18 2 19 1 20
REMARK H PARENT
REMARK Flexibility Score: inf
ROOT
ATOM      1  C   UNL     1       8.689  16.715  27.474  1.00  0.00     0.000 C 
ENDROOT
BRANCH   1   2
ATOM      2  C   UNL     1       7.372  16.803  26.672  1.00  0.00     0.000 C 
BRANCH   2   3
ATOM      3  C   UNL     1       6.878  18.251  26.512  1.00  0.00     0.000 C 
BRANCH   3   4
ATOM      4  C   UNL     1       5.359  18.339  26.296  1.00  0.00     0.000 C 
BRANCH   4   5
ATOM      5  C   UNL     1       4.558  17.762  27.478  1.00  0.00     0.000 C 
BRANCH   5   6
ATOM      6  C   UNL     1       3.041  18.010  27.328  1.00  0.00     0.000 C 
BRANCH   6   7
ATOM      7  C   UNL     1       2.508  17.718  25.916  1.00  0.00     0.006 C 
BRANCH   7   8
ATOM      8  C   UNL     1       1.126  18.333  25.659  1.00  0.00     0.053 C 
BRANCH   8   9
ATOM      9  C   UNL     1       0.509  17.741  24.432  1.00  0.00     0.041 C 
ATOM     10  O   UNL     1       0.244  18.471  23.439  1.00  0.00    -0.550 OA
ATOM     11  O   UNL     1       0.245  16.379  24.373  1.00  0.00    -0.550 OA
ENDBRANCH   8   9
ENDBRANCH   7   8
ENDBRANCH   6   7
ENDBRANCH   5   6
ENDBRANCH   4   5
ENDBRANCH   3   4
ENDBRANCH   2   3
ENDBRANCH   1   2
BRANCH   1  12
ATOM     12  C   UNL     1       9.351  18.082  27.733  1.00  0.00     0.000 C 
BRANCH  12  13
ATOM     13  C   UNL     1       9.439  18.496  29.213  1.00  0.00    -0.000 C 
BRANCH  13  14
ATOM     14  C   UNL     1       8.941  17.438  30.214  1.00  0.00    -0.000 C 
BRANCH  14  15
ATOM     15  C   UNL     1       9.536  17.619  31.619  1.00  0.00    -0.000 C 
BRANCH  15  16
ATOM     16  C   UNL     1       8.640  16.974  32.683  1.00  0.00    -0.000 C 
BRANCH  16  17
ATOM     17  C   UNL     1       7.488  17.913  33.073  1.00  0.00    -0.000 C 
BRANCH  17  18
ATOM     18  C   UNL     1       7.726  19.363  32.624  1.00  0.00    -0.000 C 
BRANCH  18  19
ATOM     19  C   UNL     1       6.444  20.209  32.649  1.00  0.00    -0.003 C 
ATOM     20  C   UNL     1       6.733  21.630  33.125  1.00  0.00     0.004 C 
ENDBRANCH  18  19
ENDBRANCH  17  18
ENDBRANCH  16  17
ENDBRANCH  15  16
ENDBRANCH  14  15
ENDBRANCH  13  14
ENDBRANCH  12  13
ENDBRANCH   1  12
TORSDOF 16
ENDMDL
MODEL 3
REMARK VINA RESULT:    13.050      3.595      9.245
REMARK INTER + INTRA:          24.403
REMARK INTER:                  25.290
REMARK INTRA:                  -0.887
REMARK UNBOUND:                -0.854
REMARK SMILES CCCCCCCCCCCCCCCCCC(=O)[O-]
REMARK SMILES IDX 10 1 11 2 12 3 13 4 14 5 15 6 16 7 17 8 18 9 19 10 20 11
REMARK SMILES IDX 9 12 8 13 7 14 6 15 5 16 4 17 3 18 2 19 1 20
REMARK H PARENT
REMARK Flexibility Score: inf
ROOT
ATOM      1  C   UNL     1       5.875  19.163  25.379  1.00  0.00     0.000 C 
ENDROOT
BRANCH   1   2
ATOM      2  C   UNL     1       4.758  18.860  24.357  1.00  0.00     0.000 C 
BRANCH   2   3
ATOM      3  C   UNL     1       4.984  19.571  23.012  1.00  0.00     0.000 C 
BRANCH   3   4
ATOM      4  C   UNL     1       4.098  20.816  22.843  1.00  0.00     0.000 C 
BRANCH   4   5
ATOM      5  C   UNL     1       2.723  20.487  22.233  1.00  0.00     0.000 C 
BRANCH   5   6
ATOM      6  C   UNL     1       1.562  21.062  23.074  1.00  0.00     0.000 C 
BRANCH   6   7
ATOM      7  C   UNL     1       1.055  20.098  24.159  1.00  0.00     0.006 C 
BRANCH   7   8
ATOM      8  C   UNL     1       0.239  18.931  23.589  1.00  0.00     0.053 C 
BRANCH   8   9
ATOM      9  C   UNL     1       0.503  17.679  24.363  1.00  0.00     0.041 C 
ATOM     10  O   UNL     1       0.033  16.577  23.969  1.00  0.00    -0.550 OA
ATOM     11  O   UNL     1       1.287  17.721  25.508  1.00  0.00    -0.550 OA
ENDBRANCH   8   9
ENDBRANCH   7   8
ENDBRANCH   6   7
ENDBRANCH   5   6
ENDBRANCH   4   5
ENDBRANCH   3   4
ENDBRANCH   2   3
ENDBRANCH   1   2
BRANCH   1  12
ATOM     12  C   UNL     1       6.090  18.043  26.414  1.00  0.00     0.000 C 
BRANCH  12  13
ATOM     13  C   UNL     1       7.538  17.534  26.535  1.00  0.00    -0.000 C 
BRANCH  13  14
ATOM     14  C   UNL     1       7.940  17.046  27.940  1.00  0.00    -0.000 C 
BRANCH  14  15
ATOM     15  C   UNL     1       9.364  17.467  28.332  1.00  0.00    -0.000 C 
BRANCH  15  16
ATOM     16  C   UNL     1       9.393  18.057  29.748  1.00  0.00    -0.000 C 
BRANCH  16  17
ATOM     17  C   UNL     1       8.386  17.341  30.661  1.00  0.00    -0.000 C 
BRANCH  17  18
ATOM     18  C   UNL     1       8.809  17.359  32.138  1.00  0.00    -0.000 C 
BRANCH  18  19
ATOM     19  C   UNL     1       7.684  17.835  33.070  1.00  0.00    -0.003 C 
ATOM     20  C   UNL     1       7.521  19.351  33.004  1.00  0.00     0.004 C 
ENDBRANCH  18  19
ENDBRANCH  17  18
ENDBRANCH  16  17
ENDBRANCH  15  16
ENDBRANCH  14  15
ENDBRANCH  13  14
ENDBRANCH  12  13
ENDBRANCH   1  12
TORSDOF 16
ENDMDL
MODEL 4
REMARK VINA RESULT:    13.053      1.099      2.794
REMARK INTER + INTRA:          24.409
REMARK INTER:                  25.303
REMARK INTRA:                  -0.894
REMARK UNBOUND:                -0.854
REMARK SMILES CCCCCCCCCCCCCCCCCC(=O)[O-]
REMARK SMILES IDX 10 1 11 2 12 3 13 4 14 5 15 6 16 7 17 8 18 9 19 10 20 11
REMARK SMILES IDX 9 12 8 13 7 14 6 15 5 16 4 17 3 18 2 19 1 20
REMARK H PARENT
REMARK Flexibility Score: inf
ROOT
ATOM      1  C   UNL     1       6.251  18.791  25.504  1.00  0.00     0.000 C 
ENDROOT
BRANCH   1   2
ATOM      2  C   UNL     1       6.119  18.018  26.834  1.00  0.00     0.000 C 
BRANCH   2   3
ATOM      3  C   UNL     1       7.329  17.109  27.107  1.00  0.00     0.000 C 
BRANCH   3   4
ATOM      4  C   UNL     1       8.645  17.893  27.229  1.00  0.00     0.000 C 
BRANCH   4   5
ATOM      5  C   UNL     1       9.730  17.116  27.998  1.00  0.00     0.000 C 
BRANCH   5   6
ATOM      6  C   UNL     1      10.034  17.749  29.373  1.00  0.00     0.000 C 
BRANCH   6   7
ATOM      7  C   UNL     1       8.856  17.674  30.358  1.00  0.00     0.006 C 
BRANCH   7   8
ATOM      8  C   UNL     1       9.303  17.444  31.808  1.00  0.00     0.053 C 
BRANCH   8   9
ATOM      9  C   UNL     1       8.115  17.312  32.707  1.00  0.00     0.041 C 
ATOM     10  O   UNL     1       7.758  16.178  33.124  1.00  0.00    -0.550 OA
ATOM     11  O   UNL     1       7.414  18.443  33.105  1.00  0.00    -0.550 OA
ENDBRANCH   8   9
ENDBRANCH   7   8
ENDBRANCH   6   7
ENDBRANCH   5   6
ENDBRANCH   4   5
ENDBRANCH   3   4
ENDBRANCH   2   3
ENDBRANCH   1   2
BRANCH   1  12
ATOM     12  C   UNL     1       4.903  19.080  24.817  1.00  0.00     0.000 C 
BRANCH  12  13
ATOM     13  C   UNL     1       4.982  19.325  23.299  1.00  0.00    -0.000 C 
BRANCH  13  14
ATOM     14  C   UNL     1       4.515  20.720  22.842  1.00  0.00    -0.000 C 
BRANCH  14  15
ATOM     15  C   UNL     1       3.112  20.704  22.217  1.00  0.00    -0.000 C 
BRANCH  15  16
ATOM     16  C   UNL     1       2.029  20.839  23.294  1.00  0.00    -0.000 C 
BRANCH  16  17
ATOM     17  C   UNL     1       0.953  19.756  23.130  1.00  0.00    -0.000 C 
BRANCH  17  18
ATOM     18  C   UNL     1       0.345  19.316  24.471  1.00  0.00    -0.000 C 
BRANCH  18  19
ATOM     19  C   UNL     1       1.005  18.047  25.033  1.00  0.00    -0.003 C 
ATOM     20  C   UNL     1       0.400  16.792  24.410  1.00  0.00     0.004 C 
ENDBRANCH  18  19
ENDBRANCH  17  18
ENDBRANCH  16  17
ENDBRANCH  15  16
ENDBRANCH  14  15
ENDBRANCH  13  14
ENDBRANCH  12  13
ENDBRANCH   1  12
TORSDOF 16
ENDMDL
MODEL 5
REMARK VINA RESULT:    13.440      1.055      1.672
REMARK INTER + INTRA:          25.158
REMARK INTER:                  25.954
REMARK INTRA:                  -0.796
REMARK UNBOUND:                -0.854
REMARK SMILES CCCCCCCCCCCCCCCCCC(=O)[O-]
REMARK SMILES IDX 10 1 11 2 12 3 13 4 14 5 15 6 16 7 17 8 18 9 19 10 20 11
REMARK SMILES IDX 9 12 8 13 7 14 6 15 5 16 4 17 3 18 2 19 1 20
REMARK H PARENT
REMARK Flexibility Score: inf
ROOT
ATOM      1  C   UNL     1       5.833  18.532  26.357  1.00  0.00     0.000 C 
ENDROOT
BRANCH   1   2
ATOM      2  C   UNL     1       7.167  17.851  25.981  1.00  0.00     0.000 C 
BRANCH   2   3
ATOM      3  C   UNL     1       7.781  17.074  27.157  1.00  0.00     0.000 C 
BRANCH   3   4
ATOM      4  C   UNL     1       8.872  17.870  27.890  1.00  0.00     0.000 C 
BRANCH   4   5
ATOM      5  C   UNL     1       9.238  17.258  29.255  1.00  0.00     0.000 C 
BRANCH   5   6
ATOM      6  C   UNL     1       8.145  17.511  30.317  1.00  0.00     0.000 C 
BRANCH   6   7
ATOM      7  C   UNL     1       8.588  17.163  31.747  1.00  0.00     0.006 C 
BRANCH   7   8
ATOM      8  C   UNL     1       7.688  17.789  32.820  1.00  0.00     0.053 C 
BRANCH   8   9
ATOM      9  C   UNL     1       7.710  19.281  32.718  1.00  0.00     0.041 C 
ATOM     10  O   UNL     1       8.771  19.880  32.396  1.00  0.00    -0.550 OA
ATOM     11  O   UNL     1       6.554  20.012  32.958  1.00  0.00    -0.550 OA
ENDBRANCH   8   9
ENDBRANCH   7   8
ENDBRANCH   6   7
ENDBRANCH   5   6
ENDBRANCH   4   5
ENDBRANCH   3   4
ENDBRANCH   2   3
ENDBRANCH   1   2
BRANCH   1  12
ATOM     12  C   UNL     1       4.989  17.730  27.367  1.00  0.00     0.000 C 
BRANCH  12  13
ATOM     13  C   UNL     1       3.472  17.977  27.292  1.00  0.00    -0.000 C 
BRANCH  13  14
ATOM     14  C   UNL     1       2.841  17.731  25.908  1.00  0.00    -0.000 C 
BRANCH  14  15
ATOM     15  C   UNL     1       1.367  18.159  25.840  1.00  0.00    -0.000 C 
BRANCH  15  16
ATOM     16  C   UNL     1       0.673  17.548  24.617  1.00  0.00    -0.000 C 
BRANCH  16  17
ATOM     17  C   UNL     1       0.300  18.635  23.598  1.00  0.00    -0.000 C 
BRANCH  17  18
ATOM     18  C   UNL     1       1.222  19.862  23.675  1.00  0.00    -0.000 C 
BRANCH  18  19
ATOM     19  C   UNL     1       1.903  20.176  22.334  1.00  0.00    -0.003 C 
ATOM     20  C   UNL     1       3.226  20.905  22.548  1.00  0.00     0.004 C 
ENDBRANCH  18  19
ENDBRANCH  17  18
ENDBRANCH  16  17
ENDBRANCH  15  16
ENDBRANCH  14  15
ENDBRANCH  13  14
ENDBRANCH  12  13
ENDBRANCH   1  12
TORSDOF 16
ENDMDL
MODEL 6
REMARK VINA RESULT:    13.489      3.767      9.319
REMARK INTER + INTRA:          25.253
REMARK INTER:                  26.069
REMARK INTRA:                  -0.816
REMARK UNBOUND:                -0.854
REMARK SMILES CCCCCCCCCCCCCCCCCC(=O)[O-]
REMARK SMILES IDX 10 1 11 2 12 3 13 4 14 5 15 6 16 7 17 8 18 9 19 10 20 11
REMARK SMILES IDX 9 12 8 13 7 14 6 15 5 16 4 17 3 18 2 19 1 20
REMARK H PARENT
REMARK Flexibility Score: inf
ROOT
ATOM      1  C   UNL     1       7.004  17.518  25.920  1.00  0.00     0.000 C 
ENDROOT
BRANCH   1   2
ATOM      2  C   UNL     1       6.249  18.820  25.574  1.00  0.00     0.000 C 
BRANCH   2   3
ATOM      3  C   UNL     1       4.963  18.557  24.772  1.00  0.00     0.000 C 
BRANCH   3   4
ATOM      4  C   UNL     1       4.993  19.198  23.375  1.00  0.00     0.000 C 
BRANCH   4   5
ATOM      5  C   UNL     1       4.441  20.636  23.371  1.00  0.00     0.000 C 
BRANCH   5   6
ATOM      6  C   UNL     1       3.359  20.839  22.288  1.00  0.00     0.000 C 
BRANCH   6   7
ATOM      7  C   UNL     1       1.924  20.787  22.837  1.00  0.00     0.006 C 
BRANCH   7   8
ATOM      8  C   UNL     1       1.321  19.376  22.799  1.00  0.00     0.053 C 
BRANCH   8   9
ATOM      9  C   UNL     1       0.666  19.052  24.105  1.00  0.00     0.041 C 
ATOM     10  O   UNL     1       0.622  17.861  24.515  1.00  0.00    -0.550 OA
ATOM     11  O   UNL     1       0.123  20.067  24.882  1.00  0.00    -0.550 OA
ENDBRANCH   8   9
ENDBRANCH   7   8
ENDBRANCH   6   7
ENDBRANCH   5   6
ENDBRANCH   4   5
ENDBRANCH   3   4
ENDBRANCH   2   3
ENDBRANCH   1   2
BRANCH   1  12
ATOM     12  C   UNL     1       7.563  17.486  27.355  1.00  0.00     0.000 C 
BRANCH  12  13
ATOM     13  C   UNL     1       9.090  17.647  27.465  1.00  0.00    -0.000 C 
BRANCH  13  14
ATOM     14  C   UNL     1       9.612  17.925  28.887  1.00  0.00    -0.000 C 
BRANCH  14  15
ATOM     15  C   UNL     1       8.758  17.259  29.977  1.00  0.00    -0.000 C 
BRANCH  15  16
ATOM     16  C   UNL     1       9.232  17.670  31.376  1.00  0.00    -0.000 C 
BRANCH  16  17
ATOM     17  C   UNL     1       8.326  17.070  32.461  1.00  0.00    -0.000 C 
BRANCH  17  18
ATOM     18  C   UNL     1       7.421  18.120  33.125  1.00  0.00    -0.000 C 
BRANCH  18  19
ATOM     19  C   UNL     1       7.852  19.559  32.808  1.00  0.00    -0.003 C 
ATOM     20  C   UNL     1       6.655  20.506  32.817  1.00  0.00     0.004 C 
ENDBRANCH  18  19
ENDBRANCH  17  18
ENDBRANCH  16  17
ENDBRANCH  15  16
ENDBRANCH  14  15
ENDBRANCH  13  14
ENDBRANCH  12  13
ENDBRANCH   1  12
TORSDOF 16
ENDMDL
MODEL 7
REMARK VINA RESULT:    13.588      3.603      9.245
REMARK INTER + INTRA:          25.444
REMARK INTER:                  26.390
REMARK INTRA:                  -0.946
REMARK UNBOUND:                -0.854
REMARK SMILES CCCCCCCCCCCCCCCCCC(=O)[O-]
REMARK SMILES IDX 10 1 11 2 12 3 13 4 14 5 15 6 16 7 17 8 18 9 19 10 20 11
REMARK SMILES IDX 9 12 8 13 7 14 6 15 5 16 4 17 3 18 2 19 1 20
REMARK H PARENT
REMARK Flexibility Score: inf
ROOT
ATOM      1  C   UNL     1       4.883  17.689  27.217  1.00  0.00     0.000 C 
ENDROOT
BRANCH   1   2
ATOM      2  C   UNL     1       3.430  18.211  27.188  1.00  0.00     0.000 C 
BRANCH   2   3
ATOM      3  C   UNL     1       2.571  17.500  26.129  1.00  0.00     0.000 C 
BRANCH   3   4
ATOM      4  C   UNL     1       1.278  18.263  25.803  1.00  0.00     0.000 C 
BRANCH   4   5
ATOM      5  C   UNL     1       0.611  17.773  24.505  1.00  0.00     0.000 C 
BRANCH   5   6
ATOM      6  C   UNL     1       0.579  18.869  23.418  1.00  0.00     0.000 C 
BRANCH   6   7
ATOM      7  C   UNL     1       1.497  20.063  23.724  1.00  0.00     0.006 C 
BRANCH   7   8
ATOM      8  C   UNL     1       2.157  20.647  22.468  1.00  0.00     0.053 C 
BRANCH   8   9
ATOM      9  C   UNL     1       3.647  20.627  22.601  1.00  0.00     0.041 C 
ATOM     10  O   UNL     1       4.222  19.655  23.160  1.00  0.00    -0.550 OA
ATOM     11  O   UNL     1       4.405  21.673  22.090  1.00  0.00    -0.550 OA
ENDBRANCH   8   9
ENDBRANCH   7   8
ENDBRANCH   6   7
ENDBRANCH   5   6
ENDBRANCH   4   5
ENDBRANCH   3   4
ENDBRANCH   2   3
ENDBRANCH   1   2
BRANCH   1  12
ATOM     12  C   UNL     1       5.813  18.382  26.203  1.00  0.00     0.000 C 
BRANCH  12  13
ATOM     13  C   UNL     1       7.318  18.208  26.471  1.00  0.00    -0.000 C 
BRANCH  13  14
ATOM     14  C   UNL     1       7.682  17.022  27.384  1.00  0.00    -0.000 C 
BRANCH  14  15
ATOM     15  C   UNL     1       9.085  17.151  27.998  1.00  0.00    -0.000 C 
BRANCH  15  16
ATOM     16  C   UNL     1       9.069  18.086  29.213  1.00  0.00    -0.000 C 
BRANCH  16  17
ATOM     17  C   UNL     1       8.395  17.410  30.417  1.00  0.00    -0.000 C 
BRANCH  17  18
ATOM     18  C   UNL     1       8.766  18.072  31.753  1.00  0.00    -0.000 C 
BRANCH  18  19
ATOM     19  C   UNL     1       7.919  17.554  32.926  1.00  0.00    -0.003 C 
ATOM     20  C   UNL     1       7.791  16.034  32.881  1.00  0.00     0.004 C 
ENDBRANCH  18  19
ENDBRANCH  17  18
ENDBRANCH  16  17
ENDBRANCH  15  16
ENDBRANCH  14  15
ENDBRANCH  13  14
ENDBRANCH  12  13
ENDBRANCH   1  12
TORSDOF 16
ENDMDL
MODEL 8
REMARK VINA RESULT:    13.592      3.894      9.212
REMARK INTER + INTRA:          25.451
REMARK INTER:                  26.186
REMARK INTRA:                  -0.735
REMARK UNBOUND:                -0.854
REMARK SMILES CCCCCCCCCCCCCCCCCC(=O)[O-]
REMARK SMILES IDX 10 1 11 2 12 3 13 4 14 5 15 6 16 7 17 8 18 9 19 10 20 11
REMARK SMILES IDX 9 12 8 13 7 14 6 15 5 16 4 17 3 18 2 19 1 20
REMARK H PARENT
REMARK Flexibility Score: inf
ROOT
ATOM      1  C   UNL     1       7.366  18.000  26.008  1.00  0.00     0.000 C 
ENDROOT
BRANCH   1   2
ATOM      2  C   UNL     1       5.903  18.455  26.201  1.00  0.00     0.000 C 
BRANCH   2   3
ATOM      3  C   UNL     1       5.156  17.602  27.240  1.00  0.00     0.000 C 
BRANCH   3   4
ATOM      4  C   UNL     1       3.717  18.087  27.482  1.00  0.00     0.000 C 
BRANCH   4   5
ATOM      5  C   UNL     1       2.670  17.218  26.762  1.00  0.00     0.000 C 
BRANCH   5   6
ATOM      6  C   UNL     1       1.639  18.070  25.990  1.00  0.00     0.000 C 
BRANCH   6   7
ATOM      7  C   UNL     1       1.021  17.342  24.784  1.00  0.00     0.006 C 
BRANCH   7   8
ATOM      8  C   UNL     1       0.103  18.243  23.949  1.00  0.00     0.053 C 
BRANCH   8   9
ATOM      9  C   UNL     1       0.500  19.678  24.097  1.00  0.00     0.041 C 
ATOM     10  O   UNL     1       1.394  20.169  23.358  1.00  0.00    -0.550 OA
ATOM     11  O   UNL     1      -0.132  20.481  25.038  1.00  0.00    -0.550 OA
ENDBRANCH   8   9
ENDBRANCH   7   8
ENDBRANCH   6   7
ENDBRANCH   5   6
ENDBRANCH   4   5
ENDBRANCH   3   4
ENDBRANCH   2   3
ENDBRANCH   1   2
BRANCH   1  12
ATOM     12  C   UNL     1       7.912  17.153  27.173  1.00  0.00     0.000 C 
BRANCH  12  13
ATOM     13  C   UNL     1       9.429  17.272  27.412  1.00  0.00    -0.000 C 
BRANCH  13  14
ATOM     14  C   UNL     1       9.834  17.595  28.862  1.00  0.00    -0.000 C 
BRANCH  14  15
ATOM     15  C   UNL     1       8.659  17.490  29.847  1.00  0.00    -0.000 C 
BRANCH  15  16
ATOM     16  C   UNL     1       9.140  17.646  31.295  1.00  0.00    -0.000 C 
BRANCH  16  17
ATOM     17  C   UNL     1       8.149  17.000  32.275  1.00  0.00    -0.000 C 
BRANCH  17  18
ATOM     18  C   UNL     1       7.395  18.034  33.125  1.00  0.00    -0.000 C 
BRANCH  18  19
ATOM     19  C   UNL     1       7.865  19.473  32.861  1.00  0.00    -0.003 C 
ATOM     20  C   UNL     1       6.678  20.428  32.764  1.00  0.00     0.004 C 
ENDBRANCH  18  19
ENDBRANCH  17  18
ENDBRANCH  16  17
ENDBRANCH  15  16
ENDBRANCH  14  15
ENDBRANCH  13  14
ENDBRANCH  12  13
ENDBRANCH   1  12
TORSDOF 16
ENDMDL
MODEL 9
REMARK VINA RESULT:    14.197      4.338      9.233
REMARK INTER + INTRA:          26.622
REMARK INTER:                  27.286
REMARK INTRA:                  -0.664
REMARK UNBOUND:                -0.854
REMARK SMILES CCCCCCCCCCCCCCCCCC(=O)[O-]
REMARK SMILES IDX 10 1 11 2 12 3 13 4 14 5 15 6 16 7 17 8 18 9 19 10 20 11
REMARK SMILES IDX 9 12 8 13 7 14 6 15 5 16 4 17 3 18 2 19 1 20
REMARK H PARENT
REMARK Flexibility Score: inf
ROOT
ATOM      1  C   UNL     1       7.690  17.276  26.752  1.00  0.00     0.000 C 
ENDROOT
BRANCH   1   2
ATOM      2  C   UNL     1       6.344  17.520  27.468  1.00  0.00     0.000 C 
BRANCH   2   3
ATOM      3  C   UNL     1       5.307  18.194  26.555  1.00  0.00     0.000 C 
BRANCH   3   4
ATOM      4  C   UNL     1       5.952  19.070  25.469  1.00  0.00     0.000 C 
BRANCH   4   5
ATOM      5  C   UNL     1       5.756  18.500  24.053  1.00  0.00     0.000 C 
BRANCH   5   6
ATOM      6  C   UNL     1       4.586  19.181  23.309  1.00  0.00     0.000 C 
BRANCH   6   7
ATOM      7  C   UNL     1       4.675  20.716  23.299  1.00  0.00     0.006 C 
BRANCH   7   8
ATOM      8  C   UNL     1       3.813  21.358  22.205  1.00  0.00     0.053 C 
BRANCH   8   9
ATOM      9  C   UNL     1       2.376  20.979  22.380  1.00  0.00     0.041 C 
ATOM     10  O   UNL     1       1.661  21.574  23.230  1.00  0.00    -0.550 OA
ATOM     11  O   UNL     1       1.818  19.983  21.589  1.00  0.00    -0.550 OA
ENDBRANCH   8   9
ENDBRANCH   7   8
ENDBRANCH   6   7
ENDBRANCH   5   6
ENDBRANCH   4   5
ENDBRANCH   3   4
ENDBRANCH   2   3
ENDBRANCH   1   2
BRANCH   1  12
ATOM     12  C   UNL     1       8.746  16.584  27.634  1.00  0.00     0.000 C 
BRANCH  12  13
ATOM     13  C   UNL     1       9.731  17.533  28.341  1.00  0.00    -0.000 C 
BRANCH  13  14
ATOM     14  C   UNL     1       9.303  17.981  29.751  1.00  0.00    -0.000 C 
BRANCH  14  15
ATOM     15  C   UNL     1       7.992  17.326  30.212  1.00  0.00    -0.000 C 
BRANCH  15  16
ATOM     16  C   UNL     1       8.146  16.710  31.608  1.00  0.00    -0.000 C 
BRANCH  16  17
ATOM     17  C   UNL     1       8.602  17.766  32.626  1.00  0.00    -0.000 C 
BRANCH  17  18
ATOM     18  C   UNL     1       7.446  18.647  33.125  1.00  0.00    -0.000 C 
BRANCH  18  19
ATOM     19  C   UNL     1       7.489  20.068  32.542  1.00  0.00    -0.003 C 
ATOM     20  C   UNL     1       6.297  20.893  33.019  1.00  0.00     0.004 C 
ENDBRANCH  18  19
ENDBRANCH  17  18
ENDBRANCH  16  17
ENDBRANCH  15  16
ENDBRANCH  14  15
ENDBRANCH  13  14
ENDBRANCH  12  13
ENDBRANCH   1  12
TORSDOF 16
ENDMDL
