MODEL 1
REMARK VINA RESULT:    -1.077      0.000      0.000
REMARK INTER + INTRA:          -2.050
REMARK INTER:                  -1.833
REMARK INTRA:                  -0.217
REMARK UNBOUND:                -0.217
REMARK SMILES CCCCCCCCCCCCCC(=O)[O-]
REMARK SMILES IDX 8 1 9 2 10 3 11 4 12 5 13 6 14 7 15 8 16 9 7 10 6 11 5 12
REMARK SMILES IDX 4 13 3 14 2 15 1 16
REMARK H PARENT
REMARK Flexibility Score: inf
ROOT
ATOM      1  C   UNL     1      -2.135  -7.602  -5.054  1.00  0.00     0.000 C 
ENDROOT
BRANCH   1   2
ATOM      2  C   UNL     1      -2.781  -8.980  -5.283  1.00  0.00     0.000 C 
BRANCH   2   3
ATOM      3  C   UNL     1      -4.235  -8.875  -5.771  1.00  0.00     0.000 C 
BRANCH   3   4
ATOM      4  C   UNL     1      -4.728 -10.160  -6.454  1.00  0.00     0.000 C 
BRANCH   4   5
ATOM      5  C   UNL     1      -4.035 -11.396  -5.860  1.00  0.00     0.006 C 
BRANCH   5   6
ATOM      6  C   UNL     1      -5.034 -12.382  -5.243  1.00  0.00     0.053 C 
BRANCH   6   7
ATOM      7  C   UNL     1      -6.383 -12.283  -5.887  1.00  0.00     0.041 C 
ATOM      8  O   UNL     1      -6.642 -12.955  -6.920  1.00  0.00    -0.550 OA
ATOM      9  O   UNL     1      -7.364 -11.474  -5.328  1.00  0.00    -0.550 OA
ENDBRANCH   6   7
ENDBRANCH   5   6
ENDBRANCH   4   5
ENDBRANCH   3   4
ENDBRANCH   2   3
ENDBRANCH   1   2
BRANCH   1  10
ATOM     10  C   UNL     1      -0.607  -7.678  -4.877  1.00  0.00     0.000 C 
BRANCH  10  11
ATOM     11  C   UNL     1       0.210  -6.781  -5.826  1.00  0.00    -0.000 C 
BRANCH  11  12
ATOM     12  C   UNL     1       1.195  -5.862  -5.081  1.00  0.00    -0.000 C 
BRANCH  12  13
ATOM     13  C   UNL     1       2.640  -6.383  -5.134  1.00  0.00    -0.000 C 
BRANCH  13  14
ATOM     14  C   UNL     1       3.678  -5.249  -5.072  1.00  0.00    -0.000 C 
BRANCH  14  15
ATOM     15  C   UNL     1       5.112  -5.772  -4.896  1.00  0.00    -0.003 C 
ATOM     16  C   UNL     1       6.046  -5.331  -6.023  1.00  0.00     0.004 C 
ENDBRANCH  14  15
ENDBRANCH  13  14
ENDBRANCH  12  13
ENDBRANCH  11  12
ENDBRANCH  10  11
ENDBRANCH   1  10
TORSDOF 12
ENDMDL
MODEL 2
REMARK VINA RESULT:     1.325      1.031      2.076
REMARK INTER + INTRA:           2.038
REMARK INTER:                   1.861
REMARK INTRA:                   0.178
REMARK UNBOUND:                -0.217
REMARK SMILES CCCCCCCCCCCCCC(=O)[O-]
REMARK SMILES IDX 8 1 9 2 10 3 11 4 12 5 13 6 14 7 15 8 16 9 7 10 6 11 5 12
REMARK SMILES IDX 4 13 3 14 2 15 1 16
REMARK H PARENT
REMARK Flexibility Score: inf
ROOT
ATOM      1  C   UNL     1      -3.082  -8.641  -7.080  1.00  0.00     0.000 C 
ENDROOT
BRANCH   1   2
ATOM      2  C   UNL     1      -4.049  -9.733  -6.589  1.00  0.00     0.000 C 
BRANCH   2   3
ATOM      3  C   UNL     1      -3.725 -10.210  -5.164  1.00  0.00     0.000 C 
BRANCH   3   4
ATOM      4  C   UNL     1      -3.515 -11.730  -5.079  1.00  0.00     0.000 C 
BRANCH   4   5
ATOM      5  C   UNL     1      -4.856 -12.459  -4.901  1.00  0.00     0.006 C 
BRANCH   5   6
ATOM      6  C   UNL     1      -6.047 -11.493  -4.906  1.00  0.00     0.053 C 
BRANCH   6   7
ATOM      7  C   UNL     1      -7.181 -12.012  -5.736  1.00  0.00     0.041 C 
ATOM      8  O   UNL     1      -8.362 -11.948  -5.306  1.00  0.00    -0.550 OA
ATOM      9  O   UNL     1      -6.936 -12.536  -6.999  1.00  0.00    -0.550 OA
ENDBRANCH   6   7
ENDBRANCH   5   6
ENDBRANCH   4   5
ENDBRANCH   3   4
ENDBRANCH   2   3
ENDBRANCH   1   2
BRANCH   1  10
ATOM     10  C   UNL     1      -2.898  -7.500  -6.063  1.00  0.00     0.000 C 
BRANCH  10  11
ATOM     11  C   UNL     1      -1.839  -7.754  -4.974  1.00  0.00    -0.000 C 
BRANCH  11  12
ATOM     12  C   UNL     1      -0.757  -6.661  -4.924  1.00  0.00    -0.000 C 
BRANCH  12  13
ATOM     13  C   UNL     1       0.667  -7.240  -4.949  1.00  0.00    -0.000 C 
BRANCH  13  14
ATOM     14  C   UNL     1       1.749  -6.146  -4.966  1.00  0.00    -0.000 C 
BRANCH  14  15
ATOM     15  C   UNL     1       3.172  -6.724  -4.923  1.00  0.00    -0.003 C 
ATOM     16  C   UNL     1       4.207  -5.799  -5.562  1.00  0.00     0.004 C 
ENDBRANCH  14  15
ENDBRANCH  13  14
ENDBRANCH  12  13
ENDBRANCH  11  12
ENDBRANCH  10  11
ENDBRANCH   1  10
TORSDOF 12
ENDMDL
MODEL 3
REMARK VINA RESULT:     1.580     16.870     19.526
REMARK INTER + INTRA:           2.472
REMARK INTER:                   2.390
REMARK INTRA:                   0.081
REMARK UNBOUND:                -0.217
REMARK SMILES CCCCCCCCCCCCCC(=O)[O-]
REMARK SMILES IDX 8 1 9 2 10 3 11 4 12 5 13 6 14 7 15 8 16 9 7 10 6 11 5 12
REMARK SMILES IDX 4 13 3 14 2 15 1 16
REMARK H PARENT
REMARK Flexibility Score: inf
ROOT
ATOM      1  C   UNL     1       8.876  -7.860 -21.212  1.00  0.00     0.000 C 
ENDROOT
BRANCH   1   2
ATOM      2  C   UNL     1       8.997  -8.914 -22.327  1.00  0.00     0.000 C 
BRANCH   2   3
ATOM      3  C   UNL     1       9.026 -10.350 -21.779  1.00  0.00     0.000 C 
BRANCH   3   4
ATOM      4  C   UNL     1       9.107 -10.401 -20.246  1.00  0.00     0.000 C 
BRANCH   4   5
ATOM      5  C   UNL     1       7.758 -10.028 -19.613  1.00  0.00     0.006 C 
BRANCH   5   6
ATOM      6  C   UNL     1       7.927  -9.267 -18.292  1.00  0.00     0.053 C 
BRANCH   6   7
ATOM      7  C   UNL     1       8.682 -10.072 -17.279  1.00  0.00     0.041 C 
ATOM      8  O   UNL     1       9.113  -9.526 -16.229  1.00  0.00    -0.550 OA
ATOM      9  O   UNL     1       8.881 -11.432 -17.479  1.00  0.00    -0.550 OA
ENDBRANCH   6   7
ENDBRANCH   5   6
ENDBRANCH   4   5
ENDBRANCH   3   4
ENDBRANCH   2   3
ENDBRANCH   1   2
BRANCH   1  10
ATOM     10  C   UNL     1       8.084  -6.613 -21.648  1.00  0.00     0.000 C 
BRANCH  10  11
ATOM     11  C   UNL     1       8.898  -5.553 -22.413  1.00  0.00    -0.000 C 
BRANCH  11  12
ATOM     12  C   UNL     1       8.245  -5.144 -23.746  1.00  0.00    -0.000 C 
BRANCH  12  13
ATOM     13  C   UNL     1       8.081  -6.332 -24.708  1.00  0.00    -0.000 C 
BRANCH  13  14
ATOM     14  C   UNL     1       6.605  -6.636 -25.022  1.00  0.00    -0.000 C 
BRANCH  14  15
ATOM     15  C   UNL     1       5.653  -5.561 -24.474  1.00  0.00    -0.003 C 
ATOM     16  C   UNL     1       4.210  -5.756 -24.938  1.00  0.00     0.004 C 
ENDBRANCH  14  15
ENDBRANCH  13  14
ENDBRANCH  12  13
ENDBRANCH  11  12
ENDBRANCH  10  11
ENDBRANCH   1  10
TORSDOF 12
ENDMDL
MODEL 4
REMARK VINA RESULT:     1.742      2.140      2.665
REMARK INTER + INTRA:           2.747
REMARK INTER:                   0.082
REMARK INTRA:                   2.664
REMARK UNBOUND:                -0.217
REMARK SMILES CCCCCCCCCCCCCC(=O)[O-]
REMARK SMILES IDX 8 1 9 2 10 3 11 4 12 5 13 6 14 7 15 8 16 9 7 10 6 11 5 12
REMARK SMILES IDX 4 13 3 14 2 15 1 16
REMARK H PARENT
REMARK Flexibility Score: inf
ROOT
ATOM      1  C   UNL     1      -2.480  -7.873  -5.134  1.00  0.00     0.000 C 
ENDROOT
BRANCH   1   2
ATOM      2  C   UNL     1      -3.251  -8.997  -5.848  1.00  0.00     0.000 C 
BRANCH   2   3
ATOM      3  C   UNL     1      -3.758 -10.074  -4.875  1.00  0.00     0.000 C 
BRANCH   3   4
ATOM      4  C   UNL     1      -4.971 -10.844  -5.420  1.00  0.00     0.000 C 
BRANCH   4   5
ATOM      5  C   UNL     1      -5.082 -10.686  -6.944  1.00  0.00     0.006 C 
BRANCH   5   6
ATOM      6  C   UNL     1      -4.273  -9.490  -7.464  1.00  0.00     0.053 C 
BRANCH   6   7
ATOM      7  C   UNL     1      -4.407  -9.331  -8.947  1.00  0.00     0.041 C 
ATOM      8  O   UNL     1      -4.885  -8.271  -9.430  1.00  0.00    -0.550 OA
ATOM      9  O   UNL     1      -3.975 -10.340  -9.798  1.00  0.00    -0.550 OA
ENDBRANCH   6   7
ENDBRANCH   5   6
ENDBRANCH   4   5
ENDBRANCH   3   4
ENDBRANCH   2   3
ENDBRANCH   1   2
BRANCH   1  10
ATOM     10  C   UNL     1      -1.089  -7.618  -5.742  1.00  0.00     0.000 C 
BRANCH  10  11
ATOM     11  C   UNL     1      -0.139  -6.769  -4.877  1.00  0.00    -0.000 C 
BRANCH  11  12
ATOM     12  C   UNL     1       1.346  -7.009  -5.205  1.00  0.00    -0.000 C 
BRANCH  12  13
ATOM     13  C   UNL     1       2.188  -5.728  -5.090  1.00  0.00    -0.000 C 
BRANCH  13  14
ATOM     14  C   UNL     1       3.683  -6.023  -4.877  1.00  0.00    -0.000 C 
BRANCH  14  15
ATOM     15  C   UNL     1       4.591  -5.014  -5.599  1.00  0.00    -0.003 C 
ATOM     16  C   UNL     1       5.903  -5.635  -6.079  1.00  0.00     0.004 C 
ENDBRANCH  14  15
ENDBRANCH  13  14
ENDBRANCH  12  13
ENDBRANCH  11  12
ENDBRANCH  10  11
ENDBRANCH   1  10
TORSDOF 12
ENDMDL
