MODEL 1
REMARK VINA RESULT:     0.741      0.000      0.000
REMARK INTER + INTRA:           0.788
REMARK INTER:                   1.174
REMARK INTRA:                  -0.387
REMARK UNBOUND:                -0.387
REMARK SMILES CCCCCCCCCCCC(=O)[O-]
REMARK SMILES IDX 7 1 8 2 9 3 10 4 11 5 12 6 13 7 14 8 6 9 5 10 4 11 3 12 2 13
REMARK SMILES IDX 1 14
REMARK H PARENT
REMARK Flexibility Score: inf
ROOT
ATOM      1  C   UNL     1     -32.665  19.224 -10.460  1.00  0.00     0.000 C 
ENDROOT
BRANCH   1   2
ATOM      2  C   UNL     1     -31.321  18.478 -10.377  1.00  0.00     0.000 C 
BRANCH   2   3
ATOM      3  C   UNL     1     -31.490  16.952 -10.422  1.00  0.00     0.000 C 
BRANCH   3   4
ATOM      4  C   UNL     1     -30.286  16.244 -11.061  1.00  0.00     0.006 C 
BRANCH   4   5
ATOM      5  C   UNL     1     -29.092  17.195 -11.184  1.00  0.00     0.053 C 
BRANCH   5   6
ATOM      6  C   UNL     1     -28.794  17.481 -12.622  1.00  0.00     0.041 C 
ATOM      7  O   UNL     1     -28.352  18.610 -12.965  1.00  0.00    -0.550 OA
ATOM      8  O   UNL     1     -28.955  16.486 -13.577  1.00  0.00    -0.550 OA
ENDBRANCH   5   6
ENDBRANCH   4   5
ENDBRANCH   3   4
ENDBRANCH   2   3
ENDBRANCH   1   2
BRANCH   1   9
ATOM      9  C   UNL     1     -32.604  20.628  -9.836  1.00  0.00     0.000 C 
BRANCH   9  10
ATOM     10  C   UNL     1     -31.787  21.617 -10.685  1.00  0.00    -0.000 C 
BRANCH  10  11
ATOM     11  C   UNL     1     -31.101  22.698  -9.834  1.00  0.00    -0.000 C 
BRANCH  11  12
ATOM     12  C   UNL     1     -31.787  24.070  -9.958  1.00  0.00    -0.000 C 
BRANCH  12  13
ATOM     13  C   UNL     1     -33.300  23.953 -10.201  1.00  0.00    -0.003 C 
ATOM     14  C   UNL     1     -34.121  24.123  -8.923  1.00  0.00     0.004 C 
ENDBRANCH  12  13
ENDBRANCH  11  12
ENDBRANCH  10  11
ENDBRANCH   9  10
ENDBRANCH   1   9
TORSDOF 10
ENDMDL
MODEL 2
REMARK VINA RESULT:     1.405      0.846      1.105
REMARK INTER + INTRA:           1.840
REMARK INTER:                   1.472
REMARK INTRA:                   0.368
REMARK UNBOUND:                -0.387
REMARK SMILES CCCCCCCCCCCC(=O)[O-]
REMARK SMILES IDX 7 1 8 2 9 3 10 4 11 5 12 6 13 7 14 8 6 9 5 10 4 11 3 12 2 13
REMARK SMILES IDX 1 14
REMARK H PARENT
REMARK Flexibility Score: inf
ROOT
ATOM      1  C   UNL     1     -31.490  19.240 -10.671  1.00  0.00     0.000 C 
ENDROOT
BRANCH   1   2
ATOM      2  C   UNL     1     -29.979  19.433 -10.451  1.00  0.00     0.000 C 
BRANCH   2   3
ATOM      3  C   UNL     1     -29.189  18.124 -10.606  1.00  0.00     0.000 C 
BRANCH   3   4
ATOM      4  C   UNL     1     -30.100  16.907 -10.822  1.00  0.00     0.006 C 
BRANCH   4   5
ATOM      5  C   UNL     1     -29.423  15.869 -11.722  1.00  0.00     0.053 C 
BRANCH   5   6
ATOM      6  C   UNL     1     -29.031  16.482 -13.029  1.00  0.00     0.041 C 
ATOM      7  O   UNL     1     -28.732  17.704 -13.091  1.00  0.00    -0.550 OA
ATOM      8  O   UNL     1     -28.948  15.694 -14.170  1.00  0.00    -0.550 OA
ENDBRANCH   5   6
ENDBRANCH   4   5
ENDBRANCH   3   4
ENDBRANCH   2   3
ENDBRANCH   1   2
BRANCH   1   9
ATOM      9  C   UNL     1     -32.320  20.430 -10.161  1.00  0.00     0.000 C 
BRANCH   9  10
ATOM     10  C   UNL     1     -31.943  21.751 -10.853  1.00  0.00    -0.000 C 
BRANCH  10  11
ATOM     11  C   UNL     1     -31.137  22.687  -9.939  1.00  0.00    -0.000 C 
BRANCH  11  12
ATOM     12  C   UNL     1     -31.768  24.086  -9.819  1.00  0.00    -0.000 C 
BRANCH  12  13
ATOM     13  C   UNL     1     -33.279  24.075 -10.099  1.00  0.00    -0.003 C 
ATOM     14  C   UNL     1     -34.119  24.114  -8.822  1.00  0.00     0.004 C 
ENDBRANCH  12  13
ENDBRANCH  11  12
ENDBRANCH  10  11
ENDBRANCH   9  10
ENDBRANCH   1   9
TORSDOF 10
ENDMDL
MODEL 3
REMARK VINA RESULT:     2.056      3.306      6.920
REMARK INTER + INTRA:           2.871
REMARK INTER:                   3.493
REMARK INTRA:                  -0.623
REMARK UNBOUND:                -0.387
REMARK SMILES CCCCCCCCCCCC(=O)[O-]
REMARK SMILES IDX 7 1 8 2 9 3 10 4 11 5 12 6 13 7 14 8 6 9 5 10 4 11 3 12 2 13
REMARK SMILES IDX 1 14
REMARK H PARENT
REMARK Flexibility Score: inf
ROOT
ATOM      1  C   UNL     1     -32.410  18.773 -10.201  1.00  0.00     0.000 C 
ENDROOT
BRANCH   1   2
ATOM      2  C   UNL     1     -32.520  20.299 -10.372  1.00  0.00     0.000 C 
BRANCH   2   3
ATOM      3  C   UNL     1     -31.147  20.988 -10.412  1.00  0.00     0.000 C 
BRANCH   3   4
ATOM      4  C   UNL     1     -31.253  22.500 -10.662  1.00  0.00     0.006 C 
BRANCH   4   5
ATOM      5  C   UNL     1     -31.824  23.220  -9.437  1.00  0.00     0.053 C 
BRANCH   5   6
ATOM      6  C   UNL     1     -33.135  23.860  -9.766  1.00  0.00     0.041 C 
ATOM      7  O   UNL     1     -33.428  24.125 -10.962  1.00  0.00    -0.550 OA
ATOM      8  O   UNL     1     -34.056  24.117  -8.759  1.00  0.00    -0.550 OA
ENDBRANCH   5   6
ENDBRANCH   4   5
ENDBRANCH   3   4
ENDBRANCH   2   3
ENDBRANCH   1   2
BRANCH   1   9
ATOM      9  C   UNL     1     -30.967  18.263 -10.338  1.00  0.00     0.000 C 
BRANCH   9  10
ATOM     10  C   UNL     1     -30.897  16.747 -10.588  1.00  0.00    -0.000 C 
BRANCH  10  11
ATOM     11  C   UNL     1     -29.643  16.334 -11.375  1.00  0.00    -0.000 C 
BRANCH  11  12
ATOM     12  C   UNL     1     -28.921  17.536 -12.009  1.00  0.00    -0.000 C 
BRANCH  12  13
ATOM     13  C   UNL     1     -28.785  17.404 -13.534  1.00  0.00    -0.003 C 
ATOM     14  C   UNL     1     -28.973  15.968 -14.023  1.00  0.00     0.004 C 
ENDBRANCH  12  13
ENDBRANCH  11  12
ENDBRANCH  10  11
ENDBRANCH   9  10
ENDBRANCH   1   9
TORSDOF 10
ENDMDL
MODEL 4
REMARK VINA RESULT:     2.580      3.289      6.634
REMARK INTER + INTRA:           3.701
REMARK INTER:                   3.293
REMARK INTRA:                   0.408
REMARK UNBOUND:                -0.387
REMARK SMILES CCCCCCCCCCCC(=O)[O-]
REMARK SMILES IDX 7 1 8 2 9 3 10 4 11 5 12 6 13 7 14 8 6 9 5 10 4 11 3 12 2 13
REMARK SMILES IDX 1 14
REMARK H PARENT
REMARK Flexibility Score: inf
ROOT
ATOM      1  C   UNL     1     -31.346  18.526 -10.421  1.00  0.00     0.000 C 
ENDROOT
BRANCH   1   2
ATOM      2  C   UNL     1     -32.666  19.317 -10.390  1.00  0.00     0.000 C 
BRANCH   2   3
ATOM      3  C   UNL     1     -32.462  20.790 -10.003  1.00  0.00     0.000 C 
BRANCH   3   4
ATOM      4  C   UNL     1     -31.140  21.362 -10.535  1.00  0.00     0.006 C 
BRANCH   4   5
ATOM      5  C   UNL     1     -31.296  22.837 -10.919  1.00  0.00     0.053 C 
BRANCH   5   6
ATOM      6  C   UNL     1     -32.215  23.534  -9.967  1.00  0.00     0.041 C 
ATOM      7  O   UNL     1     -31.769  24.005  -8.887  1.00  0.00    -0.550 OA
ATOM      8  O   UNL     1     -33.553  23.709 -10.294  1.00  0.00    -0.550 OA
ENDBRANCH   5   6
ENDBRANCH   4   5
ENDBRANCH   3   4
ENDBRANCH   2   3
ENDBRANCH   1   2
BRANCH   1   9
ATOM      9  C   UNL     1     -31.548  17.026 -10.154  1.00  0.00     0.000 C 
BRANCH   9  10
ATOM     10  C   UNL     1     -30.706  16.141 -11.089  1.00  0.00    -0.000 C 
BRANCH  10  11
ATOM     11  C   UNL     1     -29.222  16.542 -11.104  1.00  0.00    -0.000 C 
BRANCH  11  12
ATOM     12  C   UNL     1     -28.941  17.736 -12.033  1.00  0.00    -0.000 C 
BRANCH  12  13
ATOM     13  C   UNL     1     -28.855  17.323 -13.511  1.00  0.00    -0.003 C 
ATOM     14  C   UNL     1     -28.929  15.809 -13.709  1.00  0.00     0.004 C 
ENDBRANCH  12  13
ENDBRANCH  11  12
ENDBRANCH  10  11
ENDBRANCH   9  10
ENDBRANCH   1   9
TORSDOF 10
ENDMDL
MODEL 5
REMARK VINA RESULT:     2.771      3.241      6.826
REMARK INTER + INTRA:           4.004
REMARK INTER:                   4.631
REMARK INTRA:                  -0.628
REMARK UNBOUND:                -0.387
REMARK SMILES CCCCCCCCCCCC(=O)[O-]
REMARK SMILES IDX 7 1 8 2 9 3 10 4 11 5 12 6 13 7 14 8 6 9 5 10 4 11 3 12 2 13
REMARK SMILES IDX 1 14
REMARK H PARENT
REMARK Flexibility Score: inf
ROOT
ATOM      1  C   UNL     1     -31.207  18.330 -10.479  1.00  0.00     0.000 C 
ENDROOT
BRANCH   1   2
ATOM      2  C   UNL     1     -32.623  18.934 -10.436  1.00  0.00     0.000 C 
BRANCH   2   3
ATOM      3  C   UNL     1     -32.617  20.423 -10.059  1.00  0.00     0.000 C 
BRANCH   3   4
ATOM      4  C   UNL     1     -31.284  21.111 -10.389  1.00  0.00     0.006 C 
BRANCH   4   5
ATOM      5  C   UNL     1     -31.519  22.489 -11.014  1.00  0.00     0.053 C 
BRANCH   5   6
ATOM      6  C   UNL     1     -32.205  23.397 -10.042  1.00  0.00     0.041 C 
ATOM      7  O   UNL     1     -33.406  23.726 -10.223  1.00  0.00    -0.550 OA
ATOM      8  O   UNL     1     -31.533  23.838  -8.909  1.00  0.00    -0.550 OA
ENDBRANCH   5   6
ENDBRANCH   4   5
ENDBRANCH   3   4
ENDBRANCH   2   3
ENDBRANCH   1   2
BRANCH   1   9
ATOM      9  C   UNL     1     -31.219  16.793 -10.502  1.00  0.00     0.000 C 
BRANCH   9  10
ATOM     10  C   UNL     1     -29.923  16.201 -11.083  1.00  0.00    -0.000 C 
BRANCH  10  11
ATOM     11  C   UNL     1     -28.925  17.284 -11.522  1.00  0.00    -0.000 C 
BRANCH  11  12
ATOM     12  C   UNL     1     -28.797  17.384 -13.052  1.00  0.00    -0.000 C 
BRANCH  12  13
ATOM     13  C   UNL     1     -29.416  16.178 -13.775  1.00  0.00    -0.003 C 
ATOM     14  C   UNL     1     -28.374  15.308 -14.477  1.00  0.00     0.004 C 
ENDBRANCH  12  13
ENDBRANCH  11  12
ENDBRANCH  10  11
ENDBRANCH   9  10
ENDBRANCH   1   9
TORSDOF 10
ENDMDL
