MODEL 1
REMARK VINA RESULT:    -4.427      0.000      0.000
REMARK INTER + INTRA:         -11.271
REMARK INTER:                  -8.567
REMARK INTRA:                  -2.704
REMARK UNBOUND:                -2.704
REMARK SMILES CCCCCCCCCCCCCCCCCC(=O)[O-]
REMARK SMILES IDX 10 1 11 2 12 3 13 4 14 5 15 6 16 7 17 8 18 9 19 10 20 11
REMARK SMILES IDX 9 12 8 13 7 14 6 15 5 16 4 17 3 18 2 19 1 20
REMARK H PARENT
REMARK Flexibility Score: inf
ROOT
ATOM      1  C   UNL     1      18.055  -5.935 -17.745  1.00  0.00     0.000 C 
ENDROOT
BRANCH   1   2
ATOM      2  C   UNL     1      19.513  -6.423 -17.648  1.00  0.00     0.000 C 
BRANCH   2   3
ATOM      3  C   UNL     1      20.575  -5.308 -17.683  1.00  0.00     0.000 C 
BRANCH   3   4
ATOM      4  C   UNL     1      20.022  -3.891 -17.943  1.00  0.00     0.000 C 
BRANCH   4   5
ATOM      5  C   UNL     1      20.920  -2.990 -18.812  1.00  0.00     0.000 C 
BRANCH   5   6
ATOM      6  C   UNL     1      20.241  -2.403 -20.065  1.00  0.00     0.000 C 
BRANCH   6   7
ATOM      7  C   UNL     1      19.579  -3.440 -20.994  1.00  0.00     0.006 C 
BRANCH   7   8
ATOM      8  C   UNL     1      20.568  -4.258 -21.838  1.00  0.00     0.053 C 
BRANCH   8   9
ATOM      9  C   UNL     1      20.541  -5.712 -21.479  1.00  0.00     0.041 C 
ATOM     10  O   UNL     1      19.448  -6.280 -21.218  1.00  0.00    -0.550 OA
ATOM     11  O   UNL     1      21.726  -6.432 -21.400  1.00  0.00    -0.550 OA
ENDBRANCH   8   9
ENDBRANCH   7   8
ENDBRANCH   6   7
ENDBRANCH   5   6
ENDBRANCH   4   5
ENDBRANCH   3   4
ENDBRANCH   2   3
ENDBRANCH   1   2
BRANCH   1  12
ATOM     12  C   UNL     1      17.279  -6.023 -16.413  1.00  0.00     0.000 C 
BRANCH  12  13
ATOM     13  C   UNL     1      16.748  -4.656 -15.949  1.00  0.00    -0.000 C 
BRANCH  13  14
ATOM     14  C   UNL     1      15.923  -3.930 -17.028  1.00  0.00    -0.000 C 
BRANCH  14  15
ATOM     15  C   UNL     1      16.542  -2.625 -17.562  1.00  0.00    -0.000 C 
BRANCH  15  16
ATOM     16  C   UNL     1      16.641  -2.588 -19.095  1.00  0.00    -0.000 C 
BRANCH  16  17
ATOM     17  C   UNL     1      15.440  -3.255 -19.786  1.00  0.00    -0.000 C 
BRANCH  17  18
ATOM     18  C   UNL     1      15.837  -4.328 -20.822  1.00  0.00    -0.000 C 
BRANCH  18  19
ATOM     19  C   UNL     1      15.966  -3.746 -22.237  1.00  0.00    -0.003 C 
ATOM     20  C   UNL     1      16.872  -4.610 -23.109  1.00  0.00     0.004 C 
ENDBRANCH  18  19
ENDBRANCH  17  18
ENDBRANCH  16  17
ENDBRANCH  15  16
ENDBRANCH  14  15
ENDBRANCH  13  14
ENDBRANCH  12  13
ENDBRANCH   1  12
TORSDOF 16
ENDMDL
MODEL 2
REMARK VINA RESULT:    -4.374      2.345      5.241
REMARK INTER + INTRA:         -11.169
REMARK INTER:                  -8.212
REMARK INTRA:                  -2.957
REMARK UNBOUND:                -2.704
REMARK SMILES CCCCCCCCCCCCCCCCCC(=O)[O-]
REMARK SMILES IDX 10 1 11 2 12 3 13 4 14 5 15 6 16 7 17 8 18 9 19 10 20 11
REMARK SMILES IDX 9 12 8 13 7 14 6 15 5 16 4 17 3 18 2 19 1 20
REMARK H PARENT
REMARK Flexibility Score: inf
ROOT
ATOM      1  C   UNL     1      20.532  -3.687 -18.016  1.00  0.00     0.000 C 
ENDROOT
BRANCH   1   2
ATOM      2  C   UNL     1      21.198  -5.060 -17.800  1.00  0.00     0.000 C 
BRANCH   2   3
ATOM      3  C   UNL     1      20.270  -6.149 -17.230  1.00  0.00     0.000 C 
BRANCH   3   4
ATOM      4  C   UNL     1      18.770  -5.947 -17.528  1.00  0.00     0.000 C 
BRANCH   4   5
ATOM      5  C   UNL     1      17.837  -6.094 -16.311  1.00  0.00     0.000 C 
BRANCH   5   6
ATOM      6  C   UNL     1      16.871  -4.914 -16.081  1.00  0.00     0.000 C 
BRANCH   6   7
ATOM      7  C   UNL     1      16.686  -3.977 -17.292  1.00  0.00     0.006 C 
BRANCH   7   8
ATOM      8  C   UNL     1      15.349  -4.152 -18.030  1.00  0.00     0.053 C 
BRANCH   8   9
ATOM      9  C   UNL     1      15.328  -3.417 -19.334  1.00  0.00     0.041 C 
ATOM     10  O   UNL     1      15.645  -2.199 -19.380  1.00  0.00    -0.550 OA
ATOM     11  O   UNL     1      14.925  -4.066 -20.494  1.00  0.00    -0.550 OA
ENDBRANCH   8   9
ENDBRANCH   7   8
ENDBRANCH   6   7
ENDBRANCH   5   6
ENDBRANCH   4   5
ENDBRANCH   3   4
ENDBRANCH   2   3
ENDBRANCH   1   2
BRANCH   1  12
ATOM     12  C   UNL     1      21.175  -2.855 -19.146  1.00  0.00     0.000 C 
BRANCH  12  13
ATOM     13  C   UNL     1      20.393  -2.949 -20.468  1.00  0.00    -0.000 C 
BRANCH  13  14
ATOM     14  C   UNL     1      18.931  -3.391 -20.273  1.00  0.00    -0.000 C 
BRANCH  14  15
ATOM     15  C   UNL     1      18.518  -4.656 -21.049  1.00  0.00    -0.000 C 
BRANCH  15  16
ATOM     16  C   UNL     1      19.350  -4.882 -22.321  1.00  0.00    -0.000 C 
BRANCH  16  17
ATOM     17  C   UNL     1      20.071  -6.240 -22.327  1.00  0.00    -0.000 C 
BRANCH  17  18
ATOM     18  C   UNL     1      21.313  -6.286 -21.411  1.00  0.00    -0.000 C 
BRANCH  18  19
ATOM     19  C   UNL     1      21.348  -7.556 -20.548  1.00  0.00    -0.003 C 
ATOM     20  C   UNL     1      19.949  -8.133 -20.360  1.00  0.00     0.004 C 
ENDBRANCH  18  19
ENDBRANCH  17  18
ENDBRANCH  16  17
ENDBRANCH  15  16
ENDBRANCH  14  15
ENDBRANCH  13  14
ENDBRANCH  12  13
ENDBRANCH   1  12
TORSDOF 16
ENDMDL
MODEL 3
REMARK VINA RESULT:    -4.339      9.492     12.322
REMARK INTER + INTRA:         -11.102
REMARK INTER:                  -8.364
REMARK INTRA:                  -2.738
REMARK UNBOUND:                -2.704
REMARK SMILES CCCCCCCCCCCCCCCCCC(=O)[O-]
REMARK SMILES IDX 10 1 11 2 12 3 13 4 14 5 15 6 16 7 17 8 18 9 19 10 20 11
REMARK SMILES IDX 9 12 8 13 7 14 6 15 5 16 4 17 3 18 2 19 1 20
REMARK H PARENT
REMARK Flexibility Score: inf
ROOT
ATOM      1  C   UNL     1       7.679  -9.143 -22.348  1.00  0.00     0.000 C 
ENDROOT
BRANCH   1   2
ATOM      2  C   UNL     1       6.991  -8.163 -21.377  1.00  0.00     0.000 C 
BRANCH   2   3
ATOM      3  C   UNL     1       7.751  -6.844 -21.140  1.00  0.00     0.000 C 
BRANCH   3   4
ATOM      4  C   UNL     1       7.171  -5.618 -21.876  1.00  0.00     0.000 C 
BRANCH   4   5
ATOM      5  C   UNL     1       8.213  -4.576 -22.328  1.00  0.00     0.000 C 
BRANCH   5   6
ATOM      6  C   UNL     1       7.975  -3.979 -23.729  1.00  0.00     0.000 C 
BRANCH   6   7
ATOM      7  C   UNL     1       6.905  -4.701 -24.573  1.00  0.00     0.006 C 
BRANCH   7   8
ATOM      8  C   UNL     1       6.621  -4.045 -25.933  1.00  0.00     0.053 C 
BRANCH   8   9
ATOM      9  C   UNL     1       5.226  -3.507 -26.015  1.00  0.00     0.041 C 
ATOM     10  O   UNL     1       4.403  -4.001 -26.829  1.00  0.00    -0.550 OA
ATOM     11  O   UNL     1       4.844  -2.436 -25.216  1.00  0.00    -0.550 OA
ENDBRANCH   8   9
ENDBRANCH   7   8
ENDBRANCH   6   7
ENDBRANCH   5   6
ENDBRANCH   4   5
ENDBRANCH   3   4
ENDBRANCH   2   3
ENDBRANCH   1   2
BRANCH   1  12
ATOM     12  C   UNL     1       7.348  -8.883 -23.833  1.00  0.00     0.000 C 
BRANCH  12  13
ATOM     13  C   UNL     1       8.594  -8.935 -24.734  1.00  0.00    -0.000 C 
BRANCH  13  14
ATOM     14  C   UNL     1       8.711  -7.720 -25.672  1.00  0.00    -0.000 C 
BRANCH  14  15
ATOM     15  C   UNL     1       9.933  -6.814 -25.428  1.00  0.00    -0.000 C 
BRANCH  15  16
ATOM     16  C   UNL     1      10.410  -6.826 -23.967  1.00  0.00    -0.000 C 
BRANCH  16  17
ATOM     17  C   UNL     1      11.524  -5.802 -23.696  1.00  0.00    -0.000 C 
BRANCH  17  18
ATOM     18  C   UNL     1      11.848  -4.903 -24.908  1.00  0.00    -0.000 C 
BRANCH  18  19
ATOM     19  C   UNL     1      11.607  -3.416 -24.606  1.00  0.00    -0.003 C 
ATOM     20  C   UNL     1      11.567  -3.158 -23.103  1.00  0.00     0.004 C 
ENDBRANCH  18  19
ENDBRANCH  17  18
ENDBRANCH  16  17
ENDBRANCH  15  16
ENDBRANCH  14  15
ENDBRANCH  13  14
ENDBRANCH  12  13
ENDBRANCH   1  12
TORSDOF 16
ENDMDL
MODEL 4
REMARK VINA RESULT:    -4.287      9.563     12.250
REMARK INTER + INTRA:         -11.000
REMARK INTER:                  -8.327
REMARK INTRA:                  -2.673
REMARK UNBOUND:                -2.704
REMARK SMILES CCCCCCCCCCCCCCCCCC(=O)[O-]
REMARK SMILES IDX 10 1 11 2 12 3 13 4 14 5 15 6 16 7 17 8 18 9 19 10 20 11
REMARK SMILES IDX 9 12 8 13 7 14 6 15 5 16 4 17 3 18 2 19 1 20
REMARK H PARENT
REMARK Flexibility Score: inf
ROOT
ATOM      1  C   UNL     1       8.153  -8.740 -21.447  1.00  0.00     0.000 C 
ENDROOT
BRANCH   1   2
ATOM      2  C   UNL     1       8.547  -9.265 -22.841  1.00  0.00     0.000 C 
BRANCH   2   3
ATOM      3  C   UNL     1       9.534  -8.370 -23.615  1.00  0.00     0.000 C 
BRANCH   3   4
ATOM      4  C   UNL     1       9.108  -8.030 -25.059  1.00  0.00     0.000 C 
BRANCH   4   5
ATOM      5  C   UNL     1       8.085  -6.884 -25.183  1.00  0.00     0.000 C 
BRANCH   5   6
ATOM      6  C   UNL     1       6.731  -7.282 -25.804  1.00  0.00     0.000 C 
BRANCH   6   7
ATOM      7  C   UNL     1       5.905  -6.111 -26.375  1.00  0.00     0.006 C 
BRANCH   7   8
ATOM      8  C   UNL     1       6.308  -4.729 -25.837  1.00  0.00     0.053 C 
BRANCH   8   9
ATOM      9  C   UNL     1       5.226  -3.714 -26.034  1.00  0.00     0.041 C 
ATOM     10  O   UNL     1       4.390  -3.851 -26.965  1.00  0.00    -0.550 OA
ATOM     11  O   UNL     1       5.159  -2.598 -25.209  1.00  0.00    -0.550 OA
ENDBRANCH   8   9
ENDBRANCH   7   8
ENDBRANCH   6   7
ENDBRANCH   5   6
ENDBRANCH   4   5
ENDBRANCH   3   4
ENDBRANCH   2   3
ENDBRANCH   1   2
BRANCH   1  12
ATOM     12  C   UNL     1       8.366  -7.221 -21.270  1.00  0.00     0.000 C 
BRANCH  12  13
ATOM     13  C   UNL     1       7.105  -6.406 -21.606  1.00  0.00    -0.000 C 
BRANCH  13  14
ATOM     14  C   UNL     1       7.420  -4.972 -22.070  1.00  0.00    -0.000 C 
BRANCH  14  15
ATOM     15  C   UNL     1       8.895  -4.702 -22.420  1.00  0.00    -0.000 C 
BRANCH  15  16
ATOM     16  C   UNL     1       9.067  -3.742 -23.608  1.00  0.00    -0.000 C 
BRANCH  16  17
ATOM     17  C   UNL     1      10.507  -3.716 -24.148  1.00  0.00    -0.000 C 
BRANCH  17  18
ATOM     18  C   UNL     1      10.660  -4.373 -25.537  1.00  0.00    -0.000 C 
BRANCH  18  19
ATOM     19  C   UNL     1      11.986  -5.137 -25.672  1.00  0.00    -0.003 C 
ATOM     20  C   UNL     1      12.388  -5.781 -24.349  1.00  0.00     0.004 C 
ENDBRANCH  18  19
ENDBRANCH  17  18
ENDBRANCH  16  17
ENDBRANCH  15  16
ENDBRANCH  14  15
ENDBRANCH  13  14
ENDBRANCH  12  13
ENDBRANCH   1  12
TORSDOF 16
ENDMDL
MODEL 5
REMARK VINA RESULT:    -4.261      2.572      4.786
REMARK INTER + INTRA:         -10.951
REMARK INTER:                  -8.206
REMARK INTRA:                  -2.745
REMARK UNBOUND:                -2.704
REMARK SMILES CCCCCCCCCCCCCCCCCC(=O)[O-]
REMARK SMILES IDX 10 1 11 2 12 3 13 4 14 5 15 6 16 7 17 8 18 9 19 10 20 11
REMARK SMILES IDX 9 12 8 13 7 14 6 15 5 16 4 17 3 18 2 19 1 20
REMARK H PARENT
REMARK Flexibility Score: inf
ROOT
ATOM      1  C   UNL     1      19.438  -5.647 -18.026  1.00  0.00     0.000 C 
ENDROOT
BRANCH   1   2
ATOM      2  C   UNL     1      18.882  -6.343 -16.768  1.00  0.00     0.000 C 
BRANCH   2   3
ATOM      3  C   UNL     1      17.400  -6.050 -16.466  1.00  0.00     0.000 C 
BRANCH   3   4
ATOM      4  C   UNL     1      17.035  -4.553 -16.392  1.00  0.00     0.000 C 
BRANCH   4   5
ATOM      5  C   UNL     1      15.900  -4.110 -17.335  1.00  0.00     0.000 C 
BRANCH   5   6
ATOM      6  C   UNL     1      15.714  -4.987 -18.590  1.00  0.00     0.000 C 
BRANCH   6   7
ATOM      7  C   UNL     1      16.385  -4.447 -19.869  1.00  0.00     0.006 C 
BRANCH   7   8
ATOM      8  C   UNL     1      15.435  -4.294 -21.067  1.00  0.00     0.053 C 
BRANCH   8   9
ATOM      9  C   UNL     1      14.514  -3.124 -20.906  1.00  0.00     0.041 C 
ATOM     10  O   UNL     1      13.377  -3.133 -21.446  1.00  0.00    -0.550 OA
ATOM     11  O   UNL     1      14.925  -2.009 -20.186  1.00  0.00    -0.550 OA
ENDBRANCH   8   9
ENDBRANCH   7   8
ENDBRANCH   6   7
ENDBRANCH   5   6
ENDBRANCH   4   5
ENDBRANCH   3   4
ENDBRANCH   2   3
ENDBRANCH   1   2
BRANCH   1  12
ATOM     12  C   UNL     1      20.776  -4.914 -17.791  1.00  0.00     0.000 C 
BRANCH  12  13
ATOM     13  C   UNL     1      20.647  -3.388 -17.941  1.00  0.00    -0.000 C 
BRANCH  13  14
ATOM     14  C   UNL     1      19.464  -2.967 -18.833  1.00  0.00    -0.000 C 
BRANCH  14  15
ATOM     15  C   UNL     1      19.851  -2.303 -20.168  1.00  0.00    -0.000 C 
BRANCH  15  16
ATOM     16  C   UNL     1      20.540  -3.269 -21.145  1.00  0.00    -0.000 C 
BRANCH  16  17
ATOM     17  C   UNL     1      19.581  -4.331 -21.707  1.00  0.00    -0.000 C 
BRANCH  17  18
ATOM     18  C   UNL     1      20.299  -5.536 -22.353  1.00  0.00    -0.000 C 
BRANCH  18  19
ATOM     19  C   UNL     1      20.110  -6.825 -21.541  1.00  0.00    -0.003 C 
ATOM     20  C   UNL     1      18.632  -7.113 -21.298  1.00  0.00     0.004 C 
ENDBRANCH  18  19
ENDBRANCH  17  18
ENDBRANCH  16  17
ENDBRANCH  15  16
ENDBRANCH  14  15
ENDBRANCH  13  14
ENDBRANCH  12  13
ENDBRANCH   1  12
TORSDOF 16
ENDMDL
MODEL 6
REMARK VINA RESULT:    -4.260      2.358      4.524
REMARK INTER + INTRA:         -10.950
REMARK INTER:                  -8.106
REMARK INTRA:                  -2.844
REMARK UNBOUND:                -2.704
REMARK SMILES CCCCCCCCCCCCCCCCCC(=O)[O-]
REMARK SMILES IDX 10 1 11 2 12 3 13 4 14 5 15 6 16 7 17 8 18 9 19 10 20 11
REMARK SMILES IDX 9 12 8 13 7 14 6 15 5 16 4 17 3 18 2 19 1 20
REMARK H PARENT
REMARK Flexibility Score: inf
ROOT
ATOM      1  C   UNL     1      20.226  -5.762 -17.756  1.00  0.00     0.000 C 
ENDROOT
BRANCH   1   2
ATOM      2  C   UNL     1      21.342  -4.712 -17.597  1.00  0.00     0.000 C 
BRANCH   2   3
ATOM      3  C   UNL     1      20.909  -3.258 -17.863  1.00  0.00     0.000 C 
BRANCH   3   4
ATOM      4  C   UNL     1      21.131  -2.766 -19.308  1.00  0.00     0.000 C 
BRANCH   4   5
ATOM      5  C   UNL     1      19.847  -2.403 -20.079  1.00  0.00     0.000 C 
BRANCH   5   6
ATOM      6  C   UNL     1      18.577  -3.145 -19.619  1.00  0.00     0.000 C 
BRANCH   6   7
ATOM      7  C   UNL     1      17.488  -2.250 -18.993  1.00  0.00     0.006 C 
BRANCH   7   8
ATOM      8  C   UNL     1      17.285  -2.459 -17.485  1.00  0.00     0.053 C 
BRANCH   8   9
ATOM      9  C   UNL     1      16.598  -3.756 -17.187  1.00  0.00     0.041 C 
ATOM     10  O   UNL     1      15.488  -4.023 -17.718  1.00  0.00    -0.550 OA
ATOM     11  O   UNL     1      17.167  -4.657 -16.296  1.00  0.00    -0.550 OA
ENDBRANCH   8   9
ENDBRANCH   7   8
ENDBRANCH   6   7
ENDBRANCH   5   6
ENDBRANCH   4   5
ENDBRANCH   3   4
ENDBRANCH   2   3
ENDBRANCH   1   2
BRANCH   1  12
ATOM     12  C   UNL     1      20.307  -6.563 -19.073  1.00  0.00     0.000 C 
BRANCH  12  13
ATOM     13  C   UNL     1      21.676  -6.426 -19.763  1.00  0.00    -0.000 C 
BRANCH  13  14
ATOM     14  C   UNL     1      21.571  -5.934 -21.218  1.00  0.00    -0.000 C 
BRANCH  14  15
ATOM     15  C   UNL     1      20.340  -6.435 -21.996  1.00  0.00    -0.000 C 
BRANCH  15  16
ATOM     16  C   UNL     1      19.508  -5.296 -22.607  1.00  0.00    -0.000 C 
BRANCH  16  17
ATOM     17  C   UNL     1      17.997  -5.482 -22.393  1.00  0.00    -0.000 C 
BRANCH  17  18
ATOM     18  C   UNL     1      17.129  -4.498 -23.207  1.00  0.00    -0.000 C 
BRANCH  18  19
ATOM     19  C   UNL     1      15.941  -3.965 -22.393  1.00  0.00    -0.003 C 
ATOM     20  C   UNL     1      15.629  -4.877 -21.210  1.00  0.00     0.004 C 
ENDBRANCH  18  19
ENDBRANCH  17  18
ENDBRANCH  16  17
ENDBRANCH  15  16
ENDBRANCH  14  15
ENDBRANCH  13  14
ENDBRANCH  12  13
ENDBRANCH   1  12
TORSDOF 16
ENDMDL
MODEL 7
REMARK VINA RESULT:    -4.252      2.385      4.834
REMARK INTER + INTRA:         -10.932
REMARK INTER:                  -7.773
REMARK INTRA:                  -3.159
REMARK UNBOUND:                -2.704
REMARK SMILES CCCCCCCCCCCCCCCCCC(=O)[O-]
REMARK SMILES IDX 10 1 11 2 12 3 13 4 14 5 15 6 16 7 17 8 18 9 19 10 20 11
REMARK SMILES IDX 9 12 8 13 7 14 6 15 5 16 4 17 3 18 2 19 1 20
REMARK H PARENT
REMARK Flexibility Score: inf
ROOT
ATOM      1  C   UNL     1      15.968  -4.122 -17.568  1.00  0.00     0.000 C 
ENDROOT
BRANCH   1   2
ATOM      2  C   UNL     1      15.624  -5.254 -18.555  1.00  0.00     0.000 C 
BRANCH   2   3
ATOM      3  C   UNL     1      16.476  -6.529 -18.403  1.00  0.00     0.000 C 
BRANCH   3   4
ATOM      4  C   UNL     1      17.238  -6.958 -19.674  1.00  0.00     0.000 C 
BRANCH   4   5
ATOM      5  C   UNL     1      18.195  -5.896 -20.251  1.00  0.00     0.000 C 
BRANCH   5   6
ATOM      6  C   UNL     1      18.473  -6.020 -21.762  1.00  0.00     0.000 C 
BRANCH   6   7
ATOM      7  C   UNL     1      17.468  -5.286 -22.674  1.00  0.00     0.006 C 
BRANCH   7   8
ATOM      8  C   UNL     1      16.883  -4.002 -22.067  1.00  0.00     0.053 C 
BRANCH   8   9
ATOM      9  C   UNL     1      15.396  -4.084 -21.910  1.00  0.00     0.041 C 
ATOM     10  O   UNL     1      14.780  -5.131 -22.240  1.00  0.00    -0.550 OA
ATOM     11  O   UNL     1      14.685  -2.990 -21.432  1.00  0.00    -0.550 OA
ENDBRANCH   8   9
ENDBRANCH   7   8
ENDBRANCH   6   7
ENDBRANCH   5   6
ENDBRANCH   4   5
ENDBRANCH   3   4
ENDBRANCH   2   3
ENDBRANCH   1   2
BRANCH   1  12
ATOM     12  C   UNL     1      17.450  -4.101 -17.136  1.00  0.00     0.000 C 
BRANCH  12  13
ATOM     13  C   UNL     1      18.159  -2.792 -17.523  1.00  0.00    -0.000 C 
BRANCH  13  14
ATOM     14  C   UNL     1      18.060  -2.474 -19.027  1.00  0.00    -0.000 C 
BRANCH  14  15
ATOM     15  C   UNL     1      19.404  -2.416 -19.777  1.00  0.00    -0.000 C 
BRANCH  15  16
ATOM     16  C   UNL     1      20.571  -3.009 -18.970  1.00  0.00    -0.000 C 
BRANCH  16  17
ATOM     17  C   UNL     1      21.285  -4.153 -19.709  1.00  0.00    -0.000 C 
BRANCH  17  18
ATOM     18  C   UNL     1      21.687  -5.328 -18.792  1.00  0.00    -0.000 C 
BRANCH  18  19
ATOM     19  C   UNL     1      20.971  -5.274 -17.435  1.00  0.00    -0.003 C 
ATOM     20  C   UNL     1      20.234  -6.579 -17.148  1.00  0.00     0.004 C 
ENDBRANCH  18  19
ENDBRANCH  17  18
ENDBRANCH  16  17
ENDBRANCH  15  16
ENDBRANCH  14  15
ENDBRANCH  13  14
ENDBRANCH  12  13
ENDBRANCH   1  12
TORSDOF 16
ENDMDL
MODEL 8
REMARK VINA RESULT:    -4.214      2.501      5.444
REMARK INTER + INTRA:         -10.859
REMARK INTER:                  -7.962
REMARK INTRA:                  -2.897
REMARK UNBOUND:                -2.704
REMARK SMILES CCCCCCCCCCCCCCCCCC(=O)[O-]
REMARK SMILES IDX 10 1 11 2 12 3 13 4 14 5 15 6 16 7 17 8 18 9 19 10 20 11
REMARK SMILES IDX 9 12 8 13 7 14 6 15 5 16 4 17 3 18 2 19 1 20
REMARK H PARENT
REMARK Flexibility Score: inf
ROOT
ATOM      1  C   UNL     1      20.866  -3.393 -21.444  1.00  0.00     0.000 C 
ENDROOT
BRANCH   1   2
ATOM      2  C   UNL     1      21.479  -4.695 -20.893  1.00  0.00     0.000 C 
BRANCH   2   3
ATOM      3  C   UNL     1      20.795  -5.989 -21.373  1.00  0.00     0.000 C 
BRANCH   3   4
ATOM      4  C   UNL     1      19.804  -5.806 -22.541  1.00  0.00     0.000 C 
BRANCH   4   5
ATOM      5  C   UNL     1      18.316  -5.841 -22.145  1.00  0.00     0.000 C 
BRANCH   5   6
ATOM      6  C   UNL     1      17.414  -4.849 -22.906  1.00  0.00     0.000 C 
BRANCH   6   7
ATOM      7  C   UNL     1      16.702  -3.804 -22.023  1.00  0.00     0.006 C 
BRANCH   7   8
ATOM      8  C   UNL     1      16.432  -4.270 -20.584  1.00  0.00     0.053 C 
BRANCH   8   9
ATOM      9  C   UNL     1      15.442  -3.388 -19.886  1.00  0.00     0.041 C 
ATOM     10  O   UNL     1      15.779  -2.238 -19.501  1.00  0.00    -0.550 OA
ATOM     11  O   UNL     1      14.157  -3.850 -19.631  1.00  0.00    -0.550 OA
ENDBRANCH   8   9
ENDBRANCH   7   8
ENDBRANCH   6   7
ENDBRANCH   5   6
ENDBRANCH   4   5
ENDBRANCH   3   4
ENDBRANCH   2   3
ENDBRANCH   1   2
BRANCH   1  12
ATOM     12  C   UNL     1      19.965  -2.652 -20.433  1.00  0.00     0.000 C 
BRANCH  12  13
ATOM     13  C   UNL     1      20.213  -3.102 -18.982  1.00  0.00    -0.000 C 
BRANCH  13  14
ATOM     14  C   UNL     1      18.973  -2.950 -18.083  1.00  0.00    -0.000 C 
BRANCH  14  15
ATOM     15  C   UNL     1      18.417  -4.263 -17.500  1.00  0.00    -0.000 C 
BRANCH  15  16
ATOM     16  C   UNL     1      19.033  -5.516 -18.144  1.00  0.00    -0.000 C 
BRANCH  16  17
ATOM     17  C   UNL     1      19.805  -6.384 -17.137  1.00  0.00    -0.000 C 
BRANCH  17  18
ATOM     18  C   UNL     1      21.328  -6.129 -17.138  1.00  0.00    -0.000 C 
BRANCH  18  19
ATOM     19  C   UNL     1      22.080  -7.118 -18.040  1.00  0.00    -0.003 C 
ATOM     20  C   UNL     1      21.294  -8.414 -18.213  1.00  0.00     0.004 C 
ENDBRANCH  18  19
ENDBRANCH  17  18
ENDBRANCH  16  17
ENDBRANCH  15  16
ENDBRANCH  14  15
ENDBRANCH  13  14
ENDBRANCH  12  13
ENDBRANCH   1  12
TORSDOF 16
ENDMDL
MODEL 9
REMARK VINA RESULT:    -4.211      2.124      4.669
REMARK INTER + INTRA:         -10.855
REMARK INTER:                  -8.368
REMARK INTRA:                  -2.487
REMARK UNBOUND:                -2.704
REMARK SMILES CCCCCCCCCCCCCCCCCC(=O)[O-]
REMARK SMILES IDX 10 1 11 2 12 3 13 4 14 5 15 6 16 7 17 8 18 9 19 10 20 11
REMARK SMILES IDX 9 12 8 13 7 14 6 15 5 16 4 17 3 18 2 19 1 20
REMARK H PARENT
REMARK Flexibility Score: inf
ROOT
ATOM      1  C   UNL     1      21.063  -2.679 -18.995  1.00  0.00     0.000 C 
ENDROOT
BRANCH   1   2
ATOM      2  C   UNL     1      19.966  -2.675 -20.077  1.00  0.00     0.000 C 
BRANCH   2   3
ATOM      3  C   UNL     1      20.437  -3.098 -21.480  1.00  0.00     0.000 C 
BRANCH   3   4
ATOM      4  C   UNL     1      20.901  -4.565 -21.596  1.00  0.00     0.000 C 
BRANCH   4   5
ATOM      5  C   UNL     1      19.920  -5.504 -22.325  1.00  0.00     0.000 C 
BRANCH   5   6
ATOM      6  C   UNL     1      18.545  -5.666 -21.647  1.00  0.00     0.000 C 
BRANCH   6   7
ATOM      7  C   UNL     1      17.336  -5.281 -22.522  1.00  0.00     0.006 C 
BRANCH   7   8
ATOM      8  C   UNL     1      16.747  -3.895 -22.216  1.00  0.00     0.053 C 
BRANCH   8   9
ATOM      9  C   UNL     1      15.413  -3.989 -21.542  1.00  0.00     0.041 C 
ATOM     10  O   UNL     1      14.803  -5.090 -21.495  1.00  0.00    -0.550 OA
ATOM     11  O   UNL     1      14.828  -2.855 -20.995  1.00  0.00    -0.550 OA
ENDBRANCH   8   9
ENDBRANCH   7   8
ENDBRANCH   6   7
ENDBRANCH   5   6
ENDBRANCH   4   5
ENDBRANCH   3   4
ENDBRANCH   2   3
ENDBRANCH   1   2
BRANCH   1  12
ATOM     12  C   UNL     1      20.728  -3.560 -17.772  1.00  0.00     0.000 C 
BRANCH  12  13
ATOM     13  C   UNL     1      20.902  -5.061 -18.061  1.00  0.00    -0.000 C 
BRANCH  13  14
ATOM     14  C   UNL     1      19.570  -5.832 -18.072  1.00  0.00    -0.000 C 
BRANCH  14  15
ATOM     15  C   UNL     1      19.129  -6.406 -16.712  1.00  0.00    -0.000 C 
BRANCH  15  16
ATOM     16  C   UNL     1      17.691  -6.018 -16.332  1.00  0.00    -0.000 C 
BRANCH  16  17
ATOM     17  C   UNL     1      16.698  -6.209 -17.489  1.00  0.00    -0.000 C 
BRANCH  17  18
ATOM     18  C   UNL     1      16.061  -4.893 -17.985  1.00  0.00    -0.000 C 
BRANCH  18  19
ATOM     19  C   UNL     1      16.321  -3.726 -17.021  1.00  0.00    -0.003 C 
ATOM     20  C   UNL     1      17.096  -2.605 -17.708  1.00  0.00     0.004 C 
ENDBRANCH  18  19
ENDBRANCH  17  18
ENDBRANCH  16  17
ENDBRANCH  15  16
ENDBRANCH  14  15
ENDBRANCH  13  14
ENDBRANCH  12  13
ENDBRANCH   1  12
TORSDOF 16
ENDMDL
