MODEL 1
REMARK VINA RESULT:    -2.990      0.000      0.000
REMARK INTER + INTRA:          -7.053
REMARK INTER:                  -5.088
REMARK INTRA:                  -1.965
REMARK UNBOUND:                -1.965
REMARK SMILES CCCCCCCCCCCCCC(=O)[O-]
REMARK SMILES IDX 8 1 9 2 10 3 11 4 12 5 13 6 14 7 15 8 16 9 7 10 6 11 5 12
REMARK SMILES IDX 4 13 3 14 2 15 1 16
REMARK H PARENT
REMARK Flexibility Score: inf
ROOT
ATOM      1  C   UNL     1       1.004   8.105  38.112  1.00  0.00     0.000 C 
ENDROOT
BRANCH   1   2
ATOM      2  C   UNL     1       1.360   7.125  39.243  1.00  0.00     0.000 C 
BRANCH   2   3
ATOM      3  C   UNL     1       0.943   5.676  38.929  1.00  0.00     0.000 C 
BRANCH   3   4
ATOM      4  C   UNL     1      -0.529   5.335  39.239  1.00  0.00     0.000 C 
BRANCH   4   5
ATOM      5  C   UNL     1      -1.362   4.863  38.031  1.00  0.00     0.006 C 
BRANCH   5   6
ATOM      6  C   UNL     1      -0.595   4.849  36.699  1.00  0.00     0.053 C 
BRANCH   6   7
ATOM      7  C   UNL     1      -1.103   5.891  35.751  1.00  0.00     0.041 C 
ATOM      8  O   UNL     1      -2.333   5.976  35.501  1.00  0.00    -0.550 OA
ATOM      9  O   UNL     1      -0.211   6.747  35.117  1.00  0.00    -0.550 OA
ENDBRANCH   6   7
ENDBRANCH   5   6
ENDBRANCH   4   5
ENDBRANCH   3   4
ENDBRANCH   2   3
ENDBRANCH   1   2
BRANCH   1  10
ATOM     10  C   UNL     1      -0.075   9.118  38.527  1.00  0.00     0.000 C 
BRANCH  10  11
ATOM     11  C   UNL     1      -1.488   8.679  38.105  1.00  0.00    -0.000 C 
BRANCH  11  12
ATOM     12  C   UNL     1      -2.493   8.723  39.268  1.00  0.00    -0.000 C 
BRANCH  12  13
ATOM     13  C   UNL     1      -1.871   8.297  40.606  1.00  0.00    -0.000 C 
BRANCH  13  14
ATOM     14  C   UNL     1      -2.905   7.594  41.492  1.00  0.00    -0.000 C 
BRANCH  14  15
ATOM     15  C   UNL     1      -4.083   7.077  40.658  1.00  0.00    -0.003 C 
ATOM     16  C   UNL     1      -4.021   5.560  40.497  1.00  0.00     0.004 C 
ENDBRANCH  14  15
ENDBRANCH  13  14
ENDBRANCH  12  13
ENDBRANCH  11  12
ENDBRANCH  10  11
ENDBRANCH   1  10
TORSDOF 12
ENDMDL
MODEL 2
REMARK VINA RESULT:    -2.989      9.143     12.159
REMARK INTER + INTRA:          -7.051
REMARK INTER:                  -5.052
REMARK INTRA:                  -1.999
REMARK UNBOUND:                -1.965
REMARK SMILES CCCCCCCCCCCCCC(=O)[O-]
REMARK SMILES IDX 8 1 9 2 10 3 11 4 12 5 13 6 14 7 15 8 16 9 7 10 6 11 5 12
REMARK SMILES IDX 4 13 3 14 2 15 1 16
REMARK H PARENT
REMARK Flexibility Score: inf
ROOT
ATOM      1  C   UNL     1       3.757   6.260  26.032  1.00  0.00     0.000 C 
ENDROOT
BRANCH   1   2
ATOM      2  C   UNL     1       3.244   5.199  27.020  1.00  0.00     0.000 C 
BRANCH   2   3
ATOM      3  C   UNL     1       1.769   4.823  26.780  1.00  0.00     0.000 C 
BRANCH   3   4
ATOM      4  C   UNL     1       0.789   5.282  27.879  1.00  0.00     0.000 C 
BRANCH   4   5
ATOM      5  C   UNL     1       1.399   6.185  28.969  1.00  0.00     0.006 C 
BRANCH   5   6
ATOM      6  C   UNL     1       0.922   5.867  30.395  1.00  0.00     0.053 C 
BRANCH   6   7
ATOM      7  C   UNL     1       0.935   7.081  31.271  1.00  0.00     0.041 C 
ATOM      8  O   UNL     1       0.660   8.212  30.793  1.00  0.00    -0.550 OA
ATOM      9  O   UNL     1       1.284   6.967  32.611  1.00  0.00    -0.550 OA
ENDBRANCH   6   7
ENDBRANCH   5   6
ENDBRANCH   4   5
ENDBRANCH   3   4
ENDBRANCH   2   3
ENDBRANCH   1   2
BRANCH   1  10
ATOM     10  C   UNL     1       4.044   7.609  26.712  1.00  0.00     0.000 C 
BRANCH  10  11
ATOM     11  C   UNL     1       3.255   8.768  26.079  1.00  0.00    -0.000 C 
BRANCH  11  12
ATOM     12  C   UNL     1       1.960   9.088  26.844  1.00  0.00    -0.000 C 
BRANCH  12  13
ATOM     13  C   UNL     1       0.708   8.526  26.154  1.00  0.00    -0.000 C 
BRANCH  13  14
ATOM     14  C   UNL     1       0.927   8.396  24.642  1.00  0.00    -0.000 C 
BRANCH  14  15
ATOM     15  C   UNL     1       0.444   7.034  24.131  1.00  0.00    -0.003 C 
ATOM     16  C   UNL     1      -0.888   6.646  24.769  1.00  0.00     0.004 C 
ENDBRANCH  14  15
ENDBRANCH  13  14
ENDBRANCH  12  13
ENDBRANCH  11  12
ENDBRANCH  10  11
ENDBRANCH   1  10
TORSDOF 12
ENDMDL
MODEL 3
REMARK VINA RESULT:    -2.884      2.022      3.979
REMARK INTER + INTRA:          -6.872
REMARK INTER:                  -5.142
REMARK INTRA:                  -1.730
REMARK UNBOUND:                -1.965
REMARK SMILES CCCCCCCCCCCCCC(=O)[O-]
REMARK SMILES IDX 8 1 9 2 10 3 11 4 12 5 13 6 14 7 15 8 16 9 7 10 6 11 5 12
REMARK SMILES IDX 4 13 3 14 2 15 1 16
REMARK H PARENT
REMARK Flexibility Score: inf
ROOT
ATOM      1  C   UNL     1      -1.244   4.832  37.951  1.00  0.00     0.000 C 
ENDROOT
BRANCH   1   2
ATOM      2  C   UNL     1      -2.476   4.793  37.030  1.00  0.00     0.000 C 
BRANCH   2   3
ATOM      3  C   UNL     1      -2.360   5.761  35.837  1.00  0.00     0.000 C 
BRANCH   3   4
ATOM      4  C   UNL     1      -1.299   5.379  34.784  1.00  0.00     0.000 C 
BRANCH   4   5
ATOM      5  C   UNL     1      -0.051   6.282  34.752  1.00  0.00     0.006 C 
BRANCH   5   6
ATOM      6  C   UNL     1       1.281   5.527  34.885  1.00  0.00     0.053 C 
BRANCH   6   7
ATOM      7  C   UNL     1       1.829   5.123  33.552  1.00  0.00     0.041 C 
ATOM      8  O   UNL     1       2.128   5.997  32.697  1.00  0.00    -0.550 OA
ATOM      9  O   UNL     1       1.980   3.778  33.240  1.00  0.00    -0.550 OA
ENDBRANCH   6   7
ENDBRANCH   5   6
ENDBRANCH   4   5
ENDBRANCH   3   4
ENDBRANCH   2   3
ENDBRANCH   1   2
BRANCH   1  10
ATOM     10  C   UNL     1      -1.595   5.260  39.385  1.00  0.00     0.000 C 
BRANCH  10  11
ATOM     11  C   UNL     1      -3.089   5.585  39.555  1.00  0.00    -0.000 C 
BRANCH  11  12
ATOM     12  C   UNL     1      -3.324   6.936  40.250  1.00  0.00    -0.000 C 
BRANCH  12  13
ATOM     13  C   UNL     1      -2.150   7.909  40.070  1.00  0.00    -0.000 C 
BRANCH  13  14
ATOM     14  C   UNL     1      -2.486   8.988  39.034  1.00  0.00    -0.000 C 
BRANCH  14  15
ATOM     15  C   UNL     1      -1.819   8.684  37.687  1.00  0.00    -0.003 C 
ATOM     16  C   UNL     1      -0.327   8.408  37.861  1.00  0.00     0.004 C 
ENDBRANCH  14  15
ENDBRANCH  13  14
ENDBRANCH  12  13
ENDBRANCH  11  12
ENDBRANCH  10  11
ENDBRANCH   1  10
TORSDOF 12
ENDMDL
MODEL 4
REMARK VINA RESULT:    -2.879      2.247      4.014
REMARK INTER + INTRA:          -6.863
REMARK INTER:                  -4.886
REMARK INTRA:                  -1.978
REMARK UNBOUND:                -1.965
REMARK SMILES CCCCCCCCCCCCCC(=O)[O-]
REMARK SMILES IDX 8 1 9 2 10 3 11 4 12 5 13 6 14 7 15 8 16 9 7 10 6 11 5 12
REMARK SMILES IDX 4 13 3 14 2 15 1 16
REMARK H PARENT
REMARK Flexibility Score: inf
ROOT
ATOM      1  C   UNL     1      -2.563   9.125  38.958  1.00  0.00     0.000 C 
ENDROOT
BRANCH   1   2
ATOM      2  C   UNL     1      -1.702   8.917  37.701  1.00  0.00     0.000 C 
BRANCH   2   3
ATOM      3  C   UNL     1      -0.215   8.680  38.029  1.00  0.00     0.000 C 
BRANCH   3   4
ATOM      4  C   UNL     1       0.483   7.609  37.166  1.00  0.00     0.000 C 
BRANCH   4   5
ATOM      5  C   UNL     1       1.397   6.637  37.938  1.00  0.00     0.006 C 
BRANCH   5   6
ATOM      6  C   UNL     1       1.935   5.470  37.096  1.00  0.00     0.053 C 
BRANCH   6   7
ATOM      7  C   UNL     1       2.741   4.513  37.919  1.00  0.00     0.041 C 
ATOM      8  O   UNL     1       2.689   3.277  37.687  1.00  0.00    -0.550 OA
ATOM      9  O   UNL     1       3.524   4.984  38.965  1.00  0.00    -0.550 OA
ENDBRANCH   6   7
ENDBRANCH   5   6
ENDBRANCH   4   5
ENDBRANCH   3   4
ENDBRANCH   2   3
ENDBRANCH   1   2
BRANCH   1  10
ATOM     10  C   UNL     1      -2.219   8.130  40.079  1.00  0.00     0.000 C 
BRANCH  10  11
ATOM     11  C   UNL     1      -3.414   7.239  40.462  1.00  0.00    -0.000 C 
BRANCH  11  12
ATOM     12  C   UNL     1      -3.248   5.789  39.979  1.00  0.00    -0.000 C 
BRANCH  12  13
ATOM     13  C   UNL     1      -1.776   5.375  39.837  1.00  0.00    -0.000 C 
BRANCH  13  14
ATOM     14  C   UNL     1      -1.520   4.718  38.475  1.00  0.00    -0.000 C 
BRANCH  14  15
ATOM     15  C   UNL     1      -2.494   5.249  37.417  1.00  0.00    -0.003 C 
ATOM     16  C   UNL     1      -1.989   4.956  36.006  1.00  0.00     0.004 C 
ENDBRANCH  14  15
ENDBRANCH  13  14
ENDBRANCH  12  13
ENDBRANCH  11  12
ENDBRANCH  10  11
ENDBRANCH   1  10
TORSDOF 12
ENDMDL
MODEL 5
REMARK VINA RESULT:    -2.849      1.517      3.051
REMARK INTER + INTRA:          -6.811
REMARK INTER:                  -5.229
REMARK INTRA:                  -1.583
REMARK UNBOUND:                -1.965
REMARK SMILES CCCCCCCCCCCCCC(=O)[O-]
REMARK SMILES IDX 8 1 9 2 10 3 11 4 12 5 13 6 14 7 15 8 16 9 7 10 6 11 5 12
REMARK SMILES IDX 4 13 3 14 2 15 1 16
REMARK H PARENT
REMARK Flexibility Score: inf
ROOT
ATOM      1  C   UNL     1      -1.991   7.896  38.780  1.00  0.00     0.000 C 
ENDROOT
BRANCH   1   2
ATOM      2  C   UNL     1      -0.890   8.941  38.530  1.00  0.00     0.000 C 
BRANCH   2   3
ATOM      3  C   UNL     1       0.289   8.382  37.711  1.00  0.00     0.000 C 
BRANCH   3   4
ATOM      4  C   UNL     1       0.509   6.860  37.835  1.00  0.00     0.000 C 
BRANCH   4   5
ATOM      5  C   UNL     1       0.805   6.130  36.510  1.00  0.00     0.006 C 
BRANCH   5   6
ATOM      6  C   UNL     1       0.017   6.663  35.303  1.00  0.00     0.053 C 
BRANCH   6   7
ATOM      7  C   UNL     1      -1.213   5.851  35.037  1.00  0.00     0.041 C 
ATOM      8  O   UNL     1      -1.180   4.902  34.212  1.00  0.00    -0.550 OA
ATOM      9  O   UNL     1      -2.405   6.166  35.677  1.00  0.00    -0.550 OA
ENDBRANCH   6   7
ENDBRANCH   5   6
ENDBRANCH   4   5
ENDBRANCH   3   4
ENDBRANCH   2   3
ENDBRANCH   1   2
BRANCH   1  10
ATOM     10  C   UNL     1      -3.055   8.388  39.774  1.00  0.00     0.000 C 
BRANCH  10  11
ATOM     11  C   UNL     1      -3.697   7.237  40.568  1.00  0.00    -0.000 C 
BRANCH  11  12
ATOM     12  C   UNL     1      -3.713   7.501  42.083  1.00  0.00    -0.000 C 
BRANCH  12  13
ATOM     13  C   UNL     1      -2.328   7.868  42.637  1.00  0.00    -0.000 C 
BRANCH  13  14
ATOM     14  C   UNL     1      -1.329   6.727  42.415  1.00  0.00    -0.000 C 
BRANCH  14  15
ATOM     15  C   UNL     1       0.018   7.264  41.917  1.00  0.00    -0.003 C 
ATOM     16  C   UNL     1       0.088   8.784  42.049  1.00  0.00     0.004 C 
ENDBRANCH  14  15
ENDBRANCH  13  14
ENDBRANCH  12  13
ENDBRANCH  11  12
ENDBRANCH  10  11
ENDBRANCH   1  10
TORSDOF 12
ENDMDL
MODEL 6
REMARK VINA RESULT:    -2.827      1.534      3.661
REMARK INTER + INTRA:          -6.774
REMARK INTER:                  -4.992
REMARK INTRA:                  -1.782
REMARK UNBOUND:                -1.965
REMARK SMILES CCCCCCCCCCCCCC(=O)[O-]
REMARK SMILES IDX 8 1 9 2 10 3 11 4 12 5 13 6 14 7 15 8 16 9 7 10 6 11 5 12
REMARK SMILES IDX 4 13 3 14 2 15 1 16
REMARK H PARENT
REMARK Flexibility Score: inf
ROOT
ATOM      1  C   UNL     1      -3.824   5.677  40.116  1.00  0.00     0.000 C 
ENDROOT
BRANCH   1   2
ATOM      2  C   UNL     1      -2.458   5.314  39.510  1.00  0.00     0.000 C 
BRANCH   2   3
ATOM      3  C   UNL     1      -2.523   5.080  37.989  1.00  0.00     0.000 C 
BRANCH   3   4
ATOM      4  C   UNL     1      -1.939   6.217  37.126  1.00  0.00     0.000 C 
BRANCH   4   5
ATOM      5  C   UNL     1      -1.376   5.781  35.759  1.00  0.00     0.006 C 
BRANCH   5   6
ATOM      6  C   UNL     1       0.110   6.108  35.552  1.00  0.00     0.053 C 
BRANCH   6   7
ATOM      7  C   UNL     1       0.978   4.900  35.730  1.00  0.00     0.041 C 
ATOM      8  O   UNL     1       0.461   3.757  35.830  1.00  0.00    -0.550 OA
ATOM      9  O   UNL     1       2.357   5.042  35.821  1.00  0.00    -0.550 OA
ENDBRANCH   6   7
ENDBRANCH   5   6
ENDBRANCH   4   5
ENDBRANCH   3   4
ENDBRANCH   2   3
ENDBRANCH   1   2
BRANCH   1  10
ATOM     10  C   UNL     1      -3.909   7.153  40.538  1.00  0.00     0.000 C 
BRANCH  10  11
ATOM     11  C   UNL     1      -2.537   7.849  40.524  1.00  0.00    -0.000 C 
BRANCH  11  12
ATOM     12  C   UNL     1      -2.371   8.803  39.329  1.00  0.00    -0.000 C 
BRANCH  12  13
ATOM     13  C   UNL     1      -0.900   9.125  39.026  1.00  0.00    -0.000 C 
BRANCH  13  14
ATOM     14  C   UNL     1       0.036   8.266  39.883  1.00  0.00    -0.000 C 
BRANCH  14  15
ATOM     15  C   UNL     1       1.134   7.625  39.024  1.00  0.00    -0.003 C 
ATOM     16  C   UNL     1       1.180   6.113  39.227  1.00  0.00     0.004 C 
ENDBRANCH  14  15
ENDBRANCH  13  14
ENDBRANCH  12  13
ENDBRANCH  11  12
ENDBRANCH  10  11
ENDBRANCH   1  10
TORSDOF 12
ENDMDL
MODEL 7
REMARK VINA RESULT:    -2.774      2.758      4.675
REMARK INTER + INTRA:          -6.684
REMARK INTER:                  -4.927
REMARK INTRA:                  -1.757
REMARK UNBOUND:                -1.965
REMARK SMILES CCCCCCCCCCCCCC(=O)[O-]
REMARK SMILES IDX 8 1 9 2 10 3 11 4 12 5 13 6 14 7 15 8 16 9 7 10 6 11 5 12
REMARK SMILES IDX 4 13 3 14 2 15 1 16
REMARK H PARENT
REMARK Flexibility Score: inf
ROOT
ATOM      1  C   UNL     1      -1.218   8.977  39.431  1.00  0.00     0.000 C 
ENDROOT
BRANCH   1   2
ATOM      2  C   UNL     1      -0.106   8.039  39.929  1.00  0.00     0.000 C 
BRANCH   2   3
ATOM      3  C   UNL     1       0.250   8.268  41.410  1.00  0.00     0.000 C 
BRANCH   3   4
ATOM      4  C   UNL     1      -0.957   8.422  42.357  1.00  0.00     0.000 C 
BRANCH   4   5
ATOM      5  C   UNL     1      -1.514   7.105  42.932  1.00  0.00     0.006 C 
BRANCH   5   6
ATOM      6  C   UNL     1      -2.572   6.425  42.049  1.00  0.00     0.053 C 
BRANCH   6   7
ATOM      7  C   UNL     1      -3.738   7.326  41.783  1.00  0.00     0.041 C 
ATOM      8  O   UNL     1      -4.345   7.878  42.737  1.00  0.00    -0.550 OA
ATOM      9  O   UNL     1      -4.177   7.528  40.480  1.00  0.00    -0.550 OA
ENDBRANCH   6   7
ENDBRANCH   5   6
ENDBRANCH   4   5
ENDBRANCH   3   4
ENDBRANCH   2   3
ENDBRANCH   1   2
BRANCH   1  10
ATOM     10  C   UNL     1      -1.498   8.814  37.928  1.00  0.00     0.000 C 
BRANCH  10  11
ATOM     11  C   UNL     1      -0.258   8.353  37.144  1.00  0.00    -0.000 C 
BRANCH  11  12
ATOM     12  C   UNL     1      -0.529   7.104  36.288  1.00  0.00    -0.000 C 
BRANCH  12  13
ATOM     13  C   UNL     1      -1.995   6.650  36.349  1.00  0.00    -0.000 C 
BRANCH  13  14
ATOM     14  C   UNL     1      -2.107   5.231  36.918  1.00  0.00    -0.000 C 
BRANCH  14  15
ATOM     15  C   UNL     1      -2.264   5.261  38.443  1.00  0.00    -0.003 C 
ATOM     16  C   UNL     1      -1.061   4.623  39.134  1.00  0.00     0.004 C 
ENDBRANCH  14  15
ENDBRANCH  13  14
ENDBRANCH  12  13
ENDBRANCH  11  12
ENDBRANCH  10  11
ENDBRANCH   1  10
TORSDOF 12
ENDMDL
MODEL 8
REMARK VINA RESULT:    -2.767      2.486      5.030
REMARK INTER + INTRA:          -6.672
REMARK INTER:                  -4.482
REMARK INTRA:                  -2.190
REMARK UNBOUND:                -1.965
REMARK SMILES CCCCCCCCCCCCCC(=O)[O-]
REMARK SMILES IDX 8 1 9 2 10 3 11 4 12 5 13 6 14 7 15 8 16 9 7 10 6 11 5 12
REMARK SMILES IDX 4 13 3 14 2 15 1 16
REMARK H PARENT
REMARK Flexibility Score: inf
ROOT
ATOM      1  C   UNL     1       1.214   6.016  37.922  1.00  0.00     0.000 C 
ENDROOT
BRANCH   1   2
ATOM      2  C   UNL     1       1.316   7.528  38.183  1.00  0.00     0.000 C 
BRANCH   2   3
ATOM      3  C   UNL     1       0.376   8.354  37.285  1.00  0.00     0.000 C 
BRANCH   3   4
ATOM      4  C   UNL     1      -0.733   9.125  38.029  1.00  0.00     0.000 C 
BRANCH   4   5
ATOM      5  C   UNL     1      -1.190   8.495  39.360  1.00  0.00     0.006 C 
BRANCH   5   6
ATOM      6  C   UNL     1      -2.700   8.223  39.446  1.00  0.00     0.053 C 
BRANCH   6   7
ATOM      7  C   UNL     1      -3.098   7.704  40.793  1.00  0.00     0.041 C 
ATOM      8  O   UNL     1      -2.439   8.025  41.817  1.00  0.00    -0.550 OA
ATOM      9  O   UNL     1      -4.177   6.838  40.914  1.00  0.00    -0.550 OA
ENDBRANCH   6   7
ENDBRANCH   5   6
ENDBRANCH   4   5
ENDBRANCH   3   4
ENDBRANCH   2   3
ENDBRANCH   1   2
BRANCH   1  10
ATOM     10  C   UNL     1       0.727   5.236  39.154  1.00  0.00     0.000 C 
BRANCH  10  11
ATOM     11  C   UNL     1      -0.749   4.817  39.041  1.00  0.00    -0.000 C 
BRANCH  11  12
ATOM     12  C   UNL     1      -1.172   4.532  37.590  1.00  0.00    -0.000 C 
BRANCH  12  13
ATOM     13  C   UNL     1      -2.391   5.358  37.154  1.00  0.00    -0.000 C 
BRANCH  13  14
ATOM     14  C   UNL     1      -2.125   6.063  35.819  1.00  0.00    -0.000 C 
BRANCH  14  15
ATOM     15  C   UNL     1      -1.160   5.248  34.949  1.00  0.00    -0.003 C 
ATOM     16  C   UNL     1      -0.053   6.131  34.378  1.00  0.00     0.004 C 
ENDBRANCH  14  15
ENDBRANCH  13  14
ENDBRANCH  12  13
ENDBRANCH  11  12
ENDBRANCH  10  11
ENDBRANCH   1  10
TORSDOF 12
ENDMDL
MODEL 9
REMARK VINA RESULT:    -2.725      1.449      2.059
REMARK INTER + INTRA:          -6.600
REMARK INTER:                  -4.807
REMARK INTRA:                  -1.794
REMARK UNBOUND:                -1.965
REMARK SMILES CCCCCCCCCCCCCC(=O)[O-]
REMARK SMILES IDX 8 1 9 2 10 3 11 4 12 5 13 6 14 7 15 8 16 9 7 10 6 11 5 12
REMARK SMILES IDX 4 13 3 14 2 15 1 16
REMARK H PARENT
REMARK Flexibility Score: inf
ROOT
ATOM      1  C   UNL     1      -0.689   7.545  38.483  1.00  0.00     0.000 C 
ENDROOT
BRANCH   1   2
ATOM      2  C   UNL     1      -0.143   6.255  39.119  1.00  0.00     0.000 C 
BRANCH   2   3
ATOM      3  C   UNL     1      -1.165   5.104  39.104  1.00  0.00     0.000 C 
BRANCH   3   4
ATOM      4  C   UNL     1      -2.440   5.369  38.277  1.00  0.00     0.000 C 
BRANCH   4   5
ATOM      5  C   UNL     1      -2.490   4.671  36.904  1.00  0.00     0.006 C 
BRANCH   5   6
ATOM      6  C   UNL     1      -2.333   5.619  35.705  1.00  0.00     0.053 C 
BRANCH   6   7
ATOM      7  C   UNL     1      -1.008   5.447  35.028  1.00  0.00     0.041 C 
ATOM      8  O   UNL     1       0.032   5.251  35.708  1.00  0.00    -0.550 OA
ATOM      9  O   UNL     1      -0.917   5.539  33.644  1.00  0.00    -0.550 OA
ENDBRANCH   6   7
ENDBRANCH   5   6
ENDBRANCH   4   5
ENDBRANCH   3   4
ENDBRANCH   2   3
ENDBRANCH   1   2
BRANCH   1  10
ATOM     10  C   UNL     1      -1.046   8.613  39.530  1.00  0.00     0.000 C 
BRANCH  10  11
ATOM     11  C   UNL     1      -0.545   8.248  40.938  1.00  0.00    -0.000 C 
BRANCH  11  12
ATOM     12  C   UNL     1      -1.694   8.048  41.940  1.00  0.00    -0.000 C 
BRANCH  12  13
ATOM     13  C   UNL     1      -3.019   7.677  41.259  1.00  0.00    -0.000 C 
BRANCH  13  14
ATOM     14  C   UNL     1      -3.866   6.774  42.164  1.00  0.00    -0.000 C 
BRANCH  14  15
ATOM     15  C   UNL     1      -3.871   5.330  41.649  1.00  0.00    -0.003 C 
ATOM     16  C   UNL     1      -2.837   4.479  42.383  1.00  0.00     0.004 C 
ENDBRANCH  14  15
ENDBRANCH  13  14
ENDBRANCH  12  13
ENDBRANCH  11  12
ENDBRANCH  10  11
ENDBRANCH   1  10
TORSDOF 12
ENDMDL
