MODEL 1
REMARK VINA RESULT:    -5.487      0.000      0.000
REMARK INTER + INTRA:          -6.509
REMARK INTER:                  -6.609
REMARK INTRA:                   0.100
REMARK UNBOUND:                 0.100
REMARK SMILES O=c1c(O)c(-c2ccc(O)c(O)c2)oc2cc(O)cc(O)c12
REMARK SMILES IDX 5 1 3 2 2 3 1 4 22 5 20 6 19 7 17 8 16 9 15 10 14 11 6 12
REMARK SMILES IDX 7 13 8 14 9 15 13 16 11 17 10 18 12 20 4 22 21 24 18 26
REMARK H PARENT 10 19 12 21 4 23 21 25 18 27
REMARK Flexibility Score: inf
ROOT
ATOM      1  C   UNL     1      78.892  -5.948  28.031  1.00  0.00     0.180 A 
ATOM      2  C   UNL     1      78.087  -6.784  28.824  1.00  0.00     0.208 A 
ATOM      3  C   UNL     1      77.374  -7.825  28.209  1.00  0.00     0.238 A 
ATOM      4  O   UNL     1      76.598  -8.522  28.913  1.00  0.00    -0.285 OA
ATOM      5  C   UNL     1      77.517  -8.054  26.820  1.00  0.00     0.111 A 
ATOM      6  C   UNL     1      76.878  -9.108  26.099  1.00  0.00     0.134 A 
ATOM      7  C   UNL     1      77.010  -9.172  24.706  1.00  0.00     0.093 A 
ATOM      8  C   UNL     1      77.808  -8.262  24.016  1.00  0.00     0.123 A 
ATOM      9  C   UNL     1      78.482  -7.261  24.716  1.00  0.00     0.094 A 
ATOM     10  C   UNL     1      78.340  -7.147  26.100  1.00  0.00     0.146 A 
ATOM     11  O   UNL     1      78.981  -6.167  26.725  1.00  0.00    -0.452 OA
ENDROOT
BRANCH   1  12
ATOM     12  C   UNL     1      79.662  -4.821  28.604  1.00  0.00     0.025 A 
ATOM     13  C   UNL     1      80.949  -4.548  28.120  1.00  0.00     0.016 A 
ATOM     14  C   UNL     1      81.685  -3.478  28.631  1.00  0.00     0.051 A 
ATOM     15  C   UNL     1      81.147  -2.650  29.623  1.00  0.00     0.157 A 
ATOM     16  C   UNL     1      79.109  -3.979  29.584  1.00  0.00     0.062 A 
ATOM     17  C   UNL     1      79.840  -2.901  30.101  1.00  0.00     0.158 A 
BRANCH  15  18
ATOM     18  O   UNL     1      81.938  -1.603  30.098  1.00  0.00    -0.504 OA
ATOM     19  H   UNL     1      82.500  -1.654  30.935  1.00  0.00     0.293 HD
ENDBRANCH  15  18
BRANCH  17  20
ATOM     20  O   UNL     1      79.228  -2.107  31.074  1.00  0.00    -0.504 OA
ATOM     21  H   UNL     1      79.595  -1.221  31.393  1.00  0.00     0.293 HD
ENDBRANCH  17  20
ENDBRANCH   1  12
BRANCH   2  22
ATOM     22  O   UNL     1      78.018  -6.589  30.207  1.00  0.00    -0.502 OA
ATOM     23  H   UNL     1      77.648  -5.740  30.618  1.00  0.00     0.293 HD
ENDBRANCH   2  22
BRANCH   6  24
ATOM     24  O   UNL     1      76.128 -10.125  26.699  1.00  0.00    -0.507 OA
ATOM     25  H   UNL     1      75.996 -10.235  27.692  1.00  0.00     0.293 HD
ENDBRANCH   6  24
BRANCH   8  26
ATOM     26  O   UNL     1      77.931  -8.366  22.631  1.00  0.00    -0.508 OA
ATOM     27  H   UNL     1      78.196  -7.572  22.061  1.00  0.00     0.293 HD
ENDBRANCH   8  26
TORSDOF 6
ENDMDL
MODEL 2
REMARK VINA RESULT:    -5.379      1.275      2.973
REMARK INTER + INTRA:          -6.379
REMARK INTER:                  -6.570
REMARK INTRA:                   0.191
REMARK UNBOUND:                 0.100
REMARK SMILES O=c1c(O)c(-c2ccc(O)c(O)c2)oc2cc(O)cc(O)c12
REMARK SMILES IDX 5 1 3 2 2 3 1 4 22 5 20 6 19 7 17 8 16 9 15 10 14 11 6 12
REMARK SMILES IDX 7 13 8 14 9 15 13 16 11 17 10 18 12 20 4 22 21 24 18 26
REMARK H PARENT 10 19 12 21 4 23 21 25 18 27
REMARK Flexibility Score: inf
ROOT
ATOM      1  C   UNL     1      79.075  -5.584  28.085  1.00  0.00     0.180 A 
ATOM      2  C   UNL     1      79.127  -5.802  26.698  1.00  0.00     0.208 A 
ATOM      3  C   UNL     1      78.418  -6.884  26.152  1.00  0.00     0.238 A 
ATOM      4  O   UNL     1      78.529  -7.117  24.920  1.00  0.00    -0.285 OA
ATOM      5  C   UNL     1      77.622  -7.702  26.990  1.00  0.00     0.111 A 
ATOM      6  C   UNL     1      76.827  -8.798  26.539  1.00  0.00     0.134 A 
ATOM      7  C   UNL     1      76.164  -9.603  27.475  1.00  0.00     0.093 A 
ATOM      8  C   UNL     1      76.215  -9.313  28.837  1.00  0.00     0.123 A 
ATOM      9  C   UNL     1      76.944  -8.211  29.285  1.00  0.00     0.094 A 
ATOM     10  C   UNL     1      77.648  -7.413  28.381  1.00  0.00     0.146 A 
ATOM     11  O   UNL     1      78.346  -6.387  28.851  1.00  0.00    -0.452 OA
ENDROOT
BRANCH   1  12
ATOM     12  C   UNL     1      79.806  -4.473  28.736  1.00  0.00     0.025 A 
ATOM     13  C   UNL     1      81.091  -4.137  28.285  1.00  0.00     0.016 A 
ATOM     14  C   UNL     1      81.791  -3.080  28.870  1.00  0.00     0.051 A 
ATOM     15  C   UNL     1      81.219  -2.329  29.902  1.00  0.00     0.157 A 
ATOM     16  C   UNL     1      79.220  -3.708  29.757  1.00  0.00     0.062 A 
ATOM     17  C   UNL     1      79.913  -2.644  30.348  1.00  0.00     0.158 A 
BRANCH  15  18
ATOM     18  O   UNL     1      81.975  -1.291  30.450  1.00  0.00    -0.504 OA
ATOM     19  H   UNL     1      82.254  -1.247  31.420  1.00  0.00     0.293 HD
ENDBRANCH  15  18
BRANCH  17  20
ATOM     20  O   UNL     1      79.269  -1.928  31.360  1.00  0.00    -0.504 OA
ATOM     21  H   UNL     1      78.265  -1.869  31.458  1.00  0.00     0.293 HD
ENDBRANCH  17  20
ENDBRANCH   1  12
BRANCH   2  22
ATOM     22  O   UNL     1      79.856  -4.938  25.876  1.00  0.00    -0.502 OA
ATOM     23  H   UNL     1      80.552  -5.271  25.219  1.00  0.00     0.293 HD
ENDBRANCH   2  22
BRANCH   6  24
ATOM     24  O   UNL     1      76.634  -9.124  25.193  1.00  0.00    -0.507 OA
ATOM     25  H   UNL     1      75.843  -8.840  24.637  1.00  0.00     0.293 HD
ENDBRANCH   6  24
BRANCH   8  26
ATOM     26  O   UNL     1      75.528 -10.125  29.739  1.00  0.00    -0.508 OA
ATOM     27  H   UNL     1      75.997 -10.556  30.527  1.00  0.00     0.293 HD
ENDBRANCH   8  26
TORSDOF 6
ENDMDL
MODEL 3
REMARK VINA RESULT:    -5.132      1.708      7.008
REMARK INTER + INTRA:          -6.082
REMARK INTER:                  -5.952
REMARK INTRA:                  -0.130
REMARK UNBOUND:                 0.100
REMARK SMILES O=c1c(O)c(-c2ccc(O)c(O)c2)oc2cc(O)cc(O)c12
REMARK SMILES IDX 5 1 3 2 2 3 1 4 22 5 20 6 19 7 17 8 16 9 15 10 14 11 6 12
REMARK SMILES IDX 7 13 8 14 9 15 13 16 11 17 10 18 12 20 4 22 21 24 18 26
REMARK H PARENT 10 19 12 21 4 23 21 25 18 27
REMARK Flexibility Score: inf
ROOT
ATOM      1  C   UNL     1      77.998  -8.195  25.558  1.00  0.00     0.180 A 
ATOM      2  C   UNL     1      77.200  -8.780  26.556  1.00  0.00     0.208 A 
ATOM      3  C   UNL     1      77.220  -8.236  27.850  1.00  0.00     0.238 A 
ATOM      4  O   UNL     1      76.561  -8.809  28.756  1.00  0.00    -0.285 OA
ATOM      5  C   UNL     1      77.994  -7.080  28.118  1.00  0.00     0.111 A 
ATOM      6  C   UNL     1      78.054  -6.417  29.380  1.00  0.00     0.134 A 
ATOM      7  C   UNL     1      78.938  -5.344  29.556  1.00  0.00     0.093 A 
ATOM      8  C   UNL     1      79.714  -4.871  28.500  1.00  0.00     0.123 A 
ATOM      9  C   UNL     1      79.623  -5.476  27.246  1.00  0.00     0.094 A 
ATOM     10  C   UNL     1      78.780  -6.572  27.049  1.00  0.00     0.146 A 
ATOM     11  O   UNL     1      78.739  -7.132  25.847  1.00  0.00    -0.452 OA
ENDROOT
BRANCH   1  12
ATOM     12  C   UNL     1      78.041  -8.722  24.175  1.00  0.00     0.025 A 
ATOM     13  C   UNL     1      76.878  -8.698  23.392  1.00  0.00     0.016 A 
ATOM     14  C   UNL     1      76.900  -9.170  22.079  1.00  0.00     0.051 A 
ATOM     15  C   UNL     1      78.083  -9.660  21.516  1.00  0.00     0.157 A 
ATOM     16  C   UNL     1      79.237  -9.191  23.606  1.00  0.00     0.062 A 
ATOM     17  C   UNL     1      79.269  -9.665  22.288  1.00  0.00     0.158 A 
BRANCH  15  18
ATOM     18  O   UNL     1      78.036 -10.125  20.201  1.00  0.00    -0.504 OA
ATOM     19  H   UNL     1      77.246  -9.999  19.584  1.00  0.00     0.293 HD
ENDBRANCH  15  18
BRANCH  17  20
ATOM     20  O   UNL     1      80.492 -10.119  21.789  1.00  0.00    -0.504 OA
ATOM     21  H   UNL     1      80.896 -11.017  22.015  1.00  0.00     0.293 HD
ENDBRANCH  17  20
ENDBRANCH   1  12
BRANCH   2  22
ATOM     22  O   UNL     1      76.384  -9.874  26.253  1.00  0.00    -0.502 OA
ATOM     23  H   UNL     1      75.626 -10.171  26.857  1.00  0.00     0.293 HD
ENDBRANCH   2  22
BRANCH   6  24
ATOM     24  O   UNL     1      77.257  -6.751  30.480  1.00  0.00    -0.507 OA
ATOM     25  H   UNL     1      77.606  -7.073  31.369  1.00  0.00     0.293 HD
ENDBRANCH   6  24
BRANCH   8  26
ATOM     26  O   UNL     1      80.570  -3.790  28.706  1.00  0.00    -0.508 OA
ATOM     27  H   UNL     1      80.214  -2.851  28.843  1.00  0.00     0.293 HD
ENDBRANCH   8  26
TORSDOF 6
ENDMDL
MODEL 4
REMARK VINA RESULT:    -4.794      4.134      6.177
REMARK INTER + INTRA:          -5.675
REMARK INTER:                  -5.637
REMARK INTRA:                  -0.038
REMARK UNBOUND:                 0.100
REMARK SMILES O=c1c(O)c(-c2ccc(O)c(O)c2)oc2cc(O)cc(O)c12
REMARK SMILES IDX 5 1 3 2 2 3 1 4 22 5 20 6 19 7 17 8 16 9 15 10 14 11 6 12
REMARK SMILES IDX 7 13 8 14 9 15 13 16 11 17 10 18 12 20 4 22 21 24 18 26
REMARK H PARENT 10 19 12 21 4 23 21 25 18 27
REMARK Flexibility Score: inf
ROOT
ATOM      1  C   UNL     1      81.365  -7.990  27.977  1.00  0.00     0.180 A 
ATOM      2  C   UNL     1      81.003  -6.639  27.832  1.00  0.00     0.208 A 
ATOM      3  C   UNL     1      79.750  -6.217  28.302  1.00  0.00     0.238 A 
ATOM      4  O   UNL     1      79.402  -5.024  28.103  1.00  0.00    -0.285 OA
ATOM      5  C   UNL     1      78.897  -7.135  28.963  1.00  0.00     0.111 A 
ATOM      6  C   UNL     1      77.625  -6.806  29.520  1.00  0.00     0.134 A 
ATOM      7  C   UNL     1      76.822  -7.821  30.056  1.00  0.00     0.093 A 
ATOM      8  C   UNL     1      77.271  -9.139  30.113  1.00  0.00     0.123 A 
ATOM      9  C   UNL     1      78.536  -9.463  29.621  1.00  0.00     0.094 A 
ATOM     10  C   UNL     1      79.344  -8.480  29.046  1.00  0.00     0.146 A 
ATOM     11  O   UNL     1      80.531  -8.835  28.571  1.00  0.00    -0.452 OA
ENDROOT
BRANCH   1  12
ATOM     12  C   UNL     1      82.663  -8.513  27.493  1.00  0.00     0.025 A 
ATOM     13  C   UNL     1      83.455  -9.292  28.349  1.00  0.00     0.016 A 
ATOM     14  C   UNL     1      84.672  -9.813  27.908  1.00  0.00     0.051 A 
ATOM     15  C   UNL     1      85.116  -9.582  26.601  1.00  0.00     0.157 A 
ATOM     16  C   UNL     1      83.094  -8.299  26.173  1.00  0.00     0.062 A 
ATOM     17  C   UNL     1      84.313  -8.820  25.720  1.00  0.00     0.158 A 
BRANCH  15  18
ATOM     18  O   UNL     1      86.346 -10.124  26.224  1.00  0.00    -0.504 OA
ATOM     19  H   UNL     1      86.479 -10.713  25.415  1.00  0.00     0.293 HD
ENDBRANCH  15  18
BRANCH  17  20
ATOM     20  O   UNL     1      84.679  -8.564  24.397  1.00  0.00    -0.504 OA
ATOM     21  H   UNL     1      84.040  -8.613  23.615  1.00  0.00     0.293 HD
ENDBRANCH  17  20
ENDBRANCH   1  12
BRANCH   2  22
ATOM     22  O   UNL     1      81.890  -5.732  27.246  1.00  0.00    -0.502 OA
ATOM     23  H   UNL     1      82.650  -6.026  26.644  1.00  0.00     0.293 HD
ENDBRANCH   2  22
BRANCH   6  24
ATOM     24  O   UNL     1      77.115  -5.506  29.596  1.00  0.00    -0.507 OA
ATOM     25  H   UNL     1      77.669  -4.665  29.557  1.00  0.00     0.293 HD
ENDBRANCH   6  24
BRANCH   8  26
ATOM     26  O   UNL     1      76.452 -10.121  30.669  1.00  0.00    -0.508 OA
ATOM     27  H   UNL     1      75.872  -9.932  31.478  1.00  0.00     0.293 HD
ENDBRANCH   8  26
TORSDOF 6
ENDMDL
MODEL 5
REMARK VINA RESULT:    -4.750      1.793      2.435
REMARK INTER + INTRA:          -5.622
REMARK INTER:                  -5.504
REMARK INTRA:                  -0.118
REMARK UNBOUND:                 0.100
REMARK SMILES O=c1c(O)c(-c2ccc(O)c(O)c2)oc2cc(O)cc(O)c12
REMARK SMILES IDX 5 1 3 2 2 3 1 4 22 5 20 6 19 7 17 8 16 9 15 10 14 11 6 12
REMARK SMILES IDX 7 13 8 14 9 15 13 16 11 17 10 18 12 20 4 22 21 24 18 26
REMARK H PARENT 10 19 12 21 4 23 21 25 18 27
REMARK Flexibility Score: inf
ROOT
ATOM      1  C   UNL     1      79.930  -6.044  27.279  1.00  0.00     0.180 A 
ATOM      2  C   UNL     1      80.797  -7.081  26.894  1.00  0.00     0.208 A 
ATOM      3  C   UNL     1      80.298  -8.124  26.097  1.00  0.00     0.238 A 
ATOM      4  O   UNL     1      81.059  -9.086  25.818  1.00  0.00    -0.285 OA
ATOM      5  C   UNL     1      78.956  -8.089  25.649  1.00  0.00     0.111 A 
ATOM      6  C   UNL     1      78.356  -9.069  24.800  1.00  0.00     0.134 A 
ATOM      7  C   UNL     1      76.988  -8.986  24.508  1.00  0.00     0.093 A 
ATOM      8  C   UNL     1      76.215  -7.928  24.979  1.00  0.00     0.123 A 
ATOM      9  C   UNL     1      76.801  -6.934  25.764  1.00  0.00     0.094 A 
ATOM     10  C   UNL     1      78.154  -7.009  26.105  1.00  0.00     0.146 A 
ATOM     11  O   UNL     1      78.668  -6.055  26.871  1.00  0.00    -0.452 OA
ENDROOT
BRANCH   1  12
ATOM     12  C   UNL     1      80.379  -4.919  28.131  1.00  0.00     0.025 A 
ATOM     13  C   UNL     1      81.381  -4.057  27.662  1.00  0.00     0.016 A 
ATOM     14  C   UNL     1      81.806  -2.977  28.438  1.00  0.00     0.051 A 
ATOM     15  C   UNL     1      81.229  -2.727  29.688  1.00  0.00     0.157 A 
ATOM     16  C   UNL     1      79.782  -4.657  29.375  1.00  0.00     0.062 A 
ATOM     17  C   UNL     1      80.200  -3.574  30.160  1.00  0.00     0.158 A 
BRANCH  15  18
ATOM     18  O   UNL     1      81.704  -1.636  30.419  1.00  0.00    -0.504 OA
ATOM     19  H   UNL     1      82.486  -1.064  30.135  1.00  0.00     0.293 HD
ENDBRANCH  15  18
BRANCH  17  20
ATOM     20  O   UNL     1      79.563  -3.376  31.388  1.00  0.00    -0.504 OA
ATOM     21  H   UNL     1      79.760  -2.603  32.007  1.00  0.00     0.293 HD
ENDBRANCH  17  20
ENDBRANCH   1  12
BRANCH   2  22
ATOM     22  O   UNL     1      82.139  -7.058  27.283  1.00  0.00    -0.502 OA
ATOM     23  H   UNL     1      82.602  -6.210  27.588  1.00  0.00     0.293 HD
ENDBRANCH   2  22
BRANCH   6  24
ATOM     24  O   UNL     1      79.057 -10.121  24.201  1.00  0.00    -0.507 OA
ATOM     25  H   UNL     1      78.662 -11.018  23.967  1.00  0.00     0.293 HD
ENDBRANCH   6  24
BRANCH   8  26
ATOM     26  O   UNL     1      74.860  -7.868  24.654  1.00  0.00    -0.508 OA
ATOM     27  H   UNL     1      74.500  -7.177  24.006  1.00  0.00     0.293 HD
ENDBRANCH   8  26
TORSDOF 6
ENDMDL
MODEL 6
REMARK VINA RESULT:    -4.716      4.985      6.989
REMARK INTER + INTRA:          -5.581
REMARK INTER:                  -5.276
REMARK INTRA:                  -0.305
REMARK UNBOUND:                 0.100
REMARK SMILES O=c1c(O)c(-c2ccc(O)c(O)c2)oc2cc(O)cc(O)c12
REMARK SMILES IDX 5 1 3 2 2 3 1 4 22 5 20 6 19 7 17 8 16 9 15 10 14 11 6 12
REMARK SMILES IDX 7 13 8 14 9 15 13 16 11 17 10 18 12 20 4 22 21 24 18 26
REMARK H PARENT 10 19 12 21 4 23 21 25 18 27
REMARK Flexibility Score: inf
ROOT
ATOM      1  C   UNL     1      81.189  -8.751  28.677  1.00  0.00     0.180 A 
ATOM      2  C   UNL     1      81.505  -8.824  27.310  1.00  0.00     0.208 A 
ATOM      3  C   UNL     1      82.815  -9.160  26.931  1.00  0.00     0.238 A 
ATOM      4  O   UNL     1      83.110  -9.151  25.708  1.00  0.00    -0.285 OA
ATOM      5  C   UNL     1      83.777  -9.475  27.921  1.00  0.00     0.111 A 
ATOM      6  C   UNL     1      85.121  -9.873  27.651  1.00  0.00     0.134 A 
ATOM      7  C   UNL     1      86.015 -10.055  28.714  1.00  0.00     0.093 A 
ATOM      8  C   UNL     1      85.598  -9.918  30.037  1.00  0.00     0.123 A 
ATOM      9  C   UNL     1      84.272  -9.583  30.315  1.00  0.00     0.094 A 
ATOM     10  C   UNL     1      83.367  -9.356  29.276  1.00  0.00     0.146 A 
ATOM     11  O   UNL     1      82.121  -9.019  29.584  1.00  0.00    -0.452 OA
ENDROOT
BRANCH   1  12
ATOM     12  C   UNL     1      79.835  -8.389  29.154  1.00  0.00     0.025 A 
ATOM     13  C   UNL     1      78.981  -9.393  29.633  1.00  0.00     0.016 A 
ATOM     14  C   UNL     1      77.708  -9.072  30.106  1.00  0.00     0.051 A 
ATOM     15  C   UNL     1      77.268  -7.744  30.127  1.00  0.00     0.157 A 
ATOM     16  C   UNL     1      79.405  -7.052  29.194  1.00  0.00     0.062 A 
ATOM     17  C   UNL     1      78.130  -6.720  29.670  1.00  0.00     0.158 A 
BRANCH  15  18
ATOM     18  O   UNL     1      75.981  -7.490  30.604  1.00  0.00    -0.504 OA
ATOM     19  H   UNL     1      75.136  -7.729  30.105  1.00  0.00     0.293 HD
ENDBRANCH  15  18
BRANCH  17  20
ATOM     20  O   UNL     1      77.769  -5.370  29.678  1.00  0.00    -0.504 OA
ATOM     21  H   UNL     1      76.888  -5.024  30.031  1.00  0.00     0.293 HD
ENDBRANCH  17  20
ENDBRANCH   1  12
BRANCH   2  22
ATOM     22  O   UNL     1      80.521  -8.585  26.346  1.00  0.00    -0.502 OA
ATOM     23  H   UNL     1      80.308  -7.655  26.006  1.00  0.00     0.293 HD
ENDBRANCH   2  22
BRANCH   6  24
ATOM     24  O   UNL     1      85.621 -10.125  26.369  1.00  0.00    -0.507 OA
ATOM     25  H   UNL     1      85.755 -11.042  25.972  1.00  0.00     0.293 HD
ENDBRANCH   6  24
BRANCH   8  26
ATOM     26  O   UNL     1      86.511 -10.124  31.070  1.00  0.00    -0.508 OA
ATOM     27  H   UNL     1      86.212 -10.440  31.986  1.00  0.00     0.293 HD
ENDBRANCH   8  26
TORSDOF 6
ENDMDL
MODEL 7
REMARK VINA RESULT:    -4.689      4.007      5.044
REMARK INTER + INTRA:          -5.548
REMARK INTER:                  -5.249
REMARK INTRA:                  -0.300
REMARK UNBOUND:                 0.100
REMARK SMILES O=c1c(O)c(-c2ccc(O)c(O)c2)oc2cc(O)cc(O)c12
REMARK SMILES IDX 5 1 3 2 2 3 1 4 22 5 20 6 19 7 17 8 16 9 15 10 14 11 6 12
REMARK SMILES IDX 7 13 8 14 9 15 13 16 11 17 10 18 12 20 4 22 21 24 18 26
REMARK H PARENT 10 19 12 21 4 23 21 25 18 27
REMARK Flexibility Score: inf
ROOT
ATOM      1  C   UNL     1      80.867  -8.562  26.473  1.00  0.00     0.180 A 
ATOM      2  C   UNL     1      80.000  -7.656  27.109  1.00  0.00     0.208 A 
ATOM      3  C   UNL     1      78.742  -7.404  26.538  1.00  0.00     0.238 A 
ATOM      4  O   UNL     1      78.001  -6.538  27.071  1.00  0.00    -0.285 OA
ATOM      5  C   UNL     1      78.344  -8.101  25.372  1.00  0.00     0.111 A 
ATOM      6  C   UNL     1      77.075  -7.959  24.733  1.00  0.00     0.134 A 
ATOM      7  C   UNL     1      76.832  -8.621  23.523  1.00  0.00     0.093 A 
ATOM      8  C   UNL     1      77.786  -9.468  22.962  1.00  0.00     0.123 A 
ATOM      9  C   UNL     1      79.009  -9.659  23.606  1.00  0.00     0.094 A 
ATOM     10  C   UNL     1      79.296  -8.983  24.794  1.00  0.00     0.146 A 
ATOM     11  O   UNL     1      80.479  -9.176  25.362  1.00  0.00    -0.452 OA
ENDROOT
BRANCH   1  12
ATOM     12  C   UNL     1      82.215  -8.868  27.006  1.00  0.00     0.025 A 
ATOM     13  C   UNL     1      82.350  -9.806  28.039  1.00  0.00     0.016 A 
ATOM     14  C   UNL     1      83.612 -10.125  28.543  1.00  0.00     0.051 A 
ATOM     15  C   UNL     1      84.763  -9.528  28.017  1.00  0.00     0.157 A 
ATOM     16  C   UNL     1      83.369  -8.284  26.459  1.00  0.00     0.062 A 
ATOM     17  C   UNL     1      84.640  -8.600  26.956  1.00  0.00     0.158 A 
BRANCH  15  18
ATOM     18  O   UNL     1      85.994  -9.884  28.571  1.00  0.00    -0.504 OA
ATOM     19  H   UNL     1      86.886  -9.584  28.204  1.00  0.00     0.293 HD
ENDBRANCH  15  18
BRANCH  17  20
ATOM     20  O   UNL     1      85.744  -7.979  26.366  1.00  0.00    -0.504 OA
ATOM     21  H   UNL     1      86.508  -8.478  25.934  1.00  0.00     0.293 HD
ENDBRANCH  17  20
ENDBRANCH   1  12
BRANCH   2  22
ATOM     22  O   UNL     1      80.381  -7.036  28.302  1.00  0.00    -0.502 OA
ATOM     23  H   UNL     1      80.880  -6.154  28.321  1.00  0.00     0.293 HD
ENDBRANCH   2  22
BRANCH   6  24
ATOM     24  O   UNL     1      76.016  -7.206  25.253  1.00  0.00    -0.507 OA
ATOM     25  H   UNL     1      76.083  -6.586  26.044  1.00  0.00     0.293 HD
ENDBRANCH   6  24
BRANCH   8  26
ATOM     26  O   UNL     1      77.503 -10.125  21.765  1.00  0.00    -0.508 OA
ATOM     27  H   UNL     1      76.557 -10.392  21.517  1.00  0.00     0.293 HD
ENDBRANCH   8  26
TORSDOF 6
ENDMDL
MODEL 8
REMARK VINA RESULT:    -4.683      4.494      6.622
REMARK INTER + INTRA:          -5.541
REMARK INTER:                  -5.251
REMARK INTRA:                  -0.290
REMARK UNBOUND:                 0.100
REMARK SMILES O=c1c(O)c(-c2ccc(O)c(O)c2)oc2cc(O)cc(O)c12
REMARK SMILES IDX 5 1 3 2 2 3 1 4 22 5 20 6 19 7 17 8 16 9 15 10 14 11 6 12
REMARK SMILES IDX 7 13 8 14 9 15 13 16 11 17 10 18 12 20 4 22 21 24 18 26
REMARK H PARENT 10 19 12 21 4 23 21 25 18 27
REMARK Flexibility Score: inf
ROOT
ATOM      1  C   UNL     1      80.271  -9.017  27.733  1.00  0.00     0.180 A 
ATOM      2  C   UNL     1      80.304  -9.182  29.128  1.00  0.00     0.208 A 
ATOM      3  C   UNL     1      81.521  -9.515  29.745  1.00  0.00     0.238 A 
ATOM      4  O   UNL     1      81.528  -9.734  30.984  1.00  0.00    -0.285 OA
ATOM      5  C   UNL     1      82.700  -9.623  28.969  1.00  0.00     0.111 A 
ATOM      6  C   UNL     1      83.995  -9.911  29.494  1.00  0.00     0.134 A 
ATOM      7  C   UNL     1      85.071 -10.099  28.616  1.00  0.00     0.093 A 
ATOM      8  C   UNL     1      84.912  -9.947  27.240  1.00  0.00     0.123 A 
ATOM      9  C   UNL     1      83.662  -9.612  26.719  1.00  0.00     0.094 A 
ATOM     10  C   UNL     1      82.562  -9.455  27.565  1.00  0.00     0.146 A 
ATOM     11  O   UNL     1      81.386  -9.157  27.027  1.00  0.00    -0.452 OA
ENDROOT
BRANCH   1  12
ATOM     12  C   UNL     1      79.024  -8.681  27.009  1.00  0.00     0.025 A 
ATOM     13  C   UNL     1      78.088  -9.690  26.744  1.00  0.00     0.016 A 
ATOM     14  C   UNL     1      76.895  -9.393  26.081  1.00  0.00     0.051 A 
ATOM     15  C   UNL     1      76.607  -8.082  25.685  1.00  0.00     0.157 A 
ATOM     16  C   UNL     1      78.727  -7.360  26.633  1.00  0.00     0.062 A 
ATOM     17  C   UNL     1      77.532  -7.051  25.970  1.00  0.00     0.158 A 
BRANCH  15  18
ATOM     18  O   UNL     1      75.402  -7.853  25.019  1.00  0.00    -0.504 OA
ATOM     19  H   UNL     1      75.237  -7.069  24.403  1.00  0.00     0.293 HD
ENDBRANCH  15  18
BRANCH  17  20
ATOM     20  O   UNL     1      77.305  -5.717  25.624  1.00  0.00    -0.504 OA
ATOM     21  H   UNL     1      77.820  -4.938  26.011  1.00  0.00     0.293 HD
ENDBRANCH  17  20
ENDBRANCH   1  12
BRANCH   2  22
ATOM     22  O   UNL     1      79.145  -8.995  29.887  1.00  0.00    -0.502 OA
ATOM     23  H   UNL     1      78.463  -9.731  30.027  1.00  0.00     0.293 HD
ENDBRANCH   2  22
BRANCH   6  24
ATOM     24  O   UNL     1      84.286  -9.997  30.860  1.00  0.00    -0.507 OA
ATOM     25  H   UNL     1      85.103 -10.441  31.249  1.00  0.00     0.293 HD
ENDBRANCH   6  24
BRANCH   8  26
ATOM     26  O   UNL     1      86.008 -10.125  26.398  1.00  0.00    -0.508 OA
ATOM     27  H   UNL     1      86.945 -10.248  26.766  1.00  0.00     0.293 HD
ENDBRANCH   8  26
TORSDOF 6
ENDMDL
MODEL 9
REMARK VINA RESULT:    -4.536      4.484      6.078
REMARK INTER + INTRA:          -5.363
REMARK INTER:                  -5.504
REMARK INTRA:                   0.140
REMARK UNBOUND:                 0.100
REMARK SMILES O=c1c(O)c(-c2ccc(O)c(O)c2)oc2cc(O)cc(O)c12
REMARK SMILES IDX 5 1 3 2 2 3 1 4 22 5 20 6 19 7 17 8 16 9 15 10 14 11 6 12
REMARK SMILES IDX 7 13 8 14 9 15 13 16 11 17 10 18 12 20 4 22 21 24 18 26
REMARK H PARENT 10 19 12 21 4 23 21 25 18 27
REMARK Flexibility Score: inf
ROOT
ATOM      1  C   UNL     1      81.130  -9.210  27.721  1.00  0.00     0.180 A 
ATOM      2  C   UNL     1      80.475  -9.582  26.535  1.00  0.00     0.208 A 
ATOM      3  C   UNL     1      79.089  -9.380  26.431  1.00  0.00     0.238 A 
ATOM      4  O   UNL     1      78.497  -9.783  25.397  1.00  0.00    -0.285 OA
ATOM      5  C   UNL     1      78.385  -8.758  27.491  1.00  0.00     0.111 A 
ATOM      6  C   UNL     1      76.988  -8.463  27.476  1.00  0.00     0.134 A 
ATOM      7  C   UNL     1      76.380  -7.942  28.625  1.00  0.00     0.093 A 
ATOM      8  C   UNL     1      77.127  -7.647  29.764  1.00  0.00     0.123 A 
ATOM      9  C   UNL     1      78.502  -7.880  29.771  1.00  0.00     0.094 A 
ATOM     10  C   UNL     1      79.132  -8.434  28.655  1.00  0.00     0.146 A 
ATOM     11  O   UNL     1      80.438  -8.659  28.711  1.00  0.00    -0.452 OA
ENDROOT
BRANCH   1  12
ATOM     12  C   UNL     1      82.586  -9.405  27.910  1.00  0.00     0.025 A 
ATOM     13  C   UNL     1      83.060  -9.912  29.129  1.00  0.00     0.016 A 
ATOM     14  C   UNL     1      84.426 -10.124  29.322  1.00  0.00     0.051 A 
ATOM     15  C   UNL     1      85.343  -9.850  28.302  1.00  0.00     0.157 A 
ATOM     16  C   UNL     1      83.500  -9.150  26.875  1.00  0.00     0.062 A 
ATOM     17  C   UNL     1      84.873  -9.362  27.059  1.00  0.00     0.158 A 
BRANCH  15  18
ATOM     18  O   UNL     1      86.696 -10.074  28.562  1.00  0.00    -0.504 OA
ATOM     19  H   UNL     1      87.146  -9.859  29.440  1.00  0.00     0.293 HD
ENDBRANCH  15  18
BRANCH  17  20
ATOM     20  O   UNL     1      85.725  -9.084  25.988  1.00  0.00    -0.504 OA
ATOM     21  H   UNL     1      85.410  -8.948  25.037  1.00  0.00     0.293 HD
ENDBRANCH  17  20
ENDBRANCH   1  12
BRANCH   2  22
ATOM     22  O   UNL     1      81.200 -10.124  25.470  1.00  0.00    -0.502 OA
ATOM     23  H   UNL     1      81.903 -10.842  25.601  1.00  0.00     0.293 HD
ENDBRANCH   2  22
BRANCH   6  24
ATOM     24  O   UNL     1      76.163  -8.636  26.360  1.00  0.00    -0.507 OA
ATOM     25  H   UNL     1      76.480  -8.649  25.404  1.00  0.00     0.293 HD
ENDBRANCH   6  24
BRANCH   8  26
ATOM     26  O   UNL     1      76.491  -7.113  30.884  1.00  0.00    -0.508 OA
ATOM     27  H   UNL     1      75.918  -7.687  31.492  1.00  0.00     0.293 HD
ENDBRANCH   8  26
TORSDOF 6
ENDMDL
