MODEL 1
REMARK VINA RESULT:    -6.879      0.000      0.000
REMARK INTER + INTRA:          -8.319
REMARK INTER:                  -8.287
REMARK INTRA:                  -0.032
REMARK UNBOUND:                -0.032
REMARK SMILES O=c1c(O)c(-c2ccc(O)c(O)c2)oc2cc(O)cc(O)c12
REMARK SMILES IDX 5 1 3 2 2 3 1 4 22 5 20 6 19 7 17 8 16 9 15 10 14 11 6 12
REMARK SMILES IDX 7 13 8 14 9 15 13 16 11 17 10 18 12 20 4 22 21 24 18 26
REMARK H PARENT 10 19 12 21 4 23 21 25 18 27
REMARK Flexibility Score: inf
ROOT
ATOM      1  C   UNL     1     -16.005  14.803  -8.403  1.00  0.00     0.180 A 
ATOM      2  C   UNL     1     -14.728  15.317  -8.685  1.00  0.00     0.208 A 
ATOM      3  C   UNL     1     -14.053  16.049  -7.695  1.00  0.00     0.238 A 
ATOM      4  O   UNL     1     -12.933  16.552  -7.972  1.00  0.00    -0.285 OA
ATOM      5  C   UNL     1     -14.656  16.243  -6.430  1.00  0.00     0.111 A 
ATOM      6  C   UNL     1     -14.047  16.932  -5.338  1.00  0.00     0.134 A 
ATOM      7  C   UNL     1     -14.790  17.178  -4.176  1.00  0.00     0.093 A 
ATOM      8  C   UNL     1     -16.096  16.701  -4.041  1.00  0.00     0.123 A 
ATOM      9  C   UNL     1     -16.677  15.976  -5.077  1.00  0.00     0.094 A 
ATOM     10  C   UNL     1     -15.976  15.746  -6.263  1.00  0.00     0.146 A 
ATOM     11  O   UNL     1     -16.572  15.059  -7.230  1.00  0.00    -0.452 OA
ENDROOT
BRANCH   1  12
ATOM     12  C   UNL     1     -16.767  14.002  -9.388  1.00  0.00     0.025 A 
ATOM     13  C   UNL     1     -18.060  14.378  -9.793  1.00  0.00     0.016 A 
ATOM     14  C   UNL     1     -18.751  13.620 -10.742  1.00  0.00     0.051 A 
ATOM     15  C   UNL     1     -18.160  12.488 -11.309  1.00  0.00     0.157 A 
ATOM     16  C   UNL     1     -16.169  12.876  -9.976  1.00  0.00     0.062 A 
ATOM     17  C   UNL     1     -16.862  12.114 -10.928  1.00  0.00     0.158 A 
BRANCH  15  18
ATOM     18  O   UNL     1     -18.876  11.751 -12.253  1.00  0.00    -0.504 OA
ATOM     19  H   UNL     1     -19.578  11.071 -11.985  1.00  0.00     0.293 HD
ENDBRANCH  15  18
BRANCH  17  20
ATOM     20  O   UNL     1     -16.263  10.990 -11.496  1.00  0.00    -0.504 OA
ATOM     21  H   UNL     1     -15.347  11.037 -11.927  1.00  0.00     0.293 HD
ENDBRANCH  17  20
ENDBRANCH   1  12
BRANCH   2  22
ATOM     22  O   UNL     1     -14.159  15.133  -9.949  1.00  0.00    -0.502 OA
ATOM     23  H   UNL     1     -14.145  15.862 -10.651  1.00  0.00     0.293 HD
ENDBRANCH   2  22
BRANCH   6  24
ATOM     24  O   UNL     1     -12.719  17.369  -5.334  1.00  0.00    -0.507 OA
ATOM     25  H   UNL     1     -12.384  18.190  -5.815  1.00  0.00     0.293 HD
ENDBRANCH   6  24
BRANCH   8  26
ATOM     26  O   UNL     1     -16.821  16.937  -2.875  1.00  0.00    -0.508 OA
ATOM     27  H   UNL     1     -16.416  17.433  -2.089  1.00  0.00     0.293 HD
ENDBRANCH   8  26
TORSDOF 6
ENDMDL
MODEL 2
REMARK VINA RESULT:    -6.735      2.019      7.360
REMARK INTER + INTRA:          -8.144
REMARK INTER:                  -7.844
REMARK INTRA:                  -0.300
REMARK UNBOUND:                -0.032
REMARK SMILES O=c1c(O)c(-c2ccc(O)c(O)c2)oc2cc(O)cc(O)c12
REMARK SMILES IDX 5 1 3 2 2 3 1 4 22 5 20 6 19 7 17 8 16 9 15 10 14 11 6 12
REMARK SMILES IDX 7 13 8 14 9 15 13 16 11 17 10 18 12 20 4 22 21 24 18 26
REMARK H PARENT 10 19 12 21 4 23 21 25 18 27
REMARK Flexibility Score: inf
ROOT
ATOM      1  C   UNL     1     -16.285  14.362  -6.913  1.00  0.00     0.180 A 
ATOM      2  C   UNL     1     -17.526  13.737  -6.708  1.00  0.00     0.208 A 
ATOM      3  C   UNL     1     -17.995  12.820  -7.663  1.00  0.00     0.238 A 
ATOM      4  O   UNL     1     -19.132  12.305  -7.500  1.00  0.00    -0.285 OA
ATOM      5  C   UNL     1     -17.209  12.529  -8.803  1.00  0.00     0.111 A 
ATOM      6  C   UNL     1     -17.566  11.587  -9.815  1.00  0.00     0.134 A 
ATOM      7  C   UNL     1     -16.774  11.475 -10.965  1.00  0.00     0.093 A 
ATOM      8  C   UNL     1     -15.602  12.223 -11.108  1.00  0.00     0.123 A 
ATOM      9  C   UNL     1     -15.215  13.101 -10.100  1.00  0.00     0.094 A 
ATOM     10  C   UNL     1     -16.002  13.261  -8.957  1.00  0.00     0.146 A 
ATOM     11  O   UNL     1     -15.601  14.117  -8.025  1.00  0.00    -0.452 OA
ENDROOT
BRANCH   1  12
ATOM     12  C   UNL     1     -15.714  15.320  -5.939  1.00  0.00     0.025 A 
ATOM     13  C   UNL     1     -14.723  14.928  -5.022  1.00  0.00     0.016 A 
ATOM     14  C   UNL     1     -14.181  15.856  -4.128  1.00  0.00     0.051 A 
ATOM     15  C   UNL     1     -14.608  17.186  -4.144  1.00  0.00     0.157 A 
ATOM     16  C   UNL     1     -16.125  16.662  -5.966  1.00  0.00     0.062 A 
ATOM     17  C   UNL     1     -15.583  17.594  -5.069  1.00  0.00     0.158 A 
BRANCH  15  18
ATOM     18  O   UNL     1     -14.049  18.088  -3.239  1.00  0.00    -0.504 OA
ATOM     19  H   UNL     1     -14.504  18.962  -3.001  1.00  0.00     0.293 HD
ENDBRANCH  15  18
BRANCH  17  20
ATOM     20  O   UNL     1     -16.008  18.921  -5.096  1.00  0.00    -0.504 OA
ATOM     21  H   UNL     1     -16.424  19.363  -4.284  1.00  0.00     0.293 HD
ENDBRANCH  17  20
ENDBRANCH   1  12
BRANCH   2  22
ATOM     22  O   UNL     1     -18.297  14.056  -5.585  1.00  0.00    -0.502 OA
ATOM     23  H   UNL     1     -18.258  13.519  -4.728  1.00  0.00     0.293 HD
ENDBRANCH   2  22
BRANCH   6  24
ATOM     24  O   UNL     1     -18.663  10.726  -9.727  1.00  0.00    -0.507 OA
ATOM     25  H   UNL     1     -18.934  10.067 -10.441  1.00  0.00     0.293 HD
ENDBRANCH   6  24
BRANCH   8  26
ATOM     26  O   UNL     1     -14.813  12.094 -12.249  1.00  0.00    -0.508 OA
ATOM     27  H   UNL     1     -14.087  12.766 -12.470  1.00  0.00     0.293 HD
ENDBRANCH   8  26
TORSDOF 6
ENDMDL
MODEL 3
REMARK VINA RESULT:    -6.610      2.466      3.910
REMARK INTER + INTRA:          -7.995
REMARK INTER:                  -7.718
REMARK INTRA:                  -0.277
REMARK UNBOUND:                -0.032
REMARK SMILES O=c1c(O)c(-c2ccc(O)c(O)c2)oc2cc(O)cc(O)c12
REMARK SMILES IDX 5 1 3 2 2 3 1 4 22 5 20 6 19 7 17 8 16 9 15 10 14 11 6 12
REMARK SMILES IDX 7 13 8 14 9 15 13 16 11 17 10 18 12 20 4 22 21 24 18 26
REMARK H PARENT 10 19 12 21 4 23 21 25 18 27
REMARK Flexibility Score: inf
ROOT
ATOM      1  C   UNL     1     -17.369  13.595  -7.695  1.00  0.00     0.180 A 
ATOM      2  C   UNL     1     -17.349  14.077  -6.375  1.00  0.00     0.208 A 
ATOM      3  C   UNL     1     -16.397  15.046  -6.018  1.00  0.00     0.238 A 
ATOM      4  O   UNL     1     -16.349  15.434  -4.822  1.00  0.00    -0.285 OA
ATOM      5  C   UNL     1     -15.490  15.532  -6.989  1.00  0.00     0.111 A 
ATOM      6  C   UNL     1     -14.510  16.543  -6.749  1.00  0.00     0.134 A 
ATOM      7  C   UNL     1     -13.578  16.853  -7.748  1.00  0.00     0.093 A 
ATOM      8  C   UNL     1     -13.632  16.235  -9.000  1.00  0.00     0.123 A 
ATOM      9  C   UNL     1     -14.621  15.291  -9.263  1.00  0.00     0.094 A 
ATOM     10  C   UNL     1     -15.542  14.935  -8.276  1.00  0.00     0.146 A 
ATOM     11  O   UNL     1     -16.462  14.022  -8.565  1.00  0.00    -0.452 OA
ENDROOT
BRANCH   1  12
ATOM     12  C   UNL     1     -18.358  12.592  -8.152  1.00  0.00     0.025 A 
ATOM     13  C   UNL     1     -19.460  12.958  -8.945  1.00  0.00     0.016 A 
ATOM     14  C   UNL     1     -20.366  11.991  -9.385  1.00  0.00     0.051 A 
ATOM     15  C   UNL     1     -20.181  10.646  -9.054  1.00  0.00     0.157 A 
ATOM     16  C   UNL     1     -18.164  11.236  -7.840  1.00  0.00     0.062 A 
ATOM     17  C   UNL     1     -19.073  10.264  -8.281  1.00  0.00     0.158 A 
BRANCH  15  18
ATOM     18  O   UNL     1     -21.105   9.703  -9.508  1.00  0.00    -0.504 OA
ATOM     19  H   UNL     1     -21.071   8.734  -9.216  1.00  0.00     0.293 HD
ENDBRANCH  15  18
BRANCH  17  20
ATOM     20  O   UNL     1     -18.879   8.923  -7.954  1.00  0.00    -0.504 OA
ATOM     21  H   UNL     1     -18.162   8.365  -8.404  1.00  0.00     0.293 HD
ENDBRANCH  17  20
ENDBRANCH   1  12
BRANCH   2  22
ATOM     22  O   UNL     1     -18.240  13.567  -5.426  1.00  0.00    -0.502 OA
ATOM     23  H   UNL     1     -19.148  13.981  -5.255  1.00  0.00     0.293 HD
ENDBRANCH   2  22
BRANCH   6  24
ATOM     24  O   UNL     1     -14.428  17.285  -5.567  1.00  0.00    -0.507 OA
ATOM     25  H   UNL     1     -13.746  17.131  -4.839  1.00  0.00     0.293 HD
ENDBRANCH   6  24
BRANCH   8  26
ATOM     26  O   UNL     1     -12.710  16.561  -9.993  1.00  0.00    -0.508 OA
ATOM     27  H   UNL     1     -12.310  17.490 -10.061  1.00  0.00     0.293 HD
ENDBRANCH   8  26
TORSDOF 6
ENDMDL
MODEL 4
REMARK VINA RESULT:    -6.544      1.142      1.152
REMARK INTER + INTRA:          -7.915
REMARK INTER:                  -7.618
REMARK INTRA:                  -0.297
REMARK UNBOUND:                -0.032
REMARK SMILES O=c1c(O)c(-c2ccc(O)c(O)c2)oc2cc(O)cc(O)c12
REMARK SMILES IDX 5 1 3 2 2 3 1 4 22 5 20 6 19 7 17 8 16 9 15 10 14 11 6 12
REMARK SMILES IDX 7 13 8 14 9 15 13 16 11 17 10 18 12 20 4 22 21 24 18 26
REMARK H PARENT 10 19 12 21 4 23 21 25 18 27
REMARK Flexibility Score: inf
ROOT
ATOM      1  C   UNL     1     -16.589  14.585  -8.140  1.00  0.00     0.180 A 
ATOM      2  C   UNL     1     -15.267  14.878  -8.513  1.00  0.00     0.208 A 
ATOM      3  C   UNL     1     -14.474  15.661  -7.657  1.00  0.00     0.238 A 
ATOM      4  O   UNL     1     -13.309  15.965  -8.022  1.00  0.00    -0.285 OA
ATOM      5  C   UNL     1     -15.009  16.125  -6.432  1.00  0.00     0.111 A 
ATOM      6  C   UNL     1     -14.284  16.891  -5.470  1.00  0.00     0.134 A 
ATOM      7  C   UNL     1     -14.953  17.408  -4.353  1.00  0.00     0.093 A 
ATOM      8  C   UNL     1     -16.305  17.132  -4.131  1.00  0.00     0.123 A 
ATOM      9  C   UNL     1     -17.005  16.337  -5.034  1.00  0.00     0.094 A 
ATOM     10  C   UNL     1     -16.375  15.836  -6.175  1.00  0.00     0.146 A 
ATOM     11  O   UNL     1     -17.083  15.091  -7.015  1.00  0.00    -0.452 OA
ENDROOT
BRANCH   1  12
ATOM     12  C   UNL     1     -17.477  13.747  -8.977  1.00  0.00     0.025 A 
ATOM     13  C   UNL     1     -18.150  14.279 -10.091  1.00  0.00     0.016 A 
ATOM     14  C   UNL     1     -18.964  13.464 -10.882  1.00  0.00     0.051 A 
ATOM     15  C   UNL     1     -19.107  12.106 -10.583  1.00  0.00     0.157 A 
ATOM     16  C   UNL     1     -17.608  12.378  -8.693  1.00  0.00     0.062 A 
ATOM     17  C   UNL     1     -18.424  11.558  -9.486  1.00  0.00     0.158 A 
BRANCH  15  18
ATOM     18  O   UNL     1     -19.928  11.318 -11.390  1.00  0.00    -0.504 OA
ATOM     19  H   UNL     1     -20.177  10.369 -11.139  1.00  0.00     0.293 HD
ENDBRANCH  15  18
BRANCH  17  20
ATOM     20  O   UNL     1     -18.557  10.203  -9.187  1.00  0.00    -0.504 OA
ATOM     21  H   UNL     1     -17.933   9.739  -8.536  1.00  0.00     0.293 HD
ENDBRANCH  17  20
ENDBRANCH   1  12
BRANCH   2  22
ATOM     22  O   UNL     1     -14.765  14.428  -9.738  1.00  0.00    -0.502 OA
ATOM     23  H   UNL     1     -14.432  13.481  -9.874  1.00  0.00     0.293 HD
ENDBRANCH   2  22
BRANCH   6  24
ATOM     24  O   UNL     1     -12.912  17.147  -5.549  1.00  0.00    -0.507 OA
ATOM     25  H   UNL     1     -12.476  17.728  -6.249  1.00  0.00     0.293 HD
ENDBRANCH   6  24
BRANCH   8  26
ATOM     26  O   UNL     1     -16.958  17.638  -3.009  1.00  0.00    -0.508 OA
ATOM     27  H   UNL     1     -17.666  18.359  -3.088  1.00  0.00     0.293 HD
ENDBRANCH   8  26
TORSDOF 6
ENDMDL
MODEL 5
REMARK VINA RESULT:    -6.431      2.169      6.838
REMARK INTER + INTRA:          -7.778
REMARK INTER:                  -7.466
REMARK INTRA:                  -0.312
REMARK UNBOUND:                -0.032
REMARK SMILES O=c1c(O)c(-c2ccc(O)c(O)c2)oc2cc(O)cc(O)c12
REMARK SMILES IDX 5 1 3 2 2 3 1 4 22 5 20 6 19 7 17 8 16 9 15 10 14 11 6 12
REMARK SMILES IDX 7 13 8 14 9 15 13 16 11 17 10 18 12 20 4 22 21 24 18 26
REMARK H PARENT 10 19 12 21 4 23 21 25 18 27
REMARK Flexibility Score: inf
ROOT
ATOM      1  C   UNL     1     -16.298  14.015  -7.798  1.00  0.00     0.180 A 
ATOM      2  C   UNL     1     -15.892  13.867  -9.135  1.00  0.00     0.208 A 
ATOM      3  C   UNL     1     -16.659  13.065  -9.996  1.00  0.00     0.238 A 
ATOM      4  O   UNL     1     -16.260  12.893 -11.177  1.00  0.00    -0.285 OA
ATOM      5  C   UNL     1     -17.830  12.435  -9.513  1.00  0.00     0.111 A 
ATOM      6  C   UNL     1     -18.705  11.633 -10.306  1.00  0.00     0.134 A 
ATOM      7  C   UNL     1     -19.764  10.952  -9.693  1.00  0.00     0.093 A 
ATOM      8  C   UNL     1     -20.018  11.096  -8.326  1.00  0.00     0.123 A 
ATOM      9  C   UNL     1     -19.205  11.923  -7.556  1.00  0.00     0.094 A 
ATOM     10  C   UNL     1     -18.120  12.588  -8.132  1.00  0.00     0.146 A 
ATOM     11  O   UNL     1     -17.365  13.358  -7.358  1.00  0.00    -0.452 OA
ENDROOT
BRANCH   1  12
ATOM     12  C   UNL     1     -15.555  14.863  -6.838  1.00  0.00     0.025 A 
ATOM     13  C   UNL     1     -14.431  14.376  -6.149  1.00  0.00     0.016 A 
ATOM     14  C   UNL     1     -13.730  15.202  -5.266  1.00  0.00     0.051 A 
ATOM     15  C   UNL     1     -14.132  16.526  -5.067  1.00  0.00     0.157 A 
ATOM     16  C   UNL     1     -15.943  16.200  -6.652  1.00  0.00     0.062 A 
ATOM     17  C   UNL     1     -15.241  17.030  -5.765  1.00  0.00     0.158 A 
BRANCH  15  18
ATOM     18  O   UNL     1     -13.413  17.326  -4.178  1.00  0.00    -0.504 OA
ATOM     19  H   UNL     1     -13.734  18.247  -3.903  1.00  0.00     0.293 HD
ENDBRANCH  15  18
BRANCH  17  20
ATOM     20  O   UNL     1     -15.642  18.352  -5.578  1.00  0.00    -0.504 OA
ATOM     21  H   UNL     1     -14.991  19.066  -5.269  1.00  0.00     0.293 HD
ENDBRANCH  17  20
ENDBRANCH   1  12
BRANCH   2  22
ATOM     22  O   UNL     1     -14.719  14.481  -9.586  1.00  0.00    -0.502 OA
ATOM     23  H   UNL     1     -13.876  14.521  -9.026  1.00  0.00     0.293 HD
ENDBRANCH   2  22
BRANCH   6  24
ATOM     24  O   UNL     1     -18.596  11.496 -11.693  1.00  0.00    -0.507 OA
ATOM     25  H   UNL     1     -17.771  11.169 -12.174  1.00  0.00     0.293 HD
ENDBRANCH   6  24
BRANCH   8  26
ATOM     26  O   UNL     1     -21.083  10.426  -7.727  1.00  0.00    -0.508 OA
ATOM     27  H   UNL     1     -21.602  10.835  -6.959  1.00  0.00     0.293 HD
ENDBRANCH   8  26
TORSDOF 6
ENDMDL
MODEL 6
REMARK VINA RESULT:    -6.326      1.857      2.957
REMARK INTER + INTRA:          -7.652
REMARK INTER:                  -7.356
REMARK INTRA:                  -0.296
REMARK UNBOUND:                -0.032
REMARK SMILES O=c1c(O)c(-c2ccc(O)c(O)c2)oc2cc(O)cc(O)c12
REMARK SMILES IDX 5 1 3 2 2 3 1 4 22 5 20 6 19 7 17 8 16 9 15 10 14 11 6 12
REMARK SMILES IDX 7 13 8 14 9 15 13 16 11 17 10 18 12 20 4 22 21 24 18 26
REMARK H PARENT 10 19 12 21 4 23 21 25 18 27
REMARK Flexibility Score: inf
ROOT
ATOM      1  C   UNL     1     -17.284  14.720  -7.940  1.00  0.00     0.180 A 
ATOM      2  C   UNL     1     -17.972  15.782  -7.328  1.00  0.00     0.208 A 
ATOM      3  C   UNL     1     -17.291  16.595  -6.407  1.00  0.00     0.238 A 
ATOM      4  O   UNL     1     -17.927  17.509  -5.822  1.00  0.00    -0.285 OA
ATOM      5  C   UNL     1     -15.927  16.346  -6.124  1.00  0.00     0.111 A 
ATOM      6  C   UNL     1     -15.127  17.130  -5.239  1.00  0.00     0.134 A 
ATOM      7  C   UNL     1     -13.825  16.713  -4.933  1.00  0.00     0.093 A 
ATOM      8  C   UNL     1     -13.272  15.578  -5.531  1.00  0.00     0.123 A 
ATOM      9  C   UNL     1     -14.025  14.840  -6.440  1.00  0.00     0.094 A 
ATOM     10  C   UNL     1     -15.338  15.209  -6.739  1.00  0.00     0.146 A 
ATOM     11  O   UNL     1     -16.024  14.472  -7.603  1.00  0.00    -0.452 OA
ENDROOT
BRANCH   1  12
ATOM     12  C   UNL     1     -17.928  13.836  -8.938  1.00  0.00     0.025 A 
ATOM     13  C   UNL     1     -18.122  14.251 -10.267  1.00  0.00     0.016 A 
ATOM     14  C   UNL     1     -18.709  13.390 -11.198  1.00  0.00     0.051 A 
ATOM     15  C   UNL     1     -19.099  12.102 -10.822  1.00  0.00     0.157 A 
ATOM     16  C   UNL     1     -18.302  12.533  -8.570  1.00  0.00     0.062 A 
ATOM     17  C   UNL     1     -18.892  11.668  -9.503  1.00  0.00     0.158 A 
BRANCH  15  18
ATOM     18  O   UNL     1     -19.684  11.266 -11.774  1.00  0.00    -0.504 OA
ATOM     19  H   UNL     1     -20.656  11.359 -12.045  1.00  0.00     0.293 HD
ENDBRANCH  15  18
BRANCH  17  20
ATOM     20  O   UNL     1     -19.271  10.382  -9.123  1.00  0.00    -0.504 OA
ATOM     21  H   UNL     1     -19.689  10.196  -8.218  1.00  0.00     0.293 HD
ENDBRANCH  17  20
ENDBRANCH   1  12
BRANCH   2  22
ATOM     22  O   UNL     1     -19.325  15.996  -7.606  1.00  0.00    -0.502 OA
ATOM     23  H   UNL     1     -19.826  16.813  -7.276  1.00  0.00     0.293 HD
ENDBRANCH   2  22
BRANCH   6  24
ATOM     24  O   UNL     1     -15.550  18.330  -4.661  1.00  0.00    -0.507 OA
ATOM     25  H   UNL     1     -15.015  19.186  -4.658  1.00  0.00     0.293 HD
ENDBRANCH   6  24
BRANCH   8  26
ATOM     26  O   UNL     1     -11.971  15.179  -5.231  1.00  0.00    -0.508 OA
ATOM     27  H   UNL     1     -11.274  15.055  -5.957  1.00  0.00     0.293 HD
ENDBRANCH   8  26
TORSDOF 6
ENDMDL
MODEL 7
REMARK VINA RESULT:    -6.320      2.180      7.330
REMARK INTER + INTRA:          -7.644
REMARK INTER:                  -7.321
REMARK INTRA:                  -0.324
REMARK UNBOUND:                -0.032
REMARK SMILES O=c1c(O)c(-c2ccc(O)c(O)c2)oc2cc(O)cc(O)c12
REMARK SMILES IDX 5 1 3 2 2 3 1 4 22 5 20 6 19 7 17 8 16 9 15 10 14 11 6 12
REMARK SMILES IDX 7 13 8 14 9 15 13 16 11 17 10 18 12 20 4 22 21 24 18 26
REMARK H PARENT 10 19 12 21 4 23 21 25 18 27
REMARK Flexibility Score: inf
ROOT
ATOM      1  C   UNL     1     -16.745  13.911  -7.415  1.00  0.00     0.180 A 
ATOM      2  C   UNL     1     -17.452  12.930  -6.699  1.00  0.00     0.208 A 
ATOM      3  C   UNL     1     -18.370  12.116  -7.383  1.00  0.00     0.238 A 
ATOM      4  O   UNL     1     -19.039  11.276  -6.727  1.00  0.00    -0.285 OA
ATOM      5  C   UNL     1     -18.557  12.284  -8.775  1.00  0.00     0.111 A 
ATOM      6  C   UNL     1     -19.431  11.489  -9.577  1.00  0.00     0.134 A 
ATOM      7  C   UNL     1     -19.636  11.829 -10.920  1.00  0.00     0.093 A 
ATOM      8  C   UNL     1     -18.949  12.895 -11.507  1.00  0.00     0.123 A 
ATOM      9  C   UNL     1     -18.050  13.639 -10.748  1.00  0.00     0.094 A 
ATOM     10  C   UNL     1     -17.850  13.347  -9.397  1.00  0.00     0.146 A 
ATOM     11  O   UNL     1     -16.992  14.088  -8.708  1.00  0.00    -0.452 OA
ENDROOT
BRANCH   1  12
ATOM     12  C   UNL     1     -15.744  14.790  -6.768  1.00  0.00     0.025 A 
ATOM     13  C   UNL     1     -14.419  14.365  -6.566  1.00  0.00     0.016 A 
ATOM     14  C   UNL     1     -13.485  15.220  -5.976  1.00  0.00     0.051 A 
ATOM     15  C   UNL     1     -13.853  16.513  -5.592  1.00  0.00     0.157 A 
ATOM     16  C   UNL     1     -16.104  16.097  -6.400  1.00  0.00     0.062 A 
ATOM     17  C   UNL     1     -15.167  16.956  -5.807  1.00  0.00     0.158 A 
BRANCH  15  18
ATOM     18  O   UNL     1     -12.898  17.343  -5.004  1.00  0.00    -0.504 OA
ATOM     19  H   UNL     1     -13.155  18.163  -4.468  1.00  0.00     0.293 HD
ENDBRANCH  15  18
BRANCH  17  20
ATOM     20  O   UNL     1     -15.539  18.246  -5.434  1.00  0.00    -0.504 OA
ATOM     21  H   UNL     1     -15.654  18.985  -6.118  1.00  0.00     0.293 HD
ENDBRANCH  17  20
ENDBRANCH   1  12
BRANCH   2  22
ATOM     22  O   UNL     1     -17.267  12.796  -5.320  1.00  0.00    -0.502 OA
ATOM     23  H   UNL     1     -17.775  12.117  -4.766  1.00  0.00     0.293 HD
ENDBRANCH   2  22
BRANCH   6  24
ATOM     24  O   UNL     1     -20.095  10.349  -9.114  1.00  0.00    -0.507 OA
ATOM     25  H   UNL     1     -19.651   9.585  -8.627  1.00  0.00     0.293 HD
ENDBRANCH   6  24
BRANCH   8  26
ATOM     26  O   UNL     1     -19.148  13.216 -12.848  1.00  0.00    -0.508 OA
ATOM     27  H   UNL     1     -20.025  13.017 -13.316  1.00  0.00     0.293 HD
ENDBRANCH   8  26
TORSDOF 6
ENDMDL
MODEL 8
REMARK VINA RESULT:    -6.046      1.424      3.130
REMARK INTER + INTRA:          -7.315
REMARK INTER:                  -7.269
REMARK INTRA:                  -0.046
REMARK UNBOUND:                -0.032
REMARK SMILES O=c1c(O)c(-c2ccc(O)c(O)c2)oc2cc(O)cc(O)c12
REMARK SMILES IDX 5 1 3 2 2 3 1 4 22 5 20 6 19 7 17 8 16 9 15 10 14 11 6 12
REMARK SMILES IDX 7 13 8 14 9 15 13 16 11 17 10 18 12 20 4 22 21 24 18 26
REMARK H PARENT 10 19 12 21 4 23 21 25 18 27
REMARK Flexibility Score: inf
ROOT
ATOM      1  C   UNL     1     -17.314  13.961  -7.431  1.00  0.00     0.180 A 
ATOM      2  C   UNL     1     -18.091  13.940  -6.261  1.00  0.00     0.208 A 
ATOM      3  C   UNL     1     -17.636  14.633  -5.127  1.00  0.00     0.238 A 
ATOM      4  O   UNL     1     -18.309  14.565  -4.066  1.00  0.00    -0.285 OA
ATOM      5  C   UNL     1     -16.418  15.351  -5.184  1.00  0.00     0.111 A 
ATOM      6  C   UNL     1     -15.881  16.122  -4.109  1.00  0.00     0.134 A 
ATOM      7  C   UNL     1     -14.604  16.684  -4.233  1.00  0.00     0.093 A 
ATOM      8  C   UNL     1     -13.874  16.559  -5.418  1.00  0.00     0.123 A 
ATOM      9  C   UNL     1     -14.415  15.859  -6.492  1.00  0.00     0.094 A 
ATOM     10  C   UNL     1     -15.670  15.257  -6.387  1.00  0.00     0.146 A 
ATOM     11  O   UNL     1     -16.144  14.589  -7.432  1.00  0.00    -0.452 OA
ENDROOT
BRANCH   1  12
ATOM     12  C   UNL     1     -17.740  13.275  -8.673  1.00  0.00     0.025 A 
ATOM     13  C   UNL     1     -19.013  13.490  -9.228  1.00  0.00     0.016 A 
ATOM     14  C   UNL     1     -19.384  12.851 -10.413  1.00  0.00     0.051 A 
ATOM     15  C   UNL     1     -18.489  12.001 -11.069  1.00  0.00     0.157 A 
ATOM     16  C   UNL     1     -16.835  12.437  -9.346  1.00  0.00     0.062 A 
ATOM     17  C   UNL     1     -17.207  11.795 -10.536  1.00  0.00     0.158 A 
BRANCH  15  18
ATOM     18  O   UNL     1     -18.889  11.376 -12.250  1.00  0.00    -0.504 OA
ATOM     19  H   UNL     1     -18.547  10.461 -12.517  1.00  0.00     0.293 HD
ENDBRANCH  15  18
BRANCH  17  20
ATOM     20  O   UNL     1     -16.306  10.955 -11.188  1.00  0.00    -0.504 OA
ATOM     21  H   UNL     1     -15.304  11.056 -11.071  1.00  0.00     0.293 HD
ENDBRANCH  17  20
ENDBRANCH   1  12
BRANCH   2  22
ATOM     22  O   UNL     1     -19.280  13.206  -6.220  1.00  0.00    -0.502 OA
ATOM     23  H   UNL     1     -19.816  13.084  -5.369  1.00  0.00     0.293 HD
ENDBRANCH   2  22
BRANCH   6  24
ATOM     24  O   UNL     1     -16.566  16.386  -2.920  1.00  0.00    -0.507 OA
ATOM     25  H   UNL     1     -17.276  15.790  -2.521  1.00  0.00     0.293 HD
ENDBRANCH   6  24
BRANCH   8  26
ATOM     26  O   UNL     1     -12.611  17.135  -5.537  1.00  0.00    -0.508 OA
ATOM     27  H   UNL     1     -12.164  17.252  -6.440  1.00  0.00     0.293 HD
ENDBRANCH   8  26
TORSDOF 6
ENDMDL
