MODEL 1
REMARK VINA RESULT:    -6.594      0.000      0.000
REMARK INTER + INTRA:          -9.849
REMARK INTER:                  -8.714
REMARK INTRA:                  -1.135
REMARK UNBOUND:                -1.135
REMARK SMILES CC[C@H](C=C[C@@H](C)[C@@H]1CC[C@H]2[C@@H]3CC=C4C[C@H](O)CC[C@@]4(C)[C@H]3CC[C@]21C)C(C)C
REMARK SMILES IDX 6 1 7 2 5 3 4 4 3 5 2 6 1 7 28 8 29 9 30 10 8 11 9 12 26 13
REMARK SMILES IDX 10 14 11 15 25 16 27 17 12 18 24 19 23 20 13 21 21 22 14 23
REMARK SMILES IDX 15 24 20 25 22 26 16 27 19 28 17 29 18 30
REMARK H PARENT 18 31
REMARK Flexibility Score: inf
ROOT
ATOM      1  C   UNL     1      42.323  14.189  23.936  1.00  0.00     0.012 C 
ATOM      2  C   UNL     1      42.012  15.237  22.851  1.00  0.00     0.012 C 
ENDROOT
BRANCH   1   3
ATOM      3  C   UNL     1      42.493  12.850  23.248  1.00  0.00    -0.028 C 
ATOM      4  C   UNL     1      43.677  12.212  23.207  1.00  0.00    -0.027 C 
BRANCH   4   5
ATOM      5  C   UNL     1      43.886  10.891  22.484  1.00  0.00     0.014 C 
BRANCH   5   6
ATOM      6  C   UNL     1      45.088  10.962  21.503  1.00  0.00     0.004 C 
ATOM      7  C   UNL     1      45.836  12.296  21.565  1.00  0.00     0.004 C 
ENDBRANCH   5   6
BRANCH   5   8
ATOM      8  C   UNL     1      43.923   9.668  23.456  1.00  0.00    -0.011 C 
ATOM      9  C   UNL     1      44.766   8.484  22.954  1.00  0.00     0.008 C 
ATOM     10  C   UNL     1      44.402  10.097  24.853  1.00  0.00     0.008 C 
ENDBRANCH   5   8
ENDBRANCH   4   5
ENDBRANCH   1   3
BRANCH   1  11
ATOM     11  C   UNL     1      41.262  14.067  25.085  1.00  0.00     0.002 C 
ATOM     12  C   UNL     1      40.930  15.361  25.818  1.00  0.00     0.005 C 
ATOM     13  C   UNL     1      41.523  13.023  26.209  1.00  0.00    -0.026 C 
ATOM     14  C   UNL     1      40.104  14.910  27.009  1.00  0.00     0.005 C 
ATOM     15  C   UNL     1      40.582  13.484  27.373  1.00  0.00    -0.001 C 
ATOM     16  C   UNL     1      41.185  11.589  25.707  1.00  0.00     0.007 C 
ATOM     17  C   UNL     1      42.990  13.058  26.711  1.00  0.00     0.012 C 
ATOM     18  C   UNL     1      39.390  12.516  27.631  1.00  0.00     0.000 C 
ATOM     19  C   UNL     1      40.983  10.609  26.869  1.00  0.00     0.005 C 
ATOM     20  C   UNL     1      39.874  11.061  27.870  1.00  0.00     0.003 C 
ATOM     21  C   UNL     1      38.585  12.955  28.865  1.00  0.00     0.031 C 
ATOM     22  C   UNL     1      38.659  10.061  28.012  1.00  0.00    -0.008 C 
ATOM     23  C   UNL     1      37.478  11.991  29.169  1.00  0.00    -0.027 C 
ATOM     24  C   UNL     1      37.520  10.677  28.847  1.00  0.00    -0.065 C 
ATOM     25  C   UNL     1      38.044   9.680  26.622  1.00  0.00     0.014 C 
ATOM     26  C   UNL     1      39.181   8.790  28.736  1.00  0.00     0.016 C 
ATOM     27  C   UNL     1      36.256   9.861  29.011  1.00  0.00     0.063 C 
ATOM     28  C   UNL     1      36.733   8.865  26.724  1.00  0.00     0.033 C 
ATOM     29  C   UNL     1      35.685   9.559  27.615  1.00  0.00     0.118 C 
BRANCH  29  30
ATOM     30  O   UNL     1      34.521   8.779  27.711  1.00  0.00    -0.393 OA
ATOM     31  H   UNL     1      34.588   8.245  28.545  1.00  0.00     0.210 HD
ENDBRANCH  29  30
ENDBRANCH   1  11
TORSDOF 6
ENDMDL
MODEL 2
REMARK VINA RESULT:    -6.307      1.864      3.156
REMARK INTER + INTRA:          -9.470
REMARK INTER:                  -7.957
REMARK INTRA:                  -1.514
REMARK UNBOUND:                -1.135
REMARK SMILES CC[C@H](C=C[C@@H](C)[C@@H]1CC[C@H]2[C@@H]3CC=C4C[C@H](O)CC[C@@]4(C)[C@H]3CC[C@]21C)C(C)C
REMARK SMILES IDX 6 1 7 2 5 3 4 4 3 5 2 6 1 7 28 8 29 9 30 10 8 11 9 12 26 13
REMARK SMILES IDX 10 14 11 15 25 16 27 17 12 18 24 19 23 20 13 21 21 22 14 23
REMARK SMILES IDX 15 24 20 25 22 26 16 27 19 28 17 29 18 30
REMARK H PARENT 18 31
REMARK Flexibility Score: inf
ROOT
ATOM      1  C   UNL     1      44.740  13.057  23.420  1.00  0.00     0.012 C 
ATOM      2  C   UNL     1      44.874  13.816  22.085  1.00  0.00     0.012 C 
ENDROOT
BRANCH   1   3
ATOM      3  C   UNL     1      45.450  11.728  23.266  1.00  0.00    -0.028 C 
ATOM      4  C   UNL     1      44.779  10.573  23.105  1.00  0.00    -0.027 C 
BRANCH   4   5
ATOM      5  C   UNL     1      45.464   9.220  22.995  1.00  0.00     0.014 C 
BRANCH   5   6
ATOM      6  C   UNL     1      45.105   8.300  24.193  1.00  0.00     0.004 C 
ATOM      7  C   UNL     1      43.886   8.786  24.981  1.00  0.00     0.004 C 
ENDBRANCH   5   6
BRANCH   5   8
ATOM      8  C   UNL     1      45.269   8.555  21.594  1.00  0.00    -0.011 C 
ATOM      9  C   UNL     1      44.067   7.600  21.509  1.00  0.00     0.008 C 
ATOM     10  C   UNL     1      45.167   9.624  20.494  1.00  0.00     0.008 C 
ENDBRANCH   5   8
ENDBRANCH   4   5
ENDBRANCH   1   3
BRANCH   1  11
ATOM     11  C   UNL     1      43.272  12.825  23.923  1.00  0.00     0.002 C 
ATOM     12  C   UNL     1      42.169  13.240  22.958  1.00  0.00     0.005 C 
ATOM     13  C   UNL     1      42.866  13.444  25.291  1.00  0.00    -0.026 C 
ATOM     14  C   UNL     1      40.900  13.150  23.787  1.00  0.00     0.005 C 
ATOM     15  C   UNL     1      41.301  13.438  25.254  1.00  0.00    -0.001 C 
ATOM     16  C   UNL     1      43.433  12.591  26.464  1.00  0.00     0.007 C 
ATOM     17  C   UNL     1      43.355  14.909  25.439  1.00  0.00     0.012 C 
ATOM     18  C   UNL     1      40.658  12.424  26.245  1.00  0.00     0.000 C 
ATOM     19  C   UNL     1      42.704  12.874  27.782  1.00  0.00     0.005 C 
ATOM     20  C   UNL     1      41.164  12.641  27.696  1.00  0.00     0.003 C 
ATOM     21  C   UNL     1      39.126  12.562  26.253  1.00  0.00     0.031 C 
ATOM     22  C   UNL     1      40.603  11.537  28.678  1.00  0.00    -0.008 C 
ATOM     23  C   UNL     1      38.498  11.643  27.257  1.00  0.00    -0.027 C 
ATOM     24  C   UNL     1      39.124  11.221  28.380  1.00  0.00    -0.065 C 
ATOM     25  C   UNL     1      41.387  10.186  28.554  1.00  0.00     0.014 C 
ATOM     26  C   UNL     1      40.715  12.095  30.123  1.00  0.00     0.016 C 
ATOM     27  C   UNL     1      38.467  10.128  29.197  1.00  0.00     0.063 C 
ATOM     28  C   UNL     1      40.748   9.021  29.347  1.00  0.00     0.033 C 
ATOM     29  C   UNL     1      39.260   8.825  28.997  1.00  0.00     0.118 C 
BRANCH  29  30
ATOM     30  O   UNL     1      38.705   7.783  29.756  1.00  0.00    -0.393 OA
ATOM     31  H   UNL     1      39.454   7.307  30.201  1.00  0.00     0.210 HD
ENDBRANCH  29  30
ENDBRANCH   1  11
TORSDOF 6
ENDMDL
MODEL 3
REMARK VINA RESULT:    -6.163      1.691      2.837
REMARK INTER + INTRA:          -9.280
REMARK INTER:                  -8.949
REMARK INTRA:                  -0.331
REMARK UNBOUND:                -1.135
REMARK SMILES CC[C@H](C=C[C@@H](C)[C@@H]1CC[C@H]2[C@@H]3CC=C4C[C@H](O)CC[C@@]4(C)[C@H]3CC[C@]21C)C(C)C
REMARK SMILES IDX 6 1 7 2 5 3 4 4 3 5 2 6 1 7 28 8 29 9 30 10 8 11 9 12 26 13
REMARK SMILES IDX 10 14 11 15 25 16 27 17 12 18 24 19 23 20 13 21 21 22 14 23
REMARK SMILES IDX 15 24 20 25 22 26 16 27 19 28 17 29 18 30
REMARK H PARENT 18 31
REMARK Flexibility Score: inf
ROOT
ATOM      1  C   UNL     1      41.404  14.593  23.538  1.00  0.00     0.012 C 
ATOM      2  C   UNL     1      41.267  13.343  22.647  1.00  0.00     0.012 C 
ENDROOT
BRANCH   1   3
ATOM      3  C   UNL     1      42.870  14.972  23.578  1.00  0.00    -0.028 C 
ATOM      4  C   UNL     1      43.728  14.614  22.607  1.00  0.00    -0.027 C 
BRANCH   4   5
ATOM      5  C   UNL     1      45.213  14.941  22.644  1.00  0.00     0.014 C 
BRANCH   5   6
ATOM      6  C   UNL     1      46.081  13.654  22.617  1.00  0.00     0.004 C 
ATOM      7  C   UNL     1      45.452  12.522  21.801  1.00  0.00     0.004 C 
ENDBRANCH   5   6
BRANCH   5   8
ATOM      8  C   UNL     1      45.623  16.015  21.586  1.00  0.00    -0.011 C 
ATOM      9  C   UNL     1      44.688  16.093  20.367  1.00  0.00     0.008 C 
ATOM     10  C   UNL     1      45.750  17.401  22.239  1.00  0.00     0.008 C 
ENDBRANCH   5   8
ENDBRANCH   4   5
ENDBRANCH   1   3
BRANCH   1  11
ATOM     11  C   UNL     1      40.849  14.449  24.998  1.00  0.00     0.002 C 
ATOM     12  C   UNL     1      41.162  15.603  25.941  1.00  0.00     0.005 C 
ATOM     13  C   UNL     1      41.221  13.165  25.794  1.00  0.00    -0.026 C 
ATOM     14  C   UNL     1      40.745  15.088  27.307  1.00  0.00     0.005 C 
ATOM     15  C   UNL     1      40.931  13.551  27.283  1.00  0.00    -0.001 C 
ATOM     16  C   UNL     1      40.358  11.960  25.316  1.00  0.00     0.007 C 
ATOM     17  C   UNL     1      42.724  12.806  25.656  1.00  0.00     0.012 C 
ATOM     18  C   UNL     1      39.709  12.805  27.894  1.00  0.00     0.000 C 
ATOM     19  C   UNL     1      40.349  10.821  26.342  1.00  0.00     0.005 C 
ATOM     20  C   UNL     1      39.847  11.266  27.751  1.00  0.00     0.003 C 
ATOM     21  C   UNL     1      39.560  13.130  29.390  1.00  0.00     0.031 C 
ATOM     22  C   UNL     1      38.554  10.517  28.263  1.00  0.00    -0.008 C 
ATOM     23  C   UNL     1      38.432  12.360  30.009  1.00  0.00    -0.027 C 
ATOM     24  C   UNL     1      38.007  11.159  29.552  1.00  0.00    -0.065 C 
ATOM     25  C   UNL     1      37.393  10.559  27.211  1.00  0.00     0.014 C 
ATOM     26  C   UNL     1      38.952   9.047  28.566  1.00  0.00     0.016 C 
ATOM     27  C   UNL     1      36.725  10.592  30.125  1.00  0.00     0.063 C 
ATOM     28  C   UNL     1      36.048  10.015  27.746  1.00  0.00     0.033 C 
ATOM     29  C   UNL     1      35.622  10.702  29.058  1.00  0.00     0.118 C 
BRANCH  29  30
ATOM     30  O   UNL     1      34.415  10.164  29.531  1.00  0.00    -0.393 OA
ATOM     31  H   UNL     1      33.732  10.293  28.822  1.00  0.00     0.210 HD
ENDBRANCH  29  30
ENDBRANCH   1  11
TORSDOF 6
ENDMDL
MODEL 4
REMARK VINA RESULT:    -6.120      2.745      7.791
REMARK INTER + INTRA:          -9.223
REMARK INTER:                  -8.415
REMARK INTRA:                  -0.808
REMARK UNBOUND:                -1.135
REMARK SMILES CC[C@H](C=C[C@@H](C)[C@@H]1CC[C@H]2[C@@H]3CC=C4C[C@H](O)CC[C@@]4(C)[C@H]3CC[C@]21C)C(C)C
REMARK SMILES IDX 6 1 7 2 5 3 4 4 3 5 2 6 1 7 28 8 29 9 30 10 8 11 9 12 26 13
REMARK SMILES IDX 10 14 11 15 25 16 27 17 12 18 24 19 23 20 13 21 21 22 14 23
REMARK SMILES IDX 15 24 20 25 22 26 16 27 19 28 17 29 18 30
REMARK H PARENT 18 31
REMARK Flexibility Score: inf
ROOT
ATOM      1  C   UNL     1      38.768  13.450  27.445  1.00  0.00     0.012 C 
ATOM      2  C   UNL     1      38.457  14.530  28.499  1.00  0.00     0.012 C 
ENDROOT
BRANCH   1   3
ATOM      3  C   UNL     1      37.961  12.218  27.796  1.00  0.00    -0.028 C 
ATOM      4  C   UNL     1      37.235  11.554  26.880  1.00  0.00    -0.027 C 
BRANCH   4   5
ATOM      5  C   UNL     1      36.379  10.342  27.214  1.00  0.00     0.014 C 
BRANCH   5   6
ATOM      6  C   UNL     1      36.997   9.034  26.648  1.00  0.00     0.004 C 
ATOM      7  C   UNL     1      35.972   8.140  25.947  1.00  0.00     0.004 C 
ENDBRANCH   5   6
BRANCH   5   8
ATOM      8  C   UNL     1      35.997  10.269  28.727  1.00  0.00    -0.011 C 
ATOM      9  C   UNL     1      34.506   9.998  28.992  1.00  0.00     0.008 C 
ATOM     10  C   UNL     1      36.857   9.223  29.456  1.00  0.00     0.008 C 
ENDBRANCH   5   8
ENDBRANCH   4   5
ENDBRANCH   1   3
BRANCH   1  11
ATOM     11  C   UNL     1      40.283  13.071  27.291  1.00  0.00     0.002 C 
ATOM     12  C   UNL     1      41.087  13.021  28.584  1.00  0.00     0.005 C 
ATOM     13  C   UNL     1      41.147  13.916  26.311  1.00  0.00    -0.026 C 
ATOM     14  C   UNL     1      42.527  12.894  28.119  1.00  0.00     0.005 C 
ATOM     15  C   UNL     1      42.619  13.602  26.745  1.00  0.00    -0.001 C 
ATOM     16  C   UNL     1      40.864  13.499  24.838  1.00  0.00     0.007 C 
ATOM     17  C   UNL     1      40.895  15.438  26.471  1.00  0.00     0.012 C 
ATOM     18  C   UNL     1      43.409  12.756  25.704  1.00  0.00     0.000 C 
ATOM     19  C   UNL     1      41.981  13.949  23.890  1.00  0.00     0.005 C 
ATOM     20  C   UNL     1      43.388  13.412  24.298  1.00  0.00     0.003 C 
ATOM     21  C   UNL     1      44.878  12.596  26.130  1.00  0.00     0.031 C 
ATOM     22  C   UNL     1      44.088  12.494  23.219  1.00  0.00    -0.008 C 
ATOM     23  C   UNL     1      45.669  11.846  25.100  1.00  0.00    -0.027 C 
ATOM     24  C   UNL     1      45.363  11.838  23.782  1.00  0.00    -0.065 C 
ATOM     25  C   UNL     1      43.155  11.329  22.742  1.00  0.00     0.014 C 
ATOM     26  C   UNL     1      44.477  13.398  22.017  1.00  0.00     0.016 C 
ATOM     27  C   UNL     1      46.106  10.873  22.883  1.00  0.00     0.063 C 
ATOM     28  C   UNL     1      43.864  10.293  21.839  1.00  0.00     0.033 C 
ATOM     29  C   UNL     1      45.146   9.737  22.488  1.00  0.00     0.118 C 
BRANCH  29  30
ATOM     30  O   UNL     1      45.781   8.824  21.631  1.00  0.00    -0.393 OA
ATOM     31  H   UNL     1      45.825   9.241  20.731  1.00  0.00     0.210 HD
ENDBRANCH  29  30
ENDBRANCH   1  11
TORSDOF 6
ENDMDL
MODEL 5
REMARK VINA RESULT:    -6.109      1.209      2.036
REMARK INTER + INTRA:          -9.208
REMARK INTER:                  -8.304
REMARK INTRA:                  -0.904
REMARK UNBOUND:                -1.135
REMARK SMILES CC[C@H](C=C[C@@H](C)[C@@H]1CC[C@H]2[C@@H]3CC=C4C[C@H](O)CC[C@@]4(C)[C@H]3CC[C@]21C)C(C)C
REMARK SMILES IDX 6 1 7 2 5 3 4 4 3 5 2 6 1 7 28 8 29 9 30 10 8 11 9 12 26 13
REMARK SMILES IDX 10 14 11 15 25 16 27 17 12 18 24 19 23 20 13 21 21 22 14 23
REMARK SMILES IDX 15 24 20 25 22 26 16 27 19 28 17 29 18 30
REMARK H PARENT 18 31
REMARK Flexibility Score: inf
ROOT
ATOM      1  C   UNL     1      44.026  13.167  24.054  1.00  0.00     0.012 C 
ATOM      2  C   UNL     1      44.141  13.568  22.571  1.00  0.00     0.012 C 
ENDROOT
BRANCH   1   3
ATOM      3  C   UNL     1      44.441  11.715  24.172  1.00  0.00    -0.028 C 
ATOM      4  C   UNL     1      44.405  10.873  23.124  1.00  0.00    -0.027 C 
BRANCH   4   5
ATOM      5  C   UNL     1      44.773   9.401  23.225  1.00  0.00     0.014 C 
BRANCH   5   6
ATOM      6  C   UNL     1      43.821   8.641  24.188  1.00  0.00     0.004 C 
ATOM      7  C   UNL     1      44.513   8.171  25.470  1.00  0.00     0.004 C 
ENDBRANCH   5   6
BRANCH   5   8
ATOM      8  C   UNL     1      44.947   8.724  21.828  1.00  0.00    -0.011 C 
ATOM      9  C   UNL     1      43.797   7.783  21.431  1.00  0.00     0.008 C 
ATOM     10  C   UNL     1      45.159   9.782  20.733  1.00  0.00     0.008 C 
ENDBRANCH   5   8
ENDBRANCH   4   5
ENDBRANCH   1   3
BRANCH   1  11
ATOM     11  C   UNL     1      42.613  13.373  24.704  1.00  0.00     0.002 C 
ATOM     12  C   UNL     1      42.085  14.802  24.699  1.00  0.00     0.005 C 
ATOM     13  C   UNL     1      42.403  12.870  26.161  1.00  0.00    -0.026 C 
ATOM     14  C   UNL     1      40.862  14.748  25.597  1.00  0.00     0.005 C 
ATOM     15  C   UNL     1      41.118  13.630  26.637  1.00  0.00    -0.001 C 
ATOM     16  C   UNL     1      42.218  11.325  26.182  1.00  0.00     0.007 C 
ATOM     17  C   UNL     1      43.583  13.258  27.090  1.00  0.00     0.012 C 
ATOM     18  C   UNL     1      39.878  12.705  26.818  1.00  0.00     0.000 C 
ATOM     19  C   UNL     1      41.566  10.843  27.483  1.00  0.00     0.005 C 
ATOM     20  C   UNL     1      40.185  11.515  27.764  1.00  0.00     0.003 C 
ATOM     21  C   UNL     1      38.694  13.487  27.409  1.00  0.00     0.031 C 
ATOM     22  C   UNL     1      38.966  10.513  27.852  1.00  0.00    -0.008 C 
ATOM     23  C   UNL     1      37.516  12.592  27.658  1.00  0.00    -0.027 C 
ATOM     24  C   UNL     1      37.624  11.269  27.917  1.00  0.00    -0.065 C 
ATOM     25  C   UNL     1      38.890   9.566  26.606  1.00  0.00     0.014 C 
ATOM     26  C   UNL     1      39.136   9.680  29.152  1.00  0.00     0.016 C 
ATOM     27  C   UNL     1      36.357  10.439  27.934  1.00  0.00     0.063 C 
ATOM     28  C   UNL     1      37.603   8.710  26.553  1.00  0.00     0.033 C 
ATOM     29  C   UNL     1      36.328   9.568  26.667  1.00  0.00     0.118 C 
BRANCH  29  30
ATOM     30  O   UNL     1      35.181   8.757  26.646  1.00  0.00    -0.393 OA
ATOM     31  H   UNL     1      35.388   7.962  26.088  1.00  0.00     0.210 HD
ENDBRANCH  29  30
ENDBRANCH   1  11
TORSDOF 6
ENDMDL
MODEL 6
REMARK VINA RESULT:    -6.060      2.408      3.256
REMARK INTER + INTRA:          -9.143
REMARK INTER:                  -8.021
REMARK INTRA:                  -1.122
REMARK UNBOUND:                -1.135
REMARK SMILES CC[C@H](C=C[C@@H](C)[C@@H]1CC[C@H]2[C@@H]3CC=C4C[C@H](O)CC[C@@]4(C)[C@H]3CC[C@]21C)C(C)C
REMARK SMILES IDX 6 1 7 2 5 3 4 4 3 5 2 6 1 7 28 8 29 9 30 10 8 11 9 12 26 13
REMARK SMILES IDX 10 14 11 15 25 16 27 17 12 18 24 19 23 20 13 21 21 22 14 23
REMARK SMILES IDX 15 24 20 25 22 26 16 27 19 28 17 29 18 30
REMARK H PARENT 18 31
REMARK Flexibility Score: inf
ROOT
ATOM      1  C   UNL     1      42.682  14.851  26.649  1.00  0.00     0.012 C 
ATOM      2  C   UNL     1      43.119  16.306  26.910  1.00  0.00     0.012 C 
ENDROOT
BRANCH   1   3
ATOM      3  C   UNL     1      42.928  14.552  25.184  1.00  0.00    -0.028 C 
ATOM      4  C   UNL     1      42.935  15.518  24.249  1.00  0.00    -0.027 C 
BRANCH   4   5
ATOM      5  C   UNL     1      43.133  15.242  22.767  1.00  0.00     0.014 C 
BRANCH   5   6
ATOM      6  C   UNL     1      41.929  15.745  21.926  1.00  0.00     0.004 C 
ATOM      7  C   UNL     1      42.335  16.715  20.814  1.00  0.00     0.004 C 
ENDBRANCH   5   6
BRANCH   5   8
ATOM      8  C   UNL     1      44.526  15.718  22.243  1.00  0.00    -0.011 C 
ATOM      9  C   UNL     1      45.300  16.613  23.225  1.00  0.00     0.008 C 
ATOM     10  C   UNL     1      45.394  14.517  21.834  1.00  0.00     0.008 C 
ENDBRANCH   5   8
ENDBRANCH   4   5
ENDBRANCH   1   3
BRANCH   1  11
ATOM     11  C   UNL     1      41.196  14.513  27.021  1.00  0.00     0.002 C 
ATOM     12  C   UNL     1      40.296  15.710  27.301  1.00  0.00     0.005 C 
ATOM     13  C   UNL     1      40.948  13.536  28.206  1.00  0.00    -0.026 C 
ATOM     14  C   UNL     1      39.031  15.095  27.874  1.00  0.00     0.005 C 
ATOM     15  C   UNL     1      39.452  13.791  28.594  1.00  0.00    -0.001 C 
ATOM     16  C   UNL     1      41.200  12.066  27.760  1.00  0.00     0.007 C 
ATOM     17  C   UNL     1      41.843  13.861  29.431  1.00  0.00     0.012 C 
ATOM     18  C   UNL     1      38.507  12.602  28.250  1.00  0.00     0.000 C 
ATOM     19  C   UNL     1      40.546  11.058  28.713  1.00  0.00     0.005 C 
ATOM     20  C   UNL     1      39.008  11.273  28.874  1.00  0.00     0.003 C 
ATOM     21  C   UNL     1      37.085  12.864  28.775  1.00  0.00     0.031 C 
ATOM     22  C   UNL     1      38.116  10.049  28.426  1.00  0.00    -0.008 C 
ATOM     23  C   UNL     1      36.182  11.695  28.516  1.00  0.00    -0.027 C 
ATOM     24  C   UNL     1      36.620  10.419  28.416  1.00  0.00    -0.065 C 
ATOM     25  C   UNL     1      38.469   9.560  26.980  1.00  0.00     0.014 C 
ATOM     26  C   UNL     1      38.342   8.904  29.451  1.00  0.00     0.016 C 
ATOM     27  C   UNL     1      35.644   9.365  27.939  1.00  0.00     0.063 C 
ATOM     28  C   UNL     1      37.490   8.498  26.425  1.00  0.00     0.033 C 
ATOM     29  C   UNL     1      36.023   8.963  26.503  1.00  0.00     0.118 C 
BRANCH  29  30
ATOM     30  O   UNL     1      35.161   7.965  26.021  1.00  0.00    -0.393 OA
ATOM     31  H   UNL     1      35.641   7.098  26.087  1.00  0.00     0.210 HD
ENDBRANCH  29  30
ENDBRANCH   1  11
TORSDOF 6
ENDMDL
MODEL 7
REMARK VINA RESULT:    -5.858      3.367      8.778
REMARK INTER + INTRA:          -8.877
REMARK INTER:                  -8.161
REMARK INTRA:                  -0.715
REMARK UNBOUND:                -1.135
REMARK SMILES CC[C@H](C=C[C@@H](C)[C@@H]1CC[C@H]2[C@@H]3CC=C4C[C@H](O)CC[C@@]4(C)[C@H]3CC[C@]21C)C(C)C
REMARK SMILES IDX 6 1 7 2 5 3 4 4 3 5 2 6 1 7 28 8 29 9 30 10 8 11 9 12 26 13
REMARK SMILES IDX 10 14 11 15 25 16 27 17 12 18 24 19 23 20 13 21 21 22 14 23
REMARK SMILES IDX 15 24 20 25 22 26 16 27 19 28 17 29 18 30
REMARK H PARENT 18 31
REMARK Flexibility Score: inf
ROOT
ATOM      1  C   UNL     1      41.003  11.734  27.288  1.00  0.00     0.012 C 
ATOM      2  C   UNL     1      41.287  10.759  28.447  1.00  0.00     0.012 C 
ENDROOT
BRANCH   1   3
ATOM      3  C   UNL     1      39.594  11.470  26.799  1.00  0.00    -0.028 C 
ATOM      4  C   UNL     1      38.763  10.625  27.434  1.00  0.00    -0.027 C 
BRANCH   4   5
ATOM      5  C   UNL     1      37.361  10.307  26.939  1.00  0.00     0.014 C 
BRANCH   5   6
ATOM      6  C   UNL     1      37.244   8.833  26.464  1.00  0.00     0.004 C 
ATOM      7  C   UNL     1      35.847   8.474  25.955  1.00  0.00     0.004 C 
ENDBRANCH   5   6
BRANCH   5   8
ATOM      8  C   UNL     1      36.250  10.747  27.945  1.00  0.00    -0.011 C 
ATOM      9  C   UNL     1      36.228   9.944  29.257  1.00  0.00     0.008 C 
ATOM     10  C   UNL     1      36.359  12.250  28.253  1.00  0.00     0.008 C 
ENDBRANCH   5   8
ENDBRANCH   4   5
ENDBRANCH   1   3
BRANCH   1  11
ATOM     11  C   UNL     1      42.008  11.666  26.085  1.00  0.00     0.002 C 
ATOM     12  C   UNL     1      42.519  10.277  25.728  1.00  0.00     0.005 C 
ATOM     13  C   UNL     1      43.281  12.559  26.150  1.00  0.00    -0.026 C 
ATOM     14  C   UNL     1      43.639  10.538  24.735  1.00  0.00     0.005 C 
ATOM     15  C   UNL     1      44.242  11.917  25.093  1.00  0.00    -0.001 C 
ATOM     16  C   UNL     1      42.927  14.036  25.808  1.00  0.00     0.007 C 
ATOM     17  C   UNL     1      43.964  12.505  27.542  1.00  0.00     0.012 C 
ATOM     18  C   UNL     1      44.462  12.803  23.831  1.00  0.00     0.000 C 
ATOM     19  C   UNL     1      44.168  14.845  25.412  1.00  0.00     0.005 C 
ATOM     20  C   UNL     1      44.947  14.228  24.209  1.00  0.00     0.003 C 
ATOM     21  C   UNL     1      45.512  12.178  22.899  1.00  0.00     0.031 C 
ATOM     22  C   UNL     1      45.055  15.161  22.939  1.00  0.00    -0.008 C 
ATOM     23  C   UNL     1      45.789  13.057  21.716  1.00  0.00    -0.027 C 
ATOM     24  C   UNL     1      45.646  14.402  21.735  1.00  0.00    -0.065 C 
ATOM     25  C   UNL     1      43.656  15.704  22.486  1.00  0.00     0.014 C 
ATOM     26  C   UNL     1      45.998  16.340  23.301  1.00  0.00     0.016 C 
ATOM     27  C   UNL     1      45.745  15.148  20.421  1.00  0.00     0.063 C 
ATOM     28  C   UNL     1      43.687  16.455  21.134  1.00  0.00     0.033 C 
ATOM     29  C   UNL     1      44.336  15.615  20.017  1.00  0.00     0.118 C 
BRANCH  29  30
ATOM     30  O   UNL     1      44.376  16.338  18.813  1.00  0.00    -0.393 OA
ATOM     31  H   UNL     1      43.693  17.055  18.873  1.00  0.00     0.210 HD
ENDBRANCH  29  30
ENDBRANCH   1  11
TORSDOF 6
ENDMDL
MODEL 8
REMARK VINA RESULT:    -5.826      2.680      7.646
REMARK INTER + INTRA:          -8.835
REMARK INTER:                  -7.713
REMARK INTRA:                  -1.122
REMARK UNBOUND:                -1.135
REMARK SMILES CC[C@H](C=C[C@@H](C)[C@@H]1CC[C@H]2[C@@H]3CC=C4C[C@H](O)CC[C@@]4(C)[C@H]3CC[C@]21C)C(C)C
REMARK SMILES IDX 6 1 7 2 5 3 4 4 3 5 2 6 1 7 28 8 29 9 30 10 8 11 9 12 26 13
REMARK SMILES IDX 10 14 11 15 25 16 27 17 12 18 24 19 23 20 13 21 21 22 14 23
REMARK SMILES IDX 15 24 20 25 22 26 16 27 19 28 17 29 18 30
REMARK H PARENT 18 31
REMARK Flexibility Score: inf
ROOT
ATOM      1  C   UNL     1      39.108  14.915  27.864  1.00  0.00     0.012 C 
ATOM      2  C   UNL     1      38.853  16.178  28.710  1.00  0.00     0.012 C 
ENDROOT
BRANCH   1   3
ATOM      3  C   UNL     1      38.288  13.789  28.459  1.00  0.00    -0.028 C 
ATOM      4  C   UNL     1      37.162  13.340  27.877  1.00  0.00    -0.027 C 
BRANCH   4   5
ATOM      5  C   UNL     1      36.295  12.243  28.475  1.00  0.00     0.014 C 
BRANCH   5   6
ATOM      6  C   UNL     1      37.155  11.070  29.019  1.00  0.00     0.004 C 
ATOM      7  C   UNL     1      36.894   9.748  28.294  1.00  0.00     0.004 C 
ENDBRANCH   5   6
BRANCH   5   8
ATOM      8  C   UNL     1      35.241  12.791  29.490  1.00  0.00    -0.011 C 
ATOM      9  C   UNL     1      34.584  14.115  29.068  1.00  0.00     0.008 C 
ATOM     10  C   UNL     1      34.158  11.736  29.772  1.00  0.00     0.008 C 
ENDBRANCH   5   8
ENDBRANCH   4   5
ENDBRANCH   1   3
BRANCH   1  11
ATOM     11  C   UNL     1      40.609  14.476  27.740  1.00  0.00     0.002 C 
ATOM     12  C   UNL     1      41.605  15.286  28.559  1.00  0.00     0.005 C 
ATOM     13  C   UNL     1      41.228  14.398  26.314  1.00  0.00    -0.026 C 
ATOM     14  C   UNL     1      42.961  14.824  28.055  1.00  0.00     0.005 C 
ATOM     15  C   UNL     1      42.772  14.407  26.576  1.00  0.00    -0.001 C 
ATOM     16  C   UNL     1      40.759  13.103  25.588  1.00  0.00     0.007 C 
ATOM     17  C   UNL     1      40.862  15.632  25.449  1.00  0.00     0.012 C 
ATOM     18  C   UNL     1      43.467  13.050  26.258  1.00  0.00     0.000 C 
ATOM     19  C   UNL     1      41.668  12.748  24.406  1.00  0.00     0.005 C 
ATOM     20  C   UNL     1      43.166  12.579  24.811  1.00  0.00     0.003 C 
ATOM     21  C   UNL     1      44.992  13.167  26.410  1.00  0.00     0.031 C 
ATOM     22  C   UNL     1      43.772  11.147  24.529  1.00  0.00    -0.008 C 
ATOM     23  C   UNL     1      45.680  11.889  26.035  1.00  0.00    -0.027 C 
ATOM     24  C   UNL     1      45.175  11.000  25.149  1.00  0.00    -0.065 C 
ATOM     25  C   UNL     1      42.889  10.003  25.138  1.00  0.00     0.014 C 
ATOM     26  C   UNL     1      43.883  10.979  22.989  1.00  0.00     0.016 C 
ATOM     27  C   UNL     1      45.856   9.654  25.022  1.00  0.00     0.063 C 
ATOM     28  C   UNL     1      43.544   8.604  25.061  1.00  0.00     0.033 C 
ATOM     29  C   UNL     1      44.957   8.589  25.674  1.00  0.00     0.118 C 
BRANCH  29  30
ATOM     30  O   UNL     1      45.534   7.313  25.560  1.00  0.00    -0.393 OA
ATOM     31  H   UNL     1      45.747   6.999  26.477  1.00  0.00     0.210 HD
ENDBRANCH  29  30
ENDBRANCH   1  11
TORSDOF 6
ENDMDL
MODEL 9
REMARK VINA RESULT:    -5.761      3.175      8.169
REMARK INTER + INTRA:          -8.748
REMARK INTER:                  -7.000
REMARK INTRA:                  -1.748
REMARK UNBOUND:                -1.135
REMARK SMILES CC[C@H](C=C[C@@H](C)[C@@H]1CC[C@H]2[C@@H]3CC=C4C[C@H](O)CC[C@@]4(C)[C@H]3CC[C@]21C)C(C)C
REMARK SMILES IDX 6 1 7 2 5 3 4 4 3 5 2 6 1 7 28 8 29 9 30 10 8 11 9 12 26 13
REMARK SMILES IDX 10 14 11 15 25 16 27 17 12 18 24 19 23 20 13 21 21 22 14 23
REMARK SMILES IDX 15 24 20 25 22 26 16 27 19 28 17 29 18 30
REMARK H PARENT 18 31
REMARK Flexibility Score: inf
ROOT
ATOM      1  C   UNL     1      37.620  11.604  29.615  1.00  0.00     0.012 C 
ATOM      2  C   UNL     1      36.239  10.929  29.508  1.00  0.00     0.012 C 
ENDROOT
BRANCH   1   3
ATOM      3  C   UNL     1      37.395  13.060  29.965  1.00  0.00    -0.028 C 
ATOM      4  C   UNL     1      37.382  14.026  29.030  1.00  0.00    -0.027 C 
BRANCH   4   5
ATOM      5  C   UNL     1      37.204  15.501  29.358  1.00  0.00     0.014 C 
BRANCH   5   6
ATOM      6  C   UNL     1      38.453  16.330  28.951  1.00  0.00     0.004 C 
ATOM      7  C   UNL     1      39.303  15.648  27.877  1.00  0.00     0.004 C 
ENDBRANCH   5   6
BRANCH   5   8
ATOM      8  C   UNL     1      35.851  16.079  28.833  1.00  0.00    -0.011 C 
ATOM      9  C   UNL     1      35.962  17.473  28.195  1.00  0.00     0.008 C 
ATOM     10  C   UNL     1      35.189  15.103  27.845  1.00  0.00     0.008 C 
ENDBRANCH   5   8
ENDBRANCH   4   5
ENDBRANCH   1   3
BRANCH   1  11
ATOM     11  C   UNL     1      38.529  11.494  28.341  1.00  0.00     0.002 C 
ATOM     12  C   UNL     1      38.127  10.426  27.333  1.00  0.00     0.005 C 
ATOM     13  C   UNL     1      40.057  11.294  28.554  1.00  0.00    -0.026 C 
ATOM     14  C   UNL     1      39.297  10.371  26.366  1.00  0.00     0.005 C 
ATOM     15  C   UNL     1      40.561  10.765  27.168  1.00  0.00    -0.001 C 
ATOM     16  C   UNL     1      40.731  12.640  28.953  1.00  0.00     0.007 C 
ATOM     17  C   UNL     1      40.363  10.226  29.636  1.00  0.00     0.012 C 
ATOM     18  C   UNL     1      41.448  11.785  26.396  1.00  0.00     0.000 C 
ATOM     19  C   UNL     1      42.247  12.609  28.728  1.00  0.00     0.005 C 
ATOM     20  C   UNL     1      42.644  12.270  27.257  1.00  0.00     0.003 C 
ATOM     21  C   UNL     1      42.014  11.157  25.112  1.00  0.00     0.031 C 
ATOM     22  C   UNL     1      43.475  13.393  26.518  1.00  0.00    -0.008 C 
ATOM     23  C   UNL     1      42.931  12.103  24.396  1.00  0.00    -0.027 C 
ATOM     24  C   UNL     1      43.639  13.074  25.019  1.00  0.00    -0.065 C 
ATOM     25  C   UNL     1      42.779  14.795  26.606  1.00  0.00     0.014 C 
ATOM     26  C   UNL     1      44.880  13.447  27.176  1.00  0.00     0.016 C 
ATOM     27  C   UNL     1      44.355  14.097  24.163  1.00  0.00     0.063 C 
ATOM     28  C   UNL     1      43.450  15.879  25.731  1.00  0.00     0.033 C 
ATOM     29  C   UNL     1      43.598  15.432  24.263  1.00  0.00     0.118 C 
BRANCH  29  30
ATOM     30  O   UNL     1      44.237  16.426  23.504  1.00  0.00    -0.393 OA
ATOM     31  H   UNL     1      43.991  16.279  22.554  1.00  0.00     0.210 HD
ENDBRANCH  29  30
ENDBRANCH   1  11
TORSDOF 6
ENDMDL
