MODEL 1
REMARK VINA RESULT:    -5.777      0.000      0.000
REMARK INTER + INTRA:          -7.138
REMARK INTER:                  -6.960
REMARK INTRA:                  -0.178
REMARK UNBOUND:                -0.178
REMARK SMILES O=c1c(O)c(-c2ccc(O)c(O)c2)oc2cc(O)cc(O)c12
REMARK SMILES IDX 5 1 3 2 2 3 1 4 22 5 20 6 19 7 17 8 16 9 15 10 14 11 6 12
REMARK SMILES IDX 7 13 8 14 9 15 13 16 11 17 10 18 12 20 4 22 21 24 18 26
REMARK H PARENT 10 19 12 21 4 23 21 25 18 27
REMARK Flexibility Score: inf
ROOT
ATOM      1  C   UNL     1      69.413   8.818 356.048  1.00  0.00     0.180 A 
ATOM      2  C   UNL     1      68.010   8.742 356.103  1.00  0.00     0.208 A 
ATOM      3  C   UNL     1      67.281   9.880 356.484  1.00  0.00     0.238 A 
ATOM      4  O   UNL     1      66.024   9.827 356.458  1.00  0.00    -0.285 OA
ATOM      5  C   UNL     1      67.965  11.063 356.857  1.00  0.00     0.111 A 
ATOM      6  C   UNL     1      67.329  12.262 357.302  1.00  0.00     0.134 A 
ATOM      7  C   UNL     1      68.102  13.404 357.544  1.00  0.00     0.093 A 
ATOM      8  C   UNL     1      69.490  13.375 357.420  1.00  0.00     0.123 A 
ATOM      9  C   UNL     1      70.127  12.193 357.038  1.00  0.00     0.094 A 
ATOM     10  C   UNL     1      69.380  11.047 356.753  1.00  0.00     0.146 A 
ATOM     11  O   UNL     1      70.024   9.951 356.373  1.00  0.00    -0.452 OA
ENDROOT
BRANCH   1  12
ATOM     12  C   UNL     1      70.250   7.666 355.643  1.00  0.00     0.025 A 
ATOM     13  C   UNL     1      70.173   7.124 354.347  1.00  0.00     0.016 A 
ATOM     14  C   UNL     1      70.990   6.051 353.980  1.00  0.00     0.051 A 
ATOM     15  C   UNL     1      71.905   5.515 354.895  1.00  0.00     0.157 A 
ATOM     16  C   UNL     1      71.184   7.138 356.549  1.00  0.00     0.062 A 
ATOM     17  C   UNL     1      72.005   6.061 356.181  1.00  0.00     0.158 A 
BRANCH  15  18
ATOM     18  O   UNL     1      72.721   4.445 354.534  1.00  0.00    -0.504 OA
ATOM     19  H   UNL     1      73.479   4.132 355.130  1.00  0.00     0.293 HD
ENDBRANCH  15  18
BRANCH  17  20
ATOM     20  O   UNL     1      72.921   5.531 357.088  1.00  0.00    -0.504 OA
ATOM     21  H   UNL     1      72.779   5.604 358.088  1.00  0.00     0.293 HD
ENDBRANCH  17  20
ENDBRANCH   1  12
BRANCH   2  22
ATOM     22  O   UNL     1      67.358   7.543 355.804  1.00  0.00    -0.502 OA
ATOM     23  H   UNL     1      66.893   7.383 354.919  1.00  0.00     0.293 HD
ENDBRANCH   2  22
BRANCH   6  24
ATOM     24  O   UNL     1      65.956  12.377 357.547  1.00  0.00    -0.507 OA
ATOM     25  H   UNL     1      65.268  12.645 356.860  1.00  0.00     0.293 HD
ENDBRANCH   6  24
BRANCH   8  26
ATOM     26  O   UNL     1      70.228  14.525 357.685  1.00  0.00    -0.508 OA
ATOM     27  H   UNL     1      70.367  15.241 356.981  1.00  0.00     0.293 HD
ENDBRANCH   8  26
TORSDOF 6
ENDMDL
MODEL 2
REMARK VINA RESULT:    -5.386      2.752      4.023
REMARK INTER + INTRA:          -6.667
REMARK INTER:                  -6.343
REMARK INTRA:                  -0.323
REMARK UNBOUND:                -0.178
REMARK SMILES O=c1c(O)c(-c2ccc(O)c(O)c2)oc2cc(O)cc(O)c12
REMARK SMILES IDX 5 1 3 2 2 3 1 4 22 5 20 6 19 7 17 8 16 9 15 10 14 11 6 12
REMARK SMILES IDX 7 13 8 14 9 15 13 16 11 17 10 18 12 20 4 22 21 24 18 26
REMARK H PARENT 10 19 12 21 4 23 21 25 18 27
REMARK Flexibility Score: inf
ROOT
ATOM      1  C   UNL     1      68.734   9.543 356.030  1.00  0.00     0.180 A 
ATOM      2  C   UNL     1      68.642  10.779 355.366  1.00  0.00     0.208 A 
ATOM      3  C   UNL     1      69.391  11.865 355.844  1.00  0.00     0.238 A 
ATOM      4  O   UNL     1      69.362  12.947 355.200  1.00  0.00    -0.285 OA
ATOM      5  C   UNL     1      70.179  11.720 357.012  1.00  0.00     0.111 A 
ATOM      6  C   UNL     1      70.944  12.766 357.611  1.00  0.00     0.134 A 
ATOM      7  C   UNL     1      71.770  12.479 358.705  1.00  0.00     0.093 A 
ATOM      8  C   UNL     1      71.810  11.201 359.261  1.00  0.00     0.123 A 
ATOM      9  C   UNL     1      71.025  10.184 358.717  1.00  0.00     0.094 A 
ATOM     10  C   UNL     1      70.221  10.430 357.602  1.00  0.00     0.146 A 
ATOM     11  O   UNL     1      69.507   9.428 357.104  1.00  0.00    -0.452 OA
ENDROOT
BRANCH   1  12
ATOM     12  C   UNL     1      67.986   8.348 355.578  1.00  0.00     0.025 A 
ATOM     13  C   UNL     1      66.685   8.080 356.041  1.00  0.00     0.016 A 
ATOM     14  C   UNL     1      65.989   6.957 355.582  1.00  0.00     0.051 A 
ATOM     15  C   UNL     1      66.575   6.097 354.646  1.00  0.00     0.157 A 
ATOM     16  C   UNL     1      68.560   7.492 354.624  1.00  0.00     0.062 A 
ATOM     17  C   UNL     1      67.862   6.366 354.163  1.00  0.00     0.158 A 
BRANCH  15  18
ATOM     18  O   UNL     1      65.885   4.976 354.187  1.00  0.00    -0.504 OA
ATOM     19  H   UNL     1      65.774   4.792 353.197  1.00  0.00     0.293 HD
ENDBRANCH  15  18
BRANCH  17  20
ATOM     20  O   UNL     1      68.441   5.512 353.226  1.00  0.00    -0.504 OA
ATOM     21  H   UNL     1      68.423   4.507 353.342  1.00  0.00     0.293 HD
ENDBRANCH  17  20
ENDBRANCH   1  12
BRANCH   2  22
ATOM     22  O   UNL     1      67.800  10.922 354.260  1.00  0.00    -0.502 OA
ATOM     23  H   UNL     1      67.753  11.777 353.719  1.00  0.00     0.293 HD
ENDBRANCH   2  22
BRANCH   6  24
ATOM     24  O   UNL     1      70.910  14.101 357.192  1.00  0.00    -0.507 OA
ATOM     25  H   UNL     1      70.477  14.428 356.342  1.00  0.00     0.293 HD
ENDBRANCH   6  24
BRANCH   8  26
ATOM     26  O   UNL     1      72.630  10.956 360.360  1.00  0.00    -0.508 OA
ATOM     27  H   UNL     1      73.528  11.415 360.465  1.00  0.00     0.293 HD
ENDBRANCH   8  26
TORSDOF 6
ENDMDL
MODEL 3
REMARK VINA RESULT:    -5.295      2.297      6.843
REMARK INTER + INTRA:          -6.557
REMARK INTER:                  -6.361
REMARK INTRA:                  -0.196
REMARK UNBOUND:                -0.178
REMARK SMILES O=c1c(O)c(-c2ccc(O)c(O)c2)oc2cc(O)cc(O)c12
REMARK SMILES IDX 5 1 3 2 2 3 1 4 22 5 20 6 19 7 17 8 16 9 15 10 14 11 6 12
REMARK SMILES IDX 7 13 8 14 9 15 13 16 11 17 10 18 12 20 4 22 21 24 18 26
REMARK H PARENT 10 19 12 21 4 23 21 25 18 27
REMARK Flexibility Score: inf
ROOT
ATOM      1  C   UNL     1      69.081   7.917 355.214  1.00  0.00     0.180 A 
ATOM      2  C   UNL     1      67.728   7.638 354.960  1.00  0.00     0.208 A 
ATOM      3  C   UNL     1      67.398   6.512 354.190  1.00  0.00     0.238 A 
ATOM      4  O   UNL     1      66.183   6.226 354.030  1.00  0.00    -0.285 OA
ATOM      5  C   UNL     1      68.426   5.709 353.638  1.00  0.00     0.111 A 
ATOM      6  C   UNL     1      68.209   4.570 352.806  1.00  0.00     0.134 A 
ATOM      7  C   UNL     1      69.299   3.789 352.404  1.00  0.00     0.093 A 
ATOM      8  C   UNL     1      70.603   4.142 352.748  1.00  0.00     0.123 A 
ATOM      9  C   UNL     1      70.832   5.285 353.516  1.00  0.00     0.094 A 
ATOM     10  C   UNL     1      69.761   6.062 353.965  1.00  0.00     0.146 A 
ATOM     11  O   UNL     1      70.023   7.128 354.710  1.00  0.00    -0.452 OA
ENDROOT
BRANCH   1  12
ATOM     12  C   UNL     1      69.508   9.079 356.028  1.00  0.00     0.025 A 
ATOM     13  C   UNL     1      70.133   8.908 357.277  1.00  0.00     0.016 A 
ATOM     14  C   UNL     1      70.549  10.019 358.016  1.00  0.00     0.051 A 
ATOM     15  C   UNL     1      70.361  11.313 357.513  1.00  0.00     0.157 A 
ATOM     16  C   UNL     1      69.341  10.378 355.520  1.00  0.00     0.062 A 
ATOM     17  C   UNL     1      69.759  11.493 356.262  1.00  0.00     0.158 A 
BRANCH  15  18
ATOM     18  O   UNL     1      70.773  12.423 358.248  1.00  0.00    -0.504 OA
ATOM     19  H   UNL     1      71.280  12.322 359.120  1.00  0.00     0.293 HD
ENDBRANCH  15  18
BRANCH  17  20
ATOM     20  O   UNL     1      69.578  12.780 355.760  1.00  0.00    -0.504 OA
ATOM     21  H   UNL     1      68.663  13.211 355.721  1.00  0.00     0.293 HD
ENDBRANCH  17  20
ENDBRANCH   1  12
BRANCH   2  22
ATOM     22  O   UNL     1      66.731   8.486 355.451  1.00  0.00    -0.502 OA
ATOM     23  H   UNL     1      66.060   8.188 356.148  1.00  0.00     0.293 HD
ENDBRANCH   2  22
BRANCH   6  24
ATOM     24  O   UNL     1      66.954   4.177 352.327  1.00  0.00    -0.507 OA
ATOM     25  H   UNL     1      66.795   3.674 351.468  1.00  0.00     0.293 HD
ENDBRANCH   6  24
BRANCH   8  26
ATOM     26  O   UNL     1      71.666   3.352 352.316  1.00  0.00    -0.508 OA
ATOM     27  H   UNL     1      72.448   3.137 352.924  1.00  0.00     0.293 HD
ENDBRANCH   8  26
TORSDOF 6
ENDMDL
MODEL 4
REMARK VINA RESULT:    -5.220      1.656      6.624
REMARK INTER + INTRA:          -6.467
REMARK INTER:                  -6.177
REMARK INTRA:                  -0.290
REMARK UNBOUND:                -0.178
REMARK SMILES O=c1c(O)c(-c2ccc(O)c(O)c2)oc2cc(O)cc(O)c12
REMARK SMILES IDX 5 1 3 2 2 3 1 4 22 5 20 6 19 7 17 8 16 9 15 10 14 11 6 12
REMARK SMILES IDX 7 13 8 14 9 15 13 16 11 17 10 18 12 20 4 22 21 24 18 26
REMARK H PARENT 10 19 12 21 4 23 21 25 18 27
REMARK Flexibility Score: inf
ROOT
ATOM      1  C   UNL     1      69.452   9.301 356.749  1.00  0.00     0.180 A 
ATOM      2  C   UNL     1      68.407   9.013 355.855  1.00  0.00     0.208 A 
ATOM      3  C   UNL     1      68.529   7.908 354.998  1.00  0.00     0.238 A 
ATOM      4  O   UNL     1      67.558   7.612 354.254  1.00  0.00    -0.285 OA
ATOM      5  C   UNL     1      69.718   7.138 355.006  1.00  0.00     0.111 A 
ATOM      6  C   UNL     1      69.969   6.023 354.150  1.00  0.00     0.134 A 
ATOM      7  C   UNL     1      71.137   5.271 354.319  1.00  0.00     0.093 A 
ATOM      8  C   UNL     1      72.093   5.629 355.269  1.00  0.00     0.123 A 
ATOM      9  C   UNL     1      71.883   6.748 356.075  1.00  0.00     0.094 A 
ATOM     10  C   UNL     1      70.709   7.496 355.956  1.00  0.00     0.146 A 
ATOM     11  O   UNL     1      70.541   8.541 356.757  1.00  0.00    -0.452 OA
ENDROOT
BRANCH   1  12
ATOM     12  C   UNL     1      69.391  10.440 357.693  1.00  0.00     0.025 A 
ATOM     13  C   UNL     1      68.621  10.378 358.869  1.00  0.00     0.016 A 
ATOM     14  C   UNL     1      68.598  11.457 359.757  1.00  0.00     0.051 A 
ATOM     15  C   UNL     1      69.354  12.605 359.493  1.00  0.00     0.157 A 
ATOM     16  C   UNL     1      70.164  11.587 357.444  1.00  0.00     0.062 A 
ATOM     17  C   UNL     1      70.141  12.670 358.336  1.00  0.00     0.158 A 
BRANCH  15  18
ATOM     18  O   UNL     1      69.333  13.684 360.375  1.00  0.00    -0.504 OA
ATOM     19  H   UNL     1      68.610  14.392 360.328  1.00  0.00     0.293 HD
ENDBRANCH  15  18
BRANCH  17  20
ATOM     20  O   UNL     1      70.898  13.811 358.078  1.00  0.00    -0.504 OA
ATOM     21  H   UNL     1      70.601  14.727 358.390  1.00  0.00     0.293 HD
ENDBRANCH  17  20
ENDBRANCH   1  12
BRANCH   2  22
ATOM     22  O   UNL     1      67.274   9.831 355.810  1.00  0.00    -0.502 OA
ATOM     23  H   UNL     1      66.902  10.196 354.942  1.00  0.00     0.293 HD
ENDBRANCH   2  22
BRANCH   6  24
ATOM     24  O   UNL     1      69.123   5.631 353.106  1.00  0.00    -0.507 OA
ATOM     25  H   UNL     1      68.919   6.185 352.289  1.00  0.00     0.293 HD
ENDBRANCH   6  24
BRANCH   8  26
ATOM     26  O   UNL     1      73.251   4.867 355.399  1.00  0.00    -0.508 OA
ATOM     27  H   UNL     1      73.327   4.131 356.093  1.00  0.00     0.293 HD
ENDBRANCH   8  26
TORSDOF 6
ENDMDL
MODEL 5
REMARK VINA RESULT:    -5.203      7.269      9.031
REMARK INTER + INTRA:          -6.446
REMARK INTER:                  -6.436
REMARK INTRA:                  -0.010
REMARK UNBOUND:                -0.178
REMARK SMILES O=c1c(O)c(-c2ccc(O)c(O)c2)oc2cc(O)cc(O)c12
REMARK SMILES IDX 5 1 3 2 2 3 1 4 22 5 20 6 19 7 17 8 16 9 15 10 14 11 6 12
REMARK SMILES IDX 7 13 8 14 9 15 13 16 11 17 10 18 12 20 4 22 21 24 18 26
REMARK H PARENT 10 19 12 21 4 23 21 25 18 27
REMARK Flexibility Score: inf
ROOT
ATOM      1  C   UNL     1      73.937  11.784 361.655  1.00  0.00     0.180 A 
ATOM      2  C   UNL     1      72.549  11.632 361.489  1.00  0.00     0.208 A 
ATOM      3  C   UNL     1      71.788  11.124 362.554  1.00  0.00     0.238 A 
ATOM      4  O   UNL     1      70.537  11.062 362.424  1.00  0.00    -0.285 OA
ATOM      5  C   UNL     1      72.429  10.722 363.751  1.00  0.00     0.111 A 
ATOM      6  C   UNL     1      71.763  10.153 364.877  1.00  0.00     0.134 A 
ATOM      7  C   UNL     1      72.484   9.891 366.048  1.00  0.00     0.093 A 
ATOM      8  C   UNL     1      73.859  10.117 366.112  1.00  0.00     0.123 A 
ATOM      9  C   UNL     1      74.531  10.622 364.999  1.00  0.00     0.094 A 
ATOM     10  C   UNL     1      73.831  10.930 363.829  1.00  0.00     0.146 A 
ATOM     11  O   UNL     1      74.506  11.428 362.801  1.00  0.00    -0.452 OA
ENDROOT
BRANCH   1  12
ATOM     12  C   UNL     1      74.805  12.325 360.585  1.00  0.00     0.025 A 
ATOM     13  C   UNL     1      75.920  11.608 360.113  1.00  0.00     0.016 A 
ATOM     14  C   UNL     1      76.711  12.128 359.085  1.00  0.00     0.051 A 
ATOM     15  C   UNL     1      76.392  13.362 358.503  1.00  0.00     0.157 A 
ATOM     16  C   UNL     1      74.478  13.551 359.983  1.00  0.00     0.062 A 
ATOM     17  C   UNL     1      75.272  14.073 358.951  1.00  0.00     0.158 A 
BRANCH  15  18
ATOM     18  O   UNL     1      77.179  13.884 357.479  1.00  0.00    -0.504 OA
ATOM     19  H   UNL     1      78.165  13.663 357.404  1.00  0.00     0.293 HD
ENDBRANCH  15  18
BRANCH  17  20
ATOM     20  O   UNL     1      74.952  15.297 358.366  1.00  0.00    -0.504 OA
ATOM     21  H   UNL     1      74.827  15.391 357.366  1.00  0.00     0.293 HD
ENDBRANCH  17  20
ENDBRANCH   1  12
BRANCH   2  22
ATOM     22  O   UNL     1      71.946  11.964 360.273  1.00  0.00    -0.502 OA
ATOM     23  H   UNL     1      71.262  11.367 359.825  1.00  0.00     0.293 HD
ENDBRANCH   2  22
BRANCH   6  24
ATOM     24  O   UNL     1      70.408   9.802 364.892  1.00  0.00    -0.507 OA
ATOM     25  H   UNL     1      69.759   9.974 364.140  1.00  0.00     0.293 HD
ENDBRANCH   6  24
BRANCH   8  26
ATOM     26  O   UNL     1      74.548   9.829 367.288  1.00  0.00    -0.508 OA
ATOM     27  H   UNL     1      75.366   9.230 367.290  1.00  0.00     0.293 HD
ENDBRANCH   8  26
TORSDOF 6
ENDMDL
MODEL 6
REMARK VINA RESULT:    -5.116      2.158      3.322
REMARK INTER + INTRA:          -6.341
REMARK INTER:                  -6.278
REMARK INTRA:                  -0.063
REMARK UNBOUND:                -0.178
REMARK SMILES O=c1c(O)c(-c2ccc(O)c(O)c2)oc2cc(O)cc(O)c12
REMARK SMILES IDX 5 1 3 2 2 3 1 4 22 5 20 6 19 7 17 8 16 9 15 10 14 11 6 12
REMARK SMILES IDX 7 13 8 14 9 15 13 16 11 17 10 18 12 20 4 22 21 24 18 26
REMARK H PARENT 10 19 12 21 4 23 21 25 18 27
REMARK Flexibility Score: inf
ROOT
ATOM      1  C   UNL     1      69.622   8.148 355.311  1.00  0.00     0.180 A 
ATOM      2  C   UNL     1      70.275   8.227 356.554  1.00  0.00     0.208 A 
ATOM      3  C   UNL     1      70.245   9.439 357.262  1.00  0.00     0.238 A 
ATOM      4  O   UNL     1      70.766   9.481 358.407  1.00  0.00    -0.285 OA
ATOM      5  C   UNL     1      69.611  10.572 356.695  1.00  0.00     0.111 A 
ATOM      6  C   UNL     1      69.559  11.862 357.303  1.00  0.00     0.134 A 
ATOM      7  C   UNL     1      68.814  12.882 356.699  1.00  0.00     0.093 A 
ATOM      8  C   UNL     1      68.173  12.678 355.477  1.00  0.00     0.123 A 
ATOM      9  C   UNL     1      68.262  11.436 354.846  1.00  0.00     0.094 A 
ATOM     10  C   UNL     1      68.967  10.388 355.444  1.00  0.00     0.146 A 
ATOM     11  O   UNL     1      69.009   9.218 354.820  1.00  0.00    -0.452 OA
ENDROOT
BRANCH   1  12
ATOM     12  C   UNL     1      69.597   6.902 354.512  1.00  0.00     0.025 A 
ATOM     13  C   UNL     1      70.785   6.246 354.140  1.00  0.00     0.016 A 
ATOM     14  C   UNL     1      70.736   5.058 353.406  1.00  0.00     0.051 A 
ATOM     15  C   UNL     1      69.503   4.500 353.045  1.00  0.00     0.157 A 
ATOM     16  C   UNL     1      68.363   6.327 354.165  1.00  0.00     0.062 A 
ATOM     17  C   UNL     1      68.314   5.134 353.429  1.00  0.00     0.158 A 
BRANCH  15  18
ATOM     18  O   UNL     1      69.450   3.317 352.312  1.00  0.00    -0.504 OA
ATOM     19  H   UNL     1      70.077   3.148 351.534  1.00  0.00     0.293 HD
ENDBRANCH  15  18
BRANCH  17  20
ATOM     20  O   UNL     1      67.088   4.574 353.075  1.00  0.00    -0.504 OA
ATOM     21  H   UNL     1      67.029   3.680 352.604  1.00  0.00     0.293 HD
ENDBRANCH  17  20
ENDBRANCH   1  12
BRANCH   2  22
ATOM     22  O   UNL     1      70.959   7.119 357.061  1.00  0.00    -0.502 OA
ATOM     23  H   UNL     1      70.922   6.209 356.620  1.00  0.00     0.293 HD
ENDBRANCH   2  22
BRANCH   6  24
ATOM     24  O   UNL     1      70.238  12.203 358.479  1.00  0.00    -0.507 OA
ATOM     25  H   UNL     1      70.489  13.141 358.749  1.00  0.00     0.293 HD
ENDBRANCH   6  24
BRANCH   8  26
ATOM     26  O   UNL     1      67.454  13.719 354.896  1.00  0.00    -0.508 OA
ATOM     27  H   UNL     1      66.655  14.137 355.361  1.00  0.00     0.293 HD
ENDBRANCH   8  26
TORSDOF 6
ENDMDL
MODEL 7
REMARK VINA RESULT:    -5.062      7.198      9.249
REMARK INTER + INTRA:          -6.276
REMARK INTER:                  -6.050
REMARK INTRA:                  -0.226
REMARK UNBOUND:                -0.178
REMARK SMILES O=c1c(O)c(-c2ccc(O)c(O)c2)oc2cc(O)cc(O)c12
REMARK SMILES IDX 5 1 3 2 2 3 1 4 22 5 20 6 19 7 17 8 16 9 15 10 14 11 6 12
REMARK SMILES IDX 7 13 8 14 9 15 13 16 11 17 10 18 12 20 4 22 21 24 18 26
REMARK H PARENT 10 19 12 21 4 23 21 25 18 27
REMARK Flexibility Score: inf
ROOT
ATOM      1  C   UNL     1      75.532  13.326 360.173  1.00  0.00     0.180 A 
ATOM      2  C   UNL     1      74.447  13.583 359.317  1.00  0.00     0.208 A 
ATOM      3  C   UNL     1      73.167  13.144 359.689  1.00  0.00     0.238 A 
ATOM      4  O   UNL     1      72.190  13.443 358.955  1.00  0.00    -0.285 OA
ATOM      5  C   UNL     1      72.996  12.404 360.885  1.00  0.00     0.111 A 
ATOM      6  C   UNL     1      71.751  11.871 361.338  1.00  0.00     0.134 A 
ATOM      7  C   UNL     1      71.681  11.247 362.590  1.00  0.00     0.093 A 
ATOM      8  C   UNL     1      72.821  11.080 363.375  1.00  0.00     0.123 A 
ATOM      9  C   UNL     1      74.053  11.549 362.918  1.00  0.00     0.094 A 
ATOM     10  C   UNL     1      74.147  12.210 361.691  1.00  0.00     0.146 A 
ATOM     11  O   UNL     1      75.335  12.659 361.304  1.00  0.00    -0.452 OA
ENDROOT
BRANCH   1  12
ATOM     12  C   UNL     1      76.909  13.770 359.857  1.00  0.00     0.025 A 
ATOM     13  C   UNL     1      77.260  15.132 359.863  1.00  0.00     0.016 A 
ATOM     14  C   UNL     1      78.572  15.525 359.585  1.00  0.00     0.051 A 
ATOM     15  C   UNL     1      79.554  14.565 359.312  1.00  0.00     0.157 A 
ATOM     16  C   UNL     1      77.904  12.810 359.604  1.00  0.00     0.062 A 
ATOM     17  C   UNL     1      79.221  13.205 359.326  1.00  0.00     0.158 A 
BRANCH  15  18
ATOM     18  O   UNL     1      80.863  14.953 359.033  1.00  0.00    -0.504 OA
ATOM     19  H   UNL     1      81.231  14.934 358.089  1.00  0.00     0.293 HD
ENDBRANCH  15  18
BRANCH  17  20
ATOM     20  O   UNL     1      80.201  12.250 359.062  1.00  0.00    -0.504 OA
ATOM     21  H   UNL     1      80.312  11.429 359.644  1.00  0.00     0.293 HD
ENDBRANCH  17  20
ENDBRANCH   1  12
BRANCH   2  22
ATOM     22  O   UNL     1      74.651  14.249 358.105  1.00  0.00    -0.502 OA
ATOM     23  H   UNL     1      74.596  15.256 358.022  1.00  0.00     0.293 HD
ENDBRANCH   2  22
BRANCH   6  24
ATOM     24  O   UNL     1      70.567  11.903 360.593  1.00  0.00    -0.507 OA
ATOM     25  H   UNL     1      70.472  12.314 359.678  1.00  0.00     0.293 HD
ENDBRANCH   6  24
BRANCH   8  26
ATOM     26  O   UNL     1      72.718  10.439 364.608  1.00  0.00    -0.508 OA
ATOM     27  H   UNL     1      72.271   9.534 364.699  1.00  0.00     0.293 HD
ENDBRANCH   8  26
TORSDOF 6
ENDMDL
MODEL 8
REMARK VINA RESULT:    -4.941      6.969      8.499
REMARK INTER + INTRA:          -6.130
REMARK INTER:                  -5.837
REMARK INTRA:                  -0.294
REMARK UNBOUND:                -0.178
REMARK SMILES O=c1c(O)c(-c2ccc(O)c(O)c2)oc2cc(O)cc(O)c12
REMARK SMILES IDX 5 1 3 2 2 3 1 4 22 5 20 6 19 7 17 8 16 9 15 10 14 11 6 12
REMARK SMILES IDX 7 13 8 14 9 15 13 16 11 17 10 18 12 20 4 22 21 24 18 26
REMARK H PARENT 10 19 12 21 4 23 21 25 18 27
REMARK Flexibility Score: inf
ROOT
ATOM      1  C   UNL     1      72.638  11.287 362.824  1.00  0.00     0.180 A 
ATOM      2  C   UNL     1      71.626  10.576 362.156  1.00  0.00     0.208 A 
ATOM      3  C   UNL     1      71.304  10.929 360.836  1.00  0.00     0.238 A 
ATOM      4  O   UNL     1      70.451  10.239 360.219  1.00  0.00    -0.285 OA
ATOM      5  C   UNL     1      71.958  12.023 360.219  1.00  0.00     0.111 A 
ATOM      6  C   UNL     1      71.680  12.497 358.902  1.00  0.00     0.134 A 
ATOM      7  C   UNL     1      72.463  13.521 358.356  1.00  0.00     0.093 A 
ATOM      8  C   UNL     1      73.470  14.133 359.101  1.00  0.00     0.123 A 
ATOM      9  C   UNL     1      73.715  13.714 360.410  1.00  0.00     0.094 A 
ATOM     10  C   UNL     1      72.976  12.668 360.968  1.00  0.00     0.146 A 
ATOM     11  O   UNL     1      73.256  12.288 362.208  1.00  0.00    -0.452 OA
ENDROOT
BRANCH   1  12
ATOM     12  C   UNL     1      73.044  10.966 364.211  1.00  0.00     0.025 A 
ATOM     13  C   UNL     1      72.283  11.393 365.315  1.00  0.00     0.016 A 
ATOM     14  C   UNL     1      72.673  11.057 366.615  1.00  0.00     0.051 A 
ATOM     15  C   UNL     1      73.818  10.279 366.830  1.00  0.00     0.157 A 
ATOM     16  C   UNL     1      74.179  10.168 364.433  1.00  0.00     0.062 A 
ATOM     17  C   UNL     1      74.570   9.830 365.737  1.00  0.00     0.158 A 
BRANCH  15  18
ATOM     18  O   UNL     1      74.210   9.943 368.124  1.00  0.00    -0.504 OA
ATOM     19  H   UNL     1      74.613  10.631 368.750  1.00  0.00     0.293 HD
ENDBRANCH  15  18
BRANCH  17  20
ATOM     20  O   UNL     1      75.704   9.050 365.953  1.00  0.00    -0.504 OA
ATOM     21  H   UNL     1      75.668   8.039 365.913  1.00  0.00     0.293 HD
ENDBRANCH  17  20
ENDBRANCH   1  12
BRANCH   2  22
ATOM     22  O   UNL     1      70.941   9.547 362.809  1.00  0.00    -0.502 OA
ATOM     23  H   UNL     1      69.997   9.659 363.156  1.00  0.00     0.293 HD
ENDBRANCH   2  22
BRANCH   6  24
ATOM     24  O   UNL     1      70.636  12.019 358.101  1.00  0.00    -0.507 OA
ATOM     25  H   UNL     1      69.867  11.457 358.429  1.00  0.00     0.293 HD
ENDBRANCH   6  24
BRANCH   8  26
ATOM     26  O   UNL     1      74.218  15.160 358.532  1.00  0.00    -0.508 OA
ATOM     27  H   UNL     1      75.097  14.978 358.060  1.00  0.00     0.293 HD
ENDBRANCH   8  26
TORSDOF 6
ENDMDL
MODEL 9
REMARK VINA RESULT:    -4.932      6.646      8.705
REMARK INTER + INTRA:          -6.119
REMARK INTER:                  -5.808
REMARK INTRA:                  -0.311
REMARK UNBOUND:                -0.178
REMARK SMILES O=c1c(O)c(-c2ccc(O)c(O)c2)oc2cc(O)cc(O)c12
REMARK SMILES IDX 5 1 3 2 2 3 1 4 22 5 20 6 19 7 17 8 16 9 15 10 14 11 6 12
REMARK SMILES IDX 7 13 8 14 9 15 13 16 11 17 10 18 12 20 4 22 21 24 18 26
REMARK H PARENT 10 19 12 21 4 23 21 25 18 27
REMARK Flexibility Score: inf
ROOT
ATOM      1  C   UNL     1      72.820  11.587 362.552  1.00  0.00     0.180 A 
ATOM      2  C   UNL     1      73.430  12.696 361.942  1.00  0.00     0.208 A 
ATOM      3  C   UNL     1      73.035  13.063 360.646  1.00  0.00     0.238 A 
ATOM      4  O   UNL     1      73.531  14.101 360.136  1.00  0.00    -0.285 OA
ATOM      5  C   UNL     1      72.076  12.283 359.954  1.00  0.00     0.111 A 
ATOM      6  C   UNL     1      71.635  12.536 358.620  1.00  0.00     0.134 A 
ATOM      7  C   UNL     1      70.604  11.761 358.075  1.00  0.00     0.093 A 
ATOM      8  C   UNL     1      70.044  10.702 358.789  1.00  0.00     0.123 A 
ATOM      9  C   UNL     1      70.505  10.412 360.074  1.00  0.00     0.094 A 
ATOM     10  C   UNL     1      71.506  11.192 360.659  1.00  0.00     0.146 A 
ATOM     11  O   UNL     1      71.900  10.894 361.890  1.00  0.00    -0.452 OA
ENDROOT
BRANCH   1  12
ATOM     12  C   UNL     1      73.172  11.146 363.922  1.00  0.00     0.025 A 
ATOM     13  C   UNL     1      72.381  11.497 365.030  1.00  0.00     0.016 A 
ATOM     14  C   UNL     1      72.720  11.050 366.310  1.00  0.00     0.051 A 
ATOM     15  C   UNL     1      73.843  10.235 366.499  1.00  0.00     0.157 A 
ATOM     16  C   UNL     1      74.285  10.311 364.115  1.00  0.00     0.062 A 
ATOM     17  C   UNL     1      74.625   9.862 365.399  1.00  0.00     0.158 A 
BRANCH  15  18
ATOM     18  O   UNL     1      74.185   9.788 367.774  1.00  0.00    -0.504 OA
ATOM     19  H   UNL     1      75.113   9.934 368.155  1.00  0.00     0.293 HD
ENDBRANCH  15  18
BRANCH  17  20
ATOM     20  O   UNL     1      75.739   9.045 365.588  1.00  0.00    -0.504 OA
ATOM     21  H   UNL     1      75.808   8.134 365.151  1.00  0.00     0.293 HD
ENDBRANCH  17  20
ENDBRANCH   1  12
BRANCH   2  22
ATOM     22  O   UNL     1      74.428  13.407 362.614  1.00  0.00    -0.502 OA
ATOM     23  H   UNL     1      74.450  14.419 362.642  1.00  0.00     0.293 HD
ENDBRANCH   2  22
BRANCH   6  24
ATOM     24  O   UNL     1      72.188  13.511 357.782  1.00  0.00    -0.507 OA
ATOM     25  H   UNL     1      71.762  14.399 357.571  1.00  0.00     0.293 HD
ENDBRANCH   6  24
BRANCH   8  26
ATOM     26  O   UNL     1      69.032   9.941 358.209  1.00  0.00    -0.508 OA
ATOM     27  H   UNL     1      68.054  10.111 358.418  1.00  0.00     0.293 HD
ENDBRANCH   8  26
TORSDOF 6
ENDMDL
