MODEL 1
REMARK VINA RESULT:    -3.499      0.000      0.000
REMARK INTER + INTRA:          -6.425
REMARK INTER:                  -5.545
REMARK INTRA:                  -0.880
REMARK UNBOUND:                -0.880
REMARK SMILES CCCCCCCCCCCC(=O)[O-]
REMARK SMILES IDX 7 1 8 2 9 3 10 4 11 5 12 6 13 7 14 8 6 9 5 10 4 11 3 12 2 13
REMARK SMILES IDX 1 14
REMARK H PARENT
REMARK Flexibility Score: inf
ROOT
ATOM      1  C   UNL     1      31.258   9.736  22.978  1.00  0.00     0.000 C 
ENDROOT
BRANCH   1   2
ATOM      2  C   UNL     1      31.843   8.796  21.918  1.00  0.00     0.000 C 
BRANCH   2   3
ATOM      3  C   UNL     1      30.936   7.574  21.706  1.00  0.00     0.000 C 
BRANCH   3   4
ATOM      4  C   UNL     1      31.328   6.753  20.467  1.00  0.00     0.006 C 
BRANCH   4   5
ATOM      5  C   UNL     1      32.600   5.923  20.686  1.00  0.00     0.053 C 
BRANCH   5   6
ATOM      6  C   UNL     1      32.277   4.655  21.410  1.00  0.00     0.041 C 
ATOM      7  O   UNL     1      33.004   4.266  22.361  1.00  0.00    -0.550 OA
ATOM      8  O   UNL     1      31.202   3.876  21.002  1.00  0.00    -0.550 OA
ENDBRANCH   5   6
ENDBRANCH   4   5
ENDBRANCH   3   4
ENDBRANCH   2   3
ENDBRANCH   1   2
BRANCH   1   9
ATOM      9  C   UNL     1      32.332  10.682  23.529  1.00  0.00     0.000 C 
BRANCH   9  10
ATOM     10  C   UNL     1      32.617  11.823  22.544  1.00  0.00    -0.000 C 
BRANCH  10  11
ATOM     11  C   UNL     1      34.117  11.912  22.225  1.00  0.00    -0.000 C 
BRANCH  11  12
ATOM     12  C   UNL     1      34.998  11.240  23.294  1.00  0.00    -0.000 C 
BRANCH  12  13
ATOM     13  C   UNL     1      36.027  10.236  22.746  1.00  0.00    -0.003 C 
ATOM     14  C   UNL     1      35.491   9.403  21.582  1.00  0.00     0.004 C 
ENDBRANCH  12  13
ENDBRANCH  11  12
ENDBRANCH  10  11
ENDBRANCH   9  10
ENDBRANCH   1   9
TORSDOF 10
ENDMDL
MODEL 2
REMARK VINA RESULT:    -3.458      0.669      1.477
REMARK INTER + INTRA:          -6.359
REMARK INTER:                  -5.365
REMARK INTRA:                  -0.994
REMARK UNBOUND:                -0.880
REMARK SMILES CCCCCCCCCCCC(=O)[O-]
REMARK SMILES IDX 7 1 8 2 9 3 10 4 11 5 12 6 13 7 14 8 6 9 5 10 4 11 3 12 2 13
REMARK SMILES IDX 1 14
REMARK H PARENT
REMARK Flexibility Score: inf
ROOT
ATOM      1  C   UNL     1      32.102  10.724  23.472  1.00  0.00     0.000 C 
ENDROOT
BRANCH   1   2
ATOM      2  C   UNL     1      31.329   9.521  22.921  1.00  0.00     0.000 C 
BRANCH   2   3
ATOM      3  C   UNL     1      32.150   8.780  21.855  1.00  0.00     0.000 C 
BRANCH   3   4
ATOM      4  C   UNL     1      31.504   7.453  21.424  1.00  0.00     0.006 C 
BRANCH   4   5
ATOM      5  C   UNL     1      32.426   6.608  20.535  1.00  0.00     0.053 C 
BRANCH   5   6
ATOM      6  C   UNL     1      32.275   5.156  20.859  1.00  0.00     0.041 C 
ATOM      7  O   UNL     1      31.915   4.343  19.967  1.00  0.00    -0.550 OA
ATOM      8  O   UNL     1      32.482   4.707  22.157  1.00  0.00    -0.550 OA
ENDBRANCH   5   6
ENDBRANCH   4   5
ENDBRANCH   3   4
ENDBRANCH   2   3
ENDBRANCH   1   2
BRANCH   1   9
ATOM      9  C   UNL     1      32.515  11.677  22.344  1.00  0.00     0.000 C 
BRANCH   9  10
ATOM     10  C   UNL     1      33.985  12.089  22.481  1.00  0.00    -0.000 C 
BRANCH  10  11
ATOM     11  C   UNL     1      34.746  11.115  23.393  1.00  0.00    -0.000 C 
BRANCH  11  12
ATOM     12  C   UNL     1      36.094  10.667  22.801  1.00  0.00    -0.000 C 
BRANCH  12  13
ATOM     13  C   UNL     1      36.058   9.322  22.055  1.00  0.00    -0.003 C 
ATOM     14  C   UNL     1      35.525   9.443  20.627  1.00  0.00     0.004 C 
ENDBRANCH  12  13
ENDBRANCH  11  12
ENDBRANCH  10  11
ENDBRANCH   9  10
ENDBRANCH   1   9
TORSDOF 10
ENDMDL
MODEL 3
REMARK VINA RESULT:    -3.432      1.140      2.456
REMARK INTER + INTRA:          -6.319
REMARK INTER:                  -4.992
REMARK INTRA:                  -1.327
REMARK UNBOUND:                -0.880
REMARK SMILES CCCCCCCCCCCC(=O)[O-]
REMARK SMILES IDX 7 1 8 2 9 3 10 4 11 5 12 6 13 7 14 8 6 9 5 10 4 11 3 12 2 13
REMARK SMILES IDX 1 14
REMARK H PARENT
REMARK Flexibility Score: inf
ROOT
ATOM      1  C   UNL     1      32.605  11.489  22.139  1.00  0.00     0.000 C 
ENDROOT
BRANCH   1   2
ATOM      2  C   UNL     1      32.125  10.685  23.353  1.00  0.00     0.000 C 
BRANCH   2   3
ATOM      3  C   UNL     1      31.251   9.499  22.917  1.00  0.00     0.000 C 
BRANCH   3   4
ATOM      4  C   UNL     1      31.919   8.638  21.832  1.00  0.00     0.006 C 
BRANCH   4   5
ATOM      5  C   UNL     1      31.166   7.326  21.573  1.00  0.00     0.053 C 
BRANCH   5   6
ATOM      6  C   UNL     1      32.073   6.323  20.934  1.00  0.00     0.041 C 
ATOM      7  O   UNL     1      31.608   5.238  20.496  1.00  0.00    -0.550 OA
ATOM      8  O   UNL     1      33.439   6.562  20.867  1.00  0.00    -0.550 OA
ENDBRANCH   5   6
ENDBRANCH   4   5
ENDBRANCH   3   4
ENDBRANCH   2   3
ENDBRANCH   1   2
BRANCH   1   9
ATOM      9  C   UNL     1      33.977  12.122  22.405  1.00  0.00     0.000 C 
BRANCH   9  10
ATOM     10  C   UNL     1      34.834  11.221  23.302  1.00  0.00    -0.000 C 
BRANCH  10  11
ATOM     11  C   UNL     1      35.985  10.588  22.506  1.00  0.00    -0.000 C 
BRANCH  11  12
ATOM     12  C   UNL     1      35.599   9.249  21.854  1.00  0.00    -0.000 C 
BRANCH  12  13
ATOM     13  C   UNL     1      35.813   9.186  20.332  1.00  0.00    -0.003 C 
ATOM     14  C   UNL     1      34.673   9.826  19.540  1.00  0.00     0.004 C 
ENDBRANCH  12  13
ENDBRANCH  11  12
ENDBRANCH  10  11
ENDBRANCH   9  10
ENDBRANCH   1   9
TORSDOF 10
ENDMDL
MODEL 4
REMARK VINA RESULT:    -3.375      2.103      4.860
REMARK INTER + INTRA:          -6.228
REMARK INTER:                  -5.381
REMARK INTRA:                  -0.847
REMARK UNBOUND:                -0.880
REMARK SMILES CCCCCCCCCCCC(=O)[O-]
REMARK SMILES IDX 7 1 8 2 9 3 10 4 11 5 12 6 13 7 14 8 6 9 5 10 4 11 3 12 2 13
REMARK SMILES IDX 1 14
REMARK H PARENT
REMARK Flexibility Score: inf
ROOT
ATOM      1  C   UNL     1      32.389  11.454  22.168  1.00  0.00     0.000 C 
ENDROOT
BRANCH   1   2
ATOM      2  C   UNL     1      33.789  12.038  22.391  1.00  0.00     0.000 C 
BRANCH   2   3
ATOM      3  C   UNL     1      34.575  11.207  23.417  1.00  0.00     0.000 C 
BRANCH   3   4
ATOM      4  C   UNL     1      35.813  10.530  22.807  1.00  0.00     0.006 C 
BRANCH   4   5
ATOM      5  C   UNL     1      35.476   9.689  21.569  1.00  0.00     0.053 C 
BRANCH   5   6
ATOM      6  C   UNL     1      36.215   8.389  21.605  1.00  0.00     0.041 C 
ATOM      7  O   UNL     1      37.045   8.157  22.524  1.00  0.00    -0.550 OA
ATOM      8  O   UNL     1      36.025   7.452  20.598  1.00  0.00    -0.550 OA
ENDBRANCH   5   6
ENDBRANCH   4   5
ENDBRANCH   3   4
ENDBRANCH   2   3
ENDBRANCH   1   2
BRANCH   1   9
ATOM      9  C   UNL     1      32.002  10.502  23.306  1.00  0.00     0.000 C 
BRANCH   9  10
ATOM     10  C   UNL     1      31.206   9.304  22.774  1.00  0.00    -0.000 C 
BRANCH  10  11
ATOM     11  C   UNL     1      32.002   8.549  21.699  1.00  0.00    -0.000 C 
BRANCH  11  12
ATOM     12  C   UNL     1      31.421   7.157  21.390  1.00  0.00    -0.000 C 
BRANCH  12  13
ATOM     13  C   UNL     1      32.461   6.099  20.981  1.00  0.00    -0.003 C 
ATOM     14  C   UNL     1      32.355   4.810  21.794  1.00  0.00     0.004 C 
ENDBRANCH  12  13
ENDBRANCH  11  12
ENDBRANCH  10  11
ENDBRANCH   9  10
ENDBRANCH   1   9
TORSDOF 10
ENDMDL
MODEL 5
REMARK VINA RESULT:    -3.356      1.140      2.171
REMARK INTER + INTRA:          -6.199
REMARK INTER:                  -5.367
REMARK INTRA:                  -0.832
REMARK UNBOUND:                -0.880
REMARK SMILES CCCCCCCCCCCC(=O)[O-]
REMARK SMILES IDX 7 1 8 2 9 3 10 4 11 5 12 6 13 7 14 8 6 9 5 10 4 11 3 12 2 13
REMARK SMILES IDX 1 14
REMARK H PARENT
REMARK Flexibility Score: inf
ROOT
ATOM      1  C   UNL     1      32.319  11.587  22.490  1.00  0.00     0.000 C 
ENDROOT
BRANCH   1   2
ATOM      2  C   UNL     1      32.189  10.321  23.345  1.00  0.00     0.000 C 
BRANCH   2   3
ATOM      3  C   UNL     1      31.194   9.333  22.718  1.00  0.00     0.000 C 
BRANCH   3   4
ATOM      4  C   UNL     1      31.850   8.412  21.677  1.00  0.00     0.006 C 
BRANCH   4   5
ATOM      5  C   UNL     1      31.085   7.096  21.486  1.00  0.00     0.053 C 
BRANCH   5   6
ATOM      6  C   UNL     1      32.021   6.002  21.082  1.00  0.00     0.041 C 
ATOM      7  O   UNL     1      33.253   6.234  20.964  1.00  0.00    -0.550 OA
ATOM      8  O   UNL     1      31.528   4.737  20.789  1.00  0.00    -0.550 OA
ENDBRANCH   5   6
ENDBRANCH   4   5
ENDBRANCH   3   4
ENDBRANCH   2   3
ENDBRANCH   1   2
BRANCH   1   9
ATOM      9  C   UNL     1      33.755  12.125  22.516  1.00  0.00     0.000 C 
BRANCH   9  10
ATOM     10  C   UNL     1      34.710  11.113  23.162  1.00  0.00    -0.000 C 
BRANCH  10  11
ATOM     11  C   UNL     1      35.783  10.656  22.163  1.00  0.00    -0.000 C 
BRANCH  11  12
ATOM     12  C   UNL     1      35.692   9.157  21.829  1.00  0.00    -0.000 C 
BRANCH  12  13
ATOM     13  C   UNL     1      36.964   8.348  22.136  1.00  0.00    -0.003 C 
ATOM     14  C   UNL     1      37.732   8.875  23.347  1.00  0.00     0.004 C 
ENDBRANCH  12  13
ENDBRANCH  11  12
ENDBRANCH  10  11
ENDBRANCH   9  10
ENDBRANCH   1   9
TORSDOF 10
ENDMDL
MODEL 6
REMARK VINA RESULT:    -3.342      3.174      5.498
REMARK INTER + INTRA:          -6.176
REMARK INTER:                  -5.302
REMARK INTRA:                  -0.874
REMARK UNBOUND:                -0.880
REMARK SMILES CCCCCCCCCCCC(=O)[O-]
REMARK SMILES IDX 7 1 8 2 9 3 10 4 11 5 12 6 13 7 14 8 6 9 5 10 4 11 3 12 2 13
REMARK SMILES IDX 1 14
REMARK H PARENT
REMARK Flexibility Score: inf
ROOT
ATOM      1  C   UNL     1      32.022  10.440  23.345  1.00  0.00     0.000 C 
ENDROOT
BRANCH   1   2
ATOM      2  C   UNL     1      32.376  11.589  22.394  1.00  0.00     0.000 C 
BRANCH   2   3
ATOM      3  C   UNL     1      33.787  12.124  22.678  1.00  0.00     0.000 C 
BRANCH   3   4
ATOM      4  C   UNL     1      34.653  11.125  23.464  1.00  0.00     0.006 C 
BRANCH   4   5
ATOM      5  C   UNL     1      35.574  10.300  22.555  1.00  0.00     0.053 C 
BRANCH   5   6
ATOM      6  C   UNL     1      36.983  10.356  23.052  1.00  0.00     0.041 C 
ATOM      7  O   UNL     1      37.506   9.342  23.587  1.00  0.00    -0.550 OA
ATOM      8  O   UNL     1      37.704  11.540  22.972  1.00  0.00    -0.550 OA
ENDBRANCH   5   6
ENDBRANCH   4   5
ENDBRANCH   3   4
ENDBRANCH   2   3
ENDBRANCH   1   2
BRANCH   1   9
ATOM      9  C   UNL     1      31.337   9.293  22.593  1.00  0.00     0.000 C 
BRANCH   9  10
ATOM     10  C   UNL     1      32.266   8.703  21.525  1.00  0.00    -0.000 C 
BRANCH  10  11
ATOM     11  C   UNL     1      31.870   7.258  21.189  1.00  0.00    -0.000 C 
BRANCH  11  12
ATOM     12  C   UNL     1      33.051   6.417  20.674  1.00  0.00    -0.000 C 
BRANCH  12  13
ATOM     13  C   UNL     1      34.414   7.131  20.699  1.00  0.00    -0.003 C 
ATOM     14  C   UNL     1      35.574   6.195  21.035  1.00  0.00     0.004 C 
ENDBRANCH  12  13
ENDBRANCH  11  12
ENDBRANCH  10  11
ENDBRANCH   9  10
ENDBRANCH   1   9
TORSDOF 10
ENDMDL
MODEL 7
REMARK VINA RESULT:    -3.305      1.600      3.062
REMARK INTER + INTRA:          -6.118
REMARK INTER:                  -5.006
REMARK INTRA:                  -1.112
REMARK UNBOUND:                -0.880
REMARK SMILES CCCCCCCCCCCC(=O)[O-]
REMARK SMILES IDX 7 1 8 2 9 3 10 4 11 5 12 6 13 7 14 8 6 9 5 10 4 11 3 12 2 13
REMARK SMILES IDX 1 14
REMARK H PARENT
REMARK Flexibility Score: inf
ROOT
ATOM      1  C   UNL     1      33.596  11.948  22.476  1.00  0.00     0.000 C 
ENDROOT
BRANCH   1   2
ATOM      2  C   UNL     1      32.130  11.510  22.569  1.00  0.00     0.000 C 
BRANCH   2   3
ATOM      3  C   UNL     1      32.000  10.177  23.322  1.00  0.00     0.000 C 
BRANCH   3   4
ATOM      4  C   UNL     1      31.353   9.075  22.468  1.00  0.00     0.006 C 
BRANCH   4   5
ATOM      5  C   UNL     1      32.285   8.558  21.364  1.00  0.00     0.053 C 
BRANCH   5   6
ATOM      6  C   UNL     1      31.785   7.255  20.826  1.00  0.00     0.041 C 
ATOM      7  O   UNL     1      31.457   7.155  19.614  1.00  0.00    -0.550 OA
ATOM      8  O   UNL     1      31.634   6.165  21.673  1.00  0.00    -0.550 OA
ENDBRANCH   5   6
ENDBRANCH   4   5
ENDBRANCH   3   4
ENDBRANCH   2   3
ENDBRANCH   1   2
BRANCH   1   9
ATOM      9  C   UNL     1      34.436  11.302  23.585  1.00  0.00     0.000 C 
BRANCH   9  10
ATOM     10  C   UNL     1      35.770  10.785  23.034  1.00  0.00    -0.000 C 
BRANCH  10  11
ATOM     11  C   UNL     1      35.565  10.031  21.712  1.00  0.00    -0.000 C 
BRANCH  11  12
ATOM     12  C   UNL     1      36.198   8.629  21.717  1.00  0.00    -0.000 C 
BRANCH  12  13
ATOM     13  C   UNL     1      35.757   7.716  20.559  1.00  0.00    -0.003 C 
ATOM     14  C   UNL     1      35.383   6.307  21.017  1.00  0.00     0.004 C 
ENDBRANCH  12  13
ENDBRANCH  11  12
ENDBRANCH  10  11
ENDBRANCH   9  10
ENDBRANCH   1   9
TORSDOF 10
ENDMDL
MODEL 8
REMARK VINA RESULT:    -3.205      2.186      2.914
REMARK INTER + INTRA:          -5.958
REMARK INTER:                  -5.003
REMARK INTRA:                  -0.956
REMARK UNBOUND:                -0.880
REMARK SMILES CCCCCCCCCCCC(=O)[O-]
REMARK SMILES IDX 7 1 8 2 9 3 10 4 11 5 12 6 13 7 14 8 6 9 5 10 4 11 3 12 2 13
REMARK SMILES IDX 1 14
REMARK H PARENT
REMARK Flexibility Score: inf
ROOT
ATOM      1  C   UNL     1      32.085   8.732  21.819  1.00  0.00     0.000 C 
ENDROOT
BRANCH   1   2
ATOM      2  C   UNL     1      31.409   7.418  21.410  1.00  0.00     0.000 C 
BRANCH   2   3
ATOM      3  C   UNL     1      32.425   6.445  20.794  1.00  0.00     0.000 C 
BRANCH   3   4
ATOM      4  C   UNL     1      33.840   7.041  20.708  1.00  0.00     0.006 C 
BRANCH   4   5
ATOM      5  C   UNL     1      34.937   5.972  20.799  1.00  0.00     0.053 C 
BRANCH   5   6
ATOM      6  C   UNL     1      36.247   6.599  21.157  1.00  0.00     0.041 C 
ATOM      7  O   UNL     1      36.708   6.479  22.323  1.00  0.00    -0.550 OA
ATOM      8  O   UNL     1      36.935   7.358  20.220  1.00  0.00    -0.550 OA
ENDBRANCH   5   6
ENDBRANCH   4   5
ENDBRANCH   3   4
ENDBRANCH   2   3
ENDBRANCH   1   2
BRANCH   1   9
ATOM      9  C   UNL     1      31.245   9.484  22.859  1.00  0.00     0.000 C 
BRANCH   9  10
ATOM     10  C   UNL     1      32.034  10.652  23.463  1.00  0.00    -0.000 C 
BRANCH  10  11
ATOM     11  C   UNL     1      32.590  11.568  22.362  1.00  0.00    -0.000 C 
BRANCH  11  12
ATOM     12  C   UNL     1      33.986  12.125  22.693  1.00  0.00    -0.000 C 
BRANCH  12  13
ATOM     13  C   UNL     1      34.962  11.103  23.301  1.00  0.00    -0.003 C 
ATOM     14  C   UNL     1      35.525  10.125  22.270  1.00  0.00     0.004 C 
ENDBRANCH  12  13
ENDBRANCH  11  12
ENDBRANCH  10  11
ENDBRANCH   9  10
ENDBRANCH   1   9
TORSDOF 10
ENDMDL
MODEL 9
REMARK VINA RESULT:    -3.173      1.283      2.992
REMARK INTER + INTRA:          -5.909
REMARK INTER:                  -4.824
REMARK INTRA:                  -1.085
REMARK UNBOUND:                -0.880
REMARK SMILES CCCCCCCCCCCC(=O)[O-]
REMARK SMILES IDX 7 1 8 2 9 3 10 4 11 5 12 6 13 7 14 8 6 9 5 10 4 11 3 12 2 13
REMARK SMILES IDX 1 14
REMARK H PARENT
REMARK Flexibility Score: inf
ROOT
ATOM      1  C   UNL     1      35.445   9.987  21.179  1.00  0.00     0.000 C 
ENDROOT
BRANCH   1   2
ATOM      2  C   UNL     1      34.862   8.572  21.096  1.00  0.00     0.000 C 
BRANCH   2   3
ATOM      3  C   UNL     1      33.538   8.567  20.317  1.00  0.00     0.000 C 
BRANCH   3   4
ATOM      4  C   UNL     1      32.720   7.285  20.546  1.00  0.00     0.006 C 
BRANCH   4   5
ATOM      5  C   UNL     1      32.933   6.244  19.438  1.00  0.00     0.053 C 
BRANCH   5   6
ATOM      6  C   UNL     1      31.833   5.230  19.458  1.00  0.00     0.041 C 
ATOM      7  O   UNL     1      31.362   4.829  20.555  1.00  0.00    -0.550 OA
ATOM      8  O   UNL     1      31.362   4.691  18.269  1.00  0.00    -0.550 OA
ENDBRANCH   5   6
ENDBRANCH   4   5
ENDBRANCH   3   4
ENDBRANCH   2   3
ENDBRANCH   1   2
BRANCH   1   9
ATOM      9  C   UNL     1      35.877  10.322  22.612  1.00  0.00     0.000 C 
BRANCH   9  10
ATOM     10  C   UNL     1      34.874  11.270  23.281  1.00  0.00    -0.000 C 
BRANCH  10  11
ATOM     11  C   UNL     1      33.981  11.954  22.235  1.00  0.00    -0.000 C 
BRANCH  11  12
ATOM     12  C   UNL     1      32.481  11.708  22.474  1.00  0.00    -0.000 C 
BRANCH  12  13
ATOM     13  C   UNL     1      32.162  10.614  23.507  1.00  0.00    -0.003 C 
ATOM     14  C   UNL     1      31.254   9.516  22.955  1.00  0.00     0.004 C 
ENDBRANCH  12  13
ENDBRANCH  11  12
ENDBRANCH  10  11
ENDBRANCH   9  10
ENDBRANCH   1   9
TORSDOF 10
ENDMDL
