MODEL 1
REMARK VINA RESULT:    -6.705      0.000      0.000
REMARK INTER + INTRA:          -8.646
REMARK INTER:                  -8.273
REMARK INTRA:                  -0.372
REMARK UNBOUND:                -0.372
REMARK SMILES Oc1cc(O)c2cc(O)c(-c3cc(O)c(O)c(O)c3)[o+]c2c1
REMARK SMILES IDX 10 1 20 2 21 3 22 4 2 5 3 6 4 7 6 8 7 9 8 10 11 11 12 12
REMARK SMILES IDX 13 13 19 14 15 15 17 16 14 17 16 19 18 21 9 23 1 25 5 27
REMARK H PARENT 14 18 16 20 18 22 9 24 1 26 5 28
REMARK Flexibility Score: inf
ROOT
ATOM      1  C   UNL     1      57.404 -39.130 -20.651  1.00  0.00     0.402 A 
ATOM      2  O   UNL     1      58.307 -38.484 -21.384  1.00  0.00    -0.202 OA
ATOM      3  C   UNL     1      58.077 -37.306 -21.954  1.00  0.00     0.368 A 
ATOM      4  C   UNL     1      59.091 -36.704 -22.705  1.00  0.00     0.162 A 
ATOM      5  C   UNL     1      58.878 -35.466 -23.312  1.00  0.00     0.128 A 
ATOM      6  C   UNL     1      57.645 -34.822 -23.167  1.00  0.00     0.093 A 
ATOM      7  C   UNL     1      56.613 -35.403 -22.419  1.00  0.00     0.136 A 
ATOM      8  C   UNL     1      56.825 -36.663 -21.803  1.00  0.00     0.125 A 
ATOM      9  C   UNL     1      55.844 -37.327 -21.047  1.00  0.00     0.078 A 
ATOM     10  C   UNL     1      56.124 -38.571 -20.474  1.00  0.00     0.223 A 
ENDROOT
BRANCH   1  11
ATOM     11  C   UNL     1      57.784 -40.433 -20.060  1.00  0.00     0.091 A 
ATOM     12  C   UNL     1      58.400 -40.465 -18.799  1.00  0.00     0.068 A 
ATOM     13  C   UNL     1      58.752 -41.682 -18.207  1.00  0.00     0.162 A 
ATOM     14  C   UNL     1      57.491 -41.645 -20.708  1.00  0.00     0.068 A 
ATOM     15  C   UNL     1      58.476 -42.891 -18.868  1.00  0.00     0.200 A 
ATOM     16  C   UNL     1      57.838 -42.869 -20.122  1.00  0.00     0.162 A 
BRANCH  13  17
ATOM     17  O   UNL     1      59.376 -41.671 -16.960  1.00  0.00    -0.504 OA
ATOM     18  H   UNL     1      60.233 -42.178 -16.781  1.00  0.00     0.293 HD
ENDBRANCH  13  17
BRANCH  15  19
ATOM     19  O   UNL     1      58.833 -44.100 -18.272  1.00  0.00    -0.502 OA
ATOM     20  H   UNL     1      58.267 -44.536 -17.554  1.00  0.00     0.293 HD
ENDBRANCH  15  19
BRANCH  16  21
ATOM     21  O   UNL     1      57.548 -44.065 -20.777  1.00  0.00    -0.504 OA
ATOM     22  H   UNL     1      56.837 -44.117 -21.497  1.00  0.00     0.293 HD
ENDBRANCH  16  21
ENDBRANCH   1  11
BRANCH  10  23
ATOM     23  O   UNL     1      55.136 -39.253 -19.764  1.00  0.00    -0.500 OA
ATOM     24  H   UNL     1      55.297 -40.178 -19.382  1.00  0.00     0.294 HD
ENDBRANCH  10  23
BRANCH   5  25
ATOM     25  O   UNL     1      59.901 -34.883 -24.057  1.00  0.00    -0.507 OA
ATOM     26  H   UNL     1      60.873 -34.962 -23.777  1.00  0.00     0.293 HD
ENDBRANCH   5  25
BRANCH   7  27
ATOM     27  O   UNL     1      55.412 -34.694 -22.320  1.00  0.00    -0.507 OA
ATOM     28  H   UNL     1      54.975 -34.203 -23.086  1.00  0.00     0.293 HD
ENDBRANCH   7  27
TORSDOF 7
ENDMDL
MODEL 2
REMARK VINA RESULT:    -6.550     13.467     14.722
REMARK INTER + INTRA:          -8.454
REMARK INTER:                  -8.102
REMARK INTRA:                  -0.352
REMARK UNBOUND:                -0.372
REMARK SMILES Oc1cc(O)c2cc(O)c(-c3cc(O)c(O)c(O)c3)[o+]c2c1
REMARK SMILES IDX 10 1 20 2 21 3 22 4 2 5 3 6 4 7 6 8 7 9 8 10 11 11 12 12
REMARK SMILES IDX 13 13 19 14 15 15 17 16 14 17 16 19 18 21 9 23 1 25 5 27
REMARK H PARENT 14 18 16 20 18 22 9 24 1 26 5 28
REMARK Flexibility Score: inf
ROOT
ATOM      1  C   UNL     1      69.514 -46.338 -22.901  1.00  0.00     0.402 A 
ATOM      2  O   UNL     1      68.387 -47.003 -23.140  1.00  0.00    -0.202 OA
ATOM      3  C   UNL     1      67.958 -47.298 -24.363  1.00  0.00     0.368 A 
ATOM      4  C   UNL     1      66.761 -48.005 -24.513  1.00  0.00     0.162 A 
ATOM      5  C   UNL     1      66.289 -48.330 -25.784  1.00  0.00     0.128 A 
ATOM      6  C   UNL     1      67.018 -47.950 -26.916  1.00  0.00     0.093 A 
ATOM      7  C   UNL     1      68.221 -47.242 -26.794  1.00  0.00     0.136 A 
ATOM      8  C   UNL     1      68.702 -46.907 -25.502  1.00  0.00     0.125 A 
ATOM      9  C   UNL     1      69.889 -46.188 -25.284  1.00  0.00     0.078 A 
ATOM     10  C   UNL     1      70.298 -45.890 -23.981  1.00  0.00     0.223 A 
ENDROOT
BRANCH   1  11
ATOM     11  C   UNL     1      69.889 -46.079 -21.493  1.00  0.00     0.091 A 
ATOM     12  C   UNL     1      69.582 -44.837 -20.915  1.00  0.00     0.068 A 
ATOM     13  C   UNL     1      69.907 -44.571 -19.581  1.00  0.00     0.162 A 
ATOM     14  C   UNL     1      70.497 -47.069 -20.703  1.00  0.00     0.068 A 
ATOM     15  C   UNL     1      70.534 -45.557 -18.800  1.00  0.00     0.200 A 
ATOM     16  C   UNL     1      70.825 -46.811 -19.365  1.00  0.00     0.162 A 
BRANCH  13  17
ATOM     17  O   UNL     1      69.599 -43.320 -19.048  1.00  0.00    -0.504 OA
ATOM     18  H   UNL     1      69.387 -43.189 -18.067  1.00  0.00     0.293 HD
ENDBRANCH  13  17
BRANCH  15  19
ATOM     19  O   UNL     1      70.858 -45.282 -17.472  1.00  0.00    -0.502 OA
ATOM     20  H   UNL     1      71.809 -45.096 -17.175  1.00  0.00     0.293 HD
ENDBRANCH  15  19
BRANCH  16  21
ATOM     21  O   UNL     1      71.434 -47.800 -18.593  1.00  0.00    -0.504 OA
ATOM     22  H   UNL     1      71.566 -48.742 -18.942  1.00  0.00     0.293 HD
ENDBRANCH  16  21
ENDBRANCH   1  11
BRANCH  10  23
ATOM     23  O   UNL     1      71.451 -45.134 -23.765  1.00  0.00    -0.500 OA
ATOM     24  H   UNL     1      71.684 -44.340 -24.349  1.00  0.00     0.294 HD
ENDBRANCH  10  23
BRANCH   5  25
ATOM     25  O   UNL     1      65.094 -49.034 -25.912  1.00  0.00    -0.507 OA
ATOM     26  H   UNL     1      64.951 -49.926 -25.451  1.00  0.00     0.293 HD
ENDBRANCH   5  25
BRANCH   7  27
ATOM     27  O   UNL     1      68.890 -46.902 -27.973  1.00  0.00    -0.507 OA
ATOM     28  H   UNL     1      68.477 -46.939 -28.894  1.00  0.00     0.293 HD
ENDBRANCH   7  27
TORSDOF 7
ENDMDL
MODEL 3
REMARK VINA RESULT:    -6.472     12.698     15.100
REMARK INTER + INTRA:          -8.357
REMARK INTER:                  -7.978
REMARK INTRA:                  -0.379
REMARK UNBOUND:                -0.372
REMARK SMILES Oc1cc(O)c2cc(O)c(-c3cc(O)c(O)c(O)c3)[o+]c2c1
REMARK SMILES IDX 10 1 20 2 21 3 22 4 2 5 3 6 4 7 6 8 7 9 8 10 11 11 12 12
REMARK SMILES IDX 13 13 19 14 15 15 17 16 14 17 16 19 18 21 9 23 1 25 5 27
REMARK H PARENT 14 18 16 20 18 22 9 24 1 26 5 28
REMARK Flexibility Score: inf
ROOT
ATOM      1  C   UNL     1      69.678 -47.021 -23.190  1.00  0.00     0.402 A 
ATOM      2  O   UNL     1      68.554 -46.413 -23.556  1.00  0.00    -0.202 OA
ATOM      3  C   UNL     1      67.796 -46.826 -24.567  1.00  0.00     0.368 A 
ATOM      4  C   UNL     1      66.628 -46.121 -24.874  1.00  0.00     0.162 A 
ATOM      5  C   UNL     1      65.812 -46.534 -25.927  1.00  0.00     0.128 A 
ATOM      6  C   UNL     1      66.163 -47.661 -26.680  1.00  0.00     0.093 A 
ATOM      7  C   UNL     1      67.327 -48.385 -26.392  1.00  0.00     0.136 A 
ATOM      8  C   UNL     1      68.160 -47.966 -25.323  1.00  0.00     0.125 A 
ATOM      9  C   UNL     1      69.352 -48.622 -24.971  1.00  0.00     0.078 A 
ATOM     10  C   UNL     1      70.125 -48.147 -23.908  1.00  0.00     0.223 A 
ENDROOT
BRANCH   1  11
ATOM     11  C   UNL     1      70.431 -46.470 -22.040  1.00  0.00     0.091 A 
ATOM     12  C   UNL     1      70.209 -46.993 -20.757  1.00  0.00     0.068 A 
ATOM     13  C   UNL     1      70.919 -46.507 -19.655  1.00  0.00     0.162 A 
ATOM     14  C   UNL     1      71.404 -45.472 -22.212  1.00  0.00     0.068 A 
ATOM     15  C   UNL     1      71.877 -45.493 -19.828  1.00  0.00     0.200 A 
ATOM     16  C   UNL     1      72.122 -44.979 -21.114  1.00  0.00     0.162 A 
BRANCH  13  17
ATOM     17  O   UNL     1      70.659 -47.042 -18.394  1.00  0.00    -0.504 OA
ATOM     18  H   UNL     1      70.382 -46.466 -17.609  1.00  0.00     0.293 HD
ENDBRANCH  13  17
BRANCH  15  19
ATOM     19  O   UNL     1      72.579 -45.011 -18.724  1.00  0.00    -0.502 OA
ATOM     20  H   UNL     1      72.360 -45.299 -17.777  1.00  0.00     0.293 HD
ENDBRANCH  15  19
BRANCH  16  21
ATOM     21  O   UNL     1      73.081 -43.984 -21.297  1.00  0.00    -0.504 OA
ATOM     22  H   UNL     1      73.005 -43.082 -20.842  1.00  0.00     0.293 HD
ENDBRANCH  16  21
ENDBRANCH   1  11
BRANCH  10  23
ATOM     23  O   UNL     1      71.333 -48.768 -23.589  1.00  0.00    -0.500 OA
ATOM     24  H   UNL     1      71.679 -48.802 -22.637  1.00  0.00     0.294 HD
ENDBRANCH  10  23
BRANCH   5  25
ATOM     25  O   UNL     1      64.653 -45.819 -26.218  1.00  0.00    -0.507 OA
ATOM     26  H   UNL     1      64.196 -45.243 -25.519  1.00  0.00     0.293 HD
ENDBRANCH   5  25
BRANCH   7  27
ATOM     27  O   UNL     1      67.604 -49.500 -27.188  1.00  0.00    -0.507 OA
ATOM     28  H   UNL     1      68.271 -49.507 -27.946  1.00  0.00     0.293 HD
ENDBRANCH   7  27
TORSDOF 7
ENDMDL
MODEL 4
REMARK VINA RESULT:    -6.448     12.748     14.696
REMARK INTER + INTRA:          -8.328
REMARK INTER:                  -7.982
REMARK INTRA:                  -0.347
REMARK UNBOUND:                -0.372
REMARK SMILES Oc1cc(O)c2cc(O)c(-c3cc(O)c(O)c(O)c3)[o+]c2c1
REMARK SMILES IDX 10 1 20 2 21 3 22 4 2 5 3 6 4 7 6 8 7 9 8 10 11 11 12 12
REMARK SMILES IDX 13 13 19 14 15 15 17 16 14 17 16 19 18 21 9 23 1 25 5 27
REMARK H PARENT 14 18 16 20 18 22 9 24 1 26 5 28
REMARK Flexibility Score: inf
ROOT
ATOM      1  C   UNL     1      70.640 -43.744 -18.496  1.00  0.00     0.402 A 
ATOM      2  O   UNL     1      69.747 -44.242 -19.347  1.00  0.00    -0.202 OA
ATOM      3  C   UNL     1      70.074 -44.767 -20.524  1.00  0.00     0.368 A 
ATOM      4  C   UNL     1      69.063 -45.269 -21.349  1.00  0.00     0.162 A 
ATOM      5  C   UNL     1      69.377 -45.827 -22.588  1.00  0.00     0.128 A 
ATOM      6  C   UNL     1      70.711 -45.888 -23.007  1.00  0.00     0.093 A 
ATOM      7  C   UNL     1      71.742 -45.394 -22.198  1.00  0.00     0.136 A 
ATOM      8  C   UNL     1      71.426 -44.822 -20.939  1.00  0.00     0.125 A 
ATOM      9  C   UNL     1      72.392 -44.289 -20.068  1.00  0.00     0.078 A 
ATOM     10  C   UNL     1      72.004 -43.737 -18.845  1.00  0.00     0.223 A 
ENDROOT
BRANCH   1  11
ATOM     11  C   UNL     1      70.152 -43.196 -17.210  1.00  0.00     0.091 A 
ATOM     12  C   UNL     1      69.475 -41.967 -17.197  1.00  0.00     0.068 A 
ATOM     13  C   UNL     1      68.985 -41.434 -16.001  1.00  0.00     0.162 A 
ATOM     14  C   UNL     1      70.302 -43.906 -16.007  1.00  0.00     0.068 A 
ATOM     15  C   UNL     1      69.156 -42.137 -14.796  1.00  0.00     0.200 A 
ATOM     16  C   UNL     1      69.814 -43.380 -14.803  1.00  0.00     0.162 A 
BRANCH  13  17
ATOM     17  O   UNL     1      68.331 -40.203 -16.028  1.00  0.00    -0.504 OA
ATOM     18  H   UNL     1      68.360 -39.559 -15.247  1.00  0.00     0.293 HD
ENDBRANCH  13  17
BRANCH  15  19
ATOM     19  O   UNL     1      68.668 -41.597 -13.607  1.00  0.00    -0.502 OA
ATOM     20  H   UNL     1      67.814 -41.927 -13.174  1.00  0.00     0.293 HD
ENDBRANCH  15  19
BRANCH  16  21
ATOM     21  O   UNL     1      69.974 -44.091 -13.615  1.00  0.00    -0.504 OA
ATOM     22  H   UNL     1      70.885 -44.408 -13.303  1.00  0.00     0.293 HD
ENDBRANCH  16  21
ENDBRANCH   1  11
BRANCH  10  23
ATOM     23  O   UNL     1      72.956 -43.164 -18.002  1.00  0.00    -0.500 OA
ATOM     24  H   UNL     1      73.930 -43.442 -18.032  1.00  0.00     0.294 HD
ENDBRANCH  10  23
BRANCH   5  25
ATOM     25  O   UNL     1      68.356 -46.321 -23.396  1.00  0.00    -0.507 OA
ATOM     26  H   UNL     1      68.443 -47.210 -23.878  1.00  0.00     0.293 HD
ENDBRANCH   5  25
BRANCH   7  27
ATOM     27  O   UNL     1      73.048 -45.495 -22.687  1.00  0.00    -0.507 OA
ATOM     28  H   UNL     1      73.367 -46.216 -23.318  1.00  0.00     0.293 HD
ENDBRANCH   7  27
TORSDOF 7
ENDMDL
MODEL 5
REMARK VINA RESULT:    -6.414     12.459     14.481
REMARK INTER + INTRA:          -8.286
REMARK INTER:                  -7.913
REMARK INTRA:                  -0.373
REMARK UNBOUND:                -0.372
REMARK SMILES Oc1cc(O)c2cc(O)c(-c3cc(O)c(O)c(O)c3)[o+]c2c1
REMARK SMILES IDX 10 1 20 2 21 3 22 4 2 5 3 6 4 7 6 8 7 9 8 10 11 11 12 12
REMARK SMILES IDX 13 13 19 14 15 15 17 16 14 17 16 19 18 21 9 23 1 25 5 27
REMARK H PARENT 14 18 16 20 18 22 9 24 1 26 5 28
REMARK Flexibility Score: inf
ROOT
ATOM      1  C   UNL     1      67.670 -46.928 -25.342  1.00  0.00     0.402 A 
ATOM      2  O   UNL     1      67.801 -47.676 -26.435  1.00  0.00    -0.202 OA
ATOM      3  C   UNL     1      66.883 -47.733 -27.394  1.00  0.00     0.368 A 
ATOM      4  C   UNL     1      67.113 -48.547 -28.507  1.00  0.00     0.162 A 
ATOM      5  C   UNL     1      66.169 -48.625 -29.531  1.00  0.00     0.128 A 
ATOM      6  C   UNL     1      64.986 -47.882 -29.445  1.00  0.00     0.093 A 
ATOM      7  C   UNL     1      64.732 -47.058 -28.341  1.00  0.00     0.136 A 
ATOM      8  C   UNL     1      65.689 -46.980 -27.297  1.00  0.00     0.125 A 
ATOM      9  C   UNL     1      65.514 -46.192 -26.147  1.00  0.00     0.078 A 
ATOM     10  C   UNL     1      66.499 -46.169 -25.157  1.00  0.00     0.223 A 
ENDROOT
BRANCH   1  11
ATOM     11  C   UNL     1      68.767 -46.941 -24.349  1.00  0.00     0.091 A 
ATOM     12  C   UNL     1      68.717 -47.846 -23.277  1.00  0.00     0.068 A 
ATOM     13  C   UNL     1      69.748 -47.895 -22.334  1.00  0.00     0.162 A 
ATOM     14  C   UNL     1      69.888 -46.104 -24.484  1.00  0.00     0.068 A 
ATOM     15  C   UNL     1      70.858 -47.041 -22.462  1.00  0.00     0.200 A 
ATOM     16  C   UNL     1      70.927 -46.147 -23.545  1.00  0.00     0.162 A 
BRANCH  13  17
ATOM     17  O   UNL     1      69.654 -48.798 -21.276  1.00  0.00    -0.504 OA
ATOM     18  H   UNL     1      68.935 -49.510 -21.237  1.00  0.00     0.293 HD
ENDBRANCH  13  17
BRANCH  15  19
ATOM     19  O   UNL     1      71.880 -47.094 -21.515  1.00  0.00    -0.502 OA
ATOM     20  H   UNL     1      72.424 -47.933 -21.353  1.00  0.00     0.293 HD
ENDBRANCH  15  19
BRANCH  16  21
ATOM     21  O   UNL     1      72.031 -45.307 -23.687  1.00  0.00    -0.504 OA
ATOM     22  H   UNL     1      72.159 -44.492 -23.099  1.00  0.00     0.293 HD
ENDBRANCH  16  21
ENDBRANCH   1  11
BRANCH  10  23
ATOM     23  O   UNL     1      66.304 -45.425 -23.992  1.00  0.00    -0.500 OA
ATOM     24  H   UNL     1      66.027 -44.451 -24.023  1.00  0.00     0.294 HD
ENDBRANCH  10  23
BRANCH   5  25
ATOM     25  O   UNL     1      66.416 -49.442 -30.632  1.00  0.00    -0.507 OA
ATOM     26  H   UNL     1      67.360 -49.700 -30.900  1.00  0.00     0.293 HD
ENDBRANCH   5  25
BRANCH   7  27
ATOM     27  O   UNL     1      63.529 -46.347 -28.332  1.00  0.00    -0.507 OA
ATOM     28  H   UNL     1      62.691 -46.650 -27.857  1.00  0.00     0.293 HD
ENDBRANCH   7  27
TORSDOF 7
ENDMDL
MODEL 6
REMARK VINA RESULT:    -6.409     13.337     15.540
REMARK INTER + INTRA:          -8.280
REMARK INTER:                  -7.900
REMARK INTRA:                  -0.380
REMARK UNBOUND:                -0.372
REMARK SMILES Oc1cc(O)c2cc(O)c(-c3cc(O)c(O)c(O)c3)[o+]c2c1
REMARK SMILES IDX 10 1 20 2 21 3 22 4 2 5 3 6 4 7 6 8 7 9 8 10 11 11 12 12
REMARK SMILES IDX 13 13 19 14 15 15 17 16 14 17 16 19 18 21 9 23 1 25 5 27
REMARK H PARENT 14 18 16 20 18 22 9 24 1 26 5 28
REMARK Flexibility Score: inf
ROOT
ATOM      1  C   UNL     1      69.611 -46.755 -23.380  1.00  0.00     0.402 A 
ATOM      2  O   UNL     1      70.034 -47.784 -24.107  1.00  0.00    -0.202 OA
ATOM      3  C   UNL     1      69.411 -48.211 -25.201  1.00  0.00     0.368 A 
ATOM      4  C   UNL     1      69.936 -49.302 -25.901  1.00  0.00     0.162 A 
ATOM      5  C   UNL     1      69.304 -49.769 -27.054  1.00  0.00     0.128 A 
ATOM      6  C   UNL     1      68.141 -49.143 -27.513  1.00  0.00     0.093 A 
ATOM      7  C   UNL     1      67.595 -48.048 -26.831  1.00  0.00     0.136 A 
ATOM      8  C   UNL     1      68.233 -47.572 -25.656  1.00  0.00     0.125 A 
ATOM      9  C   UNL     1      67.751 -46.490 -24.900  1.00  0.00     0.078 A 
ATOM     10  C   UNL     1      68.431 -46.081 -23.750  1.00  0.00     0.223 A 
ENDROOT
BRANCH   1  11
ATOM     11  C   UNL     1      70.398 -46.368 -22.187  1.00  0.00     0.091 A 
ATOM     12  C   UNL     1      71.390 -45.383 -22.305  1.00  0.00     0.068 A 
ATOM     13  C   UNL     1      72.136 -44.983 -21.192  1.00  0.00     0.162 A 
ATOM     14  C   UNL     1      70.136 -46.926 -20.925  1.00  0.00     0.068 A 
ATOM     15  C   UNL     1      71.885 -45.559 -19.935  1.00  0.00     0.200 A 
ATOM     16  C   UNL     1      70.878 -46.531 -19.803  1.00  0.00     0.162 A 
BRANCH  13  17
ATOM     17  O   UNL     1      73.123 -44.011 -21.354  1.00  0.00    -0.504 OA
ATOM     18  H   UNL     1      73.427 -43.420 -20.591  1.00  0.00     0.293 HD
ENDBRANCH  13  17
BRANCH  15  19
ATOM     19  O   UNL     1      72.636 -45.158 -18.830  1.00  0.00    -0.502 OA
ATOM     20  H   UNL     1      72.915 -45.805 -18.103  1.00  0.00     0.293 HD
ENDBRANCH  15  19
BRANCH  16  21
ATOM     21  O   UNL     1      70.613 -47.096 -18.556  1.00  0.00    -0.504 OA
ATOM     22  H   UNL     1      70.101 -46.592 -17.842  1.00  0.00     0.293 HD
ENDBRANCH  16  21
ENDBRANCH   1  11
BRANCH  10  23
ATOM     23  O   UNL     1      67.926 -45.039 -22.972  1.00  0.00    -0.500 OA
ATOM     24  H   UNL     1      68.458 -44.640 -22.206  1.00  0.00     0.294 HD
ENDBRANCH  10  23
BRANCH   5  25
ATOM     25  O   UNL     1      69.843 -50.857 -27.737  1.00  0.00    -0.507 OA
ATOM     26  H   UNL     1      69.534 -51.102 -28.672  1.00  0.00     0.293 HD
ENDBRANCH   5  25
BRANCH   7  27
ATOM     27  O   UNL     1      66.432 -47.477 -27.356  1.00  0.00    -0.507 OA
ATOM     28  H   UNL     1      65.653 -47.156 -26.799  1.00  0.00     0.293 HD
ENDBRANCH   7  27
TORSDOF 7
ENDMDL
MODEL 7
REMARK VINA RESULT:    -6.343     14.343     15.548
REMARK INTER + INTRA:          -8.199
REMARK INTER:                  -7.958
REMARK INTRA:                  -0.240
REMARK UNBOUND:                -0.372
REMARK SMILES Oc1cc(O)c2cc(O)c(-c3cc(O)c(O)c(O)c3)[o+]c2c1
REMARK SMILES IDX 10 1 20 2 21 3 22 4 2 5 3 6 4 7 6 8 7 9 8 10 11 11 12 12
REMARK SMILES IDX 13 13 19 14 15 15 17 16 14 17 16 19 18 21 9 23 1 25 5 27
REMARK H PARENT 14 18 16 20 18 22 9 24 1 26 5 28
REMARK Flexibility Score: inf
ROOT
ATOM      1  C   UNL     1      71.024 -45.645 -20.516  1.00  0.00     0.402 A 
ATOM      2  O   UNL     1      70.448 -45.626 -19.317  1.00  0.00    -0.202 OA
ATOM      3  C   UNL     1      70.680 -44.682 -18.411  1.00  0.00     0.368 A 
ATOM      4  C   UNL     1      70.023 -44.747 -17.178  1.00  0.00     0.162 A 
ATOM      5  C   UNL     1      70.245 -43.768 -16.210  1.00  0.00     0.128 A 
ATOM      6  C   UNL     1      71.128 -42.715 -16.473  1.00  0.00     0.093 A 
ATOM      7  C   UNL     1      71.797 -42.626 -17.700  1.00  0.00     0.136 A 
ATOM      8  C   UNL     1      71.576 -43.622 -18.686  1.00  0.00     0.125 A 
ATOM      9  C   UNL     1      72.213 -43.623 -19.939  1.00  0.00     0.078 A 
ATOM     10  C   UNL     1      71.948 -44.641 -20.859  1.00  0.00     0.223 A 
ENDROOT
BRANCH   1  11
ATOM     11  C   UNL     1      70.676 -46.746 -21.443  1.00  0.00     0.091 A 
ATOM     12  C   UNL     1      71.643 -47.714 -21.758  1.00  0.00     0.068 A 
ATOM     13  C   UNL     1      71.338 -48.776 -22.615  1.00  0.00     0.162 A 
ATOM     14  C   UNL     1      69.381 -46.877 -21.972  1.00  0.00     0.068 A 
ATOM     15  C   UNL     1      70.047 -48.891 -23.159  1.00  0.00     0.200 A 
ATOM     16  C   UNL     1      69.066 -47.938 -22.831  1.00  0.00     0.162 A 
BRANCH  13  17
ATOM     17  O   UNL     1      72.330 -49.708 -22.915  1.00  0.00    -0.504 OA
ATOM     18  H   UNL     1      73.310 -49.459 -22.954  1.00  0.00     0.293 HD
ENDBRANCH  13  17
BRANCH  15  19
ATOM     19  O   UNL     1      69.751 -49.951 -24.015  1.00  0.00    -0.502 OA
ATOM     20  H   UNL     1      70.460 -50.600 -24.336  1.00  0.00     0.293 HD
ENDBRANCH  15  19
BRANCH  16  21
ATOM     21  O   UNL     1      67.778 -48.054 -23.354  1.00  0.00    -0.504 OA
ATOM     22  H   UNL     1      67.450 -48.917 -23.772  1.00  0.00     0.293 HD
ENDBRANCH  16  21
ENDBRANCH   1  11
BRANCH  10  23
ATOM     23  O   UNL     1      72.617 -44.669 -22.083  1.00  0.00    -0.500 OA
ATOM     24  H   UNL     1      72.266 -44.172 -22.893  1.00  0.00     0.294 HD
ENDBRANCH  10  23
BRANCH   5  25
ATOM     25  O   UNL     1      69.582 -43.850 -14.987  1.00  0.00    -0.507 OA
ATOM     26  H   UNL     1      68.569 -43.866 -14.933  1.00  0.00     0.293 HD
ENDBRANCH   5  25
BRANCH   7  27
ATOM     27  O   UNL     1      72.660 -41.543 -17.886  1.00  0.00    -0.507 OA
ATOM     28  H   UNL     1      73.652 -41.564 -17.698  1.00  0.00     0.293 HD
ENDBRANCH   7  27
TORSDOF 7
ENDMDL
MODEL 8
REMARK VINA RESULT:    -6.179     13.850     15.546
REMARK INTER + INTRA:          -7.996
REMARK INTER:                  -7.612
REMARK INTRA:                  -0.384
REMARK UNBOUND:                -0.372
REMARK SMILES Oc1cc(O)c2cc(O)c(-c3cc(O)c(O)c(O)c3)[o+]c2c1
REMARK SMILES IDX 10 1 20 2 21 3 22 4 2 5 3 6 4 7 6 8 7 9 8 10 11 11 12 12
REMARK SMILES IDX 13 13 19 14 15 15 17 16 14 17 16 19 18 21 9 23 1 25 5 27
REMARK H PARENT 14 18 16 20 18 22 9 24 1 26 5 28
REMARK Flexibility Score: inf
ROOT
ATOM      1  C   UNL     1      71.299 -39.516 -13.577  1.00  0.00     0.402 A 
ATOM      2  O   UNL     1      70.779 -38.385 -14.045  1.00  0.00    -0.202 OA
ATOM      3  C   UNL     1      71.064 -37.188 -13.543  1.00  0.00     0.368 A 
ATOM      4  C   UNL     1      70.468 -36.055 -14.106  1.00  0.00     0.162 A 
ATOM      5  C   UNL     1      70.752 -34.786 -13.602  1.00  0.00     0.128 A 
ATOM      6  C   UNL     1      71.639 -34.645 -12.529  1.00  0.00     0.093 A 
ATOM      7  C   UNL     1      72.250 -35.763 -11.948  1.00  0.00     0.136 A 
ATOM      8  C   UNL     1      71.961 -37.056 -12.456  1.00  0.00     0.125 A 
ATOM      9  C   UNL     1      72.515 -38.234 -11.929  1.00  0.00     0.078 A 
ATOM     10  C   UNL     1      72.180 -39.474 -12.480  1.00  0.00     0.223 A 
ENDROOT
BRANCH   1  11
ATOM     11  C   UNL     1      70.910 -40.788 -14.228  1.00  0.00     0.091 A 
ATOM     12  C   UNL     1      69.730 -41.434 -13.829  1.00  0.00     0.068 A 
ATOM     13  C   UNL     1      69.327 -42.626 -14.439  1.00  0.00     0.162 A 
ATOM     14  C   UNL     1      71.668 -41.336 -15.276  1.00  0.00     0.068 A 
ATOM     15  C   UNL     1      70.100 -43.182 -15.473  1.00  0.00     0.200 A 
ATOM     16  C   UNL     1      71.272 -42.530 -15.894  1.00  0.00     0.162 A 
BRANCH  13  17
ATOM     17  O   UNL     1      68.155 -43.245 -14.004  1.00  0.00    -0.504 OA
ATOM     18  H   UNL     1      67.255 -42.784 -14.044  1.00  0.00     0.293 HD
ENDBRANCH  13  17
BRANCH  15  19
ATOM     19  O   UNL     1      69.693 -44.373 -16.074  1.00  0.00    -0.502 OA
ATOM     20  H   UNL     1      69.011 -44.395 -16.823  1.00  0.00     0.293 HD
ENDBRANCH  15  19
BRANCH  16  21
ATOM     21  O   UNL     1      72.036 -43.067 -16.930  1.00  0.00    -0.504 OA
ATOM     22  H   UNL     1      72.572 -43.918 -16.809  1.00  0.00     0.293 HD
ENDBRANCH  16  21
ENDBRANCH   1  11
BRANCH  10  23
ATOM     23  O   UNL     1      72.691 -40.648 -11.925  1.00  0.00    -0.500 OA
ATOM     24  H   UNL     1      72.717 -41.516 -12.448  1.00  0.00     0.294 HD
ENDBRANCH  10  23
BRANCH   5  25
ATOM     25  O   UNL     1      70.148 -33.669 -14.176  1.00  0.00    -0.507 OA
ATOM     26  H   UNL     1      69.364 -33.759 -14.812  1.00  0.00     0.293 HD
ENDBRANCH   5  25
BRANCH   7  27
ATOM     27  O   UNL     1      73.125 -35.538 -10.882  1.00  0.00    -0.507 OA
ATOM     28  H   UNL     1      72.957 -34.879 -10.136  1.00  0.00     0.293 HD
ENDBRANCH   7  27
TORSDOF 7
ENDMDL
MODEL 9
REMARK VINA RESULT:    -6.131     14.224     15.585
REMARK INTER + INTRA:          -7.937
REMARK INTER:                  -7.699
REMARK INTRA:                  -0.238
REMARK UNBOUND:                -0.372
REMARK SMILES Oc1cc(O)c2cc(O)c(-c3cc(O)c(O)c(O)c3)[o+]c2c1
REMARK SMILES IDX 10 1 20 2 21 3 22 4 2 5 3 6 4 7 6 8 7 9 8 10 11 11 12 12
REMARK SMILES IDX 13 13 19 14 15 15 17 16 14 17 16 19 18 21 9 23 1 25 5 27
REMARK H PARENT 14 18 16 20 18 22 9 24 1 26 5 28
REMARK Flexibility Score: inf
ROOT
ATOM      1  C   UNL     1      70.826 -45.765 -19.832  1.00  0.00     0.402 A 
ATOM      2  O   UNL     1      70.351 -45.416 -21.025  1.00  0.00    -0.202 OA
ATOM      3  C   UNL     1      70.220 -46.269 -22.036  1.00  0.00     0.368 A 
ATOM      4  C   UNL     1      69.707 -45.808 -23.252  1.00  0.00     0.162 A 
ATOM      5  C   UNL     1      69.556 -46.681 -24.329  1.00  0.00     0.128 A 
ATOM      6  C   UNL     1      69.917 -48.026 -24.192  1.00  0.00     0.093 A 
ATOM      7  C   UNL     1      70.432 -48.513 -22.984  1.00  0.00     0.136 A 
ATOM      8  C   UNL     1      70.590 -47.627 -21.887  1.00  0.00     0.125 A 
ATOM      9  C   UNL     1      71.110 -48.023 -20.644  1.00  0.00     0.078 A 
ATOM     10  C   UNL     1      71.241 -47.092 -19.610  1.00  0.00     0.223 A 
ENDROOT
BRANCH   1  11
ATOM     11  C   UNL     1      70.914 -44.725 -18.782  1.00  0.00     0.091 A 
ATOM     12  C   UNL     1      70.132 -44.847 -17.623  1.00  0.00     0.068 A 
ATOM     13  C   UNL     1      70.210 -43.891 -16.605  1.00  0.00     0.162 A 
ATOM     14  C   UNL     1      71.806 -43.645 -18.893  1.00  0.00     0.068 A 
ATOM     15  C   UNL     1      71.088 -42.801 -16.731  1.00  0.00     0.200 A 
ATOM     16  C   UNL     1      71.891 -42.683 -17.879  1.00  0.00     0.162 A 
BRANCH  13  17
ATOM     17  O   UNL     1      69.406 -44.041 -15.476  1.00  0.00    -0.504 OA
ATOM     18  H   UNL     1      68.414 -44.231 -15.541  1.00  0.00     0.293 HD
ENDBRANCH  13  17
BRANCH  15  19
ATOM     19  O   UNL     1      71.156 -41.850 -15.713  1.00  0.00    -0.502 OA
ATOM     20  H   UNL     1      70.328 -41.430 -15.309  1.00  0.00     0.293 HD
ENDBRANCH  15  19
BRANCH  16  21
ATOM     21  O   UNL     1      72.776 -41.613 -18.003  1.00  0.00    -0.504 OA
ATOM     22  H   UNL     1      73.628 -41.561 -17.458  1.00  0.00     0.293 HD
ENDBRANCH  16  21
ENDBRANCH   1  11
BRANCH  10  23
ATOM     23  O   UNL     1      71.803 -47.472 -18.391  1.00  0.00    -0.500 OA
ATOM     24  H   UNL     1      71.400 -47.186 -17.507  1.00  0.00     0.294 HD
ENDBRANCH  10  23
BRANCH   5  25
ATOM     25  O   UNL     1      69.044 -46.202 -25.533  1.00  0.00    -0.507 OA
ATOM     26  H   UNL     1      69.518 -46.368 -26.415  1.00  0.00     0.293 HD
ENDBRANCH   5  25
BRANCH   7  27
ATOM     27  O   UNL     1      70.766 -49.869 -22.927  1.00  0.00    -0.507 OA
ATOM     28  H   UNL     1      71.172 -50.389 -23.691  1.00  0.00     0.293 HD
ENDBRANCH   7  27
TORSDOF 7
ENDMDL
