MODEL 1
REMARK VINA RESULT:    -6.302      0.000      0.000
REMARK INTER + INTRA:          -9.931
REMARK INTER:                  -8.697
REMARK INTRA:                  -1.234
REMARK UNBOUND:                -1.234
REMARK SMILES CC[C@@H](CC[C@H](C)[C@H]1CC[C@H]2[C@@H]3CC=C4C[C@@H](O)CC[C@]4(C)[C@@H]3CC[C@@]12C)C(C)C
REMARK SMILES IDX 5 1 4 2 3 3 2 4 1 5 28 6 29 7 30 8 6 9 7 10 8 11 9 12 26 13
REMARK SMILES IDX 10 14 11 15 25 16 27 17 12 18 24 19 23 20 13 21 21 22 14 23
REMARK SMILES IDX 15 24 20 25 22 26 16 27 19 28 17 29 18 30
REMARK H PARENT 18 31
REMARK Flexibility Score: inf
ROOT
ATOM      1  C   UNL     1      -3.123  -7.640  37.402  1.00  0.00     0.004 C 
ENDROOT
BRANCH   1   2
ATOM      2  C   UNL     1      -3.905  -6.360  37.030  1.00  0.00     0.004 C 
BRANCH   2   3
ATOM      3  C   UNL     1      -3.607  -5.833  35.593  1.00  0.00    -0.009 C 
BRANCH   3   4
ATOM      4  C   UNL     1      -4.750  -4.880  35.135  1.00  0.00     0.000 C 
ATOM      5  C   UNL     1      -4.257  -3.591  34.475  1.00  0.00     0.004 C 
ENDBRANCH   3   4
BRANCH   3   6
ATOM      6  C   UNL     1      -3.367  -6.979  34.529  1.00  0.00    -0.014 C 
ATOM      7  C   UNL     1      -2.347  -6.661  33.416  1.00  0.00     0.007 C 
ATOM      8  C   UNL     1      -4.690  -7.399  33.858  1.00  0.00     0.007 C 
ENDBRANCH   3   6
ENDBRANCH   2   3
ENDBRANCH   1   2
BRANCH   1   9
ATOM      9  C   UNL     1      -4.028  -8.774  37.958  1.00  0.00    -0.011 C 
ATOM     10  C   UNL     1      -5.511  -8.457  37.659  1.00  0.00     0.008 C 
BRANCH   9  11
ATOM     11  C   UNL     1      -3.697  -9.036  39.479  1.00  0.00    -0.002 C 
ATOM     12  C   UNL     1      -4.845  -8.822  40.472  1.00  0.00     0.005 C 
ATOM     13  C   UNL     1      -3.060 -10.405  39.863  1.00  0.00    -0.026 C 
ATOM     14  C   UNL     1      -4.455  -9.585  41.737  1.00  0.00     0.005 C 
ATOM     15  C   UNL     1      -3.166 -10.371  41.417  1.00  0.00    -0.001 C 
ATOM     16  C   UNL     1      -3.858 -11.601  39.279  1.00  0.00     0.007 C 
ATOM     17  C   UNL     1      -1.586 -10.447  39.373  1.00  0.00     0.012 C 
ATOM     18  C   UNL     1      -3.104 -11.742  42.164  1.00  0.00     0.000 C 
ATOM     19  C   UNL     1      -3.574 -12.936  39.979  1.00  0.00     0.005 C 
ATOM     20  C   UNL     1      -3.941 -12.855  41.480  1.00  0.00     0.003 C 
ATOM     21  C   UNL     1      -1.650 -12.188  42.395  1.00  0.00     0.031 C 
ATOM     22  C   UNL     1      -3.870 -14.218  42.290  1.00  0.00    -0.008 C 
ATOM     23  C   UNL     1      -1.532 -13.564  42.975  1.00  0.00    -0.027 C 
ATOM     24  C   UNL     1      -2.460 -14.528  42.806  1.00  0.00    -0.065 C 
ATOM     25  C   UNL     1      -4.361 -15.426  41.427  1.00  0.00     0.014 C 
ATOM     26  C   UNL     1      -4.811 -14.084  43.523  1.00  0.00     0.016 C 
ATOM     27  C   UNL     1      -2.186 -15.900  43.398  1.00  0.00     0.063 C 
ATOM     28  C   UNL     1      -4.190 -16.792  42.113  1.00  0.00     0.033 C 
ATOM     29  C   UNL     1      -2.718 -17.020  42.487  1.00  0.00     0.118 C 
BRANCH  29  30
ATOM     30  O   UNL     1      -2.550 -18.276  43.094  1.00  0.00    -0.393 OA
ATOM     31  H   UNL     1      -2.988 -18.242  43.984  1.00  0.00     0.210 HD
ENDBRANCH  29  30
ENDBRANCH   9  11
ENDBRANCH   1   9
TORSDOF 7
ENDMDL
MODEL 2
REMARK VINA RESULT:    -6.272      1.039      1.604
REMARK INTER + INTRA:          -9.890
REMARK INTER:                  -8.230
REMARK INTRA:                  -1.660
REMARK UNBOUND:                -1.234
REMARK SMILES CC[C@@H](CC[C@H](C)[C@H]1CC[C@H]2[C@@H]3CC=C4C[C@@H](O)CC[C@]4(C)[C@@H]3CC[C@@]12C)C(C)C
REMARK SMILES IDX 5 1 4 2 3 3 2 4 1 5 28 6 29 7 30 8 6 9 7 10 8 11 9 12 26 13
REMARK SMILES IDX 10 14 11 15 25 16 27 17 12 18 24 19 23 20 13 21 21 22 14 23
REMARK SMILES IDX 15 24 20 25 22 26 16 27 19 28 17 29 18 30
REMARK H PARENT 18 31
REMARK Flexibility Score: inf
ROOT
ATOM      1  C   UNL     1      -4.351  -7.363  37.754  1.00  0.00     0.004 C 
ENDROOT
BRANCH   1   2
ATOM      2  C   UNL     1      -2.830  -7.089  37.764  1.00  0.00     0.004 C 
BRANCH   2   3
ATOM      3  C   UNL     1      -2.206  -6.941  36.343  1.00  0.00    -0.009 C 
BRANCH   3   4
ATOM      4  C   UNL     1      -3.326  -6.632  35.306  1.00  0.00     0.000 C 
ATOM      5  C   UNL     1      -2.802  -6.250  33.920  1.00  0.00     0.004 C 
ENDBRANCH   3   4
BRANCH   3   6
ATOM      6  C   UNL     1      -1.345  -8.189  35.889  1.00  0.00    -0.014 C 
ATOM      7  C   UNL     1      -2.123  -9.507  35.692  1.00  0.00     0.007 C 
ATOM      8  C   UNL     1      -0.193  -8.456  36.878  1.00  0.00     0.007 C 
ENDBRANCH   3   6
ENDBRANCH   2   3
ENDBRANCH   1   2
BRANCH   1   9
ATOM      9  C   UNL     1      -4.718  -8.806  38.201  1.00  0.00    -0.011 C 
ATOM     10  C   UNL     1      -6.223  -9.062  37.963  1.00  0.00     0.008 C 
BRANCH   9  11
ATOM     11  C   UNL     1      -4.225  -9.058  39.680  1.00  0.00    -0.002 C 
ATOM     12  C   UNL     1      -5.272  -8.879  40.785  1.00  0.00     0.005 C 
ATOM     13  C   UNL     1      -3.510 -10.406  39.991  1.00  0.00    -0.026 C 
ATOM     14  C   UNL     1      -4.731  -9.631  42.001  1.00  0.00     0.005 C 
ATOM     15  C   UNL     1      -3.458 -10.376  41.549  1.00  0.00    -0.001 C 
ATOM     16  C   UNL     1      -4.327 -11.626  39.488  1.00  0.00     0.007 C 
ATOM     17  C   UNL     1      -2.093 -10.402  39.353  1.00  0.00     0.012 C 
ATOM     18  C   UNL     1      -3.278 -11.745  42.280  1.00  0.00     0.000 C 
ATOM     19  C   UNL     1      -3.932 -12.952  40.151  1.00  0.00     0.005 C 
ATOM     20  C   UNL     1      -4.146 -12.883  41.681  1.00  0.00     0.003 C 
ATOM     21  C   UNL     1      -1.794 -12.145  42.360  1.00  0.00     0.031 C 
ATOM     22  C   UNL     1      -3.951 -14.243  42.476  1.00  0.00    -0.008 C 
ATOM     23  C   UNL     1      -1.576 -13.518  42.920  1.00  0.00    -0.027 C 
ATOM     24  C   UNL     1      -2.486 -14.509  42.844  1.00  0.00    -0.065 C 
ATOM     25  C   UNL     1      -4.489 -15.466  41.663  1.00  0.00     0.014 C 
ATOM     26  C   UNL     1      -4.764 -14.139  43.798  1.00  0.00     0.016 C 
ATOM     27  C   UNL     1      -2.110 -15.873  43.400  1.00  0.00     0.063 C 
ATOM     28  C   UNL     1      -4.207 -16.826  42.323  1.00  0.00     0.033 C 
ATOM     29  C   UNL     1      -2.698 -17.008  42.544  1.00  0.00     0.118 C 
BRANCH  29  30
ATOM     30  O   UNL     1      -2.431 -18.259  43.127  1.00  0.00    -0.393 OA
ATOM     31  H   UNL     1      -2.639 -18.957  42.452  1.00  0.00     0.210 HD
ENDBRANCH  29  30
ENDBRANCH   9  11
ENDBRANCH   1   9
TORSDOF 7
ENDMDL
MODEL 3
REMARK VINA RESULT:    -6.263      2.277      4.266
REMARK INTER + INTRA:          -9.877
REMARK INTER:                  -7.814
REMARK INTRA:                  -2.063
REMARK UNBOUND:                -1.234
REMARK SMILES CC[C@@H](CC[C@H](C)[C@H]1CC[C@H]2[C@@H]3CC=C4C[C@@H](O)CC[C@]4(C)[C@@H]3CC[C@@]12C)C(C)C
REMARK SMILES IDX 5 1 4 2 3 3 2 4 1 5 28 6 29 7 30 8 6 9 7 10 8 11 9 12 26 13
REMARK SMILES IDX 10 14 11 15 25 16 27 17 12 18 24 19 23 20 13 21 21 22 14 23
REMARK SMILES IDX 15 24 20 25 22 26 16 27 19 28 17 29 18 30
REMARK H PARENT 18 31
REMARK Flexibility Score: inf
ROOT
ATOM      1  C   UNL     1      -6.292  -7.909  33.544  1.00  0.00     0.004 C 
ENDROOT
BRANCH   1   2
ATOM      2  C   UNL     1      -6.450  -6.394  33.804  1.00  0.00     0.004 C 
BRANCH   2   3
ATOM      3  C   UNL     1      -5.164  -5.565  33.505  1.00  0.00    -0.009 C 
BRANCH   3   4
ATOM      4  C   UNL     1      -4.124  -6.456  32.762  1.00  0.00     0.000 C 
ATOM      5  C   UNL     1      -4.058  -6.208  31.255  1.00  0.00     0.004 C 
ENDBRANCH   3   4
BRANCH   3   6
ATOM      6  C   UNL     1      -4.521  -4.896  34.787  1.00  0.00    -0.014 C 
ATOM      7  C   UNL     1      -5.497  -4.563  35.933  1.00  0.00     0.007 C 
ATOM      8  C   UNL     1      -3.760  -3.607  34.417  1.00  0.00     0.007 C 
ENDBRANCH   3   6
ENDBRANCH   2   3
ENDBRANCH   1   2
BRANCH   1   9
ATOM      9  C   UNL     1      -6.559  -8.780  34.803  1.00  0.00    -0.011 C 
ATOM     10  C   UNL     1      -8.041  -9.215  34.836  1.00  0.00     0.008 C 
BRANCH   9  11
ATOM     11  C   UNL     1      -6.055  -8.031  36.098  1.00  0.00    -0.002 C 
ATOM     12  C   UNL     1      -7.108  -7.752  37.175  1.00  0.00     0.005 C 
ATOM     13  C   UNL     1      -4.828  -8.624  36.853  1.00  0.00    -0.026 C 
ATOM     14  C   UNL     1      -6.331  -7.499  38.467  1.00  0.00     0.005 C 
ATOM     15  C   UNL     1      -4.846  -7.794  38.173  1.00  0.00    -0.001 C 
ATOM     16  C   UNL     1      -5.003 -10.138  37.149  1.00  0.00     0.007 C 
ATOM     17  C   UNL     1      -3.538  -8.381  36.021  1.00  0.00     0.012 C 
ATOM     18  C   UNL     1      -4.104  -8.402  39.406  1.00  0.00     0.000 C 
ATOM     19  C   UNL     1      -4.085 -10.663  38.260  1.00  0.00     0.005 C 
ATOM     20  C   UNL     1      -4.359  -9.922  39.590  1.00  0.00     0.003 C 
ATOM     21  C   UNL     1      -2.600  -8.081  39.368  1.00  0.00     0.031 C 
ATOM     22  C   UNL     1      -3.609 -10.486  40.871  1.00  0.00    -0.008 C 
ATOM     23  C   UNL     1      -1.816  -8.763  40.447  1.00  0.00    -0.027 C 
ATOM     24  C   UNL     1      -2.190  -9.923  41.023  1.00  0.00    -0.065 C 
ATOM     25  C   UNL     1      -3.524 -12.047  40.846  1.00  0.00     0.014 C 
ATOM     26  C   UNL     1      -4.428 -10.061  42.124  1.00  0.00     0.016 C 
ATOM     27  C   UNL     1      -1.270 -10.538  42.063  1.00  0.00     0.063 C 
ATOM     28  C   UNL     1      -2.692 -12.645  41.992  1.00  0.00     0.033 C 
ATOM     29  C   UNL     1      -1.266 -12.074  41.970  1.00  0.00     0.118 C 
BRANCH  29  30
ATOM     30  O   UNL     1      -0.493 -12.633  43.002  1.00  0.00    -0.393 OA
ATOM     31  H   UNL     1      -0.422 -11.957  43.725  1.00  0.00     0.210 HD
ENDBRANCH  29  30
ENDBRANCH   9  11
ENDBRANCH   1   9
TORSDOF 7
ENDMDL
MODEL 4
REMARK VINA RESULT:    -6.228      3.462      9.762
REMARK INTER + INTRA:          -9.829
REMARK INTER:                  -8.786
REMARK INTRA:                  -1.043
REMARK UNBOUND:                -1.234
REMARK SMILES CC[C@@H](CC[C@H](C)[C@H]1CC[C@H]2[C@@H]3CC=C4C[C@@H](O)CC[C@]4(C)[C@@H]3CC[C@@]12C)C(C)C
REMARK SMILES IDX 5 1 4 2 3 3 2 4 1 5 28 6 29 7 30 8 6 9 7 10 8 11 9 12 26 13
REMARK SMILES IDX 10 14 11 15 25 16 27 17 12 18 24 19 23 20 13 21 21 22 14 23
REMARK SMILES IDX 15 24 20 25 22 26 16 27 19 28 17 29 18 30
REMARK H PARENT 18 31
REMARK Flexibility Score: inf
ROOT
ATOM      1  C   UNL     1      -1.986 -12.145  42.139  1.00  0.00     0.004 C 
ENDROOT
BRANCH   1   2
ATOM      2  C   UNL     1      -3.115 -13.047  42.687  1.00  0.00     0.004 C 
BRANCH   2   3
ATOM      3  C   UNL     1      -2.926 -14.560  42.364  1.00  0.00    -0.009 C 
BRANCH   3   4
ATOM      4  C   UNL     1      -4.089 -15.054  41.453  1.00  0.00     0.000 C 
ATOM      5  C   UNL     1      -3.626 -15.648  40.122  1.00  0.00     0.004 C 
ENDBRANCH   3   4
BRANCH   3   6
ATOM      6  C   UNL     1      -2.787 -15.476  43.647  1.00  0.00    -0.014 C 
ATOM      7  C   UNL     1      -1.858 -16.699  43.504  1.00  0.00     0.007 C 
ATOM      8  C   UNL     1      -4.165 -15.974  44.124  1.00  0.00     0.007 C 
ENDBRANCH   3   6
ENDBRANCH   2   3
ENDBRANCH   1   2
BRANCH   1   9
ATOM      9  C   UNL     1      -2.509 -10.845  41.466  1.00  0.00    -0.011 C 
ATOM     10  C   UNL     1      -3.875 -10.453  42.072  1.00  0.00     0.008 C 
BRANCH   9  11
ATOM     11  C   UNL     1      -2.499 -11.006  39.895  1.00  0.00    -0.002 C 
ATOM     12  C   UNL     1      -3.719 -11.694  39.274  1.00  0.00     0.005 C 
ATOM     13  C   UNL     1      -2.249  -9.733  39.033  1.00  0.00    -0.026 C 
ATOM     14  C   UNL     1      -3.719 -11.296  37.798  1.00  0.00     0.005 C 
ATOM     15  C   UNL     1      -2.600 -10.252  37.605  1.00  0.00    -0.001 C 
ATOM     16  C   UNL     1      -3.183  -8.562  39.441  1.00  0.00     0.007 C 
ATOM     17  C   UNL     1      -0.760  -9.306  39.156  1.00  0.00     0.012 C 
ATOM     18  C   UNL     1      -2.964  -9.181  36.528  1.00  0.00     0.000 C 
ATOM     19  C   UNL     1      -3.318  -7.474  38.368  1.00  0.00     0.005 C 
ATOM     20  C   UNL     1      -3.900  -8.064  37.062  1.00  0.00     0.003 C 
ATOM     21  C   UNL     1      -1.701  -8.596  35.872  1.00  0.00     0.031 C 
ATOM     22  C   UNL     1      -4.265  -7.018  35.925  1.00  0.00    -0.008 C 
ATOM     23  C   UNL     1      -1.986  -7.459  34.938  1.00  0.00    -0.027 C 
ATOM     24  C   UNL     1      -3.061  -6.654  35.047  1.00  0.00    -0.065 C 
ATOM     25  C   UNL     1      -4.859  -5.702  36.524  1.00  0.00     0.014 C 
ATOM     26  C   UNL     1      -5.343  -7.669  35.011  1.00  0.00     0.016 C 
ATOM     27  C   UNL     1      -3.196  -5.500  34.068  1.00  0.00     0.063 C 
ATOM     28  C   UNL     1      -5.107  -4.599  35.482  1.00  0.00     0.033 C 
ATOM     29  C   UNL     1      -3.803  -4.259  34.745  1.00  0.00     0.118 C 
BRANCH  29  30
ATOM     30  O   UNL     1      -4.018  -3.236  33.806  1.00  0.00    -0.393 OA
ATOM     31  H   UNL     1      -4.400  -2.457  34.289  1.00  0.00     0.210 HD
ENDBRANCH  29  30
ENDBRANCH   9  11
ENDBRANCH   1   9
TORSDOF 7
ENDMDL
MODEL 5
REMARK VINA RESULT:    -6.157      2.134      4.406
REMARK INTER + INTRA:          -9.730
REMARK INTER:                  -7.541
REMARK INTRA:                  -2.189
REMARK UNBOUND:                -1.234
REMARK SMILES CC[C@@H](CC[C@H](C)[C@H]1CC[C@H]2[C@@H]3CC=C4C[C@@H](O)CC[C@]4(C)[C@@H]3CC[C@@]12C)C(C)C
REMARK SMILES IDX 5 1 4 2 3 3 2 4 1 5 28 6 29 7 30 8 6 9 7 10 8 11 9 12 26 13
REMARK SMILES IDX 10 14 11 15 25 16 27 17 12 18 24 19 23 20 13 21 21 22 14 23
REMARK SMILES IDX 15 24 20 25 22 26 16 27 19 28 17 29 18 30
REMARK H PARENT 18 31
REMARK Flexibility Score: inf
ROOT
ATOM      1  C   UNL     1      -6.633  -5.813  34.644  1.00  0.00     0.004 C 
ENDROOT
BRANCH   1   2
ATOM      2  C   UNL     1      -5.883  -4.834  33.713  1.00  0.00     0.004 C 
BRANCH   2   3
ATOM      3  C   UNL     1      -4.833  -5.521  32.788  1.00  0.00    -0.009 C 
BRANCH   3   4
ATOM      4  C   UNL     1      -5.013  -7.067  32.845  1.00  0.00     0.000 C 
ATOM      5  C   UNL     1      -5.521  -7.682  31.540  1.00  0.00     0.004 C 
ENDBRANCH   3   4
BRANCH   3   6
ATOM      6  C   UNL     1      -3.337  -5.115  33.107  1.00  0.00    -0.014 C 
ATOM      7  C   UNL     1      -2.433  -6.244  33.643  1.00  0.00     0.007 C 
ATOM      8  C   UNL     1      -3.282  -3.943  34.106  1.00  0.00     0.007 C 
ENDBRANCH   3   6
ENDBRANCH   2   3
ENDBRANCH   1   2
BRANCH   1   9
ATOM      9  C   UNL     1      -6.192  -5.709  36.130  1.00  0.00    -0.011 C 
ATOM     10  C   UNL     1      -6.093  -4.224  36.546  1.00  0.00     0.008 C 
BRANCH   9  11
ATOM     11  C   UNL     1      -4.881  -6.556  36.369  1.00  0.00    -0.002 C 
ATOM     12  C   UNL     1      -3.727  -5.839  37.077  1.00  0.00     0.005 C 
ATOM     13  C   UNL     1      -5.022  -7.934  37.083  1.00  0.00    -0.026 C 
ATOM     14  C   UNL     1      -2.819  -6.941  37.622  1.00  0.00     0.005 C 
ATOM     15  C   UNL     1      -3.531  -8.286  37.372  1.00  0.00    -0.001 C 
ATOM     16  C   UNL     1      -5.831  -7.823  38.403  1.00  0.00     0.007 C 
ATOM     17  C   UNL     1      -5.693  -8.952  36.120  1.00  0.00     0.012 C 
ATOM     18  C   UNL     1      -3.253  -9.326  38.504  1.00  0.00     0.000 C 
ATOM     19  C   UNL     1      -5.615  -9.001  39.362  1.00  0.00     0.005 C 
ATOM     20  C   UNL     1      -4.127  -9.110  39.768  1.00  0.00     0.003 C 
ATOM     21  C   UNL     1      -3.365 -10.768  37.978  1.00  0.00     0.031 C 
ATOM     22  C   UNL     1      -3.787 -10.171  40.899  1.00  0.00    -0.008 C 
ATOM     23  C   UNL     1      -3.254 -11.806  39.053  1.00  0.00    -0.027 C 
ATOM     24  C   UNL     1      -3.583 -11.586  40.341  1.00  0.00    -0.065 C 
ATOM     25  C   UNL     1      -4.904 -10.224  41.992  1.00  0.00     0.014 C 
ATOM     26  C   UNL     1      -2.458  -9.729  41.578  1.00  0.00     0.016 C 
ATOM     27  C   UNL     1      -3.479 -12.745  41.317  1.00  0.00     0.063 C 
ATOM     28  C   UNL     1      -4.696 -11.328  43.042  1.00  0.00     0.033 C 
ATOM     29  C   UNL     1      -4.609 -12.702  42.361  1.00  0.00     0.118 C 
BRANCH  29  30
ATOM     30  O   UNL     1      -4.441 -13.718  43.317  1.00  0.00    -0.393 OA
ATOM     31  H   UNL     1      -5.276 -14.254  43.337  1.00  0.00     0.210 HD
ENDBRANCH  29  30
ENDBRANCH   9  11
ENDBRANCH   1   9
TORSDOF 7
ENDMDL
MODEL 6
REMARK VINA RESULT:    -5.922      3.305      6.222
REMARK INTER + INTRA:          -9.406
REMARK INTER:                  -7.463
REMARK INTRA:                  -1.944
REMARK UNBOUND:                -1.234
REMARK SMILES CC[C@@H](CC[C@H](C)[C@H]1CC[C@H]2[C@@H]3CC=C4C[C@@H](O)CC[C@]4(C)[C@@H]3CC[C@@]12C)C(C)C
REMARK SMILES IDX 5 1 4 2 3 3 2 4 1 5 28 6 29 7 30 8 6 9 7 10 8 11 9 12 26 13
REMARK SMILES IDX 10 14 11 15 25 16 27 17 12 18 24 19 23 20 13 21 21 22 14 23
REMARK SMILES IDX 15 24 20 25 22 26 16 27 19 28 17 29 18 30
REMARK H PARENT 18 31
REMARK Flexibility Score: inf
ROOT
ATOM      1  C   UNL     1      -5.853  -4.825  33.162  1.00  0.00     0.004 C 
ENDROOT
BRANCH   1   2
ATOM      2  C   UNL     1      -6.051  -6.191  32.466  1.00  0.00     0.004 C 
BRANCH   2   3
ATOM      3  C   UNL     1      -5.772  -6.164  30.933  1.00  0.00    -0.009 C 
BRANCH   3   4
ATOM      4  C   UNL     1      -7.066  -6.544  30.155  1.00  0.00     0.000 C 
ATOM      5  C   UNL     1      -7.330  -5.675  28.925  1.00  0.00     0.004 C 
ENDBRANCH   3   4
BRANCH   3   6
ATOM      6  C   UNL     1      -4.557  -7.076  30.488  1.00  0.00    -0.014 C 
ATOM      7  C   UNL     1      -4.272  -8.299  31.383  1.00  0.00     0.007 C 
ATOM      8  C   UNL     1      -3.259  -6.252  30.374  1.00  0.00     0.007 C 
ENDBRANCH   3   6
ENDBRANCH   2   3
ENDBRANCH   1   2
BRANCH   1   9
ATOM      9  C   UNL     1      -4.844  -4.877  34.342  1.00  0.00    -0.011 C 
ATOM     10  C   UNL     1      -3.946  -3.619  34.321  1.00  0.00     0.008 C 
BRANCH   9  11
ATOM     11  C   UNL     1      -4.066  -6.251  34.332  1.00  0.00    -0.002 C 
ATOM     12  C   UNL     1      -2.577  -6.187  33.975  1.00  0.00     0.005 C 
ATOM     13  C   UNL     1      -4.157  -7.151  35.600  1.00  0.00    -0.026 C 
ATOM     14  C   UNL     1      -1.963  -7.483  34.501  1.00  0.00     0.005 C 
ATOM     15  C   UNL     1      -3.059  -8.217  35.302  1.00  0.00    -0.001 C 
ATOM     16  C   UNL     1      -3.826  -6.363  36.896  1.00  0.00     0.007 C 
ATOM     17  C   UNL     1      -5.576  -7.776  35.693  1.00  0.00     0.012 C 
ATOM     18  C   UNL     1      -2.480  -9.001  36.522  1.00  0.00     0.000 C 
ATOM     19  C   UNL     1      -3.447  -7.256  38.085  1.00  0.00     0.005 C 
ATOM     20  C   UNL     1      -2.195  -8.103  37.755  1.00  0.00     0.003 C 
ATOM     21  C   UNL     1      -3.372 -10.201  36.890  1.00  0.00     0.031 C 
ATOM     22  C   UNL     1      -1.582  -8.939  38.956  1.00  0.00    -0.008 C 
ATOM     23  C   UNL     1      -2.943 -10.901  38.143  1.00  0.00    -0.027 C 
ATOM     24  C   UNL     1      -2.267 -10.299  39.142  1.00  0.00    -0.065 C 
ATOM     25  C   UNL     1      -1.664  -8.153  40.305  1.00  0.00     0.014 C 
ATOM     26  C   UNL     1      -0.082  -9.200  38.633  1.00  0.00     0.016 C 
ATOM     27  C   UNL     1      -1.948 -11.111  40.385  1.00  0.00     0.063 C 
ATOM     28  C   UNL     1      -1.207  -8.965  41.528  1.00  0.00     0.033 C 
ATOM     29  C   UNL     1      -2.039 -10.249  41.657  1.00  0.00     0.118 C 
BRANCH  29  30
ATOM     30  O   UNL     1      -1.642 -10.985  42.786  1.00  0.00    -0.393 OA
ATOM     31  H   UNL     1      -2.446 -11.130  43.350  1.00  0.00     0.210 HD
ENDBRANCH  29  30
ENDBRANCH   9  11
ENDBRANCH   1   9
TORSDOF 7
ENDMDL
MODEL 7
REMARK VINA RESULT:    -5.791      2.331      4.332
REMARK INTER + INTRA:          -9.226
REMARK INTER:                  -7.320
REMARK INTRA:                  -1.906
REMARK UNBOUND:                -1.234
REMARK SMILES CC[C@@H](CC[C@H](C)[C@H]1CC[C@H]2[C@@H]3CC=C4C[C@@H](O)CC[C@]4(C)[C@@H]3CC[C@@]12C)C(C)C
REMARK SMILES IDX 5 1 4 2 3 3 2 4 1 5 28 6 29 7 30 8 6 9 7 10 8 11 9 12 26 13
REMARK SMILES IDX 10 14 11 15 25 16 27 17 12 18 24 19 23 20 13 21 21 22 14 23
REMARK SMILES IDX 15 24 20 25 22 26 16 27 19 28 17 29 18 30
REMARK H PARENT 18 31
REMARK Flexibility Score: inf
ROOT
ATOM      1  C   UNL     1      -3.917  -9.401  41.495  1.00  0.00     0.004 C 
ENDROOT
BRANCH   1   2
ATOM      2  C   UNL     1      -2.699  -9.239  40.558  1.00  0.00     0.004 C 
BRANCH   2   3
ATOM      3  C   UNL     1      -2.906  -9.856  39.142  1.00  0.00    -0.009 C 
BRANCH   3   4
ATOM      4  C   UNL     1      -1.685 -10.750  38.774  1.00  0.00     0.000 C 
ATOM      5  C   UNL     1      -0.410 -10.409  39.546  1.00  0.00     0.004 C 
ENDBRANCH   3   4
BRANCH   3   6
ATOM      6  C   UNL     1      -3.182  -8.784  38.010  1.00  0.00    -0.014 C 
ATOM      7  C   UNL     1      -2.516  -7.407  38.212  1.00  0.00     0.007 C 
ATOM      8  C   UNL     1      -4.695  -8.560  37.817  1.00  0.00     0.007 C 
ENDBRANCH   3   6
ENDBRANCH   2   3
ENDBRANCH   1   2
BRANCH   1   9
ATOM      9  C   UNL     1      -4.763 -10.668  41.191  1.00  0.00    -0.011 C 
ATOM     10  C   UNL     1      -6.222 -10.264  40.884  1.00  0.00     0.008 C 
BRANCH   9  11
ATOM     11  C   UNL     1      -4.594 -11.725  42.351  1.00  0.00    -0.002 C 
ATOM     12  C   UNL     1      -5.887 -12.276  42.963  1.00  0.00     0.005 C 
ATOM     13  C   UNL     1      -3.694 -12.968  42.081  1.00  0.00    -0.026 C 
ATOM     14  C   UNL     1      -5.500 -13.579  43.662  1.00  0.00     0.005 C 
ATOM     15  C   UNL     1      -4.023 -13.862  43.315  1.00  0.00    -0.001 C 
ATOM     16  C   UNL     1      -4.076 -13.686  40.759  1.00  0.00     0.007 C 
ATOM     17  C   UNL     1      -2.203 -12.532  42.049  1.00  0.00     0.012 C 
ATOM     18  C   UNL     1      -3.726 -15.390  43.185  1.00  0.00     0.000 C 
ATOM     19  C   UNL     1      -3.568 -15.131  40.669  1.00  0.00     0.005 C 
ATOM     20  C   UNL     1      -4.151 -15.988  41.818  1.00  0.00     0.003 C 
ATOM     21  C   UNL     1      -2.253 -15.702  43.506  1.00  0.00     0.031 C 
ATOM     22  C   UNL     1      -3.856 -17.546  41.746  1.00  0.00    -0.008 C 
ATOM     23  C   UNL     1      -1.877 -17.130  43.254  1.00  0.00    -0.027 C 
ATOM     24  C   UNL     1      -2.500 -17.920  42.357  1.00  0.00    -0.065 C 
ATOM     25  C   UNL     1      -3.901 -18.072  40.274  1.00  0.00     0.014 C 
ATOM     26  C   UNL     1      -4.964 -18.275  42.560  1.00  0.00     0.016 C 
ATOM     27  C   UNL     1      -1.976 -19.332  42.158  1.00  0.00     0.063 C 
ATOM     28  C   UNL     1      -3.491 -19.546  40.127  1.00  0.00     0.033 C 
ATOM     29  C   UNL     1      -2.076 -19.765  40.685  1.00  0.00     0.118 C 
BRANCH  29  30
ATOM     30  O   UNL     1      -1.687 -21.107  40.533  1.00  0.00    -0.393 OA
ATOM     31  H   UNL     1      -0.808 -21.115  40.072  1.00  0.00     0.210 HD
ENDBRANCH  29  30
ENDBRANCH   9  11
ENDBRANCH   1   9
TORSDOF 7
ENDMDL
MODEL 8
REMARK VINA RESULT:    -5.790      3.001      5.413
REMARK INTER + INTRA:          -9.225
REMARK INTER:                  -7.152
REMARK INTRA:                  -2.073
REMARK UNBOUND:                -1.234
REMARK SMILES CC[C@@H](CC[C@H](C)[C@H]1CC[C@H]2[C@@H]3CC=C4C[C@@H](O)CC[C@]4(C)[C@@H]3CC[C@@]12C)C(C)C
REMARK SMILES IDX 5 1 4 2 3 3 2 4 1 5 28 6 29 7 30 8 6 9 7 10 8 11 9 12 26 13
REMARK SMILES IDX 10 14 11 15 25 16 27 17 12 18 24 19 23 20 13 21 21 22 14 23
REMARK SMILES IDX 15 24 20 25 22 26 16 27 19 28 17 29 18 30
REMARK H PARENT 18 31
REMARK Flexibility Score: inf
ROOT
ATOM      1  C   UNL     1      -7.215  -6.346  33.722  1.00  0.00     0.004 C 
ENDROOT
BRANCH   1   2
ATOM      2  C   UNL     1      -6.090  -5.596  32.972  1.00  0.00     0.004 C 
BRANCH   2   3
ATOM      3  C   UNL     1      -5.433  -6.426  31.828  1.00  0.00    -0.009 C 
BRANCH   3   4
ATOM      4  C   UNL     1      -5.989  -7.880  31.846  1.00  0.00     0.000 C 
ATOM      5  C   UNL     1      -4.980  -8.937  31.396  1.00  0.00     0.004 C 
ENDBRANCH   3   4
BRANCH   3   6
ATOM      6  C   UNL     1      -3.851  -6.425  31.865  1.00  0.00    -0.014 C 
ATOM      7  C   UNL     1      -3.203  -5.505  32.919  1.00  0.00     0.007 C 
ATOM      8  C   UNL     1      -3.264  -6.061  30.487  1.00  0.00     0.007 C 
ENDBRANCH   3   6
ENDBRANCH   2   3
ENDBRANCH   1   2
BRANCH   1   9
ATOM      9  C   UNL     1      -6.929  -6.525  35.239  1.00  0.00    -0.011 C 
ATOM     10  C   UNL     1      -7.811  -5.556  36.057  1.00  0.00     0.008 C 
BRANCH   9  11
ATOM     11  C   UNL     1      -5.379  -6.411  35.517  1.00  0.00    -0.002 C 
ATOM     12  C   UNL     1      -4.919  -5.185  36.313  1.00  0.00     0.005 C 
ATOM     13  C   UNL     1      -4.664  -7.631  36.172  1.00  0.00    -0.026 C 
ATOM     14  C   UNL     1      -3.538  -5.537  36.865  1.00  0.00     0.005 C 
ATOM     15  C   UNL     1      -3.275  -7.019  36.528  1.00  0.00    -0.001 C 
ATOM     16  C   UNL     1      -5.398  -8.118  37.449  1.00  0.00     0.007 C 
ATOM     17  C   UNL     1      -4.552  -8.785  35.137  1.00  0.00     0.012 C 
ATOM     18  C   UNL     1      -2.443  -7.742  37.635  1.00  0.00     0.000 C 
ATOM     19  C   UNL     1      -4.528  -8.978  38.375  1.00  0.00     0.005 C 
ATOM     20  C   UNL     1      -3.292  -8.182  38.857  1.00  0.00     0.003 C 
ATOM     21  C   UNL     1      -1.639  -8.918  37.052  1.00  0.00     0.031 C 
ATOM     22  C   UNL     1      -2.398  -8.884  39.965  1.00  0.00    -0.008 C 
ATOM     23  C   UNL     1      -0.939  -9.737  38.092  1.00  0.00    -0.027 C 
ATOM     24  C   UNL     1      -1.360  -9.843  39.368  1.00  0.00    -0.065 C 
ATOM     25  C   UNL     1      -3.272  -9.674  40.993  1.00  0.00     0.014 C 
ATOM     26  C   UNL     1      -1.631  -7.768  40.731  1.00  0.00     0.016 C 
ATOM     27  C   UNL     1      -0.590 -10.758  40.305  1.00  0.00     0.063 C 
ATOM     28  C   UNL     1      -2.455 -10.485  42.012  1.00  0.00     0.033 C 
ATOM     29  C   UNL     1      -1.532 -11.476  41.287  1.00  0.00     0.118 C 
BRANCH  29  30
ATOM     30  O   UNL     1      -0.798 -12.237  42.214  1.00  0.00    -0.393 OA
ATOM     31  H   UNL     1      -0.229 -12.869  41.702  1.00  0.00     0.210 HD
ENDBRANCH  29  30
ENDBRANCH   9  11
ENDBRANCH   1   9
TORSDOF 7
ENDMDL
MODEL 9
REMARK VINA RESULT:    -5.735      3.901      9.774
REMARK INTER + INTRA:          -9.149
REMARK INTER:                  -7.446
REMARK INTRA:                  -1.702
REMARK UNBOUND:                -1.234
REMARK SMILES CC[C@@H](CC[C@H](C)[C@H]1CC[C@H]2[C@@H]3CC=C4C[C@@H](O)CC[C@]4(C)[C@@H]3CC[C@@]12C)C(C)C
REMARK SMILES IDX 5 1 4 2 3 3 2 4 1 5 28 6 29 7 30 8 6 9 7 10 8 11 9 12 26 13
REMARK SMILES IDX 10 14 11 15 25 16 27 17 12 18 24 19 23 20 13 21 21 22 14 23
REMARK SMILES IDX 15 24 20 25 22 26 16 27 19 28 17 29 18 30
REMARK H PARENT 18 31
REMARK Flexibility Score: inf
ROOT
ATOM      1  C   UNL     1      -1.743 -11.121  39.984  1.00  0.00     0.004 C 
ENDROOT
BRANCH   1   2
ATOM      2  C   UNL     1      -2.383 -10.264  41.099  1.00  0.00     0.004 C 
BRANCH   2   3
ATOM      3  C   UNL     1      -3.878 -10.606  41.378  1.00  0.00    -0.009 C 
BRANCH   3   4
ATOM      4  C   UNL     1      -4.698  -9.291  41.534  1.00  0.00     0.000 C 
ATOM      5  C   UNL     1      -5.452  -8.875  40.271  1.00  0.00     0.004 C 
ENDBRANCH   3   4
BRANCH   3   6
ATOM      6  C   UNL     1      -4.096 -11.559  42.623  1.00  0.00    -0.014 C 
ATOM      7  C   UNL     1      -4.082 -13.071  42.323  1.00  0.00     0.007 C 
ATOM      8  C   UNL     1      -5.413 -11.227  43.351  1.00  0.00     0.007 C 
ENDBRANCH   3   6
ENDBRANCH   2   3
ENDBRANCH   1   2
BRANCH   1   9
ATOM      9  C   UNL     1      -1.334 -10.295  38.732  1.00  0.00    -0.011 C 
ATOM     10  C   UNL     1       0.125  -9.807  38.879  1.00  0.00     0.008 C 
BRANCH   9  11
ATOM     11  C   UNL     1      -2.394  -9.156  38.464  1.00  0.00    -0.002 C 
ATOM     12  C   UNL     1      -1.948  -7.724  38.779  1.00  0.00     0.005 C 
ATOM     13  C   UNL     1      -3.053  -9.090  37.054  1.00  0.00    -0.026 C 
ATOM     14  C   UNL     1      -2.894  -6.808  38.003  1.00  0.00     0.005 C 
ATOM     15  C   UNL     1      -3.776  -7.710  37.114  1.00  0.00    -0.001 C 
ATOM     16  C   UNL     1      -1.997  -9.112  35.917  1.00  0.00     0.007 C 
ATOM     17  C   UNL     1      -4.049 -10.271  36.890  1.00  0.00     0.012 C 
ATOM     18  C   UNL     1      -4.134  -7.034  35.752  1.00  0.00     0.000 C 
ATOM     19  C   UNL     1      -2.522  -8.593  34.572  1.00  0.00     0.005 C 
ATOM     20  C   UNL     1      -2.998  -7.127  34.700  1.00  0.00     0.003 C 
ATOM     21  C   UNL     1      -5.466  -7.570  35.196  1.00  0.00     0.031 C 
ATOM     22  C   UNL     1      -3.398  -6.402  33.346  1.00  0.00    -0.008 C 
ATOM     23  C   UNL     1      -5.785  -7.065  33.822  1.00  0.00    -0.027 C 
ATOM     24  C   UNL     1      -4.849  -6.678  32.933  1.00  0.00    -0.065 C 
ATOM     25  C   UNL     1      -2.457  -6.821  32.169  1.00  0.00     0.014 C 
ATOM     26  C   UNL     1      -3.249  -4.869  33.568  1.00  0.00     0.016 C 
ATOM     27  C   UNL     1      -5.308  -6.245  31.550  1.00  0.00     0.063 C 
ATOM     28  C   UNL     1      -2.878  -6.255  30.803  1.00  0.00     0.033 C 
ATOM     29  C   UNL     1      -4.312  -6.689  30.465  1.00  0.00     0.118 C 
BRANCH  29  30
ATOM     30  O   UNL     1      -4.695  -6.193  29.206  1.00  0.00    -0.393 OA
ATOM     31  H   UNL     1      -5.602  -6.543  29.008  1.00  0.00     0.210 HD
ENDBRANCH  29  30
ENDBRANCH   9  11
ENDBRANCH   1   9
TORSDOF 7
ENDMDL
