MODEL 1
REMARK VINA RESULT:     2.342      0.000      0.000
REMARK INTER + INTRA:           2.342
REMARK INTER:                   2.342
REMARK INTRA:                   0.000
REMARK UNBOUND:                 0.000
REMARK SMILES CC1(C)O[C@]2(C)CC[C@H]1CC2
REMARK SMILES IDX 1 1 2 2 9 3 10 4 11 5 5 6 4 7 7 8 8 9 6 10 3 11
REMARK H PARENT
REMARK Flexibility Score: inf
ROOT
ATOM      1  C   UNL     1      18.333   9.997  13.198  1.00  0.00     0.042 C 
ATOM      2  C   UNL     1      19.230   9.421  12.081  1.00  0.00     0.066 C 
ATOM      3  C   UNL     1      20.679   9.122  12.628  1.00  0.00     0.021 C 
ATOM      4  C   UNL     1      20.575   8.034  13.723  1.00  0.00     0.009 C 
ATOM      5  C   UNL     1      19.776   6.829  13.168  1.00  0.00     0.035 C 
ATOM      6  C   UNL     1      19.424   7.074  11.673  1.00  0.00     0.066 C 
ATOM      7  O   UNL     1      18.600   8.237  11.568  1.00  0.00    -0.369 OA
ATOM      8  C   UNL     1      20.740   7.309  10.875  1.00  0.00     0.035 C 
ATOM      9  C   UNL     1      21.516   8.501  11.484  1.00  0.00     0.009 C 
ATOM     10  C   UNL     1      18.661   5.875  11.102  1.00  0.00     0.042 C 
ATOM     11  C   UNL     1      19.279  10.466  10.946  1.00  0.00     0.042 C 
ENDROOT
TORSDOF 0
ENDMDL
MODEL 2
REMARK VINA RESULT:     2.370      0.956      1.788
REMARK INTER + INTRA:           2.370
REMARK INTER:                   2.370
REMARK INTRA:                   0.000
REMARK UNBOUND:                 0.000
REMARK SMILES CC1(C)O[C@]2(C)CC[C@H]1CC2
REMARK SMILES IDX 1 1 2 2 9 3 10 4 11 5 5 6 4 7 7 8 8 9 6 10 3 11
REMARK H PARENT
REMARK Flexibility Score: inf
ROOT
ATOM      1  C   UNL     1      19.483  10.401  10.875  1.00  0.00     0.042 C 
ATOM      2  C   UNL     1      20.237   9.171  11.425  1.00  0.00     0.066 C 
ATOM      3  C   UNL     1      20.212   9.161  13.002  1.00  0.00     0.021 C 
ATOM      4  C   UNL     1      18.742   9.029  13.469  1.00  0.00     0.009 C 
ATOM      5  C   UNL     1      18.088   7.823  12.751  1.00  0.00     0.035 C 
ATOM      6  C   UNL     1      19.146   7.093  11.875  1.00  0.00     0.066 C 
ATOM      7  O   UNL     1      19.629   7.993  10.875  1.00  0.00    -0.369 OA
ATOM      8  C   UNL     1      20.334   6.651  12.779  1.00  0.00     0.035 C 
ATOM      9  C   UNL     1      20.934   7.884  13.495  1.00  0.00     0.009 C 
ATOM     10  C   UNL     1      18.520   5.878  11.185  1.00  0.00     0.042 C 
ATOM     11  C   UNL     1      21.688   9.250  10.902  1.00  0.00     0.042 C 
ENDROOT
TORSDOF 0
ENDMDL
MODEL 3
REMARK VINA RESULT:     2.455      0.917      3.300
REMARK INTER + INTRA:           2.455
REMARK INTER:                   2.455
REMARK INTRA:                   0.000
REMARK UNBOUND:                 0.000
REMARK SMILES CC1(C)O[C@]2(C)CC[C@H]1CC2
REMARK SMILES IDX 1 1 2 2 9 3 10 4 11 5 5 6 4 7 7 8 8 9 6 10 3 11
REMARK H PARENT
REMARK Flexibility Score: inf
ROOT
ATOM      1  C   UNL     1      18.876   6.008  10.876  1.00  0.00     0.042 C 
ATOM      2  C   UNL     1      19.241   6.838  12.126  1.00  0.00     0.066 C 
ATOM      3  C   UNL     1      20.770   7.225  12.113  1.00  0.00     0.021 C 
ATOM      4  C   UNL     1      21.036   8.127  10.884  1.00  0.00     0.009 C 
ATOM      5  C   UNL     1      20.020   9.295  10.882  1.00  0.00     0.035 C 
ATOM      6  C   UNL     1      19.133   9.224  12.158  1.00  0.00     0.066 C 
ATOM      7  O   UNL     1      18.398   8.000  12.152  1.00  0.00    -0.369 OA
ATOM      8  C   UNL     1      20.050   9.262  13.415  1.00  0.00     0.035 C 
ATOM      9  C   UNL     1      21.066   8.096  13.357  1.00  0.00     0.009 C 
ATOM     10  C   UNL     1      18.144  10.394  12.185  1.00  0.00     0.042 C 
ATOM     11  C   UNL     1      18.906   5.976  13.363  1.00  0.00     0.042 C 
ENDROOT
TORSDOF 0
ENDMDL
MODEL 4
REMARK VINA RESULT:     4.606      1.535      3.339
REMARK INTER + INTRA:           4.606
REMARK INTER:                   4.606
REMARK INTRA:                   0.000
REMARK UNBOUND:                 0.000
REMARK SMILES CC1(C)O[C@]2(C)CC[C@H]1CC2
REMARK SMILES IDX 1 1 2 2 9 3 10 4 11 5 5 6 4 7 7 8 8 9 6 10 3 11
REMARK H PARENT
REMARK Flexibility Score: inf
ROOT
ATOM      1  C   UNL     1      20.767   6.637  11.962  1.00  0.00     0.042 C 
ATOM      2  C   UNL     1      20.606   8.168  11.836  1.00  0.00     0.066 C 
ATOM      3  C   UNL     1      19.358   8.525  10.939  1.00  0.00     0.021 C 
ATOM      4  C   UNL     1      18.083   7.998  11.640  1.00  0.00     0.009 C 
ATOM      5  C   UNL     1      18.061   8.506  13.103  1.00  0.00     0.035 C 
ATOM      6  C   UNL     1      19.274   9.447  13.352  1.00  0.00     0.066 C 
ATOM      7  O   UNL     1      20.485   8.714  13.158  1.00  0.00    -0.369 OA
ATOM      8  C   UNL     1      19.220  10.623  12.334  1.00  0.00     0.035 C 
ATOM      9  C   UNL     1      19.215  10.065  10.890  1.00  0.00     0.009 C 
ATOM     10  C   UNL     1      19.246   9.983  14.787  1.00  0.00     0.042 C 
ATOM     11  C   UNL     1      21.905   8.716  11.208  1.00  0.00     0.042 C 
ENDROOT
TORSDOF 0
ENDMDL
