MODEL 1
REMARK VINA RESULT:     0.871      0.000      0.000
REMARK INTER + INTRA:           1.478
REMARK INTER:                   1.049
REMARK INTRA:                   0.429
REMARK UNBOUND:                 0.429
REMARK SMILES O=c1c(O)c(-c2ccc(O)c(O)c2)oc2cc(O)cc(O)c12
REMARK SMILES IDX 5 1 3 2 2 3 1 4 22 5 20 6 19 7 17 8 16 9 15 10 14 11 6 12
REMARK SMILES IDX 7 13 8 14 9 15 13 16 11 17 10 18 12 20 4 22 21 24 18 26
REMARK H PARENT 10 19 12 21 4 23 21 25 18 27
REMARK Flexibility Score: inf
ROOT
ATOM      1  C   UNL     1       9.604  68.200  -0.584  1.00  0.00     0.180 A 
ATOM      2  C   UNL     1       9.741  68.735  -1.877  1.00  0.00     0.208 A 
ATOM      3  C   UNL     1       9.948  70.116  -2.024  1.00  0.00     0.238 A 
ATOM      4  O   UNL     1      10.123  70.582  -3.179  1.00  0.00    -0.285 OA
ATOM      5  C   UNL     1       9.998  70.947  -0.878  1.00  0.00     0.111 A 
ATOM      6  C   UNL     1      10.161  72.364  -0.911  1.00  0.00     0.134 A 
ATOM      7  C   UNL     1      10.328  73.068   0.288  1.00  0.00     0.093 A 
ATOM      8  C   UNL     1      10.271  72.414   1.522  1.00  0.00     0.123 A 
ATOM      9  C   UNL     1      10.051  71.039   1.566  1.00  0.00     0.094 A 
ATOM     10  C   UNL     1       9.918  70.304   0.386  1.00  0.00     0.146 A 
ATOM     11  O   UNL     1       9.721  68.994   0.473  1.00  0.00    -0.452 OA
ENDROOT
BRANCH   1  12
ATOM     12  C   UNL     1       9.359  66.758  -0.351  1.00  0.00     0.025 A 
ATOM     13  C   UNL     1       9.722  65.828  -1.338  1.00  0.00     0.016 A 
ATOM     14  C   UNL     1       9.520  64.461  -1.132  1.00  0.00     0.051 A 
ATOM     15  C   UNL     1       8.966  64.003   0.069  1.00  0.00     0.157 A 
ATOM     16  C   UNL     1       8.822  66.292   0.862  1.00  0.00     0.062 A 
ATOM     17  C   UNL     1       8.620  64.919   1.070  1.00  0.00     0.158 A 
BRANCH  15  18
ATOM     18  O   UNL     1       8.761  62.641   0.278  1.00  0.00    -0.504 OA
ATOM     19  H   UNL     1       8.561  62.010  -0.490  1.00  0.00     0.293 HD
ENDBRANCH  15  18
BRANCH  17  20
ATOM     20  O   UNL     1       8.082  64.460   2.271  1.00  0.00    -0.504 OA
ATOM     21  H   UNL     1       8.637  64.412   3.117  1.00  0.00     0.293 HD
ENDBRANCH  17  20
ENDBRANCH   1  12
BRANCH   2  22
ATOM     22  O   UNL     1       9.710  67.894  -2.993  1.00  0.00    -0.502 OA
ATOM     23  H   UNL     1      10.073  66.949  -2.971  1.00  0.00     0.293 HD
ENDBRANCH   2  22
BRANCH   6  24
ATOM     24  O   UNL     1      10.140  73.125  -2.083  1.00  0.00    -0.507 OA
ATOM     25  H   UNL     1      10.585  74.024  -2.193  1.00  0.00     0.293 HD
ENDBRANCH   6  24
BRANCH   8  26
ATOM     26  O   UNL     1      10.422  73.124   2.710  1.00  0.00    -0.508 OA
ATOM     27  H   UNL     1      10.126  74.089   2.792  1.00  0.00     0.293 HD
ENDBRANCH   8  26
TORSDOF 6
ENDMDL
MODEL 2
REMARK VINA RESULT:     0.973      1.320      2.933
REMARK INTER + INTRA:           1.601
REMARK INTER:                   1.127
REMARK INTRA:                   0.475
REMARK UNBOUND:                 0.429
REMARK SMILES O=c1c(O)c(-c2ccc(O)c(O)c2)oc2cc(O)cc(O)c12
REMARK SMILES IDX 5 1 3 2 2 3 1 4 22 5 20 6 19 7 17 8 16 9 15 10 14 11 6 12
REMARK SMILES IDX 7 13 8 14 9 15 13 16 11 17 10 18 12 20 4 22 21 24 18 26
REMARK H PARENT 10 19 12 21 4 23 21 25 18 27
REMARK Flexibility Score: inf
ROOT
ATOM      1  C   UNL     1       9.775  68.095  -0.309  1.00  0.00     0.180 A 
ATOM      2  C   UNL     1       9.539  69.025   0.719  1.00  0.00     0.208 A 
ATOM      3  C   UNL     1       9.898  70.367   0.517  1.00  0.00     0.238 A 
ATOM      4  O   UNL     1       9.636  71.205   1.419  1.00  0.00    -0.285 OA
ATOM      5  C   UNL     1      10.503  70.760  -0.701  1.00  0.00     0.111 A 
ATOM      6  C   UNL     1      10.944  72.085  -0.997  1.00  0.00     0.134 A 
ATOM      7  C   UNL     1      11.408  72.387  -2.284  1.00  0.00     0.093 A 
ATOM      8  C   UNL     1      11.510  71.396  -3.264  1.00  0.00     0.123 A 
ATOM      9  C   UNL     1      11.138  70.087  -2.966  1.00  0.00     0.094 A 
ATOM     10  C   UNL     1      10.636  69.763  -1.703  1.00  0.00     0.146 A 
ATOM     11  O   UNL     1      10.282  68.505  -1.465  1.00  0.00    -0.452 OA
ENDROOT
BRANCH   1  12
ATOM     12  C   UNL     1       9.447  66.658  -0.161  1.00  0.00     0.025 A 
ATOM     13  C   UNL     1       9.742  65.771  -1.208  1.00  0.00     0.016 A 
ATOM     14  C   UNL     1       9.461  64.408  -1.082  1.00  0.00     0.051 A 
ATOM     15  C   UNL     1       8.895  63.911   0.099  1.00  0.00     0.157 A 
ATOM     16  C   UNL     1       8.898  66.151   1.031  1.00  0.00     0.062 A 
ATOM     17  C   UNL     1       8.617  64.783   1.159  1.00  0.00     0.158 A 
BRANCH  15  18
ATOM     18  O   UNL     1       8.611  62.553   0.228  1.00  0.00    -0.504 OA
ATOM     19  H   UNL     1       9.119  61.964   0.877  1.00  0.00     0.293 HD
ENDBRANCH  15  18
BRANCH  17  20
ATOM     20  O   UNL     1       8.067  64.283   2.338  1.00  0.00    -0.504 OA
ATOM     21  H   UNL     1       8.644  64.063   3.141  1.00  0.00     0.293 HD
ENDBRANCH  17  20
ENDBRANCH   1  12
BRANCH   2  22
ATOM     22  O   UNL     1       8.921  68.621   1.905  1.00  0.00    -0.502 OA
ATOM     23  H   UNL     1       7.981  68.906   2.153  1.00  0.00     0.293 HD
ENDBRANCH   2  22
BRANCH   6  24
ATOM     24  O   UNL     1      10.972  73.125  -0.064  1.00  0.00    -0.507 OA
ATOM     25  H   UNL     1      10.315  73.890  -0.036  1.00  0.00     0.293 HD
ENDBRANCH   6  24
BRANCH   8  26
ATOM     26  O   UNL     1      11.987  71.702  -4.536  1.00  0.00    -0.508 OA
ATOM     27  H   UNL     1      12.892  71.376  -4.856  1.00  0.00     0.293 HD
ENDBRANCH   8  26
TORSDOF 6
ENDMDL
MODEL 3
REMARK VINA RESULT:     1.055      1.920      6.868
REMARK INTER + INTRA:           1.701
REMARK INTER:                   1.160
REMARK INTRA:                   0.541
REMARK UNBOUND:                 0.429
REMARK SMILES O=c1c(O)c(-c2ccc(O)c(O)c2)oc2cc(O)cc(O)c12
REMARK SMILES IDX 5 1 3 2 2 3 1 4 22 5 20 6 19 7 17 8 16 9 15 10 14 11 6 12
REMARK SMILES IDX 7 13 8 14 9 15 13 16 11 17 10 18 12 20 4 22 21 24 18 26
REMARK H PARENT 10 19 12 21 4 23 21 25 18 27
REMARK Flexibility Score: inf
ROOT
ATOM      1  C   UNL     1      10.292  69.797   0.076  1.00  0.00     0.180 A 
ATOM      2  C   UNL     1      10.210  70.273   1.397  1.00  0.00     0.208 A 
ATOM      3  C   UNL     1       9.746  69.412   2.403  1.00  0.00     0.238 A 
ATOM      4  O   UNL     1       9.725  69.825   3.591  1.00  0.00    -0.285 OA
ATOM      5  C   UNL     1       9.353  68.091   2.075  1.00  0.00     0.111 A 
ATOM      6  C   UNL     1       8.829  67.146   3.007  1.00  0.00     0.134 A 
ATOM      7  C   UNL     1       8.597  65.827   2.596  1.00  0.00     0.093 A 
ATOM      8  C   UNL     1       8.808  65.438   1.271  1.00  0.00     0.123 A 
ATOM      9  C   UNL     1       9.262  66.369   0.340  1.00  0.00     0.094 A 
ATOM     10  C   UNL     1       9.537  67.682   0.727  1.00  0.00     0.146 A 
ATOM     11  O   UNL     1       9.980  68.535  -0.189  1.00  0.00    -0.452 OA
ENDROOT
BRANCH   1  12
ATOM     12  C   UNL     1      10.748  70.655  -1.042  1.00  0.00     0.025 A 
ATOM     13  C   UNL     1      11.051  72.004  -0.799  1.00  0.00     0.016 A 
ATOM     14  C   UNL     1      11.503  72.826  -1.834  1.00  0.00     0.051 A 
ATOM     15  C   UNL     1      11.674  72.308  -3.123  1.00  0.00     0.157 A 
ATOM     16  C   UNL     1      10.941  70.134  -2.334  1.00  0.00     0.062 A 
ATOM     17  C   UNL     1      11.396  70.958  -3.374  1.00  0.00     0.158 A 
BRANCH  15  18
ATOM     18  O   UNL     1      12.122  73.125  -4.159  1.00  0.00    -0.504 OA
ATOM     19  H   UNL     1      13.097  73.390  -4.241  1.00  0.00     0.293 HD
ENDBRANCH  15  18
BRANCH  17  20
ATOM     20  O   UNL     1      11.581  70.441  -4.655  1.00  0.00    -0.504 OA
ATOM     21  H   UNL     1      12.470  70.516  -5.134  1.00  0.00     0.293 HD
ENDBRANCH  17  20
ENDBRANCH   1  12
BRANCH   2  22
ATOM     22  O   UNL     1      10.624  71.573   1.703  1.00  0.00    -0.502 OA
ATOM     23  H   UNL     1       9.976  72.350   1.760  1.00  0.00     0.293 HD
ENDBRANCH   2  22
BRANCH   6  24
ATOM     24  O   UNL     1       8.497  67.455   4.329  1.00  0.00    -0.507 OA
ATOM     25  H   UNL     1       8.293  68.383   4.668  1.00  0.00     0.293 HD
ENDBRANCH   6  24
BRANCH   8  26
ATOM     26  O   UNL     1       8.559  64.127   0.868  1.00  0.00    -0.508 OA
ATOM     27  H   UNL     1       7.659  63.848   0.498  1.00  0.00     0.293 HD
ENDBRANCH   8  26
TORSDOF 6
ENDMDL
MODEL 4
REMARK VINA RESULT:     1.127      2.499      6.381
REMARK INTER + INTRA:           1.787
REMARK INTER:                   2.009
REMARK INTRA:                  -0.223
REMARK UNBOUND:                 0.429
REMARK SMILES O=c1c(O)c(-c2ccc(O)c(O)c2)oc2cc(O)cc(O)c12
REMARK SMILES IDX 5 1 3 2 2 3 1 4 22 5 20 6 19 7 17 8 16 9 15 10 14 11 6 12
REMARK SMILES IDX 7 13 8 14 9 15 13 16 11 17 10 18 12 20 4 22 21 24 18 26
REMARK H PARENT 10 19 12 21 4 23 21 25 18 27
REMARK Flexibility Score: inf
ROOT
ATOM      1  C   UNL     1      10.069  69.452  -0.648  1.00  0.00     0.180 A 
ATOM      2  C   UNL     1       8.786  68.904  -0.823  1.00  0.00     0.208 A 
ATOM      3  C   UNL     1       8.301  67.991   0.128  1.00  0.00     0.238 A 
ATOM      4  O   UNL     1       7.132  67.545  -0.005  1.00  0.00    -0.285 OA
ATOM      5  C   UNL     1       9.109  67.626   1.232  1.00  0.00     0.111 A 
ATOM      6  C   UNL     1       8.735  66.680   2.233  1.00  0.00     0.134 A 
ATOM      7  C   UNL     1       9.560  66.495   3.350  1.00  0.00     0.093 A 
ATOM      8  C   UNL     1      10.776  67.172   3.467  1.00  0.00     0.123 A 
ATOM      9  C   UNL     1      11.178  68.052   2.465  1.00  0.00     0.094 A 
ATOM     10  C   UNL     1      10.361  68.286   1.358  1.00  0.00     0.146 A 
ATOM     11  O   UNL     1      10.776  69.141   0.431  1.00  0.00    -0.452 OA
ENDROOT
BRANCH   1  12
ATOM     12  C   UNL     1      10.658  70.401  -1.621  1.00  0.00     0.025 A 
ATOM     13  C   UNL     1      10.924  71.721  -1.224  1.00  0.00     0.016 A 
ATOM     14  C   UNL     1      11.499  72.627  -2.119  1.00  0.00     0.051 A 
ATOM     15  C   UNL     1      11.831  72.222  -3.417  1.00  0.00     0.157 A 
ATOM     16  C   UNL     1      11.012  69.993  -2.919  1.00  0.00     0.062 A 
ATOM     17  C   UNL     1      11.591  70.902  -3.818  1.00  0.00     0.158 A 
BRANCH  15  18
ATOM     18  O   UNL     1      12.403  73.124  -4.313  1.00  0.00    -0.504 OA
ATOM     19  H   UNL     1      12.726  74.036  -4.014  1.00  0.00     0.293 HD
ENDBRANCH  15  18
BRANCH  17  20
ATOM     20  O   UNL     1      11.936  70.498  -5.106  1.00  0.00    -0.504 OA
ATOM     21  H   UNL     1      12.670  69.820  -5.271  1.00  0.00     0.293 HD
ENDBRANCH  17  20
ENDBRANCH   1  12
BRANCH   2  22
ATOM     22  O   UNL     1       7.996  69.294  -1.907  1.00  0.00    -0.502 OA
ATOM     23  H   UNL     1       7.028  69.574  -1.802  1.00  0.00     0.293 HD
ENDBRANCH   2  22
BRANCH   6  24
ATOM     24  O   UNL     1       7.588  65.886   2.166  1.00  0.00    -0.507 OA
ATOM     25  H   UNL     1       6.643  66.234   2.226  1.00  0.00     0.293 HD
ENDBRANCH   6  24
BRANCH   8  26
ATOM     26  O   UNL     1      11.598  66.969   4.575  1.00  0.00    -0.508 OA
ATOM     27  H   UNL     1      12.075  67.739   5.029  1.00  0.00     0.293 HD
ENDBRANCH   8  26
TORSDOF 6
ENDMDL
MODEL 5
REMARK VINA RESULT:     1.148      1.355      3.315
REMARK INTER + INTRA:           1.813
REMARK INTER:                   1.300
REMARK INTRA:                   0.512
REMARK UNBOUND:                 0.429
REMARK SMILES O=c1c(O)c(-c2ccc(O)c(O)c2)oc2cc(O)cc(O)c12
REMARK SMILES IDX 5 1 3 2 2 3 1 4 22 5 20 6 19 7 17 8 16 9 15 10 14 11 6 12
REMARK SMILES IDX 7 13 8 14 9 15 13 16 11 17 10 18 12 20 4 22 21 24 18 26
REMARK H PARENT 10 19 12 21 4 23 21 25 18 27
REMARK Flexibility Score: inf
ROOT
ATOM      1  C   UNL     1       9.578  68.251   0.942  1.00  0.00     0.180 A 
ATOM      2  C   UNL     1       9.432  68.827   2.217  1.00  0.00     0.208 A 
ATOM      3  C   UNL     1       9.647  70.206   2.370  1.00  0.00     0.238 A 
ATOM      4  O   UNL     1       9.462  70.724   3.502  1.00  0.00    -0.285 OA
ATOM      5  C   UNL     1      10.022  70.989   1.252  1.00  0.00     0.111 A 
ATOM      6  C   UNL     1      10.305  72.387   1.300  1.00  0.00     0.134 A 
ATOM      7  C   UNL     1      10.538  73.085   0.108  1.00  0.00     0.093 A 
ATOM      8  C   UNL     1      10.564  72.423  -1.122  1.00  0.00     0.123 A 
ATOM      9  C   UNL     1      10.348  71.048  -1.172  1.00  0.00     0.094 A 
ATOM     10  C   UNL     1      10.076  70.330  -0.005  1.00  0.00     0.146 A 
ATOM     11  O   UNL     1       9.865  69.023  -0.099  1.00  0.00    -0.452 OA
ENDROOT
BRANCH   1  12
ATOM     12  C   UNL     1       9.392  66.801   0.708  1.00  0.00     0.025 A 
ATOM     13  C   UNL     1       8.787  66.013   1.700  1.00  0.00     0.016 A 
ATOM     14  C   UNL     1       8.582  64.647   1.492  1.00  0.00     0.051 A 
ATOM     15  C   UNL     1       8.965  64.052   0.284  1.00  0.00     0.157 A 
ATOM     16  C   UNL     1       9.757  66.203  -0.511  1.00  0.00     0.062 A 
ATOM     17  C   UNL     1       9.550  64.831  -0.721  1.00  0.00     0.158 A 
BRANCH  15  18
ATOM     18  O   UNL     1       8.765  62.689   0.074  1.00  0.00    -0.504 OA
ATOM     19  H   UNL     1       9.349  61.991   0.521  1.00  0.00     0.293 HD
ENDBRANCH  15  18
BRANCH  17  20
ATOM     20  O   UNL     1       9.918  64.239  -1.928  1.00  0.00    -0.504 OA
ATOM     21  H   UNL     1      10.198  63.267  -1.978  1.00  0.00     0.293 HD
ENDBRANCH  17  20
ENDBRANCH   1  12
BRANCH   2  22
ATOM     22  O   UNL     1       9.040  68.039   3.303  1.00  0.00    -0.502 OA
ATOM     23  H   UNL     1       8.376  67.279   3.212  1.00  0.00     0.293 HD
ENDBRANCH   2  22
BRANCH   6  24
ATOM     24  O   UNL     1      10.394  73.125   2.483  1.00  0.00    -0.507 OA
ATOM     25  H   UNL     1      11.138  73.771   2.703  1.00  0.00     0.293 HD
ENDBRANCH   6  24
BRANCH   8  26
ATOM     26  O   UNL     1      10.812  73.123  -2.301  1.00  0.00    -0.508 OA
ATOM     27  H   UNL     1      11.748  73.411  -2.559  1.00  0.00     0.293 HD
ENDBRANCH   8  26
TORSDOF 6
ENDMDL
MODEL 6
REMARK VINA RESULT:     1.262      1.210      2.922
REMARK INTER + INTRA:           1.950
REMARK INTER:                   1.484
REMARK INTRA:                   0.466
REMARK UNBOUND:                 0.429
REMARK SMILES O=c1c(O)c(-c2ccc(O)c(O)c2)oc2cc(O)cc(O)c12
REMARK SMILES IDX 5 1 3 2 2 3 1 4 22 5 20 6 19 7 17 8 16 9 15 10 14 11 6 12
REMARK SMILES IDX 7 13 8 14 9 15 13 16 11 17 10 18 12 20 4 22 21 24 18 26
REMARK H PARENT 10 19 12 21 4 23 21 25 18 27
REMARK Flexibility Score: inf
ROOT
ATOM      1  C   UNL     1       9.601  68.296   0.667  1.00  0.00     0.180 A 
ATOM      2  C   UNL     1       9.458  68.876   1.940  1.00  0.00     0.208 A 
ATOM      3  C   UNL     1       9.735  70.243   2.100  1.00  0.00     0.238 A 
ATOM      4  O   UNL     1       9.554  70.768   3.229  1.00  0.00    -0.285 OA
ATOM      5  C   UNL     1      10.167  71.010   0.990  1.00  0.00     0.111 A 
ATOM      6  C   UNL     1      10.515  72.393   1.047  1.00  0.00     0.134 A 
ATOM      7  C   UNL     1      10.802  73.081  -0.138  1.00  0.00     0.093 A 
ATOM      8  C   UNL     1      10.820  72.420  -1.370  1.00  0.00     0.123 A 
ATOM      9  C   UNL     1      10.540  71.057  -1.426  1.00  0.00     0.094 A 
ATOM     10  C   UNL     1      10.214  70.351  -0.267  1.00  0.00     0.146 A 
ATOM     11  O   UNL     1       9.943  69.055  -0.367  1.00  0.00    -0.452 OA
ENDROOT
BRANCH   1  12
ATOM     12  C   UNL     1       9.351  66.857   0.425  1.00  0.00     0.025 A 
ATOM     13  C   UNL     1       9.731  66.286  -0.800  1.00  0.00     0.016 A 
ATOM     14  C   UNL     1       9.524  64.925  -1.042  1.00  0.00     0.051 A 
ATOM     15  C   UNL     1       8.950  64.113  -0.056  1.00  0.00     0.157 A 
ATOM     16  C   UNL     1       8.794  66.033   1.419  1.00  0.00     0.062 A 
ATOM     17  C   UNL     1       8.587  64.666   1.178  1.00  0.00     0.158 A 
BRANCH  15  18
ATOM     18  O   UNL     1       8.740  62.756  -0.294  1.00  0.00    -0.504 OA
ATOM     19  H   UNL     1       9.497  62.084  -0.237  1.00  0.00     0.293 HD
ENDBRANCH  15  18
BRANCH  17  20
ATOM     20  O   UNL     1       8.029  63.852   2.162  1.00  0.00    -0.504 OA
ATOM     21  H   UNL     1       7.125  63.412   2.036  1.00  0.00     0.293 HD
ENDBRANCH  17  20
ENDBRANCH   1  12
BRANCH   2  22
ATOM     22  O   UNL     1       9.009  68.107   3.017  1.00  0.00    -0.502 OA
ATOM     23  H   UNL     1       8.026  68.003   3.238  1.00  0.00     0.293 HD
ENDBRANCH   2  22
BRANCH   6  24
ATOM     24  O   UNL     1      10.617  73.124   2.233  1.00  0.00    -0.507 OA
ATOM     25  H   UNL     1      11.382  73.740   2.465  1.00  0.00     0.293 HD
ENDBRANCH   6  24
BRANCH   8  26
ATOM     26  O   UNL     1      11.122  73.110  -2.542  1.00  0.00    -0.508 OA
ATOM     27  H   UNL     1      11.447  74.069  -2.524  1.00  0.00     0.293 HD
ENDBRANCH   8  26
TORSDOF 6
ENDMDL
MODEL 7
REMARK VINA RESULT:     1.341      2.725      5.866
REMARK INTER + INTRA:           2.044
REMARK INTER:                   1.836
REMARK INTRA:                   0.208
REMARK UNBOUND:                 0.429
REMARK SMILES O=c1c(O)c(-c2ccc(O)c(O)c2)oc2cc(O)cc(O)c12
REMARK SMILES IDX 5 1 3 2 2 3 1 4 22 5 20 6 19 7 17 8 16 9 15 10 14 11 6 12
REMARK SMILES IDX 7 13 8 14 9 15 13 16 11 17 10 18 12 20 4 22 21 24 18 26
REMARK H PARENT 10 19 12 21 4 23 21 25 18 27
REMARK Flexibility Score: inf
ROOT
ATOM      1  C   UNL     1      10.277  70.068  -0.546  1.00  0.00     0.180 A 
ATOM      2  C   UNL     1      10.164  68.716  -0.177  1.00  0.00     0.208 A 
ATOM      3  C   UNL     1       9.712  68.398   1.113  1.00  0.00     0.238 A 
ATOM      4  O   UNL     1       9.562  67.187   1.420  1.00  0.00    -0.285 OA
ATOM      5  C   UNL     1       9.394  69.435   2.024  1.00  0.00     0.111 A 
ATOM      6  C   UNL     1       8.967  69.228   3.371  1.00  0.00     0.134 A 
ATOM      7  C   UNL     1       8.554  70.324   4.139  1.00  0.00     0.093 A 
ATOM      8  C   UNL     1       8.617  71.624   3.632  1.00  0.00     0.123 A 
ATOM      9  C   UNL     1       9.090  71.841   2.340  1.00  0.00     0.094 A 
ATOM     10  C   UNL     1       9.474  70.766   1.536  1.00  0.00     0.146 A 
ATOM     11  O   UNL     1       9.908  71.016   0.307  1.00  0.00    -0.452 OA
ENDROOT
BRANCH   1  12
ATOM     12  C   UNL     1      10.770  70.481  -1.881  1.00  0.00     0.025 A 
ATOM     13  C   UNL     1      10.370  69.760  -3.017  1.00  0.00     0.016 A 
ATOM     14  C   UNL     1      10.806  70.144  -4.288  1.00  0.00     0.051 A 
ATOM     15  C   UNL     1      11.633  71.263  -4.442  1.00  0.00     0.157 A 
ATOM     16  C   UNL     1      11.584  71.616  -2.042  1.00  0.00     0.062 A 
ATOM     17  C   UNL     1      12.020  72.003  -3.318  1.00  0.00     0.158 A 
BRANCH  15  18
ATOM     18  O   UNL     1      12.072  71.648  -5.708  1.00  0.00    -0.504 OA
ATOM     19  H   UNL     1      13.058  71.698  -5.935  1.00  0.00     0.293 HD
ENDBRANCH  15  18
BRANCH  17  20
ATOM     20  O   UNL     1      12.832  73.124  -3.476  1.00  0.00    -0.504 OA
ATOM     21  H   UNL     1      12.501  74.055  -3.251  1.00  0.00     0.293 HD
ENDBRANCH  17  20
ENDBRANCH   1  12
BRANCH   2  22
ATOM     22  O   UNL     1      10.462  67.708  -1.099  1.00  0.00    -0.502 OA
ATOM     23  H   UNL     1      10.003  66.805  -1.084  1.00  0.00     0.293 HD
ENDBRANCH   2  22
BRANCH   6  24
ATOM     24  O   UNL     1       8.954  67.982   4.002  1.00  0.00    -0.507 OA
ATOM     25  H   UNL     1       9.628  67.679   4.689  1.00  0.00     0.293 HD
ENDBRANCH   6  24
BRANCH   8  26
ATOM     26  O   UNL     1       8.219  72.710   4.410  1.00  0.00    -0.508 OA
ATOM     27  H   UNL     1       8.887  73.386   4.758  1.00  0.00     0.293 HD
ENDBRANCH   8  26
TORSDOF 6
ENDMDL
MODEL 8
REMARK VINA RESULT:     1.496      0.839      1.549
REMARK INTER + INTRA:           2.231
REMARK INTER:                   1.765
REMARK INTRA:                   0.466
REMARK UNBOUND:                 0.429
REMARK SMILES O=c1c(O)c(-c2ccc(O)c(O)c2)oc2cc(O)cc(O)c12
REMARK SMILES IDX 5 1 3 2 2 3 1 4 22 5 20 6 19 7 17 8 16 9 15 10 14 11 6 12
REMARK SMILES IDX 7 13 8 14 9 15 13 16 11 17 10 18 12 20 4 22 21 24 18 26
REMARK H PARENT 10 19 12 21 4 23 21 25 18 27
REMARK Flexibility Score: inf
ROOT
ATOM      1  C   UNL     1       9.508  68.154  -0.175  1.00  0.00     0.180 A 
ATOM      2  C   UNL     1       9.854  68.714  -1.418  1.00  0.00     0.208 A 
ATOM      3  C   UNL     1       9.957  70.110  -1.531  1.00  0.00     0.238 A 
ATOM      4  O   UNL     1      10.319  70.602  -2.631  1.00  0.00    -0.285 OA
ATOM      5  C   UNL     1       9.698  70.929  -0.405  1.00  0.00     0.111 A 
ATOM      6  C   UNL     1       9.733  72.356  -0.416  1.00  0.00     0.134 A 
ATOM      7  C   UNL     1       9.589  73.059   0.787  1.00  0.00     0.093 A 
ATOM      8  C   UNL     1       9.344  72.388   1.988  1.00  0.00     0.123 A 
ATOM      9  C   UNL     1       9.248  70.999   1.998  1.00  0.00     0.094 A 
ATOM     10  C   UNL     1       9.424  70.268   0.821  1.00  0.00     0.146 A 
ATOM     11  O   UNL     1       9.336  68.944   0.877  1.00  0.00    -0.452 OA
ENDROOT
BRANCH   1  12
ATOM     12  C   UNL     1       9.355  66.693   0.014  1.00  0.00     0.025 A 
ATOM     13  C   UNL     1       8.797  66.207   1.207  1.00  0.00     0.016 A 
ATOM     14  C   UNL     1       8.624  64.834   1.399  1.00  0.00     0.051 A 
ATOM     15  C   UNL     1       8.991  63.929   0.396  1.00  0.00     0.157 A 
ATOM     16  C   UNL     1       9.703  65.782  -0.999  1.00  0.00     0.062 A 
ATOM     17  C   UNL     1       9.528  64.404  -0.807  1.00  0.00     0.158 A 
BRANCH  15  18
ATOM     18  O   UNL     1       8.822  62.559   0.585  1.00  0.00    -0.504 OA
ATOM     19  H   UNL     1       7.912  62.159   0.782  1.00  0.00     0.293 HD
ENDBRANCH  15  18
BRANCH  17  20
ATOM     20  O   UNL     1       9.880  63.502  -1.810  1.00  0.00    -0.504 OA
ATOM     21  H   UNL     1       9.185  62.929  -2.276  1.00  0.00     0.293 HD
ENDBRANCH  17  20
ENDBRANCH   1  12
BRANCH   2  22
ATOM     22  O   UNL     1      10.127  67.886  -2.511  1.00  0.00    -0.502 OA
ATOM     23  H   UNL     1      10.585  68.225  -3.348  1.00  0.00     0.293 HD
ENDBRANCH   2  22
BRANCH   6  24
ATOM     24  O   UNL     1       9.880  73.124  -1.574  1.00  0.00    -0.507 OA
ATOM     25  H   UNL     1       9.528  74.062  -1.689  1.00  0.00     0.293 HD
ENDBRANCH   6  24
BRANCH   8  26
ATOM     26  O   UNL     1       9.186  73.097   3.177  1.00  0.00    -0.508 OA
ATOM     27  H   UNL     1       9.818  72.970   3.958  1.00  0.00     0.293 HD
ENDBRANCH   8  26
TORSDOF 6
ENDMDL
MODEL 9
REMARK VINA RESULT:     2.848      3.005      5.371
REMARK INTER + INTRA:           3.860
REMARK INTER:                   3.996
REMARK INTRA:                  -0.136
REMARK UNBOUND:                 0.429
REMARK SMILES O=c1c(O)c(-c2ccc(O)c(O)c2)oc2cc(O)cc(O)c12
REMARK SMILES IDX 5 1 3 2 2 3 1 4 22 5 20 6 19 7 17 8 16 9 15 10 14 11 6 12
REMARK SMILES IDX 7 13 8 14 9 15 13 16 11 17 10 18 12 20 4 22 21 24 18 26
REMARK H PARENT 10 19 12 21 4 23 21 25 18 27
REMARK Flexibility Score: inf
ROOT
ATOM      1  C   UNL     1       9.701  70.421   0.268  1.00  0.00     0.180 A 
ATOM      2  C   UNL     1       9.119  69.377  -0.474  1.00  0.00     0.208 A 
ATOM      3  C   UNL     1       9.369  69.301  -1.853  1.00  0.00     0.238 A 
ATOM      4  O   UNL     1       8.890  68.335  -2.502  1.00  0.00    -0.285 OA
ATOM      5  C   UNL     1      10.184  70.278  -2.477  1.00  0.00     0.111 A 
ATOM      6  C   UNL     1      10.470  70.322  -3.875  1.00  0.00     0.134 A 
ATOM      7  C   UNL     1      11.394  71.255  -4.361  1.00  0.00     0.093 A 
ATOM      8  C   UNL     1      11.990  72.190  -3.509  1.00  0.00     0.123 A 
ATOM      9  C   UNL     1      11.670  72.193  -2.154  1.00  0.00     0.094 A 
ATOM     10  C   UNL     1      10.781  71.251  -1.633  1.00  0.00     0.146 A 
ATOM     11  O   UNL     1      10.513  71.282  -0.333  1.00  0.00    -0.452 OA
ENDROOT
BRANCH   1  12
ATOM     12  C   UNL     1       9.463  70.581   1.721  1.00  0.00     0.025 A 
ATOM     13  C   UNL     1       9.926  69.597   2.609  1.00  0.00     0.016 A 
ATOM     14  C   UNL     1       9.732  69.737   3.985  1.00  0.00     0.051 A 
ATOM     15  C   UNL     1       9.085  70.870   4.495  1.00  0.00     0.157 A 
ATOM     16  C   UNL     1       8.833  71.726   2.239  1.00  0.00     0.062 A 
ATOM     17  C   UNL     1       8.639  71.869   3.621  1.00  0.00     0.158 A 
BRANCH  15  18
ATOM     18  O   UNL     1       8.888  71.012   5.866  1.00  0.00    -0.504 OA
ATOM     19  H   UNL     1       9.453  70.508   6.539  1.00  0.00     0.293 HD
ENDBRANCH  15  18
BRANCH  17  20
ATOM     20  O   UNL     1       8.008  73.002   4.131  1.00  0.00    -0.504 OA
ATOM     21  H   UNL     1       7.677  73.038   5.088  1.00  0.00     0.293 HD
ENDBRANCH  17  20
ENDBRANCH   1  12
BRANCH   2  22
ATOM     22  O   UNL     1       8.337  68.411   0.165  1.00  0.00    -0.502 OA
ATOM     23  H   UNL     1       7.350  68.295  -0.031  1.00  0.00     0.293 HD
ENDBRANCH   2  22
BRANCH   6  24
ATOM     24  O   UNL     1       9.861  69.495  -4.822  1.00  0.00    -0.507 OA
ATOM     25  H   UNL     1       9.708  69.743  -5.788  1.00  0.00     0.293 HD
ENDBRANCH   6  24
BRANCH   8  26
ATOM     26  O   UNL     1      12.896  73.125  -4.005  1.00  0.00    -0.508 OA
ATOM     27  H   UNL     1      12.596  74.041  -4.316  1.00  0.00     0.293 HD
ENDBRANCH   8  26
TORSDOF 6
ENDMDL
