MODEL 1
REMARK VINA RESULT:    -2.895      0.000      0.000
REMARK INTER + INTRA:         -13.322
REMARK INTER:                  -7.295
REMARK INTRA:                  -6.027
REMARK UNBOUND:                -6.027
REMARK SMILES CCCCCCCCCCCCCCCCCCCCCCCCCCCC(=O)[O-]
REMARK SMILES IDX 15 1 16 2 17 3 18 4 19 5 20 6 21 7 22 8 23 9 24 10 25 11
REMARK SMILES IDX 26 12 27 13 28 14 29 15 30 16 14 17 13 18 12 19 11 20 10 21
REMARK SMILES IDX 9 22 8 23 7 24 6 25 5 26 4 27 3 28 2 29 1 30
REMARK H PARENT
REMARK Flexibility Score: inf
ROOT
ATOM      1  C   UNL     1      34.658  27.221  12.603  1.00  0.00     0.000 C 
ENDROOT
BRANCH   1   2
ATOM      2  C   UNL     1      33.369  27.897  13.100  1.00  0.00     0.000 C 
BRANCH   2   3
ATOM      3  C   UNL     1      32.751  28.777  12.007  1.00  0.00     0.000 C 
BRANCH   3   4
ATOM      4  C   UNL     1      33.635  28.802  10.750  1.00  0.00     0.000 C 
BRANCH   4   5
ATOM      5  C   UNL     1      33.195  29.872   9.735  1.00  0.00     0.000 C 
BRANCH   5   6
ATOM      6  C   UNL     1      32.778  29.317   8.362  1.00  0.00     0.000 C 
BRANCH   6   7
ATOM      7  C   UNL     1      31.257  29.340   8.146  1.00  0.00     0.000 C 
BRANCH   7   8
ATOM      8  C   UNL     1      30.632  27.984   8.509  1.00  0.00     0.000 C 
BRANCH   8   9
ATOM      9  C   UNL     1      29.666  28.079   9.702  1.00  0.00     0.000 C 
BRANCH   9  10
ATOM     10  C   UNL     1      29.467  29.526  10.184  1.00  0.00     0.000 C 
BRANCH  10  11
ATOM     11  C   UNL     1      29.152  29.600  11.688  1.00  0.00     0.000 C 
BRANCH  11  12
ATOM     12  C   UNL     1      28.606  28.274  12.243  1.00  0.00     0.006 C 
BRANCH  12  13
ATOM     13  C   UNL     1      27.363  28.516  13.106  1.00  0.00     0.053 C 
BRANCH  13  14
ATOM     14  C   UNL     1      26.128  27.979  12.444  1.00  0.00     0.041 C 
ATOM     15  O   UNL     1      25.543  26.970  12.923  1.00  0.00    -0.550 OA
ATOM     16  O   UNL     1      25.681  28.526  11.248  1.00  0.00    -0.550 OA
ENDBRANCH  13  14
ENDBRANCH  12  13
ENDBRANCH  11  12
ENDBRANCH  10  11
ENDBRANCH   9  10
ENDBRANCH   8   9
ENDBRANCH   7   8
ENDBRANCH   6   7
ENDBRANCH   5   6
ENDBRANCH   4   5
ENDBRANCH   3   4
ENDBRANCH   2   3
ENDBRANCH   1   2
BRANCH   1  17
ATOM     17  C   UNL     1      35.064  25.997  13.440  1.00  0.00     0.000 C 
BRANCH  17  18
ATOM     18  C   UNL     1      35.937  24.952  12.712  1.00  0.00     0.000 C 
BRANCH  18  19
ATOM     19  C   UNL     1      36.919  25.542  11.675  1.00  0.00     0.000 C 
BRANCH  19  20
ATOM     20  C   UNL     1      37.167  24.627  10.459  1.00  0.00     0.000 C 
BRANCH  20  21
ATOM     21  C   UNL     1      36.973  25.338   9.106  1.00  0.00     0.000 C 
BRANCH  21  22
ATOM     22  C   UNL     1      35.886  26.433   9.107  1.00  0.00    -0.000 C 
BRANCH  22  23
ATOM     23  C   UNL     1      34.718  26.116   8.157  1.00  0.00    -0.000 C 
BRANCH  23  24
ATOM     24  C   UNL     1      33.437  25.685   8.898  1.00  0.00    -0.000 C 
BRANCH  24  25
ATOM     25  C   UNL     1      33.509  24.324   9.626  1.00  0.00    -0.000 C 
BRANCH  25  26
ATOM     26  C   UNL     1      32.786  24.259  10.983  1.00  0.00    -0.000 C 
BRANCH  26  27
ATOM     27  C   UNL     1      31.732  25.365  11.161  1.00  0.00    -0.000 C 
BRANCH  27  28
ATOM     28  C   UNL     1      30.865  25.147  12.412  1.00  0.00    -0.000 C 
BRANCH  28  29
ATOM     29  C   UNL     1      31.649  24.522  13.576  1.00  0.00    -0.003 C 
ATOM     30  C   UNL     1      31.416  25.294  14.871  1.00  0.00     0.004 C 
ENDBRANCH  28  29
ENDBRANCH  27  28
ENDBRANCH  26  27
ENDBRANCH  25  26
ENDBRANCH  24  25
ENDBRANCH  23  24
ENDBRANCH  22  23
ENDBRANCH  21  22
ENDBRANCH  20  21
ENDBRANCH  19  20
ENDBRANCH  18  19
ENDBRANCH  17  18
ENDBRANCH   1  17
TORSDOF 26
ENDMDL
MODEL 2
REMARK VINA RESULT:    -2.735      2.948      6.853
REMARK INTER + INTRA:         -12.920
REMARK INTER:                  -7.856
REMARK INTRA:                  -5.064
REMARK UNBOUND:                -6.027
REMARK SMILES CCCCCCCCCCCCCCCCCCCCCCCCCCCC(=O)[O-]
REMARK SMILES IDX 15 1 16 2 17 3 18 4 19 5 20 6 21 7 22 8 23 9 24 10 25 11
REMARK SMILES IDX 26 12 27 13 28 14 29 15 30 16 14 17 13 18 12 19 11 20 10 21
REMARK SMILES IDX 9 22 8 23 7 24 6 25 5 26 4 27 3 28 2 29 1 30
REMARK H PARENT
REMARK Flexibility Score: inf
ROOT
ATOM      1  C   UNL     1      32.361  29.056  11.584  1.00  0.00     0.000 C 
ENDROOT
BRANCH   1   2
ATOM      2  C   UNL     1      33.648  29.127  10.745  1.00  0.00     0.000 C 
BRANCH   2   3
ATOM      3  C   UNL     1      33.361  29.677   9.342  1.00  0.00     0.000 C 
BRANCH   3   4
ATOM      4  C   UNL     1      32.083  29.056   8.754  1.00  0.00     0.000 C 
BRANCH   4   5
ATOM      5  C   UNL     1      32.367  27.796   7.916  1.00  0.00     0.000 C 
BRANCH   5   6
ATOM      6  C   UNL     1      32.049  26.471   8.628  1.00  0.00     0.000 C 
BRANCH   6   7
ATOM      7  C   UNL     1      33.306  25.758   9.150  1.00  0.00     0.000 C 
BRANCH   7   8
ATOM      8  C   UNL     1      34.531  26.109   8.292  1.00  0.00     0.000 C 
BRANCH   8   9
ATOM      9  C   UNL     1      35.721  26.600   9.133  1.00  0.00     0.000 C 
BRANCH   9  10
ATOM     10  C   UNL     1      36.620  25.447   9.611  1.00  0.00     0.000 C 
BRANCH  10  11
ATOM     11  C   UNL     1      36.843  25.475  11.133  1.00  0.00     0.000 C 
BRANCH  11  12
ATOM     12  C   UNL     1      35.769  26.290  11.872  1.00  0.00     0.006 C 
BRANCH  12  13
ATOM     13  C   UNL     1      34.863  25.371  12.700  1.00  0.00     0.053 C 
BRANCH  13  14
ATOM     14  C   UNL     1      35.200  25.447  14.160  1.00  0.00     0.041 C 
ATOM     15  O   UNL     1      36.141  24.751  14.628  1.00  0.00    -0.550 OA
ATOM     16  O   UNL     1      34.417  26.207  15.020  1.00  0.00    -0.550 OA
ENDBRANCH  13  14
ENDBRANCH  12  13
ENDBRANCH  11  12
ENDBRANCH  10  11
ENDBRANCH   9  10
ENDBRANCH   8   9
ENDBRANCH   7   8
ENDBRANCH   6   7
ENDBRANCH   5   6
ENDBRANCH   4   5
ENDBRANCH   3   4
ENDBRANCH   2   3
ENDBRANCH   1   2
BRANCH   1  17
ATOM     17  C   UNL     1      32.214  27.736  12.359  1.00  0.00     0.000 C 
BRANCH  17  18
ATOM     18  C   UNL     1      30.941  26.919  12.049  1.00  0.00     0.000 C 
BRANCH  18  19
ATOM     19  C   UNL     1      30.940  25.485  12.625  1.00  0.00     0.000 C 
BRANCH  19  20
ATOM     20  C   UNL     1      31.082  25.428  14.159  1.00  0.00     0.000 C 
BRANCH  20  21
ATOM     21  C   UNL     1      30.684  24.066  14.762  1.00  0.00     0.000 C 
BRANCH  21  22
ATOM     22  C   UNL     1      29.375  24.085  15.578  1.00  0.00    -0.000 C 
BRANCH  22  23
ATOM     23  C   UNL     1      28.756  25.489  15.683  1.00  0.00    -0.000 C 
BRANCH  23  24
ATOM     24  C   UNL     1      27.360  25.583  15.037  1.00  0.00    -0.000 C 
BRANCH  24  25
ATOM     25  C   UNL     1      27.339  25.689  13.495  1.00  0.00    -0.000 C 
BRANCH  25  26
ATOM     26  C   UNL     1      26.741  26.988  12.928  1.00  0.00    -0.000 C 
BRANCH  26  27
ATOM     27  C   UNL     1      27.411  28.257  13.485  1.00  0.00    -0.000 C 
BRANCH  27  28
ATOM     28  C   UNL     1      27.336  29.434  12.499  1.00  0.00    -0.000 C 
BRANCH  28  29
ATOM     29  C   UNL     1      28.719  29.877  11.997  1.00  0.00    -0.003 C 
ATOM     30  C   UNL     1      28.848  29.665  10.491  1.00  0.00     0.004 C 
ENDBRANCH  28  29
ENDBRANCH  27  28
ENDBRANCH  26  27
ENDBRANCH  25  26
ENDBRANCH  24  25
ENDBRANCH  23  24
ENDBRANCH  22  23
ENDBRANCH  21  22
ENDBRANCH  20  21
ENDBRANCH  19  20
ENDBRANCH  18  19
ENDBRANCH  17  18
ENDBRANCH   1  17
TORSDOF 26
ENDMDL
MODEL 3
REMARK VINA RESULT:    -2.673      1.960      4.613
REMARK INTER + INTRA:         -12.764
REMARK INTER:                  -7.650
REMARK INTRA:                  -5.113
REMARK UNBOUND:                -6.027
REMARK SMILES CCCCCCCCCCCCCCCCCCCCCCCCCCCC(=O)[O-]
REMARK SMILES IDX 15 1 16 2 17 3 18 4 19 5 20 6 21 7 22 8 23 9 24 10 25 11
REMARK SMILES IDX 26 12 27 13 28 14 29 15 30 16 14 17 13 18 12 19 11 20 10 21
REMARK SMILES IDX 9 22 8 23 7 24 6 25 5 26 4 27 3 28 2 29 1 30
REMARK H PARENT
REMARK Flexibility Score: inf
ROOT
ATOM      1  C   UNL     1      30.671  28.742  11.651  1.00  0.00     0.000 C 
ENDROOT
BRANCH   1   2
ATOM      2  C   UNL     1      29.887  29.181  10.403  1.00  0.00     0.000 C 
BRANCH   2   3
ATOM      3  C   UNL     1      28.568  29.861  10.793  1.00  0.00     0.000 C 
BRANCH   3   4
ATOM      4  C   UNL     1      28.447  30.003  12.319  1.00  0.00     0.000 C 
BRANCH   4   5
ATOM      5  C   UNL     1      27.218  29.270  12.888  1.00  0.00     0.000 C 
BRANCH   5   6
ATOM      6  C   UNL     1      27.518  27.880  13.474  1.00  0.00     0.000 C 
BRANCH   6   7
ATOM      7  C   UNL     1      26.372  26.880  13.252  1.00  0.00     0.000 C 
BRANCH   7   8
ATOM      8  C   UNL     1      26.860  25.655  12.464  1.00  0.00     0.000 C 
BRANCH   8   9
ATOM      9  C   UNL     1      27.848  26.027  11.346  1.00  0.00     0.000 C 
BRANCH   9  10
ATOM     10  C   UNL     1      27.236  25.868   9.943  1.00  0.00     0.000 C 
BRANCH  10  11
ATOM     11  C   UNL     1      26.726  27.205   9.376  1.00  0.00     0.000 C 
BRANCH  11  12
ATOM     12  C   UNL     1      25.242  27.452   9.692  1.00  0.00     0.006 C 
BRANCH  12  13
ATOM     13  C   UNL     1      25.013  28.902  10.132  1.00  0.00     0.053 C 
BRANCH  13  14
ATOM     14  C   UNL     1      23.558  29.263  10.081  1.00  0.00     0.041 C 
ATOM     15  O   UNL     1      23.209  30.469   9.970  1.00  0.00    -0.550 OA
ATOM     16  O   UNL     1      22.588  28.284  10.256  1.00  0.00    -0.550 OA
ENDBRANCH  13  14
ENDBRANCH  12  13
ENDBRANCH  11  12
ENDBRANCH  10  11
ENDBRANCH   9  10
ENDBRANCH   8   9
ENDBRANCH   7   8
ENDBRANCH   6   7
ENDBRANCH   5   6
ENDBRANCH   4   5
ENDBRANCH   3   4
ENDBRANCH   2   3
ENDBRANCH   1   2
BRANCH   1  17
ATOM     17  C   UNL     1      32.140  29.195  11.634  1.00  0.00     0.000 C 
BRANCH  17  18
ATOM     18  C   UNL     1      32.735  29.477  10.237  1.00  0.00     0.000 C 
BRANCH  18  19
ATOM     19  C   UNL     1      34.047  28.721   9.930  1.00  0.00     0.000 C 
BRANCH  19  20
ATOM     20  C   UNL     1      34.582  27.893  11.117  1.00  0.00     0.000 C 
BRANCH  20  21
ATOM     21  C   UNL     1      34.584  26.374  10.853  1.00  0.00     0.000 C 
BRANCH  21  22
ATOM     22  C   UNL     1      33.565  25.906   9.794  1.00  0.00    -0.000 C 
BRANCH  22  23
ATOM     23  C   UNL     1      32.171  25.634  10.386  1.00  0.00    -0.000 C 
BRANCH  23  24
ATOM     24  C   UNL     1      32.224  24.952  11.767  1.00  0.00    -0.000 C 
BRANCH  24  25
ATOM     25  C   UNL     1      31.356  25.600  12.869  1.00  0.00    -0.000 C 
BRANCH  25  26
ATOM     26  C   UNL     1      31.412  24.914  14.246  1.00  0.00    -0.000 C 
BRANCH  26  27
ATOM     27  C   UNL     1      32.328  25.639  15.247  1.00  0.00    -0.000 C 
BRANCH  27  28
ATOM     28  C   UNL     1      33.801  25.230  15.089  1.00  0.00    -0.000 C 
BRANCH  28  29
ATOM     29  C   UNL     1      34.686  26.380  14.585  1.00  0.00    -0.003 C 
ATOM     30  C   UNL     1      33.928  27.704  14.607  1.00  0.00     0.004 C 
ENDBRANCH  28  29
ENDBRANCH  27  28
ENDBRANCH  26  27
ENDBRANCH  25  26
ENDBRANCH  24  25
ENDBRANCH  23  24
ENDBRANCH  22  23
ENDBRANCH  21  22
ENDBRANCH  20  21
ENDBRANCH  19  20
ENDBRANCH  18  19
ENDBRANCH  17  18
ENDBRANCH   1  17
TORSDOF 26
ENDMDL
MODEL 4
REMARK VINA RESULT:    -2.639      2.026      4.862
REMARK INTER + INTRA:         -12.678
REMARK INTER:                  -7.531
REMARK INTRA:                  -5.148
REMARK UNBOUND:                -6.027
REMARK SMILES CCCCCCCCCCCCCCCCCCCCCCCCCCCC(=O)[O-]
REMARK SMILES IDX 15 1 16 2 17 3 18 4 19 5 20 6 21 7 22 8 23 9 24 10 25 11
REMARK SMILES IDX 26 12 27 13 28 14 29 15 30 16 14 17 13 18 12 19 11 20 10 21
REMARK SMILES IDX 9 22 8 23 7 24 6 25 5 26 4 27 3 28 2 29 1 30
REMARK H PARENT
REMARK Flexibility Score: inf
ROOT
ATOM      1  C   UNL     1      34.396  27.219  14.755  1.00  0.00     0.000 C 
ENDROOT
BRANCH   1   2
ATOM      2  C   UNL     1      33.245  26.417  15.385  1.00  0.00     0.000 C 
BRANCH   2   3
ATOM      3  C   UNL     1      33.449  24.910  15.184  1.00  0.00     0.000 C 
BRANCH   3   4
ATOM      4  C   UNL     1      32.158  24.238  14.689  1.00  0.00     0.000 C 
BRANCH   4   5
ATOM      5  C   UNL     1      30.975  25.219  14.597  1.00  0.00     0.000 C 
BRANCH   5   6
ATOM      6  C   UNL     1      29.617  24.620  15.000  1.00  0.00     0.000 C 
BRANCH   6   7
ATOM      7  C   UNL     1      28.684  25.649  15.657  1.00  0.00     0.000 C 
BRANCH   7   8
ATOM      8  C   UNL     1      27.237  25.135  15.688  1.00  0.00     0.000 C 
BRANCH   8   9
ATOM      9  C   UNL     1      26.916  24.204  14.507  1.00  0.00     0.000 C 
BRANCH   9  10
ATOM     10  C   UNL     1      26.488  24.977  13.247  1.00  0.00     0.000 C 
BRANCH  10  11
ATOM     11  C   UNL     1      25.546  26.148  13.575  1.00  0.00     0.000 C 
BRANCH  11  12
ATOM     12  C   UNL     1      26.108  27.503  13.115  1.00  0.00     0.006 C 
BRANCH  12  13
ATOM     13  C   UNL     1      27.415  27.315  12.338  1.00  0.00     0.053 C 
BRANCH  13  14
ATOM     14  C   UNL     1      27.277  27.781  10.919  1.00  0.00     0.041 C 
ATOM     15  O   UNL     1      27.362  26.954   9.971  1.00  0.00    -0.550 OA
ATOM     16  O   UNL     1      27.154  29.136  10.636  1.00  0.00    -0.550 OA
ENDBRANCH  13  14
ENDBRANCH  12  13
ENDBRANCH  11  12
ENDBRANCH  10  11
ENDBRANCH   9  10
ENDBRANCH   8   9
ENDBRANCH   7   8
ENDBRANCH   6   7
ENDBRANCH   5   6
ENDBRANCH   4   5
ENDBRANCH   3   4
ENDBRANCH   2   3
ENDBRANCH   1   2
BRANCH   1  17
ATOM     17  C   UNL     1      34.271  27.365  13.230  1.00  0.00     0.000 C 
BRANCH  17  18
ATOM     18  C   UNL     1      35.301  26.571  12.398  1.00  0.00     0.000 C 
BRANCH  18  19
ATOM     19  C   UNL     1      35.425  27.021  10.925  1.00  0.00     0.000 C 
BRANCH  19  20
ATOM     20  C   UNL     1      34.800  28.402  10.640  1.00  0.00     0.000 C 
BRANCH  20  21
ATOM     21  C   UNL     1      33.980  28.447   9.335  1.00  0.00     0.000 C 
BRANCH  21  22
ATOM     22  C   UNL     1      32.999  29.632   9.235  1.00  0.00    -0.000 C 
BRANCH  22  23
ATOM     23  C   UNL     1      31.678  29.257   8.540  1.00  0.00    -0.000 C 
BRANCH  23  24
ATOM     24  C   UNL     1      30.546  28.928   9.532  1.00  0.00    -0.000 C 
BRANCH  24  25
ATOM     25  C   UNL     1      30.872  29.165  11.024  1.00  0.00    -0.000 C 
BRANCH  25  26
ATOM     26  C   UNL     1      31.111  27.896  11.860  1.00  0.00    -0.000 C 
BRANCH  26  27
ATOM     27  C   UNL     1      30.801  26.598  11.093  1.00  0.00    -0.000 C 
BRANCH  27  28
ATOM     28  C   UNL     1      32.039  25.700  10.945  1.00  0.00    -0.000 C 
BRANCH  28  29
ATOM     29  C   UNL     1      32.214  25.160   9.518  1.00  0.00    -0.003 C 
ATOM     30  C   UNL     1      30.964  25.413   8.680  1.00  0.00     0.004 C 
ENDBRANCH  28  29
ENDBRANCH  27  28
ENDBRANCH  26  27
ENDBRANCH  25  26
ENDBRANCH  24  25
ENDBRANCH  23  24
ENDBRANCH  22  23
ENDBRANCH  21  22
ENDBRANCH  20  21
ENDBRANCH  19  20
ENDBRANCH  18  19
ENDBRANCH  17  18
ENDBRANCH   1  17
TORSDOF 26
ENDMDL
MODEL 5
REMARK VINA RESULT:    -2.620      2.338      6.239
REMARK INTER + INTRA:         -12.631
REMARK INTER:                  -7.170
REMARK INTRA:                  -5.461
REMARK UNBOUND:                -6.027
REMARK SMILES CCCCCCCCCCCCCCCCCCCCCCCCCCCC(=O)[O-]
REMARK SMILES IDX 15 1 16 2 17 3 18 4 19 5 20 6 21 7 22 8 23 9 24 10 25 11
REMARK SMILES IDX 26 12 27 13 28 14 29 15 30 16 14 17 13 18 12 19 11 20 10 21
REMARK SMILES IDX 9 22 8 23 7 24 6 25 5 26 4 27 3 28 2 29 1 30
REMARK H PARENT
REMARK Flexibility Score: inf
ROOT
ATOM      1  C   UNL     1      28.462  26.496  11.595  1.00  0.00     0.000 C 
ENDROOT
BRANCH   1   2
ATOM      2  C   UNL     1      29.419  25.371  12.021  1.00  0.00     0.000 C 
BRANCH   2   3
ATOM      3  C   UNL     1      30.195  25.758  13.287  1.00  0.00     0.000 C 
BRANCH   3   4
ATOM      4  C   UNL     1      30.549  24.516  14.120  1.00  0.00     0.000 C 
BRANCH   4   5
ATOM      5  C   UNL     1      29.537  24.250  15.250  1.00  0.00     0.000 C 
BRANCH   5   6
ATOM      6  C   UNL     1      28.797  25.501  15.751  1.00  0.00     0.000 C 
BRANCH   6   7
ATOM      7  C   UNL     1      27.279  25.427  15.526  1.00  0.00     0.000 C 
BRANCH   7   8
ATOM      8  C   UNL     1      26.868  24.038  15.015  1.00  0.00     0.000 C 
BRANCH   8   9
ATOM      9  C   UNL     1      26.129  24.099  13.668  1.00  0.00     0.000 C 
BRANCH   9  10
ATOM     10  C   UNL     1      25.283  25.375  13.518  1.00  0.00     0.000 C 
BRANCH  10  11
ATOM     11  C   UNL     1      24.841  25.613  12.063  1.00  0.00     0.000 C 
BRANCH  11  12
ATOM     12  C   UNL     1      24.603  27.100  11.755  1.00  0.00     0.006 C 
BRANCH  12  13
ATOM     13  C   UNL     1      24.384  27.316  10.253  1.00  0.00     0.053 C 
BRANCH  13  14
ATOM     14  C   UNL     1      23.546  28.534   9.995  1.00  0.00     0.041 C 
ATOM     15  O   UNL     1      22.419  28.420   9.443  1.00  0.00    -0.550 OA
ATOM     16  O   UNL     1      24.048  29.799  10.272  1.00  0.00    -0.550 OA
ENDBRANCH  13  14
ENDBRANCH  12  13
ENDBRANCH  11  12
ENDBRANCH  10  11
ENDBRANCH   9  10
ENDBRANCH   8   9
ENDBRANCH   7   8
ENDBRANCH   6   7
ENDBRANCH   5   6
ENDBRANCH   4   5
ENDBRANCH   3   4
ENDBRANCH   2   3
ENDBRANCH   1   2
BRANCH   1  17
ATOM     17  C   UNL     1      28.222  27.540  12.698  1.00  0.00     0.000 C 
BRANCH  17  18
ATOM     18  C   UNL     1      27.799  28.942  12.209  1.00  0.00     0.000 C 
BRANCH  18  19
ATOM     19  C   UNL     1      27.798  29.116  10.673  1.00  0.00     0.000 C 
BRANCH  19  20
ATOM     20  C   UNL     1      29.022  29.880  10.130  1.00  0.00     0.000 C 
BRANCH  20  21
ATOM     21  C   UNL     1      30.015  28.983   9.365  1.00  0.00     0.000 C 
BRANCH  21  22
ATOM     22  C   UNL     1      31.475  29.083   9.852  1.00  0.00    -0.000 C 
BRANCH  22  23
ATOM     23  C   UNL     1      31.586  29.298  11.371  1.00  0.00    -0.000 C 
BRANCH  23  24
ATOM     24  C   UNL     1      32.487  28.259  12.064  1.00  0.00    -0.000 C 
BRANCH  24  25
ATOM     25  C   UNL     1      32.921  27.059  11.192  1.00  0.00    -0.000 C 
BRANCH  25  26
ATOM     26  C   UNL     1      34.030  26.173  11.787  1.00  0.00    -0.000 C 
BRANCH  26  27
ATOM     27  C   UNL     1      34.793  26.850  12.939  1.00  0.00    -0.000 C 
BRANCH  27  28
ATOM     28  C   UNL     1      35.185  25.853  14.041  1.00  0.00    -0.000 C 
BRANCH  28  29
ATOM     29  C   UNL     1      34.016  25.512  14.977  1.00  0.00    -0.003 C 
ATOM     30  C   UNL     1      33.329  26.778  15.479  1.00  0.00     0.004 C 
ENDBRANCH  28  29
ENDBRANCH  27  28
ENDBRANCH  26  27
ENDBRANCH  25  26
ENDBRANCH  24  25
ENDBRANCH  23  24
ENDBRANCH  22  23
ENDBRANCH  21  22
ENDBRANCH  20  21
ENDBRANCH  19  20
ENDBRANCH  18  19
ENDBRANCH  17  18
ENDBRANCH   1  17
TORSDOF 26
ENDMDL
MODEL 6
REMARK VINA RESULT:    -2.614      1.856      4.828
REMARK INTER + INTRA:         -12.615
REMARK INTER:                  -7.504
REMARK INTRA:                  -5.111
REMARK UNBOUND:                -6.027
REMARK SMILES CCCCCCCCCCCCCCCCCCCCCCCCCCCC(=O)[O-]
REMARK SMILES IDX 15 1 16 2 17 3 18 4 19 5 20 6 21 7 22 8 23 9 24 10 25 11
REMARK SMILES IDX 26 12 27 13 28 14 29 15 30 16 14 17 13 18 12 19 11 20 10 21
REMARK SMILES IDX 9 22 8 23 7 24 6 25 5 26 4 27 3 28 2 29 1 30
REMARK H PARENT
REMARK Flexibility Score: inf
ROOT
ATOM      1  C   UNL     1      33.988  27.621  14.324  1.00  0.00     0.000 C 
ENDROOT
BRANCH   1   2
ATOM      2  C   UNL     1      33.588  26.649  15.447  1.00  0.00     0.000 C 
BRANCH   2   3
ATOM      3  C   UNL     1      33.824  25.193  15.026  1.00  0.00     0.000 C 
BRANCH   3   4
ATOM      4  C   UNL     1      32.602  24.318  15.351  1.00  0.00     0.000 C 
BRANCH   4   5
ATOM      5  C   UNL     1      31.607  24.230  14.179  1.00  0.00     0.000 C 
BRANCH   5   6
ATOM      6  C   UNL     1      30.364  25.123  14.328  1.00  0.00     0.000 C 
BRANCH   6   7
ATOM      7  C   UNL     1      29.468  24.706  15.506  1.00  0.00     0.000 C 
BRANCH   7   8
ATOM      8  C   UNL     1      28.361  25.744  15.746  1.00  0.00     0.000 C 
BRANCH   8   9
ATOM      9  C   UNL     1      26.984  25.264  15.259  1.00  0.00     0.000 C 
BRANCH   9  10
ATOM     10  C   UNL     1      26.464  26.081  14.064  1.00  0.00     0.000 C 
BRANCH  10  11
ATOM     11  C   UNL     1      26.896  25.479  12.715  1.00  0.00     0.000 C 
BRANCH  11  12
ATOM     12  C   UNL     1      27.380  26.546  11.721  1.00  0.00     0.006 C 
BRANCH  12  13
ATOM     13  C   UNL     1      28.204  27.623  12.435  1.00  0.00     0.053 C 
BRANCH  13  14
ATOM     14  C   UNL     1      27.627  28.989  12.211  1.00  0.00     0.041 C 
ATOM     15  O   UNL     1      28.276  30.013  12.556  1.00  0.00    -0.550 OA
ATOM     16  O   UNL     1      26.336  29.130  11.716  1.00  0.00    -0.550 OA
ENDBRANCH  13  14
ENDBRANCH  12  13
ENDBRANCH  11  12
ENDBRANCH  10  11
ENDBRANCH   9  10
ENDBRANCH   8   9
ENDBRANCH   7   8
ENDBRANCH   6   7
ENDBRANCH   5   6
ENDBRANCH   4   5
ENDBRANCH   3   4
ENDBRANCH   2   3
ENDBRANCH   1   2
BRANCH   1  17
ATOM     17  C   UNL     1      33.108  27.494  13.071  1.00  0.00     0.000 C 
BRANCH  17  18
ATOM     18  C   UNL     1      32.796  28.817  12.338  1.00  0.00     0.000 C 
BRANCH  18  19
ATOM     19  C   UNL     1      31.474  28.816  11.539  1.00  0.00     0.000 C 
BRANCH  19  20
ATOM     20  C   UNL     1      31.668  28.744  10.011  1.00  0.00     0.000 C 
BRANCH  20  21
ATOM     21  C   UNL     1      32.866  29.572   9.506  1.00  0.00     0.000 C 
BRANCH  21  22
ATOM     22  C   UNL     1      33.886  28.776   8.664  1.00  0.00    -0.000 C 
BRANCH  22  23
ATOM     23  C   UNL     1      34.232  27.409   9.280  1.00  0.00    -0.000 C 
BRANCH  23  24
ATOM     24  C   UNL     1      35.396  27.479  10.287  1.00  0.00    -0.000 C 
BRANCH  24  25
ATOM     25  C   UNL     1      35.910  26.120  10.814  1.00  0.00    -0.000 C 
BRANCH  25  26
ATOM     26  C   UNL     1      35.120  24.885  10.345  1.00  0.00    -0.000 C 
BRANCH  26  27
ATOM     27  C   UNL     1      34.040  24.441  11.348  1.00  0.00    -0.000 C 
BRANCH  27  28
ATOM     28  C   UNL     1      32.747  23.992  10.650  1.00  0.00    -0.000 C 
BRANCH  28  29
ATOM     29  C   UNL     1      31.682  25.099  10.606  1.00  0.00    -0.003 C 
ATOM     30  C   UNL     1      30.276  24.506  10.618  1.00  0.00     0.004 C 
ENDBRANCH  28  29
ENDBRANCH  27  28
ENDBRANCH  26  27
ENDBRANCH  25  26
ENDBRANCH  24  25
ENDBRANCH  23  24
ENDBRANCH  22  23
ENDBRANCH  21  22
ENDBRANCH  20  21
ENDBRANCH  19  20
ENDBRANCH  18  19
ENDBRANCH  17  18
ENDBRANCH   1  17
TORSDOF 26
ENDMDL
MODEL 7
REMARK VINA RESULT:    -2.610      1.666      4.632
REMARK INTER + INTRA:         -12.604
REMARK INTER:                  -7.531
REMARK INTRA:                  -5.073
REMARK UNBOUND:                -6.027
REMARK SMILES CCCCCCCCCCCCCCCCCCCCCCCCCCCC(=O)[O-]
REMARK SMILES IDX 15 1 16 2 17 3 18 4 19 5 20 6 21 7 22 8 23 9 24 10 25 11
REMARK SMILES IDX 26 12 27 13 28 14 29 15 30 16 14 17 13 18 12 19 11 20 10 21
REMARK SMILES IDX 9 22 8 23 7 24 6 25 5 26 4 27 3 28 2 29 1 30
REMARK H PARENT
REMARK Flexibility Score: inf
ROOT
ATOM      1  C   UNL     1      33.612  27.521  13.847  1.00  0.00     0.000 C 
ENDROOT
BRANCH   1   2
ATOM      2  C   UNL     1      34.160  26.690  15.019  1.00  0.00     0.000 C 
BRANCH   2   3
ATOM      3  C   UNL     1      33.195  25.556  15.389  1.00  0.00     0.000 C 
BRANCH   3   4
ATOM      4  C   UNL     1      31.871  25.683  14.619  1.00  0.00     0.000 C 
BRANCH   4   5
ATOM      5  C   UNL     1      31.238  24.317  14.297  1.00  0.00     0.000 C 
BRANCH   5   6
ATOM      6  C   UNL     1      29.913  24.039  15.027  1.00  0.00     0.000 C 
BRANCH   6   7
ATOM      7  C   UNL     1      29.123  25.320  15.338  1.00  0.00     0.000 C 
BRANCH   7   8
ATOM      8  C   UNL     1      27.616  25.092  15.153  1.00  0.00     0.000 C 
BRANCH   8   9
ATOM      9  C   UNL     1      26.896  26.328  14.588  1.00  0.00     0.000 C 
BRANCH   9  10
ATOM     10  C   UNL     1      27.621  26.927  13.371  1.00  0.00     0.000 C 
BRANCH  10  11
ATOM     11  C   UNL     1      27.327  28.427  13.198  1.00  0.00     0.000 C 
BRANCH  11  12
ATOM     12  C   UNL     1      26.733  28.756  11.819  1.00  0.00     0.006 C 
BRANCH  12  13
ATOM     13  C   UNL     1      26.934  27.589  10.847  1.00  0.00     0.053 C 
BRANCH  13  14
ATOM     14  C   UNL     1      25.622  27.087  10.320  1.00  0.00     0.041 C 
ATOM     15  O   UNL     1      25.205  27.470   9.194  1.00  0.00    -0.550 OA
ATOM     16  O   UNL     1      24.814  26.278  11.110  1.00  0.00    -0.550 OA
ENDBRANCH  13  14
ENDBRANCH  12  13
ENDBRANCH  11  12
ENDBRANCH  10  11
ENDBRANCH   9  10
ENDBRANCH   8   9
ENDBRANCH   7   8
ENDBRANCH   6   7
ENDBRANCH   5   6
ENDBRANCH   4   5
ENDBRANCH   3   4
ENDBRANCH   2   3
ENDBRANCH   1   2
BRANCH   1  17
ATOM     17  C   UNL     1      34.527  27.505  12.612  1.00  0.00     0.000 C 
BRANCH  17  18
ATOM     18  C   UNL     1      35.467  26.285  12.494  1.00  0.00     0.000 C 
BRANCH  18  19
ATOM     19  C   UNL     1      35.772  25.845  11.044  1.00  0.00     0.000 C 
BRANCH  19  20
ATOM     20  C   UNL     1      35.538  26.950   9.994  1.00  0.00     0.000 C 
BRANCH  20  21
ATOM     21  C   UNL     1      34.453  26.593   8.960  1.00  0.00     0.000 C 
BRANCH  21  22
ATOM     22  C   UNL     1      33.763  25.234   9.198  1.00  0.00    -0.000 C 
BRANCH  22  23
ATOM     23  C   UNL     1      32.247  25.366   9.426  1.00  0.00    -0.000 C 
BRANCH  23  24
ATOM     24  C   UNL     1      31.883  25.679  10.890  1.00  0.00    -0.000 C 
BRANCH  24  25
ATOM     25  C   UNL     1      30.571  26.469  11.102  1.00  0.00    -0.000 C 
BRANCH  25  26
ATOM     26  C   UNL     1      30.736  27.880  11.694  1.00  0.00    -0.000 C 
BRANCH  26  27
ATOM     27  C   UNL     1      30.435  29.000  10.682  1.00  0.00    -0.000 C 
BRANCH  27  28
ATOM     28  C   UNL     1      31.564  29.172   9.654  1.00  0.00    -0.000 C 
BRANCH  28  29
ATOM     29  C   UNL     1      32.872  29.669  10.286  1.00  0.00    -0.003 C 
ATOM     30  C   UNL     1      33.786  30.294   9.236  1.00  0.00     0.004 C 
ENDBRANCH  28  29
ENDBRANCH  27  28
ENDBRANCH  26  27
ENDBRANCH  25  26
ENDBRANCH  24  25
ENDBRANCH  23  24
ENDBRANCH  22  23
ENDBRANCH  21  22
ENDBRANCH  20  21
ENDBRANCH  19  20
ENDBRANCH  18  19
ENDBRANCH  17  18
ENDBRANCH   1  17
TORSDOF 26
ENDMDL
MODEL 8
REMARK VINA RESULT:    -2.586      1.689      4.733
REMARK INTER + INTRA:         -12.543
REMARK INTER:                  -7.719
REMARK INTRA:                  -4.824
REMARK UNBOUND:                -6.027
REMARK SMILES CCCCCCCCCCCCCCCCCCCCCCCCCCCC(=O)[O-]
REMARK SMILES IDX 15 1 16 2 17 3 18 4 19 5 20 6 21 7 22 8 23 9 24 10 25 11
REMARK SMILES IDX 26 12 27 13 28 14 29 15 30 16 14 17 13 18 12 19 11 20 10 21
REMARK SMILES IDX 9 22 8 23 7 24 6 25 5 26 4 27 3 28 2 29 1 30
REMARK H PARENT
REMARK Flexibility Score: inf
ROOT
ATOM      1  C   UNL     1      33.821  26.832  13.585  1.00  0.00     0.000 C 
ENDROOT
BRANCH   1   2
ATOM      2  C   UNL     1      33.647  26.651  15.102  1.00  0.00     0.000 C 
BRANCH   2   3
ATOM      3  C   UNL     1      32.802  25.409  15.415  1.00  0.00     0.000 C 
BRANCH   3   4
ATOM      4  C   UNL     1      31.515  25.388  14.574  1.00  0.00     0.000 C 
BRANCH   4   5
ATOM      5  C   UNL     1      30.873  23.991  14.506  1.00  0.00     0.000 C 
BRANCH   5   6
ATOM      6  C   UNL     1      29.440  23.919  15.058  1.00  0.00     0.000 C 
BRANCH   6   7
ATOM      7  C   UNL     1      28.877  25.298  15.438  1.00  0.00     0.000 C 
BRANCH   7   8
ATOM      8  C   UNL     1      27.366  25.219  15.703  1.00  0.00     0.000 C 
BRANCH   8   9
ATOM      9  C   UNL     1      26.545  26.036  14.692  1.00  0.00     0.000 C 
BRANCH   9  10
ATOM     10  C   UNL     1      27.388  26.514  13.498  1.00  0.00     0.000 C 
BRANCH  10  11
ATOM     11  C   UNL     1      27.446  28.049  13.404  1.00  0.00     0.000 C 
BRANCH  11  12
ATOM     12  C   UNL     1      26.488  28.611  12.341  1.00  0.00     0.006 C 
BRANCH  12  13
ATOM     13  C   UNL     1      26.032  27.507  11.380  1.00  0.00     0.053 C 
BRANCH  13  14
ATOM     14  C   UNL     1      24.536  27.404  11.341  1.00  0.00     0.041 C 
ATOM     15  O   UNL     1      23.884  28.020  10.455  1.00  0.00    -0.550 OA
ATOM     16  O   UNL     1      23.856  26.712  12.335  1.00  0.00    -0.550 OA
ENDBRANCH  13  14
ENDBRANCH  12  13
ENDBRANCH  11  12
ENDBRANCH  10  11
ENDBRANCH   9  10
ENDBRANCH   8   9
ENDBRANCH   7   8
ENDBRANCH   6   7
ENDBRANCH   5   6
ENDBRANCH   4   5
ENDBRANCH   3   4
ENDBRANCH   2   3
ENDBRANCH   1   2
BRANCH   1  17
ATOM     17  C   UNL     1      35.247  26.524  13.097  1.00  0.00     0.000 C 
BRANCH  17  18
ATOM     18  C   UNL     1      35.380  25.314  12.148  1.00  0.00     0.000 C 
BRANCH  18  19
ATOM     19  C   UNL     1      34.173  24.348  12.163  1.00  0.00     0.000 C 
BRANCH  19  20
ATOM     20  C   UNL     1      33.469  24.208  10.798  1.00  0.00     0.000 C 
BRANCH  20  21
ATOM     21  C   UNL     1      32.588  25.419  10.435  1.00  0.00     0.000 C 
BRANCH  21  22
ATOM     22  C   UNL     1      32.576  25.776   8.934  1.00  0.00    -0.000 C 
BRANCH  22  23
ATOM     23  C   UNL     1      32.967  27.240   8.665  1.00  0.00    -0.000 C 
BRANCH  23  24
ATOM     24  C   UNL     1      34.195  27.695   9.477  1.00  0.00    -0.000 C 
BRANCH  24  25
ATOM     25  C   UNL     1      33.942  28.827  10.499  1.00  0.00    -0.000 C 
BRANCH  25  26
ATOM     26  C   UNL     1      32.545  29.469  10.444  1.00  0.00    -0.000 C 
BRANCH  26  27
ATOM     27  C   UNL     1      31.632  29.033  11.604  1.00  0.00    -0.000 C 
BRANCH  27  28
ATOM     28  C   UNL     1      30.154  29.361  11.336  1.00  0.00    -0.000 C 
BRANCH  28  29
ATOM     29  C   UNL     1      29.655  28.799   9.996  1.00  0.00    -0.003 C 
ATOM     30  C   UNL     1      29.444  27.290  10.080  1.00  0.00     0.004 C 
ENDBRANCH  28  29
ENDBRANCH  27  28
ENDBRANCH  26  27
ENDBRANCH  25  26
ENDBRANCH  24  25
ENDBRANCH  23  24
ENDBRANCH  22  23
ENDBRANCH  21  22
ENDBRANCH  20  21
ENDBRANCH  19  20
ENDBRANCH  18  19
ENDBRANCH  17  18
ENDBRANCH   1  17
TORSDOF 26
ENDMDL
MODEL 9
REMARK VINA RESULT:    -2.525      1.558      5.446
REMARK INTER + INTRA:         -12.390
REMARK INTER:                  -7.193
REMARK INTRA:                  -5.197
REMARK UNBOUND:                -6.027
REMARK SMILES CCCCCCCCCCCCCCCCCCCCCCCCCCCC(=O)[O-]
REMARK SMILES IDX 15 1 16 2 17 3 18 4 19 5 20 6 21 7 22 8 23 9 24 10 25 11
REMARK SMILES IDX 26 12 27 13 28 14 29 15 30 16 14 17 13 18 12 19 11 20 10 21
REMARK SMILES IDX 9 22 8 23 7 24 6 25 5 26 4 27 3 28 2 29 1 30
REMARK H PARENT
REMARK Flexibility Score: inf
ROOT
ATOM      1  C   UNL     1      32.514  29.504  10.538  1.00  0.00     0.000 C 
ENDROOT
BRANCH   1   2
ATOM      2  C   UNL     1      33.479  28.364  10.906  1.00  0.00     0.000 C 
BRANCH   2   3
ATOM      3  C   UNL     1      33.196  27.836  12.318  1.00  0.00     0.000 C 
BRANCH   3   4
ATOM      4  C   UNL     1      34.470  27.267  12.962  1.00  0.00     0.000 C 
BRANCH   4   5
ATOM      5  C   UNL     1      34.362  27.154  14.494  1.00  0.00     0.000 C 
BRANCH   5   6
ATOM      6  C   UNL     1      34.033  25.742  15.007  1.00  0.00     0.000 C 
BRANCH   6   7
ATOM      7  C   UNL     1      32.537  25.549  15.305  1.00  0.00     0.000 C 
BRANCH   7   8
ATOM      8  C   UNL     1      32.002  24.282  14.620  1.00  0.00     0.000 C 
BRANCH   8   9
ATOM      9  C   UNL     1      30.485  24.340  14.373  1.00  0.00     0.000 C 
BRANCH   9  10
ATOM     10  C   UNL     1      29.797  25.444  15.194  1.00  0.00     0.000 C 
BRANCH  10  11
ATOM     11  C   UNL     1      28.336  25.096  15.527  1.00  0.00     0.000 C 
BRANCH  11  12
ATOM     12  C   UNL     1      27.409  25.210  14.305  1.00  0.00     0.006 C 
BRANCH  12  13
ATOM     13  C   UNL     1      26.780  26.605  14.227  1.00  0.00     0.053 C 
BRANCH  13  14
ATOM     14  C   UNL     1      25.785  26.692  13.108  1.00  0.00     0.041 C 
ATOM     15  O   UNL     1      25.881  27.608  12.247  1.00  0.00    -0.550 OA
ATOM     16  O   UNL     1      24.698  25.827  13.069  1.00  0.00    -0.550 OA
ENDBRANCH  13  14
ENDBRANCH  12  13
ENDBRANCH  11  12
ENDBRANCH  10  11
ENDBRANCH   9  10
ENDBRANCH   8   9
ENDBRANCH   7   8
ENDBRANCH   6   7
ENDBRANCH   5   6
ENDBRANCH   4   5
ENDBRANCH   3   4
ENDBRANCH   2   3
ENDBRANCH   1   2
BRANCH   1  17
ATOM     17  C   UNL     1      31.527  29.127   9.422  1.00  0.00     0.000 C 
BRANCH  17  18
ATOM     18  C   UNL     1      30.038  29.106   9.828  1.00  0.00     0.000 C 
BRANCH  18  19
ATOM     19  C   UNL     1      29.781  29.258  11.345  1.00  0.00     0.000 C 
BRANCH  19  20
ATOM     20  C   UNL     1      29.420  27.936  12.052  1.00  0.00     0.000 C 
BRANCH  20  21
ATOM     21  C   UNL     1      29.182  26.765  11.079  1.00  0.00     0.000 C 
BRANCH  21  22
ATOM     22  C   UNL     1      30.286  25.687  11.090  1.00  0.00    -0.000 C 
BRANCH  22  23
ATOM     23  C   UNL     1      30.963  25.512   9.720  1.00  0.00    -0.000 C 
BRANCH  23  24
ATOM     24  C   UNL     1      32.139  24.517   9.751  1.00  0.00    -0.000 C 
BRANCH  24  25
ATOM     25  C   UNL     1      32.902  24.421  11.092  1.00  0.00    -0.000 C 
BRANCH  25  26
ATOM     26  C   UNL     1      34.425  24.235  10.976  1.00  0.00    -0.000 C 
BRANCH  26  27
ATOM     27  C   UNL     1      35.055  25.082   9.856  1.00  0.00    -0.000 C 
BRANCH  27  28
ATOM     28  C   UNL     1      36.385  25.720  10.288  1.00  0.00    -0.000 C 
BRANCH  28  29
ATOM     29  C   UNL     1      37.389  24.691  10.830  1.00  0.00    -0.003 C 
ATOM     30  C   UNL     1      37.828  25.048  12.247  1.00  0.00     0.004 C 
ENDBRANCH  28  29
ENDBRANCH  27  28
ENDBRANCH  26  27
ENDBRANCH  25  26
ENDBRANCH  24  25
ENDBRANCH  23  24
ENDBRANCH  22  23
ENDBRANCH  21  22
ENDBRANCH  20  21
ENDBRANCH  19  20
ENDBRANCH  18  19
ENDBRANCH  17  18
ENDBRANCH   1  17
TORSDOF 26
ENDMDL
