MODEL 1
REMARK VINA RESULT:    -7.381      0.000      0.000
REMARK INTER + INTRA:         -11.753
REMARK INTER:                 -10.833
REMARK INTRA:                  -0.919
REMARK UNBOUND:                -0.919
REMARK SMILES O=c1c(O[C@@H]2O[C@@H](CO)[C@@H](O)[C@@H](O)[C@H]2O)c(-c2ccc(O)c(O)c2)oc2cc(O)cc(O)c12
REMARK SMILES IDX 4 1 3 2 16 3 25 4 2 5 26 6 1 7 33 8 27 9 31 10 28 11 30 12
REMARK SMILES IDX 17 13 18 14 19 15 20 16 24 17 22 18 21 19 23 21 32 23 29 25
REMARK SMILES IDX 5 27 14 28 6 29 12 30 7 31 10 32 15 33 13 35 8 37 9 38 11 40
REMARK H PARENT 21 20 23 22 32 24 29 26 15 34 13 36 9 39 11 41
REMARK Flexibility Score: inf
ROOT
ATOM      1  O   UNL     1     -37.700   5.579  80.237  1.00  0.00    -0.454 OA
ENDROOT
BRANCH   1   2
ATOM      2  C   UNL     1     -38.585   6.160  79.284  1.00  0.00     0.214 A 
ATOM      3  C   UNL     1     -39.069   5.445  78.189  1.00  0.00     0.180 A 
ATOM      4  O   UNL     1     -39.402   6.099  77.085  1.00  0.00    -0.452 OA
ATOM      5  C   UNL     1     -38.918   7.510  79.405  1.00  0.00     0.239 A 
ATOM      6  C   UNL     1     -39.585   7.420  77.064  1.00  0.00     0.146 A 
ATOM      7  O   UNL     1     -38.631   8.149  80.475  1.00  0.00    -0.285 OA
ATOM      8  C   UNL     1     -39.481   8.173  78.277  1.00  0.00     0.111 A 
ATOM      9  C   UNL     1     -39.802   8.127  75.888  1.00  0.00     0.094 A 
ATOM     10  C   UNL     1     -40.141   9.412  78.354  1.00  0.00     0.134 A 
ATOM     11  C   UNL     1     -40.347   9.420  75.919  1.00  0.00     0.123 A 
ATOM     12  C   UNL     1     -40.631   9.987  77.172  1.00  0.00     0.093 A 
BRANCH   3  13
ATOM     13  C   UNL     1     -39.610   4.081  78.429  1.00  0.00     0.025 A 
ATOM     14  C   UNL     1     -40.178   3.525  77.272  1.00  0.00     0.016 A 
ATOM     15  C   UNL     1     -41.306   2.720  77.353  1.00  0.00     0.051 A 
ATOM     16  C   UNL     1     -41.990   2.601  78.577  1.00  0.00     0.157 A 
ATOM     17  C   UNL     1     -40.165   3.749  79.688  1.00  0.00     0.062 A 
ATOM     18  C   UNL     1     -41.382   3.081  79.747  1.00  0.00     0.158 A 
BRANCH  16  19
ATOM     19  O   UNL     1     -43.208   1.940  78.655  1.00  0.00    -0.504 OA
ATOM     20  H   UNL     1     -43.287   0.935  78.455  1.00  0.00     0.293 HD
ENDBRANCH  16  19
BRANCH  18  21
ATOM     21  O   UNL     1     -42.127   3.023  80.943  1.00  0.00    -0.504 OA
ATOM     22  H   UNL     1     -42.225   3.875  81.491  1.00  0.00     0.293 HD
ENDBRANCH  18  21
ENDBRANCH   3  13
BRANCH  10  23
ATOM     23  O   UNL     1     -40.250  10.120  79.555  1.00  0.00    -0.507 OA
ATOM     24  H   UNL     1     -39.449  10.572  79.990  1.00  0.00     0.293 HD
ENDBRANCH  10  23
BRANCH  11  25
ATOM     25  O   UNL     1     -40.645  10.100  74.741  1.00  0.00    -0.508 OA
ATOM     26  H   UNL     1     -39.917  10.585  74.210  1.00  0.00     0.293 HD
ENDBRANCH  11  25
ENDBRANCH   1   2
BRANCH   1  27
ATOM     27  C   UNL     1     -36.792   4.557  79.829  1.00  0.00     0.339 C 
ATOM     28  C   UNL     1     -35.503   5.090  79.112  1.00  0.00     0.214 C 
ATOM     29  O   UNL     1     -36.471   3.749  80.945  1.00  0.00    -0.332 OA
ATOM     30  C   UNL     1     -34.445   5.631  80.116  1.00  0.00     0.180 C 
ATOM     31  C   UNL     1     -35.799   4.496  81.958  1.00  0.00     0.179 C 
ATOM     32  C   UNL     1     -34.357   4.869  81.512  1.00  0.00     0.177 C 
BRANCH  28  33
ATOM     33  O   UNL     1     -34.987   4.138  78.192  1.00  0.00    -0.384 OA
ATOM     34  H   UNL     1     -35.329   4.352  77.267  1.00  0.00     0.211 HD
ENDBRANCH  28  33
BRANCH  30  35
ATOM     35  O   UNL     1     -33.239   5.782  79.412  1.00  0.00    -0.387 OA
ATOM     36  H   UNL     1     -32.963   6.743  79.491  1.00  0.00     0.211 HD
ENDBRANCH  30  35
BRANCH  31  37
ATOM     37  C   UNL     1     -35.919   3.819  83.338  1.00  0.00     0.191 C 
BRANCH  37  38
ATOM     38  O   UNL     1     -34.714   3.968  84.058  1.00  0.00    -0.394 OA
ATOM     39  H   UNL     1     -34.038   3.358  83.632  1.00  0.00     0.210 HD
ENDBRANCH  37  38
ENDBRANCH  31  37
BRANCH  32  40
ATOM     40  O   UNL     1     -33.588   3.652  81.482  1.00  0.00    -0.387 OA
ATOM     41  H   UNL     1     -34.151   2.974  80.982  1.00  0.00     0.211 HD
ENDBRANCH  32  40
ENDBRANCH   1  27
TORSDOF 12
ENDMDL
MODEL 2
REMARK VINA RESULT:    -6.855      1.248      2.313
REMARK INTER + INTRA:         -10.980
REMARK INTER:                 -10.359
REMARK INTRA:                  -0.621
REMARK UNBOUND:                -0.919
REMARK SMILES O=c1c(O[C@@H]2O[C@@H](CO)[C@@H](O)[C@@H](O)[C@H]2O)c(-c2ccc(O)c(O)c2)oc2cc(O)cc(O)c12
REMARK SMILES IDX 4 1 3 2 16 3 25 4 2 5 26 6 1 7 33 8 27 9 31 10 28 11 30 12
REMARK SMILES IDX 17 13 18 14 19 15 20 16 24 17 22 18 21 19 23 21 32 23 29 25
REMARK SMILES IDX 5 27 14 28 6 29 12 30 7 31 10 32 15 33 13 35 8 37 9 38 11 40
REMARK H PARENT 21 20 23 22 32 24 29 26 15 34 13 36 9 39 11 41
REMARK Flexibility Score: inf
ROOT
ATOM      1  O   UNL     1     -37.300   5.441  79.987  1.00  0.00    -0.454 OA
ENDROOT
BRANCH   1   2
ATOM      2  C   UNL     1     -38.272   6.050  79.143  1.00  0.00     0.214 A 
ATOM      3  C   UNL     1     -38.935   5.339  78.142  1.00  0.00     0.180 A 
ATOM      4  O   UNL     1     -39.378   5.987  77.074  1.00  0.00    -0.452 OA
ATOM      5  C   UNL     1     -38.516   7.418  79.268  1.00  0.00     0.239 A 
ATOM      6  C   UNL     1     -39.492   7.315  77.039  1.00  0.00     0.146 A 
ATOM      7  O   UNL     1     -38.056   8.064  80.272  1.00  0.00    -0.285 OA
ATOM      8  C   UNL     1     -39.188   8.087  78.205  1.00  0.00     0.111 A 
ATOM      9  C   UNL     1     -39.826   8.007  75.882  1.00  0.00     0.094 A 
ATOM     10  C   UNL     1     -39.767   9.363  78.333  1.00  0.00     0.134 A 
ATOM     11  C   UNL     1     -40.294   9.329  75.946  1.00  0.00     0.123 A 
ATOM     12  C   UNL     1     -40.378   9.938  77.209  1.00  0.00     0.093 A 
BRANCH   3  13
ATOM     13  C   UNL     1     -39.510   4.013  78.491  1.00  0.00     0.025 A 
ATOM     14  C   UNL     1     -40.021   3.345  77.367  1.00  0.00     0.016 A 
ATOM     15  C   UNL     1     -41.164   2.564  77.467  1.00  0.00     0.051 A 
ATOM     16  C   UNL     1     -41.917   2.579  78.656  1.00  0.00     0.157 A 
ATOM     17  C   UNL     1     -40.139   3.819  79.744  1.00  0.00     0.062 A 
ATOM     18  C   UNL     1     -41.367   3.173  79.803  1.00  0.00     0.158 A 
BRANCH  16  19
ATOM     19  O   UNL     1     -43.148   1.942  78.732  1.00  0.00    -0.504 OA
ATOM     20  H   UNL     1     -43.781   1.898  77.924  1.00  0.00     0.293 HD
ENDBRANCH  16  19
BRANCH  18  21
ATOM     21  O   UNL     1     -42.179   3.246  80.954  1.00  0.00    -0.504 OA
ATOM     22  H   UNL     1     -41.943   3.937  81.665  1.00  0.00     0.293 HD
ENDBRANCH  18  21
ENDBRANCH   3  13
BRANCH  10  23
ATOM     23  O   UNL     1     -39.677  10.101  79.517  1.00  0.00    -0.507 OA
ATOM     24  H   UNL     1     -39.588  11.115  79.517  1.00  0.00     0.293 HD
ENDBRANCH  10  23
BRANCH  11  25
ATOM     25  O   UNL     1     -40.711   9.999  74.799  1.00  0.00    -0.508 OA
ATOM     26  H   UNL     1     -40.814  11.017  74.789  1.00  0.00     0.293 HD
ENDBRANCH  11  25
ENDBRANCH   1   2
BRANCH   1  27
ATOM     27  C   UNL     1     -37.298   5.726  81.385  1.00  0.00     0.339 C 
ATOM     28  C   UNL     1     -38.316   4.871  82.216  1.00  0.00     0.214 C 
ATOM     29  O   UNL     1     -35.979   5.596  81.883  1.00  0.00    -0.332 OA
ATOM     30  C   UNL     1     -37.790   3.435  82.507  1.00  0.00     0.180 C 
ATOM     31  C   UNL     1     -35.496   4.260  81.749  1.00  0.00     0.179 C 
ATOM     32  C   UNL     1     -36.220   3.303  82.738  1.00  0.00     0.177 C 
BRANCH  28  33
ATOM     33  O   UNL     1     -38.755   5.566  83.376  1.00  0.00    -0.384 OA
ATOM     34  H   UNL     1     -38.369   5.119  84.195  1.00  0.00     0.211 HD
ENDBRANCH  28  33
BRANCH  30  35
ATOM     35  O   UNL     1     -38.615   2.880  83.500  1.00  0.00    -0.387 OA
ATOM     36  H   UNL     1     -39.390   2.445  83.037  1.00  0.00     0.211 HD
ENDBRANCH  30  35
BRANCH  31  37
ATOM     37  C   UNL     1     -33.956   4.207  81.771  1.00  0.00     0.191 C 
BRANCH  37  38
ATOM     38  O   UNL     1     -33.518   3.190  82.646  1.00  0.00    -0.394 OA
ATOM     39  H   UNL     1     -34.038   3.292  83.500  1.00  0.00     0.210 HD
ENDBRANCH  37  38
ENDBRANCH  31  37
BRANCH  32  40
ATOM     40  O   UNL     1     -35.780   3.646  84.066  1.00  0.00    -0.387 OA
ATOM     41  H   UNL     1     -36.403   4.375  84.391  1.00  0.00     0.211 HD
ENDBRANCH  32  40
ENDBRANCH   1  27
TORSDOF 12
ENDMDL
MODEL 3
REMARK VINA RESULT:    -6.828      1.017      2.338
REMARK INTER + INTRA:         -10.941
REMARK INTER:                 -10.240
REMARK INTRA:                  -0.701
REMARK UNBOUND:                -0.919
REMARK SMILES O=c1c(O[C@@H]2O[C@@H](CO)[C@@H](O)[C@@H](O)[C@H]2O)c(-c2ccc(O)c(O)c2)oc2cc(O)cc(O)c12
REMARK SMILES IDX 4 1 3 2 16 3 25 4 2 5 26 6 1 7 33 8 27 9 31 10 28 11 30 12
REMARK SMILES IDX 17 13 18 14 19 15 20 16 24 17 22 18 21 19 23 21 32 23 29 25
REMARK SMILES IDX 5 27 14 28 6 29 12 30 7 31 10 32 15 33 13 35 8 37 9 38 11 40
REMARK H PARENT 21 20 23 22 32 24 29 26 15 34 13 36 9 39 11 41
REMARK Flexibility Score: inf
ROOT
ATOM      1  O   UNL     1     -37.756   5.677  80.422  1.00  0.00    -0.454 OA
ENDROOT
BRANCH   1   2
ATOM      2  C   UNL     1     -38.624   6.220  79.432  1.00  0.00     0.214 A 
ATOM      3  C   UNL     1     -39.024   5.488  78.313  1.00  0.00     0.180 A 
ATOM      4  O   UNL     1     -39.338   6.131  77.197  1.00  0.00    -0.452 OA
ATOM      5  C   UNL     1     -39.027   7.551  79.541  1.00  0.00     0.239 A 
ATOM      6  C   UNL     1     -39.583   7.441  77.172  1.00  0.00     0.146 A 
ATOM      7  O   UNL     1     -38.820   8.199  80.624  1.00  0.00    -0.285 OA
ATOM      8  C   UNL     1     -39.569   8.192  78.390  1.00  0.00     0.111 A 
ATOM      9  C   UNL     1     -39.780   8.143  75.990  1.00  0.00     0.094 A 
ATOM     10  C   UNL     1     -40.292   9.398  78.441  1.00  0.00     0.134 A 
ATOM     11  C   UNL     1     -40.387   9.408  75.999  1.00  0.00     0.123 A 
ATOM     12  C   UNL     1     -40.754   9.955  77.239  1.00  0.00     0.093 A 
BRANCH   3  13
ATOM     13  C   UNL     1     -39.509   4.098  78.525  1.00  0.00     0.025 A 
ATOM     14  C   UNL     1     -40.028   3.534  77.349  1.00  0.00     0.016 A 
ATOM     15  C   UNL     1     -41.121   2.680  77.398  1.00  0.00     0.051 A 
ATOM     16  C   UNL     1     -41.823   2.513  78.606  1.00  0.00     0.157 A 
ATOM     17  C   UNL     1     -40.073   3.725  79.768  1.00  0.00     0.062 A 
ATOM     18  C   UNL     1     -41.260   3.004  79.794  1.00  0.00     0.158 A 
BRANCH  16  19
ATOM     19  O   UNL     1     -43.012   1.799  78.651  1.00  0.00    -0.504 OA
ATOM     20  H   UNL     1     -43.886   2.230  78.978  1.00  0.00     0.293 HD
ENDBRANCH  16  19
BRANCH  18  21
ATOM     21  O   UNL     1     -42.025   2.896  80.974  1.00  0.00    -0.504 OA
ATOM     22  H   UNL     1     -43.011   3.149  80.932  1.00  0.00     0.293 HD
ENDBRANCH  18  21
ENDBRANCH   3  13
BRANCH  10  23
ATOM     23  O   UNL     1     -40.488  10.094  79.638  1.00  0.00    -0.507 OA
ATOM     24  H   UNL     1     -40.198   9.716  80.537  1.00  0.00     0.293 HD
ENDBRANCH  10  23
BRANCH  11  25
ATOM     25  O   UNL     1     -40.665  10.079  74.811  1.00  0.00    -0.508 OA
ATOM     26  H   UNL     1     -41.396  10.793  74.765  1.00  0.00     0.293 HD
ENDBRANCH  11  25
ENDBRANCH   1   2
BRANCH   1  27
ATOM     27  C   UNL     1     -36.534   6.342  80.733  1.00  0.00     0.339 C 
ATOM     28  C   UNL     1     -35.579   5.526  81.673  1.00  0.00     0.214 C 
ATOM     29  O   UNL     1     -35.888   6.715  79.530  1.00  0.00    -0.332 OA
ATOM     30  C   UNL     1     -34.787   4.427  80.906  1.00  0.00     0.180 C 
ATOM     31  C   UNL     1     -35.532   5.573  78.751  1.00  0.00     0.179 C 
ATOM     32  C   UNL     1     -34.366   4.787  79.413  1.00  0.00     0.177 C 
BRANCH  28  33
ATOM     33  O   UNL     1     -34.759   6.384  82.454  1.00  0.00    -0.384 OA
ATOM     34  H   UNL     1     -34.365   5.858  83.220  1.00  0.00     0.211 HD
ENDBRANCH  28  33
BRANCH  30  35
ATOM     35  O   UNL     1     -33.758   3.985  81.755  1.00  0.00    -0.387 OA
ATOM     36  H   UNL     1     -33.485   3.072  81.444  1.00  0.00     0.211 HD
ENDBRANCH  30  35
BRANCH  31  37
ATOM     37  C   UNL     1     -35.336   5.938  77.266  1.00  0.00     0.191 C 
BRANCH  37  38
ATOM     38  O   UNL     1     -34.414   7.000  77.145  1.00  0.00    -0.394 OA
ATOM     39  H   UNL     1     -33.969   7.108  78.039  1.00  0.00     0.210 HD
ENDBRANCH  37  38
ENDBRANCH  31  37
BRANCH  32  40
ATOM     40  O   UNL     1     -33.182   5.601  79.305  1.00  0.00    -0.387 OA
ATOM     41  H   UNL     1     -33.455   6.536  79.585  1.00  0.00     0.211 HD
ENDBRANCH  32  40
ENDBRANCH   1  27
TORSDOF 12
ENDMDL
MODEL 4
REMARK VINA RESULT:    -6.664      2.516      6.568
REMARK INTER + INTRA:         -10.699
REMARK INTER:                  -9.732
REMARK INTRA:                  -0.967
REMARK UNBOUND:                -0.919
REMARK SMILES O=c1c(O[C@@H]2O[C@@H](CO)[C@@H](O)[C@@H](O)[C@H]2O)c(-c2ccc(O)c(O)c2)oc2cc(O)cc(O)c12
REMARK SMILES IDX 4 1 3 2 16 3 25 4 2 5 26 6 1 7 33 8 27 9 31 10 28 11 30 12
REMARK SMILES IDX 17 13 18 14 19 15 20 16 24 17 22 18 21 19 23 21 32 23 29 25
REMARK SMILES IDX 5 27 14 28 6 29 12 30 7 31 10 32 15 33 13 35 8 37 9 38 11 40
REMARK H PARENT 21 20 23 22 32 24 29 26 15 34 13 36 9 39 11 41
REMARK Flexibility Score: inf
ROOT
ATOM      1  O   UNL     1     -37.655   5.830  80.350  1.00  0.00    -0.454 OA
ENDROOT
BRANCH   1   2
ATOM      2  C   UNL     1     -36.367   6.265  80.775  1.00  0.00     0.214 A 
ATOM      3  C   UNL     1     -36.057   6.462  82.121  1.00  0.00     0.180 A 
ATOM      4  O   UNL     1     -35.122   7.343  82.448  1.00  0.00    -0.452 OA
ATOM      5  C   UNL     1     -35.407   6.580  79.813  1.00  0.00     0.239 A 
ATOM      6  C   UNL     1     -34.256   7.830  81.559  1.00  0.00     0.146 A 
ATOM      7  O   UNL     1     -35.594   6.260  78.589  1.00  0.00    -0.285 OA
ATOM      8  C   UNL     1     -34.279   7.355  80.209  1.00  0.00     0.111 A 
ATOM      9  C   UNL     1     -33.364   8.849  81.864  1.00  0.00     0.094 A 
ATOM     10  C   UNL     1     -33.107   7.471  79.439  1.00  0.00     0.134 A 
ATOM     11  C   UNL     1     -32.241   9.086  81.056  1.00  0.00     0.123 A 
ATOM     12  C   UNL     1     -32.070   8.287  79.914  1.00  0.00     0.093 A 
BRANCH   3  13
ATOM     13  C   UNL     1     -36.439   5.399  83.088  1.00  0.00     0.025 A 
ATOM     14  C   UNL     1     -35.616   4.266  82.981  1.00  0.00     0.016 A 
ATOM     15  C   UNL     1     -36.139   2.993  83.160  1.00  0.00     0.051 A 
ATOM     16  C   UNL     1     -37.530   2.820  83.277  1.00  0.00     0.157 A 
ATOM     17  C   UNL     1     -37.795   5.225  83.452  1.00  0.00     0.062 A 
ATOM     18  C   UNL     1     -38.343   3.948  83.470  1.00  0.00     0.158 A 
BRANCH  16  19
ATOM     19  O   UNL     1     -38.096   1.553  83.292  1.00  0.00    -0.504 OA
ATOM     20  H   UNL     1     -37.766   0.825  83.938  1.00  0.00     0.293 HD
ENDBRANCH  16  19
BRANCH  18  21
ATOM     21  O   UNL     1     -39.740   3.751  83.499  1.00  0.00    -0.504 OA
ATOM     22  H   UNL     1     -40.328   4.526  83.800  1.00  0.00     0.293 HD
ENDBRANCH  18  21
ENDBRANCH   3  13
BRANCH  10  23
ATOM     23  O   UNL     1     -32.984   6.867  78.184  1.00  0.00    -0.507 OA
ATOM     24  H   UNL     1     -32.085   6.560  77.818  1.00  0.00     0.293 HD
ENDBRANCH  10  23
BRANCH  11  25
ATOM     25  O   UNL     1     -31.298  10.050  81.403  1.00  0.00    -0.508 OA
ATOM     26  H   UNL     1     -31.577  11.012  81.614  1.00  0.00     0.293 HD
ENDBRANCH  11  25
ENDBRANCH   1   2
BRANCH   1  27
ATOM     27  C   UNL     1     -37.802   4.554  79.731  1.00  0.00     0.339 C 
ATOM     28  C   UNL     1     -39.000   3.706  80.285  1.00  0.00     0.214 C 
ATOM     29  O   UNL     1     -37.889   4.725  78.329  1.00  0.00    -0.332 OA
ATOM     30  C   UNL     1     -40.369   4.152  79.694  1.00  0.00     0.180 C 
ATOM     31  C   UNL     1     -39.044   5.479  77.962  1.00  0.00     0.179 C 
ATOM     32  C   UNL     1     -40.343   4.655  78.183  1.00  0.00     0.177 C 
BRANCH  28  33
ATOM     33  O   UNL     1     -38.750   2.312  80.165  1.00  0.00    -0.384 OA
ATOM     34  H   UNL     1     -39.468   1.895  79.589  1.00  0.00     0.211 HD
ENDBRANCH  28  33
BRANCH  30  35
ATOM     35  O   UNL     1     -41.304   3.149  80.001  1.00  0.00    -0.387 OA
ATOM     36  H   UNL     1     -41.688   3.362  80.902  1.00  0.00     0.211 HD
ENDBRANCH  30  35
BRANCH  31  37
ATOM     37  C   UNL     1     -38.885   6.121  76.570  1.00  0.00     0.191 C 
BRANCH  37  38
ATOM     38  O   UNL     1     -37.793   7.016  76.570  1.00  0.00    -0.394 OA
ATOM     39  H   UNL     1     -37.938   7.660  75.813  1.00  0.00     0.210 HD
ENDBRANCH  37  38
ENDBRANCH  31  37
BRANCH  32  40
ATOM     40  O   UNL     1     -40.354   3.600  77.201  1.00  0.00    -0.387 OA
ATOM     41  H   UNL     1     -41.189   3.741  76.644  1.00  0.00     0.211 HD
ENDBRANCH  32  40
ENDBRANCH   1  27
TORSDOF 12
ENDMDL
MODEL 5
REMARK VINA RESULT:    -6.646      1.981      5.582
REMARK INTER + INTRA:         -10.673
REMARK INTER:                  -9.720
REMARK INTRA:                  -0.953
REMARK UNBOUND:                -0.919
REMARK SMILES O=c1c(O[C@@H]2O[C@@H](CO)[C@@H](O)[C@@H](O)[C@H]2O)c(-c2ccc(O)c(O)c2)oc2cc(O)cc(O)c12
REMARK SMILES IDX 4 1 3 2 16 3 25 4 2 5 26 6 1 7 33 8 27 9 31 10 28 11 30 12
REMARK SMILES IDX 17 13 18 14 19 15 20 16 24 17 22 18 21 19 23 21 32 23 29 25
REMARK SMILES IDX 5 27 14 28 6 29 12 30 7 31 10 32 15 33 13 35 8 37 9 38 11 40
REMARK H PARENT 21 20 23 22 32 24 29 26 15 34 13 36 9 39 11 41
REMARK Flexibility Score: inf
ROOT
ATOM      1  O   UNL     1     -37.016   6.070  80.129  1.00  0.00    -0.454 OA
ENDROOT
BRANCH   1   2
ATOM      2  C   UNL     1     -38.088   5.576  79.333  1.00  0.00     0.214 A 
ATOM      3  C   UNL     1     -39.206   6.353  79.030  1.00  0.00     0.180 A 
ATOM      4  O   UNL     1     -40.366   5.756  78.794  1.00  0.00    -0.452 OA
ATOM      5  C   UNL     1     -38.059   4.248  78.906  1.00  0.00     0.239 A 
ATOM      6  C   UNL     1     -40.458   4.451  78.536  1.00  0.00     0.146 A 
ATOM      7  O   UNL     1     -36.988   3.559  79.021  1.00  0.00    -0.285 OA
ATOM      8  C   UNL     1     -39.271   3.657  78.446  1.00  0.00     0.111 A 
ATOM      9  C   UNL     1     -41.677   3.795  78.421  1.00  0.00     0.094 A 
ATOM     10  C   UNL     1     -39.320   2.461  77.706  1.00  0.00     0.134 A 
ATOM     11  C   UNL     1     -41.761   2.540  77.799  1.00  0.00     0.123 A 
ATOM     12  C   UNL     1     -40.573   1.955  77.331  1.00  0.00     0.093 A 
BRANCH   3  13
ATOM     13  C   UNL     1     -38.981   7.742  78.548  1.00  0.00     0.025 A 
ATOM     14  C   UNL     1     -39.969   8.153  77.638  1.00  0.00     0.016 A 
ATOM     15  C   UNL     1     -39.645   8.972  76.565  1.00  0.00     0.051 A 
ATOM     16  C   UNL     1     -38.295   9.251  76.283  1.00  0.00     0.157 A 
ATOM     17  C   UNL     1     -37.664   8.235  78.393  1.00  0.00     0.062 A 
ATOM     18  C   UNL     1     -37.317   8.916  77.233  1.00  0.00     0.158 A 
BRANCH  16  19
ATOM     19  O   UNL     1     -37.930   9.928  75.128  1.00  0.00    -0.504 OA
ATOM     20  H   UNL     1     -38.633  10.300  74.478  1.00  0.00     0.293 HD
ENDBRANCH  16  19
BRANCH  18  21
ATOM     21  O   UNL     1     -35.967   9.132  76.887  1.00  0.00    -0.504 OA
ATOM     22  H   UNL     1     -35.714  10.028  76.476  1.00  0.00     0.293 HD
ENDBRANCH  18  21
ENDBRANCH   3  13
BRANCH  10  23
ATOM     23  O   UNL     1     -38.167   1.727  77.410  1.00  0.00    -0.507 OA
ATOM     24  H   UNL     1     -37.326   1.786  77.980  1.00  0.00     0.293 HD
ENDBRANCH  10  23
BRANCH  11  25
ATOM     25  O   UNL     1     -42.990   1.916  77.605  1.00  0.00    -0.508 OA
ATOM     26  H   UNL     1     -43.809   2.445  77.293  1.00  0.00     0.293 HD
ENDBRANCH  11  25
ENDBRANCH   1   2
BRANCH   1  27
ATOM     27  C   UNL     1     -37.180   6.194  81.540  1.00  0.00     0.339 C 
ATOM     28  C   UNL     1     -38.299   5.272  82.140  1.00  0.00     0.214 C 
ATOM     29  O   UNL     1     -35.933   5.979  82.174  1.00  0.00    -0.332 OA
ATOM     30  C   UNL     1     -37.823   3.802  82.323  1.00  0.00     0.180 C 
ATOM     31  C   UNL     1     -35.448   4.657  81.945  1.00  0.00     0.179 C 
ATOM     32  C   UNL     1     -36.294   3.610  82.723  1.00  0.00     0.177 C 
BRANCH  28  33
ATOM     33  O   UNL     1     -38.869   5.840  83.312  1.00  0.00    -0.384 OA
ATOM     34  H   UNL     1     -39.563   6.523  83.044  1.00  0.00     0.211 HD
ENDBRANCH  28  33
BRANCH  30  35
ATOM     35  O   UNL     1     -38.767   3.156  83.140  1.00  0.00    -0.387 OA
ATOM     36  H   UNL     1     -38.273   2.480  83.692  1.00  0.00     0.211 HD
ENDBRANCH  30  35
BRANCH  31  37
ATOM     37  C   UNL     1     -33.922   4.568  82.144  1.00  0.00     0.191 C 
BRANCH  37  38
ATOM     38  O   UNL     1     -33.574   3.303  82.665  1.00  0.00    -0.394 OA
ATOM     39  H   UNL     1     -32.891   2.905  82.045  1.00  0.00     0.210 HD
ENDBRANCH  37  38
ENDBRANCH  31  37
BRANCH  32  40
ATOM     40  O   UNL     1     -36.015   3.789  84.125  1.00  0.00    -0.387 OA
ATOM     41  H   UNL     1     -36.787   4.327  84.501  1.00  0.00     0.211 HD
ENDBRANCH  32  40
ENDBRANCH   1  27
TORSDOF 12
ENDMDL
MODEL 6
REMARK VINA RESULT:    -6.387      2.204      5.693
REMARK INTER + INTRA:         -10.293
REMARK INTER:                  -8.756
REMARK INTRA:                  -1.537
REMARK UNBOUND:                -0.919
REMARK SMILES O=c1c(O[C@@H]2O[C@@H](CO)[C@@H](O)[C@@H](O)[C@H]2O)c(-c2ccc(O)c(O)c2)oc2cc(O)cc(O)c12
REMARK SMILES IDX 4 1 3 2 16 3 25 4 2 5 26 6 1 7 33 8 27 9 31 10 28 11 30 12
REMARK SMILES IDX 17 13 18 14 19 15 20 16 24 17 22 18 21 19 23 21 32 23 29 25
REMARK SMILES IDX 5 27 14 28 6 29 12 30 7 31 10 32 15 33 13 35 8 37 9 38 11 40
REMARK H PARENT 21 20 23 22 32 24 29 26 15 34 13 36 9 39 11 41
REMARK Flexibility Score: inf
ROOT
ATOM      1  O   UNL     1     -36.677   5.874  80.051  1.00  0.00    -0.454 OA
ENDROOT
BRANCH   1   2
ATOM      2  C   UNL     1     -37.803   5.451  79.290  1.00  0.00     0.214 A 
ATOM      3  C   UNL     1     -38.877   6.299  79.018  1.00  0.00     0.180 A 
ATOM      4  O   UNL     1     -40.080   5.778  78.821  1.00  0.00    -0.452 OA
ATOM      5  C   UNL     1     -37.874   4.123  78.867  1.00  0.00     0.239 A 
ATOM      6  C   UNL     1     -40.266   4.482  78.569  1.00  0.00     0.146 A 
ATOM      7  O   UNL     1     -36.847   3.365  78.951  1.00  0.00    -0.285 OA
ATOM      8  C   UNL     1     -39.136   3.612  78.446  1.00  0.00     0.111 A 
ATOM      9  C   UNL     1     -41.527   3.908  78.494  1.00  0.00     0.094 A 
ATOM     10  C   UNL     1     -39.286   2.421  77.712  1.00  0.00     0.134 A 
ATOM     11  C   UNL     1     -41.712   2.660  77.879  1.00  0.00     0.123 A 
ATOM     12  C   UNL     1     -40.580   1.997  77.376  1.00  0.00     0.093 A 
BRANCH   3  13
ATOM     13  C   UNL     1     -38.576   7.669  78.525  1.00  0.00     0.025 A 
ATOM     14  C   UNL     1     -38.274   7.684  77.154  1.00  0.00     0.016 A 
ATOM     15  C   UNL     1     -37.316   8.552  76.650  1.00  0.00     0.051 A 
ATOM     16  C   UNL     1     -36.517   9.300  77.535  1.00  0.00     0.157 A 
ATOM     17  C   UNL     1     -37.939   8.605  79.374  1.00  0.00     0.062 A 
ATOM     18  C   UNL     1     -36.871   9.353  78.892  1.00  0.00     0.158 A 
BRANCH  16  19
ATOM     19  O   UNL     1     -35.445  10.050  77.073  1.00  0.00    -0.504 OA
ATOM     20  H   UNL     1     -34.665   9.615  76.565  1.00  0.00     0.293 HD
ENDBRANCH  16  19
BRANCH  18  21
ATOM     21  O   UNL     1     -36.005  10.040  79.768  1.00  0.00    -0.504 OA
ATOM     22  H   UNL     1     -35.875  11.040  79.628  1.00  0.00     0.293 HD
ENDBRANCH  18  21
ENDBRANCH   3  13
BRANCH  10  23
ATOM     23  O   UNL     1     -38.194   1.612  77.383  1.00  0.00    -0.507 OA
ATOM     24  H   UNL     1     -38.298   0.621  77.177  1.00  0.00     0.293 HD
ENDBRANCH  10  23
BRANCH  11  25
ATOM     25  O   UNL     1     -42.986   2.118  77.725  1.00  0.00    -0.508 OA
ATOM     26  H   UNL     1     -43.428   1.582  78.477  1.00  0.00     0.293 HD
ENDBRANCH  11  25
ENDBRANCH   1   2
BRANCH   1  27
ATOM     27  C   UNL     1     -36.786   5.999  81.468  1.00  0.00     0.339 C 
ATOM     28  C   UNL     1     -36.764   4.632  82.237  1.00  0.00     0.214 C 
ATOM     29  O   UNL     1     -35.780   6.877  81.935  1.00  0.00    -0.332 OA
ATOM     30  C   UNL     1     -35.324   4.063  82.397  1.00  0.00     0.180 C 
ATOM     31  C   UNL     1     -34.473   6.361  81.682  1.00  0.00     0.179 C 
ATOM     32  C   UNL     1     -34.168   5.140  82.595  1.00  0.00     0.177 C 
BRANCH  28  33
ATOM     33  O   UNL     1     -37.488   4.710  83.457  1.00  0.00    -0.384 OA
ATOM     34  H   UNL     1     -36.896   4.401  84.214  1.00  0.00     0.211 HD
ENDBRANCH  28  33
BRANCH  30  35
ATOM     35  O   UNL     1     -35.385   3.033  83.350  1.00  0.00    -0.387 OA
ATOM     36  H   UNL     1     -34.960   3.375  84.191  1.00  0.00     0.211 HD
ENDBRANCH  30  35
BRANCH  31  37
ATOM     37  C   UNL     1     -33.411   7.478  81.679  1.00  0.00     0.191 C 
BRANCH  37  38
ATOM     38  O   UNL     1     -33.706   8.424  80.673  1.00  0.00    -0.394 OA
ATOM     39  H   UNL     1     -33.077   8.250  79.910  1.00  0.00     0.210 HD
ENDBRANCH  37  38
ENDBRANCH  31  37
BRANCH  32  40
ATOM     40  O   UNL     1     -34.035   5.635  83.942  1.00  0.00    -0.387 OA
ATOM     41  H   UNL     1     -33.045   5.614  84.154  1.00  0.00     0.211 HD
ENDBRANCH  32  40
ENDBRANCH   1  27
TORSDOF 12
ENDMDL
MODEL 7
REMARK VINA RESULT:    -6.305      2.954      6.291
REMARK INTER + INTRA:         -10.173
REMARK INTER:                  -8.815
REMARK INTRA:                  -1.357
REMARK UNBOUND:                -0.919
REMARK SMILES O=c1c(O[C@@H]2O[C@@H](CO)[C@@H](O)[C@@H](O)[C@H]2O)c(-c2ccc(O)c(O)c2)oc2cc(O)cc(O)c12
REMARK SMILES IDX 4 1 3 2 16 3 25 4 2 5 26 6 1 7 33 8 27 9 31 10 28 11 30 12
REMARK SMILES IDX 17 13 18 14 19 15 20 16 24 17 22 18 21 19 23 21 32 23 29 25
REMARK SMILES IDX 5 27 14 28 6 29 12 30 7 31 10 32 15 33 13 35 8 37 9 38 11 40
REMARK H PARENT 21 20 23 22 32 24 29 26 15 34 13 36 9 39 11 41
REMARK Flexibility Score: inf
ROOT
ATOM      1  O   UNL     1     -36.947   6.304  80.382  1.00  0.00    -0.454 OA
ENDROOT
BRANCH   1   2
ATOM      2  C   UNL     1     -35.816   7.136  80.144  1.00  0.00     0.214 A 
ATOM      3  C   UNL     1     -35.159   7.162  78.914  1.00  0.00     0.180 A 
ATOM      4  O   UNL     1     -33.872   7.475  78.873  1.00  0.00    -0.452 OA
ATOM      5  C   UNL     1     -35.298   7.892  81.197  1.00  0.00     0.239 A 
ATOM      6  C   UNL     1     -33.244   8.055  79.897  1.00  0.00     0.146 A 
ATOM      7  O   UNL     1     -35.961   8.021  82.282  1.00  0.00    -0.285 OA
ATOM      8  C   UNL     1     -33.980   8.416  81.070  1.00  0.00     0.111 A 
ATOM      9  C   UNL     1     -31.871   8.262  79.912  1.00  0.00     0.094 A 
ATOM     10  C   UNL     1     -33.466   9.435  81.894  1.00  0.00     0.134 A 
ATOM     11  C   UNL     1     -31.294   9.181  80.803  1.00  0.00     0.123 A 
ATOM     12  C   UNL     1     -32.142   9.854  81.698  1.00  0.00     0.093 A 
BRANCH   3  13
ATOM     13  C   UNL     1     -35.987   7.282  77.684  1.00  0.00     0.025 A 
ATOM     14  C   UNL     1     -36.347   8.613  77.417  1.00  0.00     0.016 A 
ATOM     15  C   UNL     1     -37.591   8.914  76.878  1.00  0.00     0.051 A 
ATOM     16  C   UNL     1     -38.563   7.904  76.760  1.00  0.00     0.157 A 
ATOM     17  C   UNL     1     -36.884   6.247  77.328  1.00  0.00     0.062 A 
ATOM     18  C   UNL     1     -38.181   6.565  76.944  1.00  0.00     0.158 A 
BRANCH  16  19
ATOM     19  O   UNL     1     -39.864   8.202  76.381  1.00  0.00    -0.504 OA
ATOM     20  H   UNL     1     -40.071   8.651  75.480  1.00  0.00     0.293 HD
ENDBRANCH  16  19
BRANCH  18  21
ATOM     21  O   UNL     1     -39.193   5.584  76.903  1.00  0.00    -0.504 OA
ATOM     22  H   UNL     1     -40.157   5.893  76.794  1.00  0.00     0.293 HD
ENDBRANCH  18  21
ENDBRANCH   3  13
BRANCH  10  23
ATOM     23  O   UNL     1     -34.207   9.978  82.948  1.00  0.00    -0.507 OA
ATOM     24  H   UNL     1     -34.255  10.981  83.115  1.00  0.00     0.293 HD
ENDBRANCH  10  23
BRANCH  11  25
ATOM     25  O   UNL     1     -29.930   9.456  80.765  1.00  0.00    -0.508 OA
ATOM     26  H   UNL     1     -29.413   9.452  79.882  1.00  0.00     0.293 HD
ENDBRANCH  11  25
ENDBRANCH   1   2
BRANCH   1  27
ATOM     27  C   UNL     1     -36.827   5.176  81.247  1.00  0.00     0.339 C 
ATOM     28  C   UNL     1     -37.897   5.129  82.393  1.00  0.00     0.214 C 
ATOM     29  O   UNL     1     -36.842   3.993  80.471  1.00  0.00    -0.332 OA
ATOM     30  C   UNL     1     -39.276   4.605  81.899  1.00  0.00     0.180 C 
ATOM     31  C   UNL     1     -38.081   3.833  79.780  1.00  0.00     0.179 C 
ATOM     32  C   UNL     1     -39.230   3.486  80.767  1.00  0.00     0.177 C 
BRANCH  28  33
ATOM     33  O   UNL     1     -37.402   4.449  83.539  1.00  0.00    -0.384 OA
ATOM     34  H   UNL     1     -38.122   3.839  83.898  1.00  0.00     0.211 HD
ENDBRANCH  28  33
BRANCH  30  35
ATOM     35  O   UNL     1     -40.043   4.308  83.038  1.00  0.00    -0.387 OA
ATOM     36  H   UNL     1     -39.435   3.873  83.705  1.00  0.00     0.211 HD
ENDBRANCH  30  35
BRANCH  31  37
ATOM     37  C   UNL     1     -37.936   2.899  78.563  1.00  0.00     0.191 C 
BRANCH  37  38
ATOM     38  O   UNL     1     -39.100   2.112  78.415  1.00  0.00    -0.394 OA
ATOM     39  H   UNL     1     -39.708   2.338  79.182  1.00  0.00     0.210 HD
ENDBRANCH  37  38
ENDBRANCH  31  37
BRANCH  32  40
ATOM     40  O   UNL     1     -38.989   2.152  81.254  1.00  0.00    -0.387 OA
ATOM     41  H   UNL     1     -37.987   2.010  81.206  1.00  0.00     0.211 HD
ENDBRANCH  32  40
ENDBRANCH   1  27
TORSDOF 12
ENDMDL
MODEL 8
REMARK VINA RESULT:    -6.202      2.327      6.343
REMARK INTER + INTRA:         -10.022
REMARK INTER:                  -9.329
REMARK INTRA:                  -0.694
REMARK UNBOUND:                -0.919
REMARK SMILES O=c1c(O[C@@H]2O[C@@H](CO)[C@@H](O)[C@@H](O)[C@H]2O)c(-c2ccc(O)c(O)c2)oc2cc(O)cc(O)c12
REMARK SMILES IDX 4 1 3 2 16 3 25 4 2 5 26 6 1 7 33 8 27 9 31 10 28 11 30 12
REMARK SMILES IDX 17 13 18 14 19 15 20 16 24 17 22 18 21 19 23 21 32 23 29 25
REMARK SMILES IDX 5 27 14 28 6 29 12 30 7 31 10 32 15 33 13 35 8 37 9 38 11 40
REMARK H PARENT 21 20 23 22 32 24 29 26 15 34 13 36 9 39 11 41
REMARK Flexibility Score: inf
ROOT
ATOM      1  O   UNL     1     -36.490   4.202  79.477  1.00  0.00    -0.454 OA
ENDROOT
BRANCH   1   2
ATOM      2  C   UNL     1     -35.895   5.478  79.688  1.00  0.00     0.214 A 
ATOM      3  C   UNL     1     -36.025   6.519  78.768  1.00  0.00     0.180 A 
ATOM      4  O   UNL     1     -35.076   7.441  78.694  1.00  0.00    -0.452 OA
ATOM      5  C   UNL     1     -35.091   5.674  80.812  1.00  0.00     0.239 A 
ATOM      6  C   UNL     1     -34.156   7.599  79.647  1.00  0.00     0.146 A 
ATOM      7  O   UNL     1     -35.080   4.808  81.753  1.00  0.00    -0.285 OA
ATOM      8  C   UNL     1     -34.212   6.794  80.830  1.00  0.00     0.111 A 
ATOM      9  C   UNL     1     -33.083   8.469  79.514  1.00  0.00     0.094 A 
ATOM     10  C   UNL     1     -33.596   7.279  81.998  1.00  0.00     0.134 A 
ATOM     11  C   UNL     1     -32.355   8.888  80.639  1.00  0.00     0.123 A 
ATOM     12  C   UNL     1     -32.724   8.373  81.893  1.00  0.00     0.093 A 
BRANCH   3  13
ATOM     13  C   UNL     1     -37.382   6.814  78.236  1.00  0.00     0.025 A 
ATOM     14  C   UNL     1     -37.629   6.154  77.021  1.00  0.00     0.016 A 
ATOM     15  C   UNL     1     -38.378   6.764  76.024  1.00  0.00     0.051 A 
ATOM     16  C   UNL     1     -38.747   8.116  76.157  1.00  0.00     0.157 A 
ATOM     17  C   UNL     1     -37.971   8.082  78.455  1.00  0.00     0.062 A 
ATOM     18  C   UNL     1     -38.578   8.749  77.399  1.00  0.00     0.158 A 
BRANCH  16  19
ATOM     19  O   UNL     1     -39.352   8.799  75.112  1.00  0.00    -0.504 OA
ATOM     20  H   UNL     1     -39.545   8.342  74.212  1.00  0.00     0.293 HD
ENDBRANCH  16  19
BRANCH  18  21
ATOM     21  O   UNL     1     -38.878  10.125  77.477  1.00  0.00    -0.504 OA
ATOM     22  H   UNL     1     -38.140  10.762  77.769  1.00  0.00     0.293 HD
ENDBRANCH  18  21
ENDBRANCH   3  13
BRANCH  10  23
ATOM     23  O   UNL     1     -33.763   6.654  83.237  1.00  0.00    -0.507 OA
ATOM     24  H   UNL     1     -34.316   5.806  83.345  1.00  0.00     0.293 HD
ENDBRANCH  10  23
BRANCH  11  25
ATOM     25  O   UNL     1     -31.333   9.826  80.523  1.00  0.00    -0.508 OA
ATOM     26  H   UNL     1     -31.343  10.532  79.783  1.00  0.00     0.293 HD
ENDBRANCH  11  25
ENDBRANCH   1   2
BRANCH   1  27
ATOM     27  C   UNL     1     -37.500   3.736  80.370  1.00  0.00     0.339 C 
ATOM     28  C   UNL     1     -38.490   4.850  80.858  1.00  0.00     0.214 C 
ATOM     29  O   UNL     1     -38.187   2.654  79.769  1.00  0.00    -0.332 OA
ATOM     30  C   UNL     1     -39.579   5.184  79.798  1.00  0.00     0.180 C 
ATOM     31  C   UNL     1     -38.864   3.058  78.579  1.00  0.00     0.179 C 
ATOM     32  C   UNL     1     -40.085   3.962  78.911  1.00  0.00     0.177 C 
BRANCH  28  33
ATOM     33  O   UNL     1     -39.015   4.552  82.145  1.00  0.00    -0.384 OA
ATOM     34  H   UNL     1     -39.987   4.294  82.054  1.00  0.00     0.211 HD
ENDBRANCH  28  33
BRANCH  30  35
ATOM     35  O   UNL     1     -40.573   5.939  80.442  1.00  0.00    -0.387 OA
ATOM     36  H   UNL     1     -40.189   6.847  80.627  1.00  0.00     0.211 HD
ENDBRANCH  30  35
BRANCH  31  37
ATOM     37  C   UNL     1     -39.149   1.860  77.652  1.00  0.00     0.191 C 
BRANCH  37  38
ATOM     38  O   UNL     1     -37.944   1.200  77.330  1.00  0.00    -0.394 OA
ATOM     39  H   UNL     1     -38.181   0.254  77.086  1.00  0.00     0.210 HD
ENDBRANCH  37  38
ENDBRANCH  31  37
BRANCH  32  40
ATOM     40  O   UNL     1     -41.075   3.130  79.546  1.00  0.00    -0.387 OA
ATOM     41  H   UNL     1     -41.010   2.223  79.100  1.00  0.00     0.211 HD
ENDBRANCH  32  40
ENDBRANCH   1  27
TORSDOF 12
ENDMDL
MODEL 9
REMARK VINA RESULT:    -6.168      2.757      7.359
REMARK INTER + INTRA:          -9.972
REMARK INTER:                  -7.925
REMARK INTRA:                  -2.048
REMARK UNBOUND:                -0.919
REMARK SMILES O=c1c(O[C@@H]2O[C@@H](CO)[C@@H](O)[C@@H](O)[C@H]2O)c(-c2ccc(O)c(O)c2)oc2cc(O)cc(O)c12
REMARK SMILES IDX 4 1 3 2 16 3 25 4 2 5 26 6 1 7 33 8 27 9 31 10 28 11 30 12
REMARK SMILES IDX 17 13 18 14 19 15 20 16 24 17 22 18 21 19 23 21 32 23 29 25
REMARK SMILES IDX 5 27 14 28 6 29 12 30 7 31 10 32 15 33 13 35 8 37 9 38 11 40
REMARK H PARENT 21 20 23 22 32 24 29 26 15 34 13 36 9 39 11 41
REMARK Flexibility Score: inf
ROOT
ATOM      1  O   UNL     1     -37.262   7.193  79.664  1.00  0.00    -0.454 OA
ENDROOT
BRANCH   1   2
ATOM      2  C   UNL     1     -37.378   6.045  80.499  1.00  0.00     0.214 A 
ATOM      3  C   UNL     1     -36.477   4.982  80.429  1.00  0.00     0.180 A 
ATOM      4  O   UNL     1     -36.882   3.766  80.768  1.00  0.00    -0.452 OA
ATOM      5  C   UNL     1     -38.472   5.942  81.360  1.00  0.00     0.239 A 
ATOM      6  C   UNL     1     -38.005   3.552  81.455  1.00  0.00     0.146 A 
ATOM      7  O   UNL     1     -39.221   6.956  81.571  1.00  0.00    -0.285 OA
ATOM      8  C   UNL     1     -38.788   4.663  81.903  1.00  0.00     0.111 A 
ATOM      9  C   UNL     1     -38.503   2.279  81.697  1.00  0.00     0.094 A 
ATOM     10  C   UNL     1     -39.643   4.478  83.005  1.00  0.00     0.134 A 
ATOM     11  C   UNL     1     -39.453   2.060  82.707  1.00  0.00     0.123 A 
ATOM     12  C   UNL     1     -39.908   3.170  83.437  1.00  0.00     0.093 A 
BRANCH   3  13
ATOM     13  C   UNL     1     -35.024   5.299  80.416  1.00  0.00     0.025 A 
ATOM     14  C   UNL     1     -34.643   6.081  81.519  1.00  0.00     0.016 A 
ATOM     15  C   UNL     1     -33.670   7.061  81.388  1.00  0.00     0.051 A 
ATOM     16  C   UNL     1     -33.184   7.396  80.110  1.00  0.00     0.157 A 
ATOM     17  C   UNL     1     -34.348   5.478  79.186  1.00  0.00     0.062 A 
ATOM     18  C   UNL     1     -33.496   6.564  79.023  1.00  0.00     0.158 A 
BRANCH  16  19
ATOM     19  O   UNL     1     -32.335   8.478  79.928  1.00  0.00    -0.504 OA
ATOM     20  H   UNL     1     -32.066   8.796  78.988  1.00  0.00     0.293 HD
ENDBRANCH  16  19
BRANCH  18  21
ATOM     21  O   UNL     1     -33.066   6.971  77.744  1.00  0.00    -0.504 OA
ATOM     22  H   UNL     1     -32.748   6.255  77.093  1.00  0.00     0.293 HD
ENDBRANCH  18  21
ENDBRANCH   3  13
BRANCH  10  23
ATOM     23  O   UNL     1     -40.297   5.548  83.623  1.00  0.00    -0.507 OA
ATOM     24  H   UNL     1     -41.048   6.060  83.167  1.00  0.00     0.293 HD
ENDBRANCH  10  23
BRANCH  11  25
ATOM     25  O   UNL     1     -39.892   0.774  83.011  1.00  0.00    -0.508 OA
ATOM     26  H   UNL     1     -39.833   0.406  83.964  1.00  0.00     0.293 HD
ENDBRANCH  11  25
ENDBRANCH   1   2
BRANCH   1  27
ATOM     27  C   UNL     1     -37.355   7.052  78.248  1.00  0.00     0.339 C 
ATOM     28  C   UNL     1     -38.751   7.448  77.653  1.00  0.00     0.214 C 
ATOM     29  O   UNL     1     -36.303   7.777  77.640  1.00  0.00    -0.332 OA
ATOM     30  C   UNL     1     -38.922   8.988  77.511  1.00  0.00     0.180 C 
ATOM     31  C   UNL     1     -36.407   9.175  77.906  1.00  0.00     0.179 C 
ATOM     32  C   UNL     1     -37.605   9.803  77.140  1.00  0.00     0.177 C 
BRANCH  28  33
ATOM     33  O   UNL     1     -39.031   6.727  76.460  1.00  0.00    -0.384 OA
ATOM     34  H   UNL     1     -38.891   7.335  75.666  1.00  0.00     0.211 HD
ENDBRANCH  28  33
BRANCH  30  35
ATOM     35  O   UNL     1     -40.044   9.211  76.695  1.00  0.00    -0.387 OA
ATOM     36  H   UNL     1     -40.659   8.428  76.809  1.00  0.00     0.211 HD
ENDBRANCH  30  35
BRANCH  31  37
ATOM     37  C   UNL     1     -35.052   9.889  77.733  1.00  0.00     0.191 C 
BRANCH  37  38
ATOM     38  O   UNL     1     -34.363   9.358  76.621  1.00  0.00    -0.394 OA
ATOM     39  H   UNL     1     -35.044   8.897  76.044  1.00  0.00     0.210 HD
ENDBRANCH  37  38
ENDBRANCH  31  37
BRANCH  32  40
ATOM     40  O   UNL     1     -37.271   9.793  75.738  1.00  0.00    -0.387 OA
ATOM     41  H   UNL     1     -38.119  10.040  75.243  1.00  0.00     0.211 HD
ENDBRANCH  32  40
ENDBRANCH   1  27
TORSDOF 12
ENDMDL
