MODEL 1
REMARK VINA RESULT:    -3.661      0.000      0.000
REMARK INTER + INTRA:          -8.267
REMARK INTER:                  -6.657
REMARK INTRA:                  -1.610
REMARK UNBOUND:                -1.610
REMARK SMILES CCCCCCCCCCCCCCCC(=O)[O-]
REMARK SMILES IDX 9 1 10 2 11 3 12 4 13 5 14 6 15 7 16 8 17 9 18 10 8 11 7 12
REMARK SMILES IDX 6 13 5 14 4 15 3 16 2 17 1 18
REMARK H PARENT
REMARK Flexibility Score: inf
ROOT
ATOM      1  C   UNL     1     -15.931 -12.446   0.712  1.00  0.00     0.000 C 
ENDROOT
BRANCH   1   2
ATOM      2  C   UNL     1     -15.759 -13.966   0.535  1.00  0.00     0.000 C 
BRANCH   2   3
ATOM      3  C   UNL     1     -17.079 -14.736   0.704  1.00  0.00     0.000 C 
BRANCH   3   4
ATOM      4  C   UNL     1     -17.969 -14.664  -0.549  1.00  0.00     0.000 C 
BRANCH   4   5
ATOM      5  C   UNL     1     -17.169 -14.787  -1.860  1.00  0.00     0.000 C 
BRANCH   5   6
ATOM      6  C   UNL     1     -17.406 -13.657  -2.880  1.00  0.00     0.006 C 
BRANCH   6   7
ATOM      7  C   UNL     1     -18.642 -12.809  -2.558  1.00  0.00     0.053 C 
BRANCH   7   8
ATOM      8  C   UNL     1     -19.738 -13.088  -3.537  1.00  0.00     0.041 C 
ATOM      9  O   UNL     1     -20.764 -13.722  -3.175  1.00  0.00    -0.550 OA
ATOM     10  O   UNL     1     -19.606 -12.688  -4.861  1.00  0.00    -0.550 OA
ENDBRANCH   7   8
ENDBRANCH   6   7
ENDBRANCH   5   6
ENDBRANCH   4   5
ENDBRANCH   3   4
ENDBRANCH   2   3
ENDBRANCH   1   2
BRANCH   1  11
ATOM     11  C   UNL     1     -15.339 -11.647  -0.459  1.00  0.00     0.000 C 
BRANCH  11  12
ATOM     12  C   UNL     1     -14.075 -10.864  -0.059  1.00  0.00    -0.000 C 
BRANCH  12  13
ATOM     13  C   UNL     1     -13.365 -11.472   1.161  1.00  0.00    -0.000 C 
BRANCH  13  14
ATOM     14  C   UNL     1     -12.190 -12.380   0.769  1.00  0.00    -0.000 C 
BRANCH  14  15
ATOM     15  C   UNL     1     -12.277 -13.732   1.487  1.00  0.00    -0.000 C 
BRANCH  15  16
ATOM     16  C   UNL     1     -12.994 -13.595   2.835  1.00  0.00    -0.000 C 
BRANCH  16  17
ATOM     17  C   UNL     1     -12.080 -14.026   3.989  1.00  0.00    -0.003 C 
ATOM     18  C   UNL     1     -11.539 -15.436   3.766  1.00  0.00     0.004 C 
ENDBRANCH  16  17
ENDBRANCH  15  16
ENDBRANCH  14  15
ENDBRANCH  13  14
ENDBRANCH  12  13
ENDBRANCH  11  12
ENDBRANCH   1  11
TORSDOF 14
ENDMDL
MODEL 2
REMARK VINA RESULT:    -3.618      6.413      9.545
REMARK INTER + INTRA:          -8.188
REMARK INTER:                  -6.477
REMARK INTRA:                  -1.712
REMARK UNBOUND:                -1.610
REMARK SMILES CCCCCCCCCCCCCCCC(=O)[O-]
REMARK SMILES IDX 9 1 10 2 11 3 12 4 13 5 14 6 15 7 16 8 17 9 18 10 8 11 7 12
REMARK SMILES IDX 6 13 5 14 4 15 3 16 2 17 1 18
REMARK H PARENT
REMARK Flexibility Score: inf
ROOT
ATOM      1  C   UNL     1     -17.791 -20.425   5.267  1.00  0.00     0.000 C 
ENDROOT
BRANCH   1   2
ATOM      2  C   UNL     1     -16.264 -20.517   5.092  1.00  0.00     0.000 C 
BRANCH   2   3
ATOM      3  C   UNL     1     -15.744 -19.635   3.944  1.00  0.00     0.000 C 
BRANCH   3   4
ATOM      4  C   UNL     1     -16.022 -20.246   2.560  1.00  0.00     0.000 C 
BRANCH   4   5
ATOM      5  C   UNL     1     -16.986 -19.395   1.712  1.00  0.00     0.000 C 
BRANCH   5   6
ATOM      6  C   UNL     1     -17.584 -18.171   2.431  1.00  0.00     0.006 C 
BRANCH   6   7
ATOM      7  C   UNL     1     -18.647 -17.445   1.598  1.00  0.00     0.053 C 
BRANCH   7   8
ATOM      8  C   UNL     1     -18.210 -16.047   1.295  1.00  0.00     0.041 C 
ATOM      9  O   UNL     1     -17.340 -15.487   2.012  1.00  0.00    -0.550 OA
ATOM     10  O   UNL     1     -18.797 -15.346   0.249  1.00  0.00    -0.550 OA
ENDBRANCH   7   8
ENDBRANCH   6   7
ENDBRANCH   5   6
ENDBRANCH   4   5
ENDBRANCH   3   4
ENDBRANCH   2   3
ENDBRANCH   1   2
BRANCH   1  11
ATOM     11  C   UNL     1     -18.486 -21.782   5.084  1.00  0.00     0.000 C 
BRANCH  11  12
ATOM     12  C   UNL     1     -18.798 -22.091   3.608  1.00  0.00    -0.000 C 
BRANCH  12  13
ATOM     13  C   UNL     1     -19.897 -21.183   3.034  1.00  0.00    -0.000 C 
BRANCH  13  14
ATOM     14  C   UNL     1     -21.162 -21.962   2.643  1.00  0.00    -0.000 C 
BRANCH  14  15
ATOM     15  C   UNL     1     -21.797 -21.377   1.377  1.00  0.00    -0.000 C 
BRANCH  15  16
ATOM     16  C   UNL     1     -21.192 -20.010   1.036  1.00  0.00    -0.000 C 
BRANCH  16  17
ATOM     17  C   UNL     1     -21.669 -19.526  -0.338  1.00  0.00    -0.003 C 
ATOM     18  C   UNL     1     -21.509 -20.618  -1.393  1.00  0.00     0.004 C 
ENDBRANCH  16  17
ENDBRANCH  15  16
ENDBRANCH  14  15
ENDBRANCH  13  14
ENDBRANCH  12  13
ENDBRANCH  11  12
ENDBRANCH   1  11
TORSDOF 14
ENDMDL
MODEL 3
REMARK VINA RESULT:    -3.603      4.422      6.915
REMARK INTER + INTRA:          -8.162
REMARK INTER:                  -6.850
REMARK INTRA:                  -1.311
REMARK UNBOUND:                -1.610
REMARK SMILES CCCCCCCCCCCCCCCC(=O)[O-]
REMARK SMILES IDX 9 1 10 2 11 3 12 4 13 5 14 6 15 7 16 8 17 9 18 10 8 11 7 12
REMARK SMILES IDX 6 13 5 14 4 15 3 16 2 17 1 18
REMARK H PARENT
REMARK Flexibility Score: inf
ROOT
ATOM      1  C   UNL     1     -20.406 -16.776   1.077  1.00  0.00     0.000 C 
ENDROOT
BRANCH   1   2
ATOM      2  C   UNL     1     -19.056 -17.084   1.750  1.00  0.00     0.000 C 
BRANCH   2   3
ATOM      3  C   UNL     1     -17.947 -16.106   1.330  1.00  0.00     0.000 C 
BRANCH   3   4
ATOM      4  C   UNL     1     -18.388 -15.165   0.196  1.00  0.00     0.000 C 
BRANCH   4   5
ATOM      5  C   UNL     1     -17.285 -14.931  -0.853  1.00  0.00     0.000 C 
BRANCH   5   6
ATOM      6  C   UNL     1     -17.455 -13.663  -1.710  1.00  0.00     0.006 C 
BRANCH   6   7
ATOM      7  C   UNL     1     -17.950 -13.962  -3.130  1.00  0.00     0.053 C 
BRANCH   7   8
ATOM      8  C   UNL     1     -19.168 -13.151  -3.441  1.00  0.00     0.041 C 
ATOM      9  O   UNL     1     -19.060 -11.929  -3.723  1.00  0.00    -0.550 OA
ATOM     10  O   UNL     1     -20.428 -13.733  -3.375  1.00  0.00    -0.550 OA
ENDBRANCH   7   8
ENDBRANCH   6   7
ENDBRANCH   5   6
ENDBRANCH   4   5
ENDBRANCH   3   4
ENDBRANCH   2   3
ENDBRANCH   1   2
BRANCH   1  11
ATOM     11  C   UNL     1     -21.242 -18.042   0.832  1.00  0.00     0.000 C 
BRANCH  11  12
ATOM     12  C   UNL     1     -20.395 -19.326   0.880  1.00  0.00    -0.000 C 
BRANCH  12  13
ATOM     13  C   UNL     1     -21.196 -20.544   1.369  1.00  0.00    -0.000 C 
BRANCH  13  14
ATOM     14  C   UNL     1     -20.527 -21.253   2.556  1.00  0.00    -0.000 C 
BRANCH  14  15
ATOM     15  C   UNL     1     -19.365 -20.421   3.110  1.00  0.00    -0.000 C 
BRANCH  15  16
ATOM     16  C   UNL     1     -18.093 -21.267   3.240  1.00  0.00    -0.000 C 
BRANCH  16  17
ATOM     17  C   UNL     1     -16.840 -20.386   3.184  1.00  0.00    -0.003 C 
ATOM     18  C   UNL     1     -16.606 -19.849   1.774  1.00  0.00     0.004 C 
ENDBRANCH  16  17
ENDBRANCH  15  16
ENDBRANCH  14  15
ENDBRANCH  13  14
ENDBRANCH  12  13
ENDBRANCH  11  12
ENDBRANCH   1  11
TORSDOF 14
ENDMDL
MODEL 4
REMARK VINA RESULT:    -3.564      6.474      8.504
REMARK INTER + INTRA:          -8.091
REMARK INTER:                  -5.958
REMARK INTRA:                  -2.133
REMARK UNBOUND:                -1.610
REMARK SMILES CCCCCCCCCCCCCCCC(=O)[O-]
REMARK SMILES IDX 9 1 10 2 11 3 12 4 13 5 14 6 15 7 16 8 17 9 18 10 8 11 7 12
REMARK SMILES IDX 6 13 5 14 4 15 3 16 2 17 1 18
REMARK H PARENT
REMARK Flexibility Score: inf
ROOT
ATOM      1  C   UNL     1     -18.420 -20.284   5.534  1.00  0.00     0.000 C 
ENDROOT
BRANCH   1   2
ATOM      2  C   UNL     1     -18.666 -21.759   5.165  1.00  0.00     0.000 C 
BRANCH   2   3
ATOM      3  C   UNL     1     -19.126 -21.938   3.709  1.00  0.00     0.000 C 
BRANCH   3   4
ATOM      4  C   UNL     1     -20.235 -20.948   3.315  1.00  0.00     0.000 C 
BRANCH   4   5
ATOM      5  C   UNL     1     -20.754 -21.168   1.882  1.00  0.00     0.000 C 
BRANCH   5   6
ATOM      6  C   UNL     1     -21.185 -19.890   1.139  1.00  0.00     0.006 C 
BRANCH   6   7
ATOM      7  C   UNL     1     -21.174 -20.050  -0.386  1.00  0.00     0.053 C 
BRANCH   7   8
ATOM      8  C   UNL     1     -22.559 -19.918  -0.936  1.00  0.00     0.041 C 
ATOM      9  O   UNL     1     -23.487 -20.645  -0.495  1.00  0.00    -0.550 OA
ATOM     10  O   UNL     1     -22.816 -19.023  -1.967  1.00  0.00    -0.550 OA
ENDBRANCH   7   8
ENDBRANCH   6   7
ENDBRANCH   5   6
ENDBRANCH   4   5
ENDBRANCH   3   4
ENDBRANCH   2   3
ENDBRANCH   1   2
BRANCH   1  11
ATOM     11  C   UNL     1     -17.005 -20.044   6.083  1.00  0.00     0.000 C 
BRANCH  11  12
ATOM     12  C   UNL     1     -15.908 -20.434   5.076  1.00  0.00    -0.000 C 
BRANCH  12  13
ATOM     13  C   UNL     1     -15.850 -19.485   3.868  1.00  0.00    -0.000 C 
BRANCH  13  14
ATOM     14  C   UNL     1     -16.172 -20.194   2.544  1.00  0.00    -0.000 C 
BRANCH  14  15
ATOM     15  C   UNL     1     -17.216 -19.409   1.741  1.00  0.00    -0.000 C 
BRANCH  15  16
ATOM     16  C   UNL     1     -17.754 -18.221   2.548  1.00  0.00    -0.000 C 
BRANCH  16  17
ATOM     17  C   UNL     1     -17.888 -16.975   1.666  1.00  0.00    -0.003 C 
ATOM     18  C   UNL     1     -19.343 -16.729   1.276  1.00  0.00     0.004 C 
ENDBRANCH  16  17
ENDBRANCH  15  16
ENDBRANCH  14  15
ENDBRANCH  13  14
ENDBRANCH  12  13
ENDBRANCH  11  12
ENDBRANCH   1  11
TORSDOF 14
ENDMDL
MODEL 5
REMARK VINA RESULT:    -3.549      7.116     10.113
REMARK INTER + INTRA:          -8.064
REMARK INTER:                  -5.881
REMARK INTRA:                  -2.183
REMARK UNBOUND:                -1.610
REMARK SMILES CCCCCCCCCCCCCCCC(=O)[O-]
REMARK SMILES IDX 9 1 10 2 11 3 12 4 13 5 14 6 15 7 16 8 17 9 18 10 8 11 7 12
REMARK SMILES IDX 6 13 5 14 4 15 3 16 2 17 1 18
REMARK H PARENT
REMARK Flexibility Score: inf
ROOT
ATOM      1  C   UNL     1     -22.707 -17.702   1.329  1.00  0.00     0.000 C 
ENDROOT
BRANCH   1   2
ATOM      2  C   UNL     1     -21.489 -17.857   2.258  1.00  0.00     0.000 C 
BRANCH   2   3
ATOM      3  C   UNL     1     -20.167 -17.998   1.486  1.00  0.00     0.000 C 
BRANCH   3   4
ATOM      4  C   UNL     1     -19.016 -17.216   2.142  1.00  0.00     0.000 C 
BRANCH   4   5
ATOM      5  C   UNL     1     -17.643 -17.885   1.936  1.00  0.00     0.000 C 
BRANCH   5   6
ATOM      6  C   UNL     1     -17.685 -19.406   1.702  1.00  0.00     0.006 C 
BRANCH   6   7
ATOM      7  C   UNL     1     -16.325 -20.083   1.910  1.00  0.00     0.053 C 
BRANCH   7   8
ATOM      8  C   UNL     1     -15.996 -20.161   3.367  1.00  0.00     0.041 C 
ATOM      9  O   UNL     1     -14.852 -19.832   3.776  1.00  0.00    -0.550 OA
ATOM     10  O   UNL     1     -16.939 -20.639   4.268  1.00  0.00    -0.550 OA
ENDBRANCH   7   8
ENDBRANCH   6   7
ENDBRANCH   5   6
ENDBRANCH   4   5
ENDBRANCH   3   4
ENDBRANCH   2   3
ENDBRANCH   1   2
BRANCH   1  11
ATOM     11  C   UNL     1     -22.334 -17.838  -0.155  1.00  0.00     0.000 C 
BRANCH  11  12
ATOM     12  C   UNL     1     -22.850 -19.149  -0.775  1.00  0.00    -0.000 C 
BRANCH  12  13
ATOM     13  C   UNL     1     -21.719 -20.142  -1.083  1.00  0.00    -0.000 C 
BRANCH  13  14
ATOM     14  C   UNL     1     -21.879 -21.473  -0.334  1.00  0.00    -0.000 C 
BRANCH  14  15
ATOM     15  C   UNL     1     -22.958 -21.366   0.750  1.00  0.00    -0.000 C 
BRANCH  15  16
ATOM     16  C   UNL     1     -22.395 -21.737   2.127  1.00  0.00    -0.000 C 
BRANCH  16  17
ATOM     17  C   UNL     1     -20.875 -21.544   2.169  1.00  0.00    -0.003 C 
ATOM     18  C   UNL     1     -20.406 -21.162   3.571  1.00  0.00     0.004 C 
ENDBRANCH  16  17
ENDBRANCH  15  16
ENDBRANCH  14  15
ENDBRANCH  13  14
ENDBRANCH  12  13
ENDBRANCH  11  12
ENDBRANCH   1  11
TORSDOF 14
ENDMDL
MODEL 6
REMARK VINA RESULT:    -3.532      4.700      7.420
REMARK INTER + INTRA:          -8.032
REMARK INTER:                  -6.877
REMARK INTRA:                  -1.155
REMARK UNBOUND:                -1.610
REMARK SMILES CCCCCCCCCCCCCCCC(=O)[O-]
REMARK SMILES IDX 9 1 10 2 11 3 12 4 13 5 14 6 15 7 16 8 17 9 18 10 8 11 7 12
REMARK SMILES IDX 6 13 5 14 4 15 3 16 2 17 1 18
REMARK H PARENT
REMARK Flexibility Score: inf
ROOT
ATOM      1  C   UNL     1     -17.992 -18.052   2.711  1.00  0.00     0.000 C 
ENDROOT
BRANCH   1   2
ATOM      2  C   UNL     1     -18.645 -16.940   1.870  1.00  0.00     0.000 C 
BRANCH   2   3
ATOM      3  C   UNL     1     -17.625 -15.921   1.337  1.00  0.00     0.000 C 
BRANCH   3   4
ATOM      4  C   UNL     1     -18.203 -15.037   0.219  1.00  0.00     0.000 C 
BRANCH   4   5
ATOM      5  C   UNL     1     -17.233 -14.854  -0.963  1.00  0.00     0.000 C 
BRANCH   5   6
ATOM      6  C   UNL     1     -17.432 -13.564  -1.779  1.00  0.00     0.006 C 
BRANCH   6   7
ATOM      7  C   UNL     1     -18.062 -13.815  -3.155  1.00  0.00     0.053 C 
BRANCH   7   8
ATOM      8  C   UNL     1     -19.096 -12.776  -3.454  1.00  0.00     0.041 C 
ATOM      9  O   UNL     1     -19.386 -11.905  -2.593  1.00  0.00    -0.550 OA
ATOM     10  O   UNL     1     -19.772 -12.797  -4.668  1.00  0.00    -0.550 OA
ENDBRANCH   7   8
ENDBRANCH   6   7
ENDBRANCH   5   6
ENDBRANCH   4   5
ENDBRANCH   3   4
ENDBRANCH   2   3
ENDBRANCH   1   2
BRANCH   1  11
ATOM     11  C   UNL     1     -17.244 -19.079   1.848  1.00  0.00     0.000 C 
BRANCH  11  12
ATOM     12  C   UNL     1     -16.917 -20.371   2.620  1.00  0.00    -0.000 C 
BRANCH  12  13
ATOM     13  C   UNL     1     -17.893 -20.629   3.779  1.00  0.00    -0.000 C 
BRANCH  13  14
ATOM     14  C   UNL     1     -18.884 -21.762   3.475  1.00  0.00    -0.000 C 
BRANCH  14  15
ATOM     15  C   UNL     1     -20.327 -21.245   3.476  1.00  0.00    -0.000 C 
BRANCH  15  16
ATOM     16  C   UNL     1     -20.940 -21.313   2.072  1.00  0.00    -0.000 C 
BRANCH  16  17
ATOM     17  C   UNL     1     -20.770 -19.981   1.333  1.00  0.00    -0.003 C 
ATOM     18  C   UNL     1     -21.323 -20.064  -0.087  1.00  0.00     0.004 C 
ENDBRANCH  16  17
ENDBRANCH  15  16
ENDBRANCH  14  15
ENDBRANCH  13  14
ENDBRANCH  12  13
ENDBRANCH  11  12
ENDBRANCH   1  11
TORSDOF 14
ENDMDL
MODEL 7
REMARK VINA RESULT:    -3.521      5.633      8.756
REMARK INTER + INTRA:          -8.012
REMARK INTER:                  -6.174
REMARK INTRA:                  -1.838
REMARK UNBOUND:                -1.610
REMARK SMILES CCCCCCCCCCCCCCCC(=O)[O-]
REMARK SMILES IDX 9 1 10 2 11 3 12 4 13 5 14 6 15 7 16 8 17 9 18 10 8 11 7 12
REMARK SMILES IDX 6 13 5 14 4 15 3 16 2 17 1 18
REMARK H PARENT
REMARK Flexibility Score: inf
ROOT
ATOM      1  C   UNL     1     -17.208 -20.391   3.993  1.00  0.00     0.000 C 
ENDROOT
BRANCH   1   2
ATOM      2  C   UNL     1     -16.855 -20.524   2.500  1.00  0.00     0.000 C 
BRANCH   2   3
ATOM      3  C   UNL     1     -17.125 -19.234   1.708  1.00  0.00     0.000 C 
BRANCH   3   4
ATOM      4  C   UNL     1     -17.684 -18.106   2.592  1.00  0.00     0.000 C 
BRANCH   4   5
ATOM      5  C   UNL     1     -18.541 -17.097   1.805  1.00  0.00     0.000 C 
BRANCH   5   6
ATOM      6  C   UNL     1     -17.759 -15.937   1.160  1.00  0.00     0.006 C 
BRANCH   6   7
ATOM      7  C   UNL     1     -18.573 -15.179   0.105  1.00  0.00     0.053 C 
BRANCH   7   8
ATOM      8  C   UNL     1     -17.669 -14.373  -0.773  1.00  0.00     0.041 C 
ATOM      9  O   UNL     1     -16.873 -14.949  -1.560  1.00  0.00    -0.550 OA
ATOM     10  O   UNL     1     -17.674 -12.986  -0.691  1.00  0.00    -0.550 OA
ENDBRANCH   7   8
ENDBRANCH   6   7
ENDBRANCH   5   6
ENDBRANCH   4   5
ENDBRANCH   3   4
ENDBRANCH   2   3
ENDBRANCH   1   2
BRANCH   1  11
ATOM     11  C   UNL     1     -18.200 -21.466   4.460  1.00  0.00     0.000 C 
BRANCH  11  12
ATOM     12  C   UNL     1     -19.480 -21.499   3.607  1.00  0.00    -0.000 C 
BRANCH  12  13
ATOM     13  C   UNL     1     -20.399 -20.297   3.875  1.00  0.00    -0.000 C 
BRANCH  13  14
ATOM     14  C   UNL     1     -21.276 -19.941   2.665  1.00  0.00    -0.000 C 
BRANCH  14  15
ATOM     15  C   UNL     1     -20.603 -20.369   1.355  1.00  0.00    -0.000 C 
BRANCH  15  16
ATOM     16  C   UNL     1     -21.065 -19.490   0.186  1.00  0.00    -0.000 C 
BRANCH  16  17
ATOM     17  C   UNL     1     -21.356 -20.339  -1.057  1.00  0.00    -0.003 C 
ATOM     18  C   UNL     1     -22.128 -21.604  -0.691  1.00  0.00     0.004 C 
ENDBRANCH  16  17
ENDBRANCH  15  16
ENDBRANCH  14  15
ENDBRANCH  13  14
ENDBRANCH  12  13
ENDBRANCH  11  12
ENDBRANCH   1  11
TORSDOF 14
ENDMDL
MODEL 8
REMARK VINA RESULT:    -3.515      6.218      8.369
REMARK INTER + INTRA:          -8.002
REMARK INTER:                  -6.157
REMARK INTRA:                  -1.845
REMARK UNBOUND:                -1.610
REMARK SMILES CCCCCCCCCCCCCCCC(=O)[O-]
REMARK SMILES IDX 9 1 10 2 11 3 12 4 13 5 14 6 15 7 16 8 17 9 18 10 8 11 7 12
REMARK SMILES IDX 6 13 5 14 4 15 3 16 2 17 1 18
REMARK H PARENT
REMARK Flexibility Score: inf
ROOT
ATOM      1  C   UNL     1     -18.110 -21.175   4.072  1.00  0.00     0.000 C 
ENDROOT
BRANCH   1   2
ATOM      2  C   UNL     1     -19.538 -21.488   3.591  1.00  0.00     0.000 C 
BRANCH   2   3
ATOM      3  C   UNL     1     -20.530 -20.354   3.898  1.00  0.00     0.000 C 
BRANCH   3   4
ATOM      4  C   UNL     1     -21.394 -19.982   2.682  1.00  0.00     0.000 C 
BRANCH   4   5
ATOM      5  C   UNL     1     -20.926 -20.664   1.382  1.00  0.00     0.000 C 
BRANCH   5   6
ATOM      6  C   UNL     1     -21.077 -19.815   0.107  1.00  0.00     0.006 C 
BRANCH   6   7
ATOM      7  C   UNL     1     -21.536 -20.633  -1.107  1.00  0.00     0.053 C 
BRANCH   7   8
ATOM      8  C   UNL     1     -22.725 -21.470  -0.755  1.00  0.00     0.041 C 
ATOM      9  O   UNL     1     -23.813 -20.922  -0.437  1.00  0.00    -0.550 OA
ATOM     10  O   UNL     1     -22.619 -22.855  -0.734  1.00  0.00    -0.550 OA
ENDBRANCH   7   8
ENDBRANCH   6   7
ENDBRANCH   5   6
ENDBRANCH   4   5
ENDBRANCH   3   4
ENDBRANCH   2   3
ENDBRANCH   1   2
BRANCH   1  11
ATOM     11  C   UNL     1     -17.132 -20.956   2.907  1.00  0.00     0.000 C 
BRANCH  11  12
ATOM     12  C   UNL     1     -16.836 -19.466   2.658  1.00  0.00    -0.000 C 
BRANCH  12  13
ATOM     13  C   UNL     1     -17.641 -18.892   1.482  1.00  0.00    -0.000 C 
BRANCH  13  14
ATOM     14  C   UNL     1     -18.552 -17.729   1.902  1.00  0.00    -0.000 C 
BRANCH  14  15
ATOM     15  C   UNL     1     -17.778 -16.695   2.728  1.00  0.00    -0.000 C 
BRANCH  15  16
ATOM     16  C   UNL     1     -17.805 -15.318   2.054  1.00  0.00    -0.000 C 
BRANCH  16  17
ATOM     17  C   UNL     1     -18.445 -15.400   0.664  1.00  0.00    -0.003 C 
ATOM     18  C   UNL     1     -17.478 -14.923  -0.417  1.00  0.00     0.004 C 
ENDBRANCH  16  17
ENDBRANCH  15  16
ENDBRANCH  14  15
ENDBRANCH  13  14
ENDBRANCH  12  13
ENDBRANCH  11  12
ENDBRANCH   1  11
TORSDOF 14
ENDMDL
MODEL 9
REMARK VINA RESULT:    -3.484      7.023      9.995
REMARK INTER + INTRA:          -7.944
REMARK INTER:                  -6.045
REMARK INTRA:                  -1.900
REMARK UNBOUND:                -1.610
REMARK SMILES CCCCCCCCCCCCCCCC(=O)[O-]
REMARK SMILES IDX 9 1 10 2 11 3 12 4 13 5 14 6 15 7 16 8 17 9 18 10 8 11 7 12
REMARK SMILES IDX 6 13 5 14 4 15 3 16 2 17 1 18
REMARK H PARENT
REMARK Flexibility Score: inf
ROOT
ATOM      1  C   UNL     1     -17.257 -19.131   1.753  1.00  0.00     0.000 C 
ENDROOT
BRANCH   1   2
ATOM      2  C   UNL     1     -16.547 -20.275   2.498  1.00  0.00     0.000 C 
BRANCH   2   3
ATOM      3  C   UNL     1     -16.340 -19.973   3.992  1.00  0.00     0.000 C 
BRANCH   3   4
ATOM      4  C   UNL     1     -17.131 -20.929   4.902  1.00  0.00     0.000 C 
BRANCH   4   5
ATOM      5  C   UNL     1     -18.591 -20.486   5.111  1.00  0.00     0.000 C 
BRANCH   5   6
ATOM      6  C   UNL     1     -19.653 -21.533   4.726  1.00  0.00     0.006 C 
BRANCH   6   7
ATOM      7  C   UNL     1     -19.951 -21.559   3.222  1.00  0.00     0.053 C 
BRANCH   7   8
ATOM      8  C   UNL     1     -21.415 -21.749   2.981  1.00  0.00     0.041 C 
ATOM      9  O   UNL     1     -21.853 -22.861   2.589  1.00  0.00    -0.550 OA
ATOM     10  O   UNL     1     -22.291 -20.683   3.147  1.00  0.00    -0.550 OA
ENDBRANCH   7   8
ENDBRANCH   6   7
ENDBRANCH   5   6
ENDBRANCH   4   5
ENDBRANCH   3   4
ENDBRANCH   2   3
ENDBRANCH   1   2
BRANCH   1  11
ATOM     11  C   UNL     1     -17.619 -17.961   2.680  1.00  0.00     0.000 C 
BRANCH  11  12
ATOM     12  C   UNL     1     -19.133 -17.686   2.719  1.00  0.00    -0.000 C 
BRANCH  12  13
ATOM     13  C   UNL     1     -19.683 -17.212   1.364  1.00  0.00    -0.000 C 
BRANCH  13  14
ATOM     14  C   UNL     1     -21.005 -17.897   0.990  1.00  0.00    -0.000 C 
BRANCH  14  15
ATOM     15  C   UNL     1     -20.752 -19.260   0.337  1.00  0.00    -0.000 C 
BRANCH  15  16
ATOM     16  C   UNL     1     -22.031 -19.811  -0.304  1.00  0.00    -0.000 C 
BRANCH  16  17
ATOM     17  C   UNL     1     -21.716 -20.987  -1.236  1.00  0.00    -0.003 C 
ATOM     18  C   UNL     1     -22.454 -22.250  -0.798  1.00  0.00     0.004 C 
ENDBRANCH  16  17
ENDBRANCH  15  16
ENDBRANCH  14  15
ENDBRANCH  13  14
ENDBRANCH  12  13
ENDBRANCH  11  12
ENDBRANCH   1  11
TORSDOF 14
ENDMDL
