MODEL 1
REMARK VINA RESULT:    -3.236      0.000      0.000
REMARK INTER + INTRA:          -8.344
REMARK INTER:                  -6.264
REMARK INTRA:                  -2.080
REMARK UNBOUND:                -2.080
REMARK SMILES CCCCCCCCCCCCCCCCCC(=O)[O-]
REMARK SMILES IDX 10 1 11 2 12 3 13 4 14 5 15 6 16 7 17 8 18 9 19 10 20 11
REMARK SMILES IDX 9 12 8 13 7 14 6 15 5 16 4 17 3 18 2 19 1 20
REMARK H PARENT
REMARK Flexibility Score: inf
ROOT
ATOM      1  C   UNL     1      -0.146   1.213   6.008  1.00  0.00     0.000 C 
ENDROOT
BRANCH   1   2
ATOM      2  C   UNL     1      -0.540   2.216   7.105  1.00  0.00     0.000 C 
BRANCH   2   3
ATOM      3  C   UNL     1      -2.023   2.160   7.512  1.00  0.00     0.000 C 
BRANCH   3   4
ATOM      4  C   UNL     1      -2.309   1.196   8.686  1.00  0.00     0.000 C 
BRANCH   4   5
ATOM      5  C   UNL     1      -3.188   0.002   8.273  1.00  0.00     0.000 C 
BRANCH   5   6
ATOM      6  C   UNL     1      -3.471  -0.026   6.763  1.00  0.00     0.000 C 
BRANCH   6   7
ATOM      7  C   UNL     1      -3.535  -1.456   6.199  1.00  0.00     0.006 C 
BRANCH   7   8
ATOM      8  C   UNL     1      -4.816  -1.703   5.390  1.00  0.00     0.053 C 
BRANCH   8   9
ATOM      9  C   UNL     1      -4.637  -2.810   4.396  1.00  0.00     0.041 C 
ATOM     10  O   UNL     1      -4.444  -3.990   4.788  1.00  0.00    -0.550 OA
ATOM     11  O   UNL     1      -4.633  -2.529   3.035  1.00  0.00    -0.550 OA
ENDBRANCH   8   9
ENDBRANCH   7   8
ENDBRANCH   6   7
ENDBRANCH   5   6
ENDBRANCH   4   5
ENDBRANCH   3   4
ENDBRANCH   2   3
ENDBRANCH   1   2
BRANCH   1  12
ATOM     12  C   UNL     1       0.850   0.136   6.494  1.00  0.00     0.000 C 
BRANCH  12  13
ATOM     13  C   UNL     1       1.114   0.217   8.007  1.00  0.00    -0.000 C 
BRANCH  13  14
ATOM     14  C   UNL     1       0.690  -1.072   8.744  1.00  0.00    -0.000 C 
BRANCH  14  15
ATOM     15  C   UNL     1      -0.087  -2.064   7.861  1.00  0.00    -0.000 C 
BRANCH  15  16
ATOM     16  C   UNL     1       0.595  -3.440   7.769  1.00  0.00    -0.000 C 
BRANCH  16  17
ATOM     17  C   UNL     1       1.798  -3.568   8.717  1.00  0.00    -0.000 C 
BRANCH  17  18
ATOM     18  C   UNL     1       2.581  -4.872   8.505  1.00  0.00    -0.000 C 
BRANCH  18  19
ATOM     19  C   UNL     1       2.132  -5.580   7.222  1.00  0.00    -0.003 C 
ATOM     20  C   UNL     1       3.323  -6.166   6.469  1.00  0.00     0.004 C 
ENDBRANCH  18  19
ENDBRANCH  17  18
ENDBRANCH  16  17
ENDBRANCH  15  16
ENDBRANCH  14  15
ENDBRANCH  13  14
ENDBRANCH  12  13
ENDBRANCH   1  12
TORSDOF 16
ENDMDL
MODEL 2
REMARK VINA RESULT:    -3.146      1.218      2.089
REMARK INTER + INTRA:          -8.170
REMARK INTER:                  -5.647
REMARK INTRA:                  -2.523
REMARK UNBOUND:                -2.080
REMARK SMILES CCCCCCCCCCCCCCCCCC(=O)[O-]
REMARK SMILES IDX 10 1 11 2 12 3 13 4 14 5 15 6 16 7 17 8 18 9 19 10 20 11
REMARK SMILES IDX 9 12 8 13 7 14 6 15 5 16 4 17 3 18 2 19 1 20
REMARK H PARENT
REMARK Flexibility Score: inf
ROOT
ATOM      1  C   UNL     1      -1.543   2.606   7.065  1.00  0.00     0.000 C 
ENDROOT
BRANCH   1   2
ATOM      2  C   UNL     1      -2.303   2.469   8.394  1.00  0.00     0.000 C 
BRANCH   2   3
ATOM      3  C   UNL     1      -2.751   1.033   8.722  1.00  0.00     0.000 C 
BRANCH   3   4
ATOM      4  C   UNL     1      -3.072   0.182   7.471  1.00  0.00     0.000 C 
BRANCH   4   5
ATOM      5  C   UNL     1      -3.119  -1.326   7.776  1.00  0.00     0.000 C 
BRANCH   5   6
ATOM      6  C   UNL     1      -2.519  -2.173   6.643  1.00  0.00     0.000 C 
BRANCH   6   7
ATOM      7  C   UNL     1      -3.095  -3.599   6.602  1.00  0.00     0.006 C 
BRANCH   7   8
ATOM      8  C   UNL     1      -4.577  -3.614   6.203  1.00  0.00     0.053 C 
BRANCH   8   9
ATOM      9  C   UNL     1      -4.753  -3.870   4.737  1.00  0.00     0.041 C 
ATOM     10  O   UNL     1      -5.151  -4.994   4.332  1.00  0.00    -0.550 OA
ATOM     11  O   UNL     1      -4.427  -2.884   3.814  1.00  0.00    -0.550 OA
ENDBRANCH   8   9
ENDBRANCH   7   8
ENDBRANCH   6   7
ENDBRANCH   5   6
ENDBRANCH   4   5
ENDBRANCH   3   4
ENDBRANCH   2   3
ENDBRANCH   1   2
BRANCH   1  12
ATOM     12  C   UNL     1      -0.048   2.228   7.172  1.00  0.00     0.000 C 
BRANCH  12  13
ATOM     13  C   UNL     1       0.351   1.115   6.187  1.00  0.00    -0.000 C 
BRANCH  13  14
ATOM     14  C   UNL     1       0.605  -0.232   6.899  1.00  0.00    -0.000 C 
BRANCH  14  15
ATOM     15  C   UNL     1       1.072  -0.083   8.358  1.00  0.00    -0.000 C 
BRANCH  15  16
ATOM     16  C   UNL     1       0.288  -0.981   9.329  1.00  0.00    -0.000 C 
BRANCH  16  17
ATOM     17  C   UNL     1       0.275  -2.455   8.892  1.00  0.00    -0.000 C 
BRANCH  17  18
ATOM     18  C   UNL     1       1.681  -3.074   8.862  1.00  0.00    -0.000 C 
BRANCH  18  19
ATOM     19  C   UNL     1       1.643  -4.494   8.287  1.00  0.00    -0.003 C 
ATOM     20  C   UNL     1       0.400  -4.708   7.428  1.00  0.00     0.004 C 
ENDBRANCH  18  19
ENDBRANCH  17  18
ENDBRANCH  16  17
ENDBRANCH  15  16
ENDBRANCH  14  15
ENDBRANCH  13  14
ENDBRANCH  12  13
ENDBRANCH   1  12
TORSDOF 16
ENDMDL
MODEL 3
REMARK VINA RESULT:    -3.133      1.327      5.118
REMARK INTER + INTRA:          -8.145
REMARK INTER:                  -5.790
REMARK INTRA:                  -2.354
REMARK UNBOUND:                -2.080
REMARK SMILES CCCCCCCCCCCCCCCCCC(=O)[O-]
REMARK SMILES IDX 10 1 11 2 12 3 13 4 14 5 15 6 16 7 17 8 18 9 19 10 20 11
REMARK SMILES IDX 9 12 8 13 7 14 6 15 5 16 4 17 3 18 2 19 1 20
REMARK H PARENT
REMARK Flexibility Score: inf
ROOT
ATOM      1  C   UNL     1       1.559  -2.271   9.681  1.00  0.00     0.000 C 
ENDROOT
BRANCH   1   2
ATOM      2  C   UNL     1       0.840  -3.598   9.387  1.00  0.00     0.000 C 
BRANCH   2   3
ATOM      3  C   UNL     1       0.999  -4.097   7.939  1.00  0.00     0.000 C 
BRANCH   3   4
ATOM      4  C   UNL     1      -0.344  -4.410   7.240  1.00  0.00     0.000 C 
BRANCH   4   5
ATOM      5  C   UNL     1      -1.477  -3.467   7.681  1.00  0.00     0.000 C 
BRANCH   5   6
ATOM      6  C   UNL     1      -2.212  -2.833   6.490  1.00  0.00     0.000 C 
BRANCH   6   7
ATOM      7  C   UNL     1      -3.646  -3.365   6.328  1.00  0.00     0.006 C 
BRANCH   7   8
ATOM      8  C   UNL     1      -4.496  -2.473   5.413  1.00  0.00     0.053 C 
BRANCH   8   9
ATOM      9  C   UNL     1      -4.859  -3.173   4.139  1.00  0.00     0.041 C 
ATOM     10  O   UNL     1      -5.161  -4.395   4.150  1.00  0.00    -0.550 OA
ATOM     11  O   UNL     1      -4.813  -2.488   2.930  1.00  0.00    -0.550 OA
ENDBRANCH   8   9
ENDBRANCH   7   8
ENDBRANCH   6   7
ENDBRANCH   5   6
ENDBRANCH   4   5
ENDBRANCH   3   4
ENDBRANCH   2   3
ENDBRANCH   1   2
BRANCH   1  12
ATOM     12  C   UNL     1       0.640  -1.035   9.556  1.00  0.00     0.000 C 
BRANCH  12  13
ATOM     13  C   UNL     1       1.135  -0.037   8.495  1.00  0.00    -0.000 C 
BRANCH  13  14
ATOM     14  C   UNL     1       0.528  -0.314   7.103  1.00  0.00    -0.000 C 
BRANCH  14  15
ATOM     15  C   UNL     1       0.392   0.942   6.224  1.00  0.00    -0.000 C 
BRANCH  15  16
ATOM     16  C   UNL     1       0.088   2.210   7.040  1.00  0.00    -0.000 C 
BRANCH  16  17
ATOM     17  C   UNL     1      -1.380   2.285   7.489  1.00  0.00    -0.000 C 
BRANCH  17  18
ATOM     18  C   UNL     1      -2.364   1.999   6.343  1.00  0.00    -0.000 C 
BRANCH  18  19
ATOM     19  C   UNL     1      -3.253   0.795   6.672  1.00  0.00    -0.003 C 
ATOM     20  C   UNL     1      -3.095   0.374   8.130  1.00  0.00     0.004 C 
ENDBRANCH  18  19
ENDBRANCH  17  18
ENDBRANCH  16  17
ENDBRANCH  15  16
ENDBRANCH  14  15
ENDBRANCH  13  14
ENDBRANCH  12  13
ENDBRANCH   1  12
TORSDOF 16
ENDMDL
MODEL 4
REMARK VINA RESULT:    -3.130      2.348      4.156
REMARK INTER + INTRA:          -8.138
REMARK INTER:                  -5.705
REMARK INTRA:                  -2.433
REMARK UNBOUND:                -2.080
REMARK SMILES CCCCCCCCCCCCCCCCCC(=O)[O-]
REMARK SMILES IDX 10 1 11 2 12 3 13 4 14 5 15 6 16 7 17 8 18 9 19 10 20 11
REMARK SMILES IDX 9 12 8 13 7 14 6 15 5 16 4 17 3 18 2 19 1 20
REMARK H PARENT
REMARK Flexibility Score: inf
ROOT
ATOM      1  C   UNL     1      -2.589  -1.129   8.701  1.00  0.00     0.000 C 
ENDROOT
BRANCH   1   2
ATOM      2  C   UNL     1      -1.518  -1.347   9.783  1.00  0.00     0.000 C 
BRANCH   2   3
ATOM      3  C   UNL     1      -0.543  -0.169   9.955  1.00  0.00     0.000 C 
BRANCH   3   4
ATOM      4  C   UNL     1       0.821  -0.386   9.260  1.00  0.00     0.000 C 
BRANCH   4   5
ATOM      5  C   UNL     1       1.154   0.725   8.247  1.00  0.00     0.000 C 
BRANCH   5   6
ATOM      6  C   UNL     1       0.900   0.291   6.795  1.00  0.00     0.000 C 
BRANCH   6   7
ATOM      7  C   UNL     1      -0.075   1.227   6.060  1.00  0.00     0.006 C 
BRANCH   7   8
ATOM      8  C   UNL     1      -1.017   1.958   7.027  1.00  0.00     0.053 C 
BRANCH   8   9
ATOM      9  C   UNL     1      -2.313   2.322   6.369  1.00  0.00     0.041 C 
ATOM     10  O   UNL     1      -2.532   3.510   6.013  1.00  0.00    -0.550 OA
ATOM     11  O   UNL     1      -3.300   1.360   6.196  1.00  0.00    -0.550 OA
ENDBRANCH   8   9
ENDBRANCH   7   8
ENDBRANCH   6   7
ENDBRANCH   5   6
ENDBRANCH   4   5
ENDBRANCH   3   4
ENDBRANCH   2   3
ENDBRANCH   1   2
BRANCH   1  12
ATOM     12  C   UNL     1      -2.183  -1.685   7.317  1.00  0.00     0.000 C 
BRANCH  12  13
ATOM     13  C   UNL     1      -2.536  -3.173   7.153  1.00  0.00    -0.000 C 
BRANCH  13  14
ATOM     14  C   UNL     1      -1.280  -4.070   7.106  1.00  0.00    -0.000 C 
BRANCH  14  15
ATOM     15  C   UNL     1       0.041  -3.284   7.051  1.00  0.00    -0.000 C 
BRANCH  15  16
ATOM     16  C   UNL     1       1.166  -3.951   7.860  1.00  0.00    -0.000 C 
BRANCH  16  17
ATOM     17  C   UNL     1       0.816  -5.385   8.288  1.00  0.00    -0.000 C 
BRANCH  17  18
ATOM     18  C   UNL     1       1.601  -6.445   7.502  1.00  0.00    -0.000 C 
BRANCH  18  19
ATOM     19  C   UNL     1       3.076  -6.051   7.371  1.00  0.00    -0.003 C 
ATOM     20  C   UNL     1       3.613  -6.380   5.981  1.00  0.00     0.004 C 
ENDBRANCH  18  19
ENDBRANCH  17  18
ENDBRANCH  16  17
ENDBRANCH  15  16
ENDBRANCH  14  15
ENDBRANCH  13  14
ENDBRANCH  12  13
ENDBRANCH   1  12
TORSDOF 16
ENDMDL
MODEL 5
REMARK VINA RESULT:    -3.124      2.034      3.250
REMARK INTER + INTRA:          -8.127
REMARK INTER:                  -5.702
REMARK INTRA:                  -2.425
REMARK UNBOUND:                -2.080
REMARK SMILES CCCCCCCCCCCCCCCCCC(=O)[O-]
REMARK SMILES IDX 10 1 11 2 12 3 13 4 14 5 15 6 16 7 17 8 18 9 19 10 20 11
REMARK SMILES IDX 9 12 8 13 7 14 6 15 5 16 4 17 3 18 2 19 1 20
REMARK H PARENT
REMARK Flexibility Score: inf
ROOT
ATOM      1  C   UNL     1      -0.793   2.263   7.309  1.00  0.00     0.000 C 
ENDROOT
BRANCH   1   2
ATOM      2  C   UNL     1      -2.205   2.839   7.111  1.00  0.00     0.000 C 
BRANCH   2   3
ATOM      3  C   UNL     1      -3.023   2.145   6.006  1.00  0.00     0.000 C 
BRANCH   3   4
ATOM      4  C   UNL     1      -4.368   1.566   6.502  1.00  0.00     0.000 C 
BRANCH   4   5
ATOM      5  C   UNL     1      -5.236   1.017   5.355  1.00  0.00     0.000 C 
BRANCH   5   6
ATOM      6  C   UNL     1      -6.292   0.014   5.845  1.00  0.00     0.000 C 
BRANCH   6   7
ATOM      7  C   UNL     1      -6.689  -1.004   4.761  1.00  0.00     0.006 C 
BRANCH   7   8
ATOM      8  C   UNL     1      -5.677  -1.047   3.608  1.00  0.00     0.053 C 
BRANCH   8   9
ATOM      9  C   UNL     1      -5.154  -2.433   3.382  1.00  0.00     0.041 C 
ATOM     10  O   UNL     1      -4.186  -2.865   4.061  1.00  0.00    -0.550 OA
ATOM     11  O   UNL     1      -5.702  -3.229   2.384  1.00  0.00    -0.550 OA
ENDBRANCH   8   9
ENDBRANCH   7   8
ENDBRANCH   6   7
ENDBRANCH   5   6
ENDBRANCH   4   5
ENDBRANCH   3   4
ENDBRANCH   2   3
ENDBRANCH   1   2
BRANCH   1  12
ATOM     12  C   UNL     1      -0.336   1.350   6.148  1.00  0.00     0.000 C 
BRANCH  12  13
ATOM     13  C   UNL     1       0.772   0.370   6.570  1.00  0.00    -0.000 C 
BRANCH  13  14
ATOM     14  C   UNL     1       1.152   0.523   8.059  1.00  0.00    -0.000 C 
BRANCH  14  15
ATOM     15  C   UNL     1       0.817  -0.711   8.914  1.00  0.00    -0.000 C 
BRANCH  15  16
ATOM     16  C   UNL     1       0.743  -2.007   8.089  1.00  0.00    -0.000 C 
BRANCH  16  17
ATOM     17  C   UNL     1      -0.611  -2.721   8.232  1.00  0.00    -0.000 C 
BRANCH  17  18
ATOM     18  C   UNL     1      -1.427  -2.707   6.930  1.00  0.00    -0.000 C 
BRANCH  18  19
ATOM     19  C   UNL     1      -2.450  -1.566   6.936  1.00  0.00    -0.003 C 
ATOM     20  C   UNL     1      -2.869  -1.208   8.359  1.00  0.00     0.004 C 
ENDBRANCH  18  19
ENDBRANCH  17  18
ENDBRANCH  16  17
ENDBRANCH  15  16
ENDBRANCH  14  15
ENDBRANCH  13  14
ENDBRANCH  12  13
ENDBRANCH   1  12
TORSDOF 16
ENDMDL
MODEL 6
REMARK VINA RESULT:    -3.115     11.121     12.249
REMARK INTER + INTRA:          -8.109
REMARK INTER:                  -5.643
REMARK INTRA:                  -2.466
REMARK UNBOUND:                -2.080
REMARK SMILES CCCCCCCCCCCCCCCCCC(=O)[O-]
REMARK SMILES IDX 10 1 11 2 12 3 13 4 14 5 15 6 16 7 17 8 18 9 19 10 20 11
REMARK SMILES IDX 9 12 8 13 7 14 6 15 5 16 4 17 3 18 2 19 1 20
REMARK H PARENT
REMARK Flexibility Score: inf
ROOT
ATOM      1  C   UNL     1       4.885   8.330   0.471  1.00  0.00     0.000 C 
ENDROOT
BRANCH   1   2
ATOM      2  C   UNL     1       5.183   7.490  -0.782  1.00  0.00     0.000 C 
BRANCH   2   3
ATOM      3  C   UNL     1       4.782   6.009  -0.661  1.00  0.00     0.000 C 
BRANCH   3   4
ATOM      4  C   UNL     1       4.456   5.342  -2.018  1.00  0.00     0.000 C 
BRANCH   4   5
ATOM      5  C   UNL     1       2.967   4.978  -2.157  1.00  0.00     0.000 C 
BRANCH   5   6
ATOM      6  C   UNL     1       2.204   5.104  -0.829  1.00  0.00     0.000 C 
BRANCH   6   7
ATOM      7  C   UNL     1       1.076   6.149  -0.892  1.00  0.00     0.006 C 
BRANCH   7   8
ATOM      8  C   UNL     1       1.392   7.285  -1.876  1.00  0.00     0.053 C 
BRANCH   8   9
ATOM      9  C   UNL     1       0.179   7.696  -2.654  1.00  0.00     0.041 C 
ATOM     10  O   UNL     1      -0.914   7.902  -2.065  1.00  0.00    -0.550 OA
ATOM     11  O   UNL     1       0.243   7.800  -4.038  1.00  0.00    -0.550 OA
ENDBRANCH   8   9
ENDBRANCH   7   8
ENDBRANCH   6   7
ENDBRANCH   5   6
ENDBRANCH   4   5
ENDBRANCH   3   4
ENDBRANCH   2   3
ENDBRANCH   1   2
BRANCH   1  12
ATOM     12  C   UNL     1       3.591   7.902   1.201  1.00  0.00     0.000 C 
BRANCH  12  13
ATOM     13  C   UNL     1       3.391   8.649   2.531  1.00  0.00    -0.000 C 
BRANCH  13  14
ATOM     14  C   UNL     1       4.732   8.989   3.218  1.00  0.00    -0.000 C 
BRANCH  14  15
ATOM     15  C   UNL     1       4.889   8.363   4.615  1.00  0.00    -0.000 C 
BRANCH  15  16
ATOM     16  C   UNL     1       5.497   6.951   4.570  1.00  0.00    -0.000 C 
BRANCH  16  17
ATOM     17  C   UNL     1       6.582   6.809   3.491  1.00  0.00    -0.000 C 
BRANCH  17  18
ATOM     18  C   UNL     1       6.378   5.570   2.606  1.00  0.00    -0.000 C 
BRANCH  18  19
ATOM     19  C   UNL     1       7.723   4.985   2.162  1.00  0.00    -0.003 C 
ATOM     20  C   UNL     1       8.118   5.499   0.781  1.00  0.00     0.004 C 
ENDBRANCH  18  19
ENDBRANCH  17  18
ENDBRANCH  16  17
ENDBRANCH  15  16
ENDBRANCH  14  15
ENDBRANCH  13  14
ENDBRANCH  12  13
ENDBRANCH   1  12
TORSDOF 16
ENDMDL
MODEL 7
REMARK VINA RESULT:    -3.113      2.974      6.148
REMARK INTER + INTRA:          -8.105
REMARK INTER:                  -5.767
REMARK INTRA:                  -2.338
REMARK UNBOUND:                -2.080
REMARK SMILES CCCCCCCCCCCCCCCCCC(=O)[O-]
REMARK SMILES IDX 10 1 11 2 12 3 13 4 14 5 15 6 16 7 17 8 18 9 19 10 20 11
REMARK SMILES IDX 9 12 8 13 7 14 6 15 5 16 4 17 3 18 2 19 1 20
REMARK H PARENT
REMARK Flexibility Score: inf
ROOT
ATOM      1  C   UNL     1       1.130   0.432   8.252  1.00  0.00     0.000 C 
ENDROOT
BRANCH   1   2
ATOM      2  C   UNL     1       0.672  -0.594   9.302  1.00  0.00     0.000 C 
BRANCH   2   3
ATOM      3  C   UNL     1       0.849  -2.061   8.872  1.00  0.00     0.000 C 
BRANCH   3   4
ATOM      4  C   UNL     1       2.071  -2.754   9.518  1.00  0.00     0.000 C 
BRANCH   4   5
ATOM      5  C   UNL     1       2.397  -4.111   8.868  1.00  0.00     0.000 C 
BRANCH   5   6
ATOM      6  C   UNL     1       1.405  -4.481   7.754  1.00  0.00     0.000 C 
BRANCH   6   7
ATOM      7  C   UNL     1       1.705  -5.854   7.127  1.00  0.00     0.006 C 
BRANCH   7   8
ATOM      8  C   UNL     1       3.205  -6.062   6.877  1.00  0.00     0.053 C 
BRANCH   8   9
ATOM      9  C   UNL     1       3.460  -6.729   5.560  1.00  0.00     0.041 C 
ATOM     10  O   UNL     1       2.708  -7.657   5.163  1.00  0.00    -0.550 OA
ATOM     11  O   UNL     1       4.559  -6.361   4.794  1.00  0.00    -0.550 OA
ENDBRANCH   8   9
ENDBRANCH   7   8
ENDBRANCH   6   7
ENDBRANCH   5   6
ENDBRANCH   4   5
ENDBRANCH   3   4
ENDBRANCH   2   3
ENDBRANCH   1   2
BRANCH   1  12
ATOM     12  C   UNL     1       0.824   0.001   6.800  1.00  0.00     0.000 C 
BRANCH  12  13
ATOM     13  C   UNL     1       0.103   1.099   5.999  1.00  0.00    -0.000 C 
BRANCH  13  14
ATOM     14  C   UNL     1      -1.038   1.757   6.805  1.00  0.00    -0.000 C 
BRANCH  14  15
ATOM     15  C   UNL     1      -2.356   0.962   6.775  1.00  0.00    -0.000 C 
BRANCH  15  16
ATOM     16  C   UNL     1      -2.701   0.328   8.133  1.00  0.00    -0.000 C 
BRANCH  16  17
ATOM     17  C   UNL     1      -3.119  -1.146   8.007  1.00  0.00    -0.000 C 
BRANCH  17  18
ATOM     18  C   UNL     1      -2.889  -1.707   6.595  1.00  0.00    -0.000 C 
BRANCH  18  19
ATOM     19  C   UNL     1      -1.800  -2.784   6.604  1.00  0.00    -0.003 C 
ATOM     20  C   UNL     1      -2.207  -3.974   7.468  1.00  0.00     0.004 C 
ENDBRANCH  18  19
ENDBRANCH  17  18
ENDBRANCH  16  17
ENDBRANCH  15  16
ENDBRANCH  14  15
ENDBRANCH  13  14
ENDBRANCH  12  13
ENDBRANCH   1  12
TORSDOF 16
ENDMDL
MODEL 8
REMARK VINA RESULT:    -3.043      1.672      2.285
REMARK INTER + INTRA:          -7.970
REMARK INTER:                  -5.534
REMARK INTRA:                  -2.436
REMARK UNBOUND:                -2.080
REMARK SMILES CCCCCCCCCCCCCCCCCC(=O)[O-]
REMARK SMILES IDX 10 1 11 2 12 3 13 4 14 5 15 6 16 7 17 8 18 9 19 10 20 11
REMARK SMILES IDX 9 12 8 13 7 14 6 15 5 16 4 17 3 18 2 19 1 20
REMARK H PARENT
REMARK Flexibility Score: inf
ROOT
ATOM      1  C   UNL     1       1.082   0.345   6.861  1.00  0.00     0.000 C 
ENDROOT
BRANCH   1   2
ATOM      2  C   UNL     1       0.057   1.118   6.015  1.00  0.00     0.000 C 
BRANCH   2   3
ATOM      3  C   UNL     1      -1.096   1.737   6.825  1.00  0.00     0.000 C 
BRANCH   3   4
ATOM      4  C   UNL     1      -2.399   0.906   6.783  1.00  0.00     0.000 C 
BRANCH   4   5
ATOM      5  C   UNL     1      -2.756   0.293   8.150  1.00  0.00     0.000 C 
BRANCH   5   6
ATOM      6  C   UNL     1      -2.631  -1.238   8.158  1.00  0.00     0.000 C 
BRANCH   6   7
ATOM      7  C   UNL     1      -2.225  -1.806   6.786  1.00  0.00     0.006 C 
BRANCH   7   8
ATOM      8  C   UNL     1      -3.051  -3.041   6.402  1.00  0.00     0.053 C 
BRANCH   8   9
ATOM      9  C   UNL     1      -4.146  -2.697   5.438  1.00  0.00     0.041 C 
ATOM     10  O   UNL     1      -5.225  -2.199   5.853  1.00  0.00    -0.550 OA
ATOM     11  O   UNL     1      -3.994  -2.976   4.085  1.00  0.00    -0.550 OA
ENDBRANCH   8   9
ENDBRANCH   7   8
ENDBRANCH   6   7
ENDBRANCH   5   6
ENDBRANCH   4   5
ENDBRANCH   3   4
ENDBRANCH   2   3
ENDBRANCH   1   2
BRANCH   1  12
ATOM     12  C   UNL     1       1.116   0.793   8.340  1.00  0.00     0.000 C 
BRANCH  12  13
ATOM     13  C   UNL     1       0.880  -0.374   9.315  1.00  0.00    -0.000 C 
BRANCH  13  14
ATOM     14  C   UNL     1       0.926  -1.745   8.606  1.00  0.00    -0.000 C 
BRANCH  14  15
ATOM     15  C   UNL     1       1.934  -2.730   9.224  1.00  0.00    -0.000 C 
BRANCH  15  16
ATOM     16  C   UNL     1       1.706  -4.181   8.771  1.00  0.00    -0.000 C 
BRANCH  16  17
ATOM     17  C   UNL     1       0.423  -4.345   7.941  1.00  0.00    -0.000 C 
BRANCH  17  18
ATOM     18  C   UNL     1       0.081  -5.818   7.666  1.00  0.00    -0.000 C 
BRANCH  18  19
ATOM     19  C   UNL     1      -1.154  -6.252   8.461  1.00  0.00    -0.003 C 
ATOM     20  C   UNL     1      -2.354  -6.467   7.543  1.00  0.00     0.004 C 
ENDBRANCH  18  19
ENDBRANCH  17  18
ENDBRANCH  16  17
ENDBRANCH  15  16
ENDBRANCH  14  15
ENDBRANCH  13  14
ENDBRANCH  12  13
ENDBRANCH   1  12
TORSDOF 16
ENDMDL
MODEL 9
REMARK VINA RESULT:    -3.034      1.734      2.576
REMARK INTER + INTRA:          -7.952
REMARK INTER:                  -5.333
REMARK INTRA:                  -2.619
REMARK UNBOUND:                -2.080
REMARK SMILES CCCCCCCCCCCCCCCCCC(=O)[O-]
REMARK SMILES IDX 10 1 11 2 12 3 13 4 14 5 15 6 16 7 17 8 18 9 19 10 20 11
REMARK SMILES IDX 9 12 8 13 7 14 6 15 5 16 4 17 3 18 2 19 1 20
REMARK H PARENT
REMARK Flexibility Score: inf
ROOT
ATOM      1  C   UNL     1      -0.914   2.102   7.168  1.00  0.00     0.000 C 
ENDROOT
BRANCH   1   2
ATOM      2  C   UNL     1      -2.318   1.475   7.180  1.00  0.00     0.000 C 
BRANCH   2   3
ATOM      3  C   UNL     1      -2.667   0.728   8.480  1.00  0.00     0.000 C 
BRANCH   3   4
ATOM      4  C   UNL     1      -2.899  -0.788   8.283  1.00  0.00     0.000 C 
BRANCH   4   5
ATOM      5  C   UNL     1      -2.927  -1.195   6.799  1.00  0.00     0.000 C 
BRANCH   5   6
ATOM      6  C   UNL     1      -3.901  -2.352   6.525  1.00  0.00     0.000 C 
BRANCH   6   7
ATOM      7  C   UNL     1      -4.107  -2.609   5.022  1.00  0.00     0.006 C 
BRANCH   7   8
ATOM      8  C   UNL     1      -5.221  -1.735   4.432  1.00  0.00     0.053 C 
BRANCH   8   9
ATOM      9  C   UNL     1      -5.429  -2.013   2.974  1.00  0.00     0.041 C 
ATOM     10  O   UNL     1      -5.542  -1.062   2.156  1.00  0.00    -0.550 OA
ATOM     11  O   UNL     1      -5.551  -3.322   2.526  1.00  0.00    -0.550 OA
ENDBRANCH   8   9
ENDBRANCH   7   8
ENDBRANCH   6   7
ENDBRANCH   5   6
ENDBRANCH   4   5
ENDBRANCH   3   4
ENDBRANCH   2   3
ENDBRANCH   1   2
BRANCH   1  12
ATOM     12  C   UNL     1       0.020   1.490   6.100  1.00  0.00     0.000 C 
BRANCH  12  13
ATOM     13  C   UNL     1       0.803   0.275   6.628  1.00  0.00    -0.000 C 
BRANCH  13  14
ATOM     14  C   UNL     1       1.079   0.372   8.144  1.00  0.00    -0.000 C 
BRANCH  14  15
ATOM     15  C   UNL     1       0.758  -0.919   8.917  1.00  0.00    -0.000 C 
BRANCH  15  16
ATOM     16  C   UNL     1       0.860  -2.179   8.041  1.00  0.00    -0.000 C 
BRANCH  16  17
ATOM     17  C   UNL     1      -0.193  -3.238   8.405  1.00  0.00    -0.000 C 
BRANCH  17  18
ATOM     18  C   UNL     1      -0.584  -4.118   7.208  1.00  0.00    -0.000 C 
BRANCH  18  19
ATOM     19  C   UNL     1      -1.718  -5.079   7.580  1.00  0.00    -0.003 C 
ATOM     20  C   UNL     1      -2.274  -4.766   8.966  1.00  0.00     0.004 C 
ENDBRANCH  18  19
ENDBRANCH  17  18
ENDBRANCH  16  17
ENDBRANCH  15  16
ENDBRANCH  14  15
ENDBRANCH  13  14
ENDBRANCH  12  13
ENDBRANCH   1  12
TORSDOF 16
ENDMDL
