MODEL 1
REMARK VINA RESULT:    -5.063      0.000      0.000
REMARK INTER + INTRA:          -5.211
REMARK INTER:                  -5.211
REMARK INTRA:                   0.000
REMARK UNBOUND:                 0.000
REMARK SMILES O=c1ccc2ccc(O)cc2o1
REMARK SMILES IDX 6 1 7 2 8 3 10 4 11 5 5 6 4 7 3 8 2 9 1 10 12 11 9 12
REMARK H PARENT 9 13
REMARK Flexibility Score: inf
ROOT
ATOM      1  C   UNL     1      12.884  -3.758  11.661  1.00  0.00     0.016 A 
ATOM      2  C   UNL     1      11.623  -3.472  11.124  1.00  0.00     0.047 A 
ATOM      3  C   UNL     1      11.226  -2.145  10.919  1.00  0.00     0.119 A 
ATOM      4  C   UNL     1      12.095  -1.095  11.250  1.00  0.00     0.094 A 
ATOM      5  C   UNL     1      13.357  -1.371  11.786  1.00  0.00     0.142 A 
ATOM      6  C   UNL     1      13.755  -2.711  11.993  1.00  0.00     0.018 A 
ATOM      7  C   UNL     1      15.022  -2.955  12.530  1.00  0.00     0.019 A 
ATOM      8  C   UNL     1      15.851  -1.878  12.845  1.00  0.00     0.094 A 
ATOM      9  C   UNL     1      15.391  -0.578  12.613  1.00  0.00     0.336 A 
ATOM     10  O   UNL     1      16.125   0.407  12.890  1.00  0.00    -0.246 OA
ATOM     11  O   UNL     1      14.180  -0.373  12.100  1.00  0.00    -0.423 OA
ENDROOT
BRANCH   3  12
ATOM     12  O   UNL     1       9.966  -1.881  10.384  1.00  0.00    -0.508 OA
ATOM     13  H   UNL     1       9.188  -2.515  10.525  1.00  0.00     0.293 HD
ENDBRANCH   3  12
TORSDOF 1
ENDMDL
MODEL 2
REMARK VINA RESULT:    -3.732      1.773      2.424
REMARK INTER + INTRA:          -3.841
REMARK INTER:                  -3.841
REMARK INTRA:                   0.000
REMARK UNBOUND:                 0.000
REMARK SMILES O=c1ccc2ccc(O)cc2o1
REMARK SMILES IDX 6 1 7 2 8 3 10 4 11 5 5 6 4 7 3 8 2 9 1 10 12 11 9 12
REMARK H PARENT 9 13
REMARK Flexibility Score: inf
ROOT
ATOM      1  C   UNL     1      12.476  -0.703  11.377  1.00  0.00     0.016 A 
ATOM      2  C   UNL     1      11.351  -1.247  10.747  1.00  0.00     0.047 A 
ATOM      3  C   UNL     1      11.188  -2.635  10.666  1.00  0.00     0.119 A 
ATOM      4  C   UNL     1      12.156  -3.487  11.219  1.00  0.00     0.094 A 
ATOM      5  C   UNL     1      13.284  -2.952  11.850  1.00  0.00     0.142 A 
ATOM      6  C   UNL     1      13.446  -1.550  11.930  1.00  0.00     0.018 A 
ATOM      7  C   UNL     1      14.583  -1.046  12.567  1.00  0.00     0.019 A 
ATOM      8  C   UNL     1      15.518  -1.932  13.101  1.00  0.00     0.094 A 
ATOM      9  C   UNL     1      15.293  -3.308  12.985  1.00  0.00     0.336 A 
ATOM     10  O   UNL     1      16.125  -4.124  13.461  1.00  0.00    -0.246 OA
ATOM     11  O   UNL     1      14.201  -3.762  12.373  1.00  0.00    -0.423 OA
ENDROOT
BRANCH   3  12
ATOM     12  O   UNL     1      10.061  -3.158  10.035  1.00  0.00    -0.508 OA
ATOM     13  H   UNL     1       9.609  -2.671   9.270  1.00  0.00     0.293 HD
ENDBRANCH   3  12
TORSDOF 1
ENDMDL
MODEL 3
REMARK VINA RESULT:    -3.730      0.763      4.228
REMARK INTER + INTRA:          -3.839
REMARK INTER:                  -3.839
REMARK INTRA:                   0.000
REMARK UNBOUND:                 0.000
REMARK SMILES O=c1ccc2ccc(O)cc2o1
REMARK SMILES IDX 6 1 7 2 8 3 10 4 11 5 5 6 4 7 3 8 2 9 1 10 12 11 9 12
REMARK H PARENT 9 13
REMARK Flexibility Score: inf
ROOT
ATOM      1  C   UNL     1      14.897  -3.052  12.378  1.00  0.00     0.016 A 
ATOM      2  C   UNL     1      15.727  -1.989  12.749  1.00  0.00     0.047 A 
ATOM      3  C   UNL     1      15.283  -0.667  12.622  1.00  0.00     0.119 A 
ATOM      4  C   UNL     1      13.998  -0.405  12.123  1.00  0.00     0.094 A 
ATOM      5  C   UNL     1      13.162  -1.462  11.750  1.00  0.00     0.142 A 
ATOM      6  C   UNL     1      13.613  -2.795  11.878  1.00  0.00     0.018 A 
ATOM      7  C   UNL     1      12.753  -3.829  11.498  1.00  0.00     0.019 A 
ATOM      8  C   UNL     1      11.485  -3.520  11.005  1.00  0.00     0.094 A 
ATOM      9  C   UNL     1      11.105  -2.177  10.907  1.00  0.00     0.336 A 
ATOM     10  O   UNL     1       9.965  -1.877  10.465  1.00  0.00    -0.246 OA
ATOM     11  O   UNL     1      11.943  -1.211  11.276  1.00  0.00    -0.423 OA
ENDROOT
BRANCH   3  12
ATOM     12  O   UNL     1      16.125   0.378  12.997  1.00  0.00    -0.508 OA
ATOM     13  H   UNL     1      16.391   1.105  12.342  1.00  0.00     0.293 HD
ENDBRANCH   3  12
TORSDOF 1
ENDMDL
MODEL 4
REMARK VINA RESULT:    -2.956      1.945      4.709
REMARK INTER + INTRA:          -3.042
REMARK INTER:                  -3.042
REMARK INTRA:                   0.000
REMARK UNBOUND:                 0.000
REMARK SMILES O=c1ccc2ccc(O)cc2o1
REMARK SMILES IDX 6 1 7 2 8 3 10 4 11 5 5 6 4 7 3 8 2 9 1 10 12 11 9 12
REMARK H PARENT 9 13
REMARK Flexibility Score: inf
ROOT
ATOM      1  C   UNL     1      14.435  -1.146  12.538  1.00  0.00     0.016 A 
ATOM      2  C   UNL     1      15.354  -1.949  13.222  1.00  0.00     0.047 A 
ATOM      3  C   UNL     1      15.199  -3.341  13.243  1.00  0.00     0.119 A 
ATOM      4  C   UNL     1      14.119  -3.935  12.573  1.00  0.00     0.094 A 
ATOM      5  C   UNL     1      13.196  -3.139  11.886  1.00  0.00     0.142 A 
ATOM      6  C   UNL     1      13.354  -1.735  11.868  1.00  0.00     0.018 A 
ATOM      7  C   UNL     1      12.416  -0.967  11.173  1.00  0.00     0.019 A 
ATOM      8  C   UNL     1      11.358  -1.603  10.523  1.00  0.00     0.094 A 
ATOM      9  C   UNL     1      11.264  -2.997  10.583  1.00  0.00     0.336 A 
ATOM     10  O   UNL     1      10.317  -3.589  10.003  1.00  0.00    -0.246 OA
ATOM     11  O   UNL     1      12.172  -3.705  11.252  1.00  0.00    -0.423 OA
ENDROOT
BRANCH   3  12
ATOM     12  O   UNL     1      16.125  -4.124  13.930  1.00  0.00    -0.508 OA
ATOM     13  H   UNL     1      16.574  -3.792  14.775  1.00  0.00     0.293 HD
ENDBRANCH   3  12
TORSDOF 1
ENDMDL
MODEL 5
REMARK VINA RESULT:    -2.628     15.582     17.660
REMARK INTER + INTRA:          -2.704
REMARK INTER:                  -2.704
REMARK INTRA:                   0.000
REMARK UNBOUND:                 0.000
REMARK SMILES O=c1ccc2ccc(O)cc2o1
REMARK SMILES IDX 6 1 7 2 8 3 10 4 11 5 5 6 4 7 3 8 2 9 1 10 12 11 9 12
REMARK H PARENT 9 13
REMARK Flexibility Score: inf
ROOT
ATOM      1  C   UNL     1      -1.042  -3.554   0.519  1.00  0.00     0.016 A 
ATOM      2  C   UNL     1      -1.299  -4.045  -0.765  1.00  0.00     0.047 A 
ATOM      3  C   UNL     1      -0.523  -3.624  -1.852  1.00  0.00     0.119 A 
ATOM      4  C   UNL     1       0.521  -2.707  -1.654  1.00  0.00     0.094 A 
ATOM      5  C   UNL     1       0.785  -2.211  -0.373  1.00  0.00     0.142 A 
ATOM      6  C   UNL     1      -0.002  -2.637   0.722  1.00  0.00     0.018 A 
ATOM      7  C   UNL     1       0.287  -2.124   1.989  1.00  0.00     0.019 A 
ATOM      8  C   UNL     1       1.334  -1.213   2.137  1.00  0.00     0.094 A 
ATOM      9  C   UNL     1       2.070  -0.837   1.009  1.00  0.00     0.336 A 
ATOM     10  O   UNL     1       3.019  -0.017   1.122  1.00  0.00    -0.246 OA
ATOM     11  O   UNL     1       1.775  -1.341  -0.187  1.00  0.00    -0.423 OA
ENDROOT
BRANCH   3  12
ATOM     12  O   UNL     1      -0.794  -4.125  -3.124  1.00  0.00    -0.508 OA
ATOM     13  H   UNL     1      -1.453  -4.883  -3.265  1.00  0.00     0.293 HD
ENDBRANCH   3  12
TORSDOF 1
ENDMDL
MODEL 6
REMARK VINA RESULT:    -2.605     14.988     17.756
REMARK INTER + INTRA:          -2.681
REMARK INTER:                  -2.681
REMARK INTRA:                   0.000
REMARK UNBOUND:                 0.000
REMARK SMILES O=c1ccc2ccc(O)cc2o1
REMARK SMILES IDX 6 1 7 2 8 3 10 4 11 5 5 6 4 7 3 8 2 9 1 10 12 11 9 12
REMARK H PARENT 9 13
REMARK Flexibility Score: inf
ROOT
ATOM      1  C   UNL     1       0.378  -1.890   2.171  1.00  0.00     0.016 A 
ATOM      2  C   UNL     1       1.558  -1.225   2.521  1.00  0.00     0.047 A 
ATOM      3  C   UNL     1       2.495  -0.881   1.540  1.00  0.00     0.119 A 
ATOM      4  C   UNL     1       2.252  -1.204   0.196  1.00  0.00     0.094 A 
ATOM      5  C   UNL     1       1.076  -1.870  -0.164  1.00  0.00     0.142 A 
ATOM      6  C   UNL     1       0.132  -2.215   0.829  1.00  0.00     0.018 A 
ATOM      7  C   UNL     1      -1.035  -2.879   0.439  1.00  0.00     0.019 A 
ATOM      8  C   UNL     1      -1.232  -3.180  -0.909  1.00  0.00     0.094 A 
ATOM      9  C   UNL     1      -0.255  -2.807  -1.838  1.00  0.00     0.336 A 
ATOM     10  O   UNL     1      -0.414  -3.069  -3.059  1.00  0.00    -0.246 OA
ATOM     11  O   UNL     1       0.847  -2.175  -1.439  1.00  0.00    -0.423 OA
ENDROOT
BRANCH   3  12
ATOM     12  O   UNL     1       3.664  -0.219   1.910  1.00  0.00    -0.508 OA
ATOM     13  H   UNL     1       3.723   0.793   1.904  1.00  0.00     0.293 HD
ENDBRANCH   3  12
TORSDOF 1
ENDMDL
