MODEL 1
REMARK VINA RESULT:    -4.543      0.000      0.000
REMARK INTER + INTRA:          -7.855
REMARK INTER:                  -7.199
REMARK INTRA:                  -0.656
REMARK UNBOUND:                -0.656
REMARK SMILES CCCCCCCCCCCC(=O)[O-]
REMARK SMILES IDX 7 1 8 2 9 3 10 4 11 5 12 6 13 7 14 8 6 9 5 10 4 11 3 12 2 13
REMARK SMILES IDX 1 14
REMARK H PARENT
REMARK Flexibility Score: inf
ROOT
ATOM      1  C   UNL     1      -7.460  25.612  22.459  1.00  0.00     0.000 C 
ENDROOT
BRANCH   1   2
ATOM      2  C   UNL     1      -8.275  25.681  23.759  1.00  0.00     0.000 C 
BRANCH   2   3
ATOM      3  C   UNL     1      -7.681  26.666  24.779  1.00  0.00     0.000 C 
BRANCH   3   4
ATOM      4  C   UNL     1      -8.699  27.714  25.254  1.00  0.00     0.006 C 
BRANCH   4   5
ATOM      5  C   UNL     1      -9.726  28.014  24.158  1.00  0.00     0.053 C 
BRANCH   5   6
ATOM      6  C   UNL     1      -9.345  29.252  23.408  1.00  0.00     0.041 C 
ATOM      7  O   UNL     1      -9.686  29.394  22.205  1.00  0.00    -0.550 OA
ATOM      8  O   UNL     1      -8.570  30.226  24.024  1.00  0.00    -0.550 OA
ENDBRANCH   5   6
ENDBRANCH   4   5
ENDBRANCH   3   4
ENDBRANCH   2   3
ENDBRANCH   1   2
BRANCH   1   9
ATOM      9  C   UNL     1      -8.046  24.571  21.499  1.00  0.00     0.000 C 
BRANCH   9  10
ATOM     10  C   UNL     1      -9.352  23.984  22.053  1.00  0.00    -0.000 C 
BRANCH  10  11
ATOM     11  C   UNL     1      -9.433  22.454  21.905  1.00  0.00    -0.000 C 
BRANCH  11  12
ATOM     12  C   UNL     1     -10.791  21.916  21.409  1.00  0.00    -0.000 C 
BRANCH  12  13
ATOM     13  C   UNL     1     -10.761  21.261  20.018  1.00  0.00    -0.003 C 
ATOM     14  C   UNL     1     -10.744  22.281  18.880  1.00  0.00     0.004 C 
ENDBRANCH  12  13
ENDBRANCH  11  12
ENDBRANCH  10  11
ENDBRANCH   9  10
ENDBRANCH   1   9
TORSDOF 10
ENDMDL
MODEL 2
REMARK VINA RESULT:    -4.491      0.929      1.505
REMARK INTER + INTRA:          -7.772
REMARK INTER:                  -6.674
REMARK INTRA:                  -1.098
REMARK UNBOUND:                -0.656
REMARK SMILES CCCCCCCCCCCC(=O)[O-]
REMARK SMILES IDX 7 1 8 2 9 3 10 4 11 5 12 6 13 7 14 8 6 9 5 10 4 11 3 12 2 13
REMARK SMILES IDX 1 14
REMARK H PARENT
REMARK Flexibility Score: inf
ROOT
ATOM      1  C   UNL     1      -7.029  25.640  22.509  1.00  0.00     0.000 C 
ENDROOT
BRANCH   1   2
ATOM      2  C   UNL     1      -7.180  26.016  23.990  1.00  0.00     0.000 C 
BRANCH   2   3
ATOM      3  C   UNL     1      -8.649  26.172  24.416  1.00  0.00     0.000 C 
BRANCH   3   4
ATOM      4  C   UNL     1      -8.920  27.504  25.132  1.00  0.00     0.006 C 
BRANCH   4   5
ATOM      5  C   UNL     1     -10.023  28.292  24.422  1.00  0.00     0.053 C 
BRANCH   5   6
ATOM      6  C   UNL     1      -9.429  29.316  23.506  1.00  0.00     0.041 C 
ATOM      7  O   UNL     1      -9.715  29.312  22.280  1.00  0.00    -0.550 OA
ATOM      8  O   UNL     1      -8.520  30.244  23.998  1.00  0.00    -0.550 OA
ENDBRANCH   5   6
ENDBRANCH   4   5
ENDBRANCH   3   4
ENDBRANCH   2   3
ENDBRANCH   1   2
BRANCH   1   9
ATOM      9  C   UNL     1      -8.166  26.237  21.672  1.00  0.00     0.000 C 
BRANCH   9  10
ATOM     10  C   UNL     1      -8.778  25.182  20.740  1.00  0.00    -0.000 C 
BRANCH  10  11
ATOM     11  C   UNL     1     -10.192  24.750  21.168  1.00  0.00    -0.000 C 
BRANCH  11  12
ATOM     12  C   UNL     1     -10.240  23.673  22.271  1.00  0.00    -0.000 C 
BRANCH  12  13
ATOM     13  C   UNL     1      -9.493  22.371  21.940  1.00  0.00    -0.003 C 
ATOM     14  C   UNL     1     -10.240  21.494  20.936  1.00  0.00     0.004 C 
ENDBRANCH  12  13
ENDBRANCH  11  12
ENDBRANCH  10  11
ENDBRANCH   9  10
ENDBRANCH   1   9
TORSDOF 10
ENDMDL
MODEL 3
REMARK VINA RESULT:    -4.400      2.847      5.848
REMARK INTER + INTRA:          -7.629
REMARK INTER:                  -6.193
REMARK INTRA:                  -1.436
REMARK UNBOUND:                -0.656
REMARK SMILES CCCCCCCCCCCC(=O)[O-]
REMARK SMILES IDX 7 1 8 2 9 3 10 4 11 5 12 6 13 7 14 8 6 9 5 10 4 11 3 12 2 13
REMARK SMILES IDX 1 14
REMARK H PARENT
REMARK Flexibility Score: inf
ROOT
ATOM      1  C   UNL     1      -7.316  25.785  22.514  1.00  0.00     0.000 C 
ENDROOT
BRANCH   1   2
ATOM      2  C   UNL     1      -8.128  26.813  21.711  1.00  0.00     0.000 C 
BRANCH   2   3
ATOM      3  C   UNL     1      -9.294  26.174  20.940  1.00  0.00     0.000 C 
BRANCH   3   4
ATOM      4  C   UNL     1      -8.912  24.837  20.286  1.00  0.00     0.006 C 
BRANCH   4   5
ATOM      5  C   UNL     1     -10.015  23.794  20.490  1.00  0.00     0.053 C 
BRANCH   5   6
ATOM      6  C   UNL     1     -10.021  23.310  21.906  1.00  0.00     0.041 C 
ATOM      7  O   UNL     1      -9.049  22.649  22.355  1.00  0.00    -0.550 OA
ATOM      8  O   UNL     1     -11.125  23.546  22.716  1.00  0.00    -0.550 OA
ENDBRANCH   5   6
ENDBRANCH   4   5
ENDBRANCH   3   4
ENDBRANCH   2   3
ENDBRANCH   1   2
BRANCH   1   9
ATOM      9  C   UNL     1      -7.380  26.087  24.015  1.00  0.00     0.000 C 
BRANCH   9  10
ATOM     10  C   UNL     1      -8.557  25.353  24.675  1.00  0.00    -0.000 C 
BRANCH  10  11
ATOM     11  C   UNL     1      -9.800  26.244  24.845  1.00  0.00    -0.000 C 
BRANCH  11  12
ATOM     12  C   UNL     1      -9.521  27.661  25.386  1.00  0.00    -0.000 C 
BRANCH  12  13
ATOM     13  C   UNL     1     -10.011  28.808  24.486  1.00  0.00    -0.003 C 
ATOM     14  C   UNL     1      -8.877  29.712  24.003  1.00  0.00     0.004 C 
ENDBRANCH  12  13
ENDBRANCH  11  12
ENDBRANCH  10  11
ENDBRANCH   9  10
ENDBRANCH   1   9
TORSDOF 10
ENDMDL
MODEL 4
REMARK VINA RESULT:    -4.376      3.443      6.182
REMARK INTER + INTRA:          -7.591
REMARK INTER:                  -6.273
REMARK INTRA:                  -1.318
REMARK UNBOUND:                -0.656
REMARK SMILES CCCCCCCCCCCC(=O)[O-]
REMARK SMILES IDX 7 1 8 2 9 3 10 4 11 5 12 6 13 7 14 8 6 9 5 10 4 11 3 12 2 13
REMARK SMILES IDX 1 14
REMARK H PARENT
REMARK Flexibility Score: inf
ROOT
ATOM      1  C   UNL     1      -7.015  25.704  22.509  1.00  0.00     0.000 C 
ENDROOT
BRANCH   1   2
ATOM      2  C   UNL     1      -7.990  24.724  21.840  1.00  0.00     0.000 C 
BRANCH   2   3
ATOM      3  C   UNL     1      -8.537  25.251  20.504  1.00  0.00     0.000 C 
BRANCH   3   4
ATOM      4  C   UNL     1      -9.966  24.767  20.215  1.00  0.00     0.006 C 
BRANCH   4   5
ATOM      5  C   UNL     1     -10.315  23.550  21.076  1.00  0.00     0.053 C 
BRANCH   5   6
ATOM      6  C   UNL     1     -10.563  22.352  20.214  1.00  0.00     0.041 C 
ATOM      7  O   UNL     1     -10.690  22.482  18.969  1.00  0.00    -0.550 OA
ATOM      8  O   UNL     1     -10.703  21.097  20.792  1.00  0.00    -0.550 OA
ENDBRANCH   5   6
ENDBRANCH   4   5
ENDBRANCH   3   4
ENDBRANCH   2   3
ENDBRANCH   1   2
BRANCH   1   9
ATOM      9  C   UNL     1      -7.480  26.059  23.926  1.00  0.00     0.000 C 
BRANCH   9  10
ATOM     10  C   UNL     1      -8.938  25.630  24.151  1.00  0.00    -0.000 C 
BRANCH  10  11
ATOM     11  C   UNL     1      -9.898  26.824  24.302  1.00  0.00    -0.000 C 
BRANCH  11  12
ATOM     12  C   UNL     1     -10.219  27.574  22.994  1.00  0.00    -0.000 C 
BRANCH  12  13
ATOM     13  C   UNL     1      -9.481  28.911  22.814  1.00  0.00    -0.003 C 
ATOM     14  C   UNL     1      -9.039  29.531  24.139  1.00  0.00     0.004 C 
ENDBRANCH  12  13
ENDBRANCH  11  12
ENDBRANCH  10  11
ENDBRANCH   9  10
ENDBRANCH   1   9
TORSDOF 10
ENDMDL
MODEL 5
REMARK VINA RESULT:    -4.357      3.206      5.952
REMARK INTER + INTRA:          -7.560
REMARK INTER:                  -6.441
REMARK INTRA:                  -1.120
REMARK UNBOUND:                -0.656
REMARK SMILES CCCCCCCCCCCC(=O)[O-]
REMARK SMILES IDX 7 1 8 2 9 3 10 4 11 5 12 6 13 7 14 8 6 9 5 10 4 11 3 12 2 13
REMARK SMILES IDX 1 14
REMARK H PARENT
REMARK Flexibility Score: inf
ROOT
ATOM      1  C   UNL     1      -7.285  26.002  23.945  1.00  0.00     0.000 C 
ENDROOT
BRANCH   1   2
ATOM      2  C   UNL     1      -7.405  25.824  22.424  1.00  0.00     0.000 C 
BRANCH   2   3
ATOM      3  C   UNL     1      -7.990  24.458  22.032  1.00  0.00     0.000 C 
BRANCH   3   4
ATOM      4  C   UNL     1      -9.198  24.579  21.090  1.00  0.00     0.006 C 
BRANCH   4   5
ATOM      5  C   UNL     1      -8.761  25.040  19.697  1.00  0.00     0.053 C 
BRANCH   5   6
ATOM      6  C   UNL     1      -9.719  24.548  18.658  1.00  0.00     0.041 C 
ATOM      7  O   UNL     1     -10.102  23.348  18.666  1.00  0.00    -0.550 OA
ATOM      8  O   UNL     1     -10.151  25.401  17.651  1.00  0.00    -0.550 OA
ENDBRANCH   5   6
ENDBRANCH   4   5
ENDBRANCH   3   4
ENDBRANCH   2   3
ENDBRANCH   1   2
BRANCH   1   9
ATOM      9  C   UNL     1      -8.629  25.744  24.635  1.00  0.00     0.000 C 
BRANCH   9  10
ATOM     10  C   UNL     1      -8.957  26.860  25.639  1.00  0.00    -0.000 C 
BRANCH  10  11
ATOM     11  C   UNL     1      -8.519  28.253  25.151  1.00  0.00    -0.000 C 
BRANCH  11  12
ATOM     12  C   UNL     1      -9.627  29.087  24.476  1.00  0.00    -0.000 C 
BRANCH  12  13
ATOM     13  C   UNL     1      -9.472  29.264  22.956  1.00  0.00    -0.003 C 
ATOM     14  C   UNL     1     -10.277  28.244  22.152  1.00  0.00     0.004 C 
ENDBRANCH  12  13
ENDBRANCH  11  12
ENDBRANCH  10  11
ENDBRANCH   9  10
ENDBRANCH   1   9
TORSDOF 10
ENDMDL
MODEL 6
REMARK VINA RESULT:    -4.313      2.074      2.969
REMARK INTER + INTRA:          -7.490
REMARK INTER:                  -6.123
REMARK INTRA:                  -1.366
REMARK UNBOUND:                -0.656
REMARK SMILES CCCCCCCCCCCC(=O)[O-]
REMARK SMILES IDX 7 1 8 2 9 3 10 4 11 5 12 6 13 7 14 8 6 9 5 10 4 11 3 12 2 13
REMARK SMILES IDX 1 14
REMARK H PARENT
REMARK Flexibility Score: inf
ROOT
ATOM      1  C   UNL     1      -8.476  25.269  24.711  1.00  0.00     0.000 C 
ENDROOT
BRANCH   1   2
ATOM      2  C   UNL     1      -9.514  26.049  25.532  1.00  0.00     0.000 C 
BRANCH   2   3
ATOM      3  C   UNL     1     -10.840  26.244  24.779  1.00  0.00     0.000 C 
BRANCH   3   4
ATOM      4  C   UNL     1     -10.963  27.638  24.147  1.00  0.00     0.006 C 
BRANCH   4   5
ATOM      5  C   UNL     1     -10.976  27.546  22.618  1.00  0.00     0.053 C 
BRANCH   5   6
ATOM      6  C   UNL     1     -10.224  28.692  22.018  1.00  0.00     0.041 C 
ATOM      7  O   UNL     1      -9.225  29.176  22.612  1.00  0.00    -0.550 OA
ATOM      8  O   UNL     1     -10.655  29.258  20.826  1.00  0.00    -0.550 OA
ENDBRANCH   5   6
ENDBRANCH   4   5
ENDBRANCH   3   4
ENDBRANCH   2   3
ENDBRANCH   1   2
BRANCH   1   9
ATOM      9  C   UNL     1      -7.504  26.223  24.007  1.00  0.00     0.000 C 
BRANCH   9  10
ATOM     10  C   UNL     1      -7.346  25.854  22.525  1.00  0.00    -0.000 C 
BRANCH  10  11
ATOM     11  C   UNL     1      -8.016  24.517  22.165  1.00  0.00    -0.000 C 
BRANCH  11  12
ATOM     12  C   UNL     1      -8.928  24.557  20.922  1.00  0.00    -0.000 C 
BRANCH  12  13
ATOM     13  C   UNL     1      -8.841  25.851  20.094  1.00  0.00    -0.003 C 
ATOM     14  C   UNL     1      -9.878  25.912  18.973  1.00  0.00     0.004 C 
ENDBRANCH  12  13
ENDBRANCH  11  12
ENDBRANCH  10  11
ENDBRANCH   9  10
ENDBRANCH   1   9
TORSDOF 10
ENDMDL
MODEL 7
REMARK VINA RESULT:    -4.297      3.308      5.499
REMARK INTER + INTRA:          -7.464
REMARK INTER:                  -5.888
REMARK INTRA:                  -1.576
REMARK UNBOUND:                -0.656
REMARK SMILES CCCCCCCCCCCC(=O)[O-]
REMARK SMILES IDX 7 1 8 2 9 3 10 4 11 5 12 6 13 7 14 8 6 9 5 10 4 11 3 12 2 13
REMARK SMILES IDX 1 14
REMARK H PARENT
REMARK Flexibility Score: inf
ROOT
ATOM      1  C   UNL     1      -9.330  29.556  24.313  1.00  0.00     0.000 C 
ENDROOT
BRANCH   1   2
ATOM      2  C   UNL     1      -9.214  29.093  22.853  1.00  0.00     0.000 C 
BRANCH   2   3
ATOM      3  C   UNL     1     -10.475  28.367  22.359  1.00  0.00     0.000 C 
BRANCH   3   4
ATOM      4  C   UNL     1     -10.182  26.946  21.855  1.00  0.00     0.006 C 
BRANCH   4   5
ATOM      5  C   UNL     1      -8.775  26.857  21.257  1.00  0.00     0.053 C 
BRANCH   5   6
ATOM      6  C   UNL     1      -8.533  25.494  20.689  1.00  0.00     0.041 C 
ATOM      7  O   UNL     1      -8.893  25.223  19.513  1.00  0.00    -0.550 OA
ATOM      8  O   UNL     1      -7.954  24.506  21.475  1.00  0.00    -0.550 OA
ENDBRANCH   5   6
ENDBRANCH   4   5
ENDBRANCH   3   4
ENDBRANCH   2   3
ENDBRANCH   1   2
BRANCH   1   9
ATOM      9  C   UNL     1     -10.767  29.404  24.823  1.00  0.00     0.000 C 
BRANCH   9  10
ATOM     10  C   UNL     1     -10.856  28.317  25.904  1.00  0.00    -0.000 C 
BRANCH  10  11
ATOM     11  C   UNL     1      -9.586  27.452  25.991  1.00  0.00    -0.000 C 
BRANCH  11  12
ATOM     12  C   UNL     1      -9.773  25.974  25.592  1.00  0.00    -0.000 C 
BRANCH  12  13
ATOM     13  C   UNL     1      -8.615  25.369  24.781  1.00  0.00    -0.003 C 
ATOM     14  C   UNL     1      -7.434  26.327  24.622  1.00  0.00     0.004 C 
ENDBRANCH  12  13
ENDBRANCH  11  12
ENDBRANCH  10  11
ENDBRANCH   9  10
ENDBRANCH   1   9
TORSDOF 10
ENDMDL
MODEL 8
REMARK VINA RESULT:    -4.292      3.050      4.950
REMARK INTER + INTRA:          -7.457
REMARK INTER:                  -6.125
REMARK INTRA:                  -1.333
REMARK UNBOUND:                -0.656
REMARK SMILES CCCCCCCCCCCC(=O)[O-]
REMARK SMILES IDX 7 1 8 2 9 3 10 4 11 5 12 6 13 7 14 8 6 9 5 10 4 11 3 12 2 13
REMARK SMILES IDX 1 14
REMARK H PARENT
REMARK Flexibility Score: inf
ROOT
ATOM      1  C   UNL     1      -7.838  25.009  21.818  1.00  0.00     0.000 C 
ENDROOT
BRANCH   1   2
ATOM      2  C   UNL     1      -8.488  25.080  23.208  1.00  0.00     0.000 C 
BRANCH   2   3
ATOM      3  C   UNL     1      -7.616  25.825  24.233  1.00  0.00     0.000 C 
BRANCH   3   4
ATOM      4  C   UNL     1      -8.446  26.624  25.249  1.00  0.00     0.006 C 
BRANCH   4   5
ATOM      5  C   UNL     1      -9.901  26.146  25.263  1.00  0.00     0.053 C 
BRANCH   5   6
ATOM      6  C   UNL     1     -10.509  26.360  26.613  1.00  0.00     0.041 C 
ATOM      7  O   UNL     1     -10.969  25.385  27.263  1.00  0.00    -0.550 OA
ATOM      8  O   UNL     1     -10.614  27.644  27.132  1.00  0.00    -0.550 OA
ENDBRANCH   5   6
ENDBRANCH   4   5
ENDBRANCH   3   4
ENDBRANCH   2   3
ENDBRANCH   1   2
BRANCH   1   9
ATOM      9  C   UNL     1      -8.720  25.692  20.766  1.00  0.00     0.000 C 
BRANCH   9  10
ATOM     10  C   UNL     1      -8.906  27.182  21.085  1.00  0.00    -0.000 C 
BRANCH  10  11
ATOM     11  C   UNL     1     -10.379  27.570  21.301  1.00  0.00    -0.000 C 
BRANCH  11  12
ATOM     12  C   UNL     1     -10.628  28.585  22.435  1.00  0.00    -0.000 C 
BRANCH  12  13
ATOM     13  C   UNL     1      -9.361  29.240  23.010  1.00  0.00    -0.003 C 
ATOM     14  C   UNL     1      -9.594  29.895  24.371  1.00  0.00     0.004 C 
ENDBRANCH  12  13
ENDBRANCH  11  12
ENDBRANCH  10  11
ENDBRANCH   9  10
ENDBRANCH   1   9
TORSDOF 10
ENDMDL
MODEL 9
REMARK VINA RESULT:    -4.262      1.908      2.278
REMARK INTER + INTRA:          -7.409
REMARK INTER:                  -6.557
REMARK INTRA:                  -0.852
REMARK UNBOUND:                -0.656
REMARK SMILES CCCCCCCCCCCC(=O)[O-]
REMARK SMILES IDX 7 1 8 2 9 3 10 4 11 5 12 6 13 7 14 8 6 9 5 10 4 11 3 12 2 13
REMARK SMILES IDX 1 14
REMARK H PARENT
REMARK Flexibility Score: inf
ROOT
ATOM      1  C   UNL     1      -8.557  26.137  21.949  1.00  0.00     0.000 C 
ENDROOT
BRANCH   1   2
ATOM      2  C   UNL     1      -7.338  25.974  22.870  1.00  0.00     0.000 C 
BRANCH   2   3
ATOM      3  C   UNL     1      -7.717  25.970  24.360  1.00  0.00     0.000 C 
BRANCH   3   4
ATOM      4  C   UNL     1      -9.236  25.950  24.585  1.00  0.00     0.006 C 
BRANCH   4   5
ATOM      5  C   UNL     1      -9.568  25.962  26.080  1.00  0.00     0.053 C 
BRANCH   5   6
ATOM      6  C   UNL     1     -10.135  27.288  26.480  1.00  0.00     0.041 C 
ATOM      7  O   UNL     1     -10.365  28.168  25.610  1.00  0.00    -0.550 OA
ATOM      8  O   UNL     1     -10.363  27.570  27.821  1.00  0.00    -0.550 OA
ENDBRANCH   5   6
ENDBRANCH   4   5
ENDBRANCH   3   4
ENDBRANCH   2   3
ENDBRANCH   1   2
BRANCH   1   9
ATOM      9  C   UNL     1      -8.749  24.896  21.069  1.00  0.00     0.000 C 
BRANCH   9  10
ATOM     10  C   UNL     1      -8.094  23.662  21.706  1.00  0.00    -0.000 C 
BRANCH  10  11
ATOM     11  C   UNL     1      -9.114  22.711  22.358  1.00  0.00    -0.000 C 
BRANCH  11  12
ATOM     12  C   UNL     1     -10.433  22.535  21.580  1.00  0.00    -0.000 C 
BRANCH  12  13
ATOM     13  C   UNL     1     -10.494  21.290  20.678  1.00  0.00    -0.003 C 
ATOM     14  C   UNL     1     -10.839  21.621  19.227  1.00  0.00     0.004 C 
ENDBRANCH  12  13
ENDBRANCH  11  12
ENDBRANCH  10  11
ENDBRANCH   9  10
ENDBRANCH   1   9
TORSDOF 10
ENDMDL
