MODEL 1
REMARK VINA RESULT:    -7.531      0.000      0.000
REMARK INTER + INTRA:          -9.658
REMARK INTER:                  -9.292
REMARK INTRA:                  -0.366
REMARK UNBOUND:                -0.366
REMARK SMILES Oc1cc(O)c2cc(O)c(-c3cc(O)c(O)c(O)c3)[o+]c2c1
REMARK SMILES IDX 10 1 20 2 21 3 22 4 2 5 3 6 4 7 6 8 7 9 8 10 11 11 12 12
REMARK SMILES IDX 13 13 19 14 15 15 17 16 14 17 16 19 18 21 9 23 1 25 5 27
REMARK H PARENT 14 18 16 20 18 22 9 24 1 26 5 28
REMARK Flexibility Score: inf
ROOT
ATOM      1  C   UNL     1     -37.772  11.977   8.473  1.00  0.00     0.402 A 
ATOM      2  O   UNL     1     -37.943  11.615   7.203  1.00  0.00    -0.202 OA
ATOM      3  C   UNL     1     -37.029  11.819   6.259  1.00  0.00     0.368 A 
ATOM      4  C   UNL     1     -37.284  11.404   4.949  1.00  0.00     0.162 A 
ATOM      5  C   UNL     1     -36.331  11.610   3.947  1.00  0.00     0.128 A 
ATOM      6  C   UNL     1     -35.115  12.234   4.257  1.00  0.00     0.093 A 
ATOM      7  C   UNL     1     -34.846  12.656   5.567  1.00  0.00     0.136 A 
ATOM      8  C   UNL     1     -35.805  12.449   6.575  1.00  0.00     0.125 A 
ATOM      9  C   UNL     1     -35.595  12.856   7.896  1.00  0.00     0.078 A 
ATOM     10  C   UNL     1     -36.584  12.632   8.859  1.00  0.00     0.223 A 
ENDROOT
BRANCH   1  11
ATOM     11  C   UNL     1     -38.859  11.688   9.437  1.00  0.00     0.091 A 
ATOM     12  C   UNL     1     -40.012  12.488   9.436  1.00  0.00     0.068 A 
ATOM     13  C   UNL     1     -41.063  12.226  10.321  1.00  0.00     0.162 A 
ATOM     14  C   UNL     1     -38.787  10.593  10.316  1.00  0.00     0.068 A 
ATOM     15  C   UNL     1     -40.977  11.143  11.212  1.00  0.00     0.200 A 
ATOM     16  C   UNL     1     -39.836  10.323  11.204  1.00  0.00     0.162 A 
BRANCH  13  17
ATOM     17  O   UNL     1     -42.185  13.054  10.299  1.00  0.00    -0.504 OA
ATOM     18  H   UNL     1     -43.120  12.690  10.158  1.00  0.00     0.293 HD
ENDBRANCH  13  17
BRANCH  15  19
ATOM     19  O   UNL     1     -42.029  10.891  12.094  1.00  0.00    -0.502 OA
ATOM     20  H   UNL     1     -42.046  10.076  12.695  1.00  0.00     0.293 HD
ENDBRANCH  15  19
BRANCH  16  21
ATOM     21  O   UNL     1     -39.751   9.238  12.076  1.00  0.00    -0.504 OA
ATOM     22  H   UNL     1     -39.844   9.354  13.079  1.00  0.00     0.293 HD
ENDBRANCH  16  21
ENDBRANCH   1  11
BRANCH  10  23
ATOM     23  O   UNL     1     -36.402  13.081  10.166  1.00  0.00    -0.500 OA
ATOM     24  H   UNL     1     -36.285  14.065  10.380  1.00  0.00     0.294 HD
ENDBRANCH  10  23
BRANCH   5  25
ATOM     25  O   UNL     1     -36.602  11.190   2.646  1.00  0.00    -0.507 OA
ATOM     26  H   UNL     1     -36.462  10.228   2.360  1.00  0.00     0.293 HD
ENDBRANCH   5  25
BRANCH   7  27
ATOM     27  O   UNL     1     -33.632  13.277   5.863  1.00  0.00    -0.507 OA
ATOM     28  H   UNL     1     -33.030  13.643   5.134  1.00  0.00     0.293 HD
ENDBRANCH   7  27
TORSDOF 7
ENDMDL
MODEL 2
REMARK VINA RESULT:    -7.466      0.080      1.795
REMARK INTER + INTRA:          -9.578
REMARK INTER:                  -9.224
REMARK INTRA:                  -0.353
REMARK UNBOUND:                -0.366
REMARK SMILES Oc1cc(O)c2cc(O)c(-c3cc(O)c(O)c(O)c3)[o+]c2c1
REMARK SMILES IDX 10 1 20 2 21 3 22 4 2 5 3 6 4 7 6 8 7 9 8 10 11 11 12 12
REMARK SMILES IDX 13 13 19 14 15 15 17 16 14 17 16 19 18 21 9 23 1 25 5 27
REMARK H PARENT 14 18 16 20 18 22 9 24 1 26 5 28
REMARK Flexibility Score: inf
ROOT
ATOM      1  C   UNL     1     -37.825  12.012   8.427  1.00  0.00     0.402 A 
ATOM      2  O   UNL     1     -37.987  11.652   7.155  1.00  0.00    -0.202 OA
ATOM      3  C   UNL     1     -37.063  11.852   6.219  1.00  0.00     0.368 A 
ATOM      4  C   UNL     1     -37.309  11.439   4.906  1.00  0.00     0.162 A 
ATOM      5  C   UNL     1     -36.347  11.640   3.912  1.00  0.00     0.128 A 
ATOM      6  C   UNL     1     -35.129  12.257   4.233  1.00  0.00     0.093 A 
ATOM      7  C   UNL     1     -34.870  12.678   5.546  1.00  0.00     0.136 A 
ATOM      8  C   UNL     1     -35.839  12.475   6.545  1.00  0.00     0.125 A 
ATOM      9  C   UNL     1     -35.638  12.881   7.869  1.00  0.00     0.078 A 
ATOM     10  C   UNL     1     -36.637  12.661   8.823  1.00  0.00     0.223 A 
ENDROOT
BRANCH   1  11
ATOM     11  C   UNL     1     -38.921  11.728   9.380  1.00  0.00     0.091 A 
ATOM     12  C   UNL     1     -38.812  10.632  10.250  1.00  0.00     0.068 A 
ATOM     13  C   UNL     1     -39.823  10.351  11.175  1.00  0.00     0.162 A 
ATOM     14  C   UNL     1     -40.046  12.565   9.473  1.00  0.00     0.068 A 
ATOM     15  C   UNL     1     -40.956  11.180  11.250  1.00  0.00     0.200 A 
ATOM     16  C   UNL     1     -41.063  12.292  10.399  1.00  0.00     0.162 A 
BRANCH  13  17
ATOM     17  O   UNL     1     -39.683   9.244  12.011  1.00  0.00    -0.504 OA
ATOM     18  H   UNL     1     -38.846   9.085  12.559  1.00  0.00     0.293 HD
ENDBRANCH  13  17
BRANCH  15  19
ATOM     19  O   UNL     1     -41.961  10.890  12.173  1.00  0.00    -0.502 OA
ATOM     20  H   UNL     1     -42.625  10.138  12.031  1.00  0.00     0.293 HD
ENDBRANCH  15  19
BRANCH  16  21
ATOM     21  O   UNL     1     -42.178  13.126  10.478  1.00  0.00    -0.504 OA
ATOM     22  H   UNL     1     -42.361  13.693  11.298  1.00  0.00     0.293 HD
ENDBRANCH  16  21
ENDBRANCH   1  11
BRANCH  10  23
ATOM     23  O   UNL     1     -36.464  13.109  10.132  1.00  0.00    -0.500 OA
ATOM     24  H   UNL     1     -35.796  13.835  10.362  1.00  0.00     0.294 HD
ENDBRANCH  10  23
BRANCH   5  25
ATOM     25  O   UNL     1     -36.608  11.222   2.609  1.00  0.00    -0.507 OA
ATOM     26  H   UNL     1     -36.990  11.854   1.916  1.00  0.00     0.293 HD
ENDBRANCH   5  25
BRANCH   7  27
ATOM     27  O   UNL     1     -33.656  13.293   5.853  1.00  0.00    -0.507 OA
ATOM     28  H   UNL     1     -33.517  13.789   6.727  1.00  0.00     0.293 HD
ENDBRANCH   7  27
TORSDOF 7
ENDMDL
MODEL 3
REMARK VINA RESULT:    -7.161      5.993     11.314
REMARK INTER + INTRA:          -9.201
REMARK INTER:                  -8.956
REMARK INTRA:                  -0.245
REMARK UNBOUND:                -0.366
REMARK SMILES Oc1cc(O)c2cc(O)c(-c3cc(O)c(O)c(O)c3)[o+]c2c1
REMARK SMILES IDX 10 1 20 2 21 3 22 4 2 5 3 6 4 7 6 8 7 9 8 10 11 11 12 12
REMARK SMILES IDX 13 13 19 14 15 15 17 16 14 17 16 19 18 21 9 23 1 25 5 27
REMARK H PARENT 14 18 16 20 18 22 9 24 1 26 5 28
REMARK Flexibility Score: inf
ROOT
ATOM      1  C   UNL     1     -31.581  14.078   2.094  1.00  0.00     0.402 A 
ATOM      2  O   UNL     1     -32.569  13.228   1.824  1.00  0.00    -0.202 OA
ATOM      3  C   UNL     1     -33.714  13.205   2.500  1.00  0.00     0.368 A 
ATOM      4  C   UNL     1     -34.706  12.283   2.151  1.00  0.00     0.162 A 
ATOM      5  C   UNL     1     -35.915  12.250   2.852  1.00  0.00     0.128 A 
ATOM      6  C   UNL     1     -36.135  13.144   3.908  1.00  0.00     0.093 A 
ATOM      7  C   UNL     1     -35.149  14.073   4.271  1.00  0.00     0.136 A 
ATOM      8  C   UNL     1     -33.932  14.106   3.566  1.00  0.00     0.125 A 
ATOM      9  C   UNL     1     -32.910  15.005   3.888  1.00  0.00     0.078 A 
ATOM     10  C   UNL     1     -31.717  14.993   3.159  1.00  0.00     0.223 A 
ENDROOT
BRANCH   1  11
ATOM     11  C   UNL     1     -30.356  14.014   1.264  1.00  0.00     0.091 A 
ATOM     12  C   UNL     1     -29.604  12.829   1.234  1.00  0.00     0.068 A 
ATOM     13  C   UNL     1     -28.454  12.733   0.445  1.00  0.00     0.162 A 
ATOM     14  C   UNL     1     -29.958  15.096   0.460  1.00  0.00     0.068 A 
ATOM     15  C   UNL     1     -28.050  13.825  -0.342  1.00  0.00     0.200 A 
ATOM     16  C   UNL     1     -28.808  15.008  -0.336  1.00  0.00     0.162 A 
BRANCH  13  17
ATOM     17  O   UNL     1     -27.727  11.543   0.454  1.00  0.00    -0.504 OA
ATOM     18  H   UNL     1     -28.001  10.740  -0.100  1.00  0.00     0.293 HD
ENDBRANCH  13  17
BRANCH  15  19
ATOM     19  O   UNL     1     -26.899  13.722  -1.125  1.00  0.00    -0.502 OA
ATOM     20  H   UNL     1     -26.929  13.426  -2.093  1.00  0.00     0.293 HD
ENDBRANCH  15  19
BRANCH  16  21
ATOM     21  O   UNL     1     -28.420  16.090  -1.124  1.00  0.00    -0.504 OA
ATOM     22  H   UNL     1     -28.978  16.403  -1.910  1.00  0.00     0.293 HD
ENDBRANCH  16  21
ENDBRANCH   1  11
BRANCH  10  23
ATOM     23  O   UNL     1     -30.675  15.851   3.508  1.00  0.00    -0.500 OA
ATOM     24  H   UNL     1     -29.930  15.559   4.129  1.00  0.00     0.294 HD
ENDBRANCH  10  23
BRANCH   5  25
ATOM     25  O   UNL     1     -36.893  11.325   2.489  1.00  0.00    -0.507 OA
ATOM     26  H   UNL     1     -36.655  10.456   2.026  1.00  0.00     0.293 HD
ENDBRANCH   5  25
BRANCH   7  27
ATOM     27  O   UNL     1     -35.379  14.957   5.326  1.00  0.00    -0.507 OA
ATOM     28  H   UNL     1     -35.826  14.656   6.184  1.00  0.00     0.293 HD
ENDBRANCH   7  27
TORSDOF 7
ENDMDL
MODEL 4
REMARK VINA RESULT:    -7.119      0.967      2.536
REMARK INTER + INTRA:          -9.149
REMARK INTER:                  -8.768
REMARK INTRA:                  -0.381
REMARK UNBOUND:                -0.366
REMARK SMILES Oc1cc(O)c2cc(O)c(-c3cc(O)c(O)c(O)c3)[o+]c2c1
REMARK SMILES IDX 10 1 20 2 21 3 22 4 2 5 3 6 4 7 6 8 7 9 8 10 11 11 12 12
REMARK SMILES IDX 13 13 19 14 15 15 17 16 14 17 16 19 18 21 9 23 1 25 5 27
REMARK H PARENT 14 18 16 20 18 22 9 24 1 26 5 28
REMARK Flexibility Score: inf
ROOT
ATOM      1  C   UNL     1     -38.319  11.571   7.932  1.00  0.00     0.402 A 
ATOM      2  O   UNL     1     -37.218  12.311   8.048  1.00  0.00    -0.202 OA
ATOM      3  C   UNL     1     -36.345  12.476   7.058  1.00  0.00     0.368 A 
ATOM      4  C   UNL     1     -35.215  13.274   7.259  1.00  0.00     0.162 A 
ATOM      5  C   UNL     1     -34.290  13.457   6.227  1.00  0.00     0.128 A 
ATOM      6  C   UNL     1     -34.497  12.841   4.985  1.00  0.00     0.093 A 
ATOM      7  C   UNL     1     -35.625  12.036   4.770  1.00  0.00     0.136 A 
ATOM      8  C   UNL     1     -36.555  11.851   5.809  1.00  0.00     0.125 A 
ATOM      9  C   UNL     1     -37.695  11.054   5.655  1.00  0.00     0.078 A 
ATOM     10  C   UNL     1     -38.585  10.898   6.722  1.00  0.00     0.223 A 
ENDROOT
BRANCH   1  11
ATOM     11  C   UNL     1     -39.222  11.470   9.102  1.00  0.00     0.091 A 
ATOM     12  C   UNL     1     -40.282  12.380   9.236  1.00  0.00     0.068 A 
ATOM     13  C   UNL     1     -41.161  12.297  10.320  1.00  0.00     0.162 A 
ATOM     14  C   UNL     1     -39.075  10.447  10.054  1.00  0.00     0.068 A 
ATOM     15  C   UNL     1     -40.998  11.284  11.280  1.00  0.00     0.200 A 
ATOM     16  C   UNL     1     -39.954  10.355  11.142  1.00  0.00     0.162 A 
BRANCH  13  17
ATOM     17  O   UNL     1     -42.193  13.230  10.424  1.00  0.00    -0.504 OA
ATOM     18  H   UNL     1     -42.828  13.420   9.657  1.00  0.00     0.293 HD
ENDBRANCH  13  17
BRANCH  15  19
ATOM     19  O   UNL     1     -41.879  11.211  12.360  1.00  0.00    -0.502 OA
ATOM     20  H   UNL     1     -42.431  10.383  12.552  1.00  0.00     0.293 HD
ENDBRANCH  15  19
BRANCH  16  21
ATOM     21  O   UNL     1     -39.795   9.340  12.084  1.00  0.00    -0.504 OA
ATOM     22  H   UNL     1     -38.914   8.852  12.197  1.00  0.00     0.293 HD
ENDBRANCH  16  21
ENDBRANCH   1  11
BRANCH  10  23
ATOM     23  O   UNL     1     -39.695  10.064   6.590  1.00  0.00    -0.500 OA
ATOM     24  H   UNL     1     -40.032   9.767   5.682  1.00  0.00     0.294 HD
ENDBRANCH  10  23
BRANCH   5  25
ATOM     25  O   UNL     1     -33.169  14.257   6.444  1.00  0.00    -0.507 OA
ATOM     26  H   UNL     1     -32.872  14.947   5.766  1.00  0.00     0.293 HD
ENDBRANCH   5  25
BRANCH   7  27
ATOM     27  O   UNL     1     -35.820  11.426   3.531  1.00  0.00    -0.507 OA
ATOM     28  H   UNL     1     -35.047  11.031   3.006  1.00  0.00     0.293 HD
ENDBRANCH   7  27
TORSDOF 7
ENDMDL
MODEL 5
REMARK VINA RESULT:    -7.059      1.285      7.162
REMARK INTER + INTRA:          -9.075
REMARK INTER:                  -8.709
REMARK INTRA:                  -0.366
REMARK UNBOUND:                -0.366
REMARK SMILES Oc1cc(O)c2cc(O)c(-c3cc(O)c(O)c(O)c3)[o+]c2c1
REMARK SMILES IDX 10 1 20 2 21 3 22 4 2 5 3 6 4 7 6 8 7 9 8 10 11 11 12 12
REMARK SMILES IDX 13 13 19 14 15 15 17 16 14 17 16 19 18 21 9 23 1 25 5 27
REMARK H PARENT 14 18 16 20 18 22 9 24 1 26 5 28
REMARK Flexibility Score: inf
ROOT
ATOM      1  C   UNL     1     -37.856  11.966   8.268  1.00  0.00     0.402 A 
ATOM      2  O   UNL     1     -38.719  12.919   8.615  1.00  0.00    -0.202 OA
ATOM      3  C   UNL     1     -39.641  12.756   9.560  1.00  0.00     0.368 A 
ATOM      4  C   UNL     1     -40.507  13.809   9.870  1.00  0.00     0.162 A 
ATOM      5  C   UNL     1     -41.479  13.652  10.862  1.00  0.00     0.128 A 
ATOM      6  C   UNL     1     -41.585  12.435  11.550  1.00  0.00     0.093 A 
ATOM      7  C   UNL     1     -40.725  11.370  11.249  1.00  0.00     0.136 A 
ATOM      8  C   UNL     1     -39.746  11.528  10.250  1.00  0.00     0.125 A 
ATOM      9  C   UNL     1     -38.866  10.499   9.902  1.00  0.00     0.078 A 
ATOM     10  C   UNL     1     -37.915  10.706   8.897  1.00  0.00     0.223 A 
ENDROOT
BRANCH   1  11
ATOM     11  C   UNL     1     -36.868  12.269   7.207  1.00  0.00     0.091 A 
ATOM     12  C   UNL     1     -37.152  11.917   5.879  1.00  0.00     0.068 A 
ATOM     13  C   UNL     1     -36.246  12.209   4.854  1.00  0.00     0.162 A 
ATOM     14  C   UNL     1     -35.674  12.954   7.492  1.00  0.00     0.068 A 
ATOM     15  C   UNL     1     -35.045  12.876   5.147  1.00  0.00     0.200 A 
ATOM     16  C   UNL     1     -34.762  13.252   6.471  1.00  0.00     0.162 A 
BRANCH  13  17
ATOM     17  O   UNL     1     -36.559  11.829   3.549  1.00  0.00    -0.504 OA
ATOM     18  H   UNL     1     -36.600  12.497   2.788  1.00  0.00     0.293 HD
ENDBRANCH  13  17
BRANCH  15  19
ATOM     19  O   UNL     1     -34.145  13.160   4.119  1.00  0.00    -0.502 OA
ATOM     20  H   UNL     1     -34.400  13.083   3.141  1.00  0.00     0.293 HD
ENDBRANCH  15  19
BRANCH  16  21
ATOM     21  O   UNL     1     -33.578  13.926   6.766  1.00  0.00    -0.504 OA
ATOM     22  H   UNL     1     -32.902  13.550   7.422  1.00  0.00     0.293 HD
ENDBRANCH  16  21
ENDBRANCH   1  11
BRANCH  10  23
ATOM     23  O   UNL     1     -37.069   9.667   8.510  1.00  0.00    -0.500 OA
ATOM     24  H   UNL     1     -36.500   9.728   7.674  1.00  0.00     0.294 HD
ENDBRANCH  10  23
BRANCH   5  25
ATOM     25  O   UNL     1     -42.334  14.712  11.159  1.00  0.00    -0.507 OA
ATOM     26  H   UNL     1     -43.083  14.615  11.834  1.00  0.00     0.293 HD
ENDBRANCH   5  25
BRANCH   7  27
ATOM     27  O   UNL     1     -40.841  10.163  11.939  1.00  0.00    -0.507 OA
ATOM     28  H   UNL     1     -41.454   9.423  11.616  1.00  0.00     0.293 HD
ENDBRANCH   7  27
TORSDOF 7
ENDMDL
MODEL 6
REMARK VINA RESULT:    -7.042      5.636      9.322
REMARK INTER + INTRA:          -9.055
REMARK INTER:                  -9.126
REMARK INTRA:                   0.071
REMARK UNBOUND:                -0.366
REMARK SMILES Oc1cc(O)c2cc(O)c(-c3cc(O)c(O)c(O)c3)[o+]c2c1
REMARK SMILES IDX 10 1 20 2 21 3 22 4 2 5 3 6 4 7 6 8 7 9 8 10 11 11 12 12
REMARK SMILES IDX 13 13 19 14 15 15 17 16 14 17 16 19 18 21 9 23 1 25 5 27
REMARK H PARENT 14 18 16 20 18 22 9 24 1 26 5 28
REMARK Flexibility Score: inf
ROOT
ATOM      1  C   UNL     1     -32.062  14.600   2.224  1.00  0.00     0.402 A 
ATOM      2  O   UNL     1     -30.872  14.596   2.823  1.00  0.00    -0.202 OA
ATOM      3  C   UNL     1     -29.746  14.946   2.207  1.00  0.00     0.368 A 
ATOM      4  C   UNL     1     -28.537  14.919   2.908  1.00  0.00     0.162 A 
ATOM      5  C   UNL     1     -27.347  15.286   2.273  1.00  0.00     0.128 A 
ATOM      6  C   UNL     1     -27.365  15.684   0.929  1.00  0.00     0.093 A 
ATOM      7  C   UNL     1     -28.571  15.714   0.213  1.00  0.00     0.136 A 
ATOM      8  C   UNL     1     -29.768  15.344   0.852  1.00  0.00     0.125 A 
ATOM      9  C   UNL     1     -30.998  15.348   0.186  1.00  0.00     0.078 A 
ATOM     10  C   UNL     1     -32.159  14.964   0.866  1.00  0.00     0.223 A 
ENDROOT
BRANCH   1  11
ATOM     11  C   UNL     1     -33.246  14.199   3.018  1.00  0.00     0.091 A 
ATOM     12  C   UNL     1     -34.192  13.330   2.453  1.00  0.00     0.068 A 
ATOM     13  C   UNL     1     -35.310  12.919   3.185  1.00  0.00     0.162 A 
ATOM     14  C   UNL     1     -33.416  14.625   4.346  1.00  0.00     0.068 A 
ATOM     15  C   UNL     1     -35.486  13.364   4.507  1.00  0.00     0.200 A 
ATOM     16  C   UNL     1     -34.533  14.216   5.088  1.00  0.00     0.162 A 
BRANCH  13  17
ATOM     17  O   UNL     1     -36.235  12.066   2.583  1.00  0.00    -0.504 OA
ATOM     18  H   UNL     1     -37.193  11.996   2.905  1.00  0.00     0.293 HD
ENDBRANCH  13  17
BRANCH  15  19
ATOM     19  O   UNL     1     -36.607  12.951   5.230  1.00  0.00    -0.502 OA
ATOM     20  H   UNL     1     -37.005  12.025   5.127  1.00  0.00     0.293 HD
ENDBRANCH  15  19
BRANCH  16  21
ATOM     21  O   UNL     1     -34.695  14.650   6.403  1.00  0.00    -0.504 OA
ATOM     22  H   UNL     1     -35.582  15.005   6.740  1.00  0.00     0.293 HD
ENDBRANCH  16  21
ENDBRANCH   1  11
BRANCH  10  23
ATOM     23  O   UNL     1     -33.380  14.917   0.193  1.00  0.00    -0.500 OA
ATOM     24  H   UNL     1     -34.197  14.481   0.604  1.00  0.00     0.294 HD
ENDBRANCH  10  23
BRANCH   5  25
ATOM     25  O   UNL     1     -26.151  15.255   2.987  1.00  0.00    -0.507 OA
ATOM     26  H   UNL     1     -26.138  15.270   4.000  1.00  0.00     0.293 HD
ENDBRANCH   5  25
BRANCH   7  27
ATOM     27  O   UNL     1     -28.577  16.110  -1.125  1.00  0.00    -0.507 OA
ATOM     28  H   UNL     1     -28.720  15.444  -1.876  1.00  0.00     0.293 HD
ENDBRANCH   7  27
TORSDOF 7
ENDMDL
MODEL 7
REMARK VINA RESULT:    -7.003      1.201      7.158
REMARK INTER + INTRA:          -9.007
REMARK INTER:                  -8.646
REMARK INTRA:                  -0.361
REMARK UNBOUND:                -0.366
REMARK SMILES Oc1cc(O)c2cc(O)c(-c3cc(O)c(O)c(O)c3)[o+]c2c1
REMARK SMILES IDX 10 1 20 2 21 3 22 4 2 5 3 6 4 7 6 8 7 9 8 10 11 11 12 12
REMARK SMILES IDX 13 13 19 14 15 15 17 16 14 17 16 19 18 21 9 23 1 25 5 27
REMARK H PARENT 14 18 16 20 18 22 9 24 1 26 5 28
REMARK Flexibility Score: inf
ROOT
ATOM      1  C   UNL     1     -37.756  11.633   8.049  1.00  0.00     0.402 A 
ATOM      2  O   UNL     1     -38.772  12.404   8.432  1.00  0.00    -0.202 OA
ATOM      3  C   UNL     1     -39.586  12.088   9.435  1.00  0.00     0.368 A 
ATOM      4  C   UNL     1     -40.628  12.954   9.779  1.00  0.00     0.162 A 
ATOM      5  C   UNL     1     -41.491  12.636  10.832  1.00  0.00     0.128 A 
ATOM      6  C   UNL     1     -41.309  11.444  11.548  1.00  0.00     0.093 A 
ATOM      7  C   UNL     1     -40.269  10.565  11.213  1.00  0.00     0.136 A 
ATOM      8  C   UNL     1     -39.402  10.885  10.153  1.00  0.00     0.125 A 
ATOM      9  C   UNL     1     -38.353  10.043   9.769  1.00  0.00     0.078 A 
ATOM     10  C   UNL     1     -37.523  10.406   8.703  1.00  0.00     0.223 A 
ENDROOT
BRANCH   1  11
ATOM     11  C   UNL     1     -36.912  12.096   6.924  1.00  0.00     0.091 A 
ATOM     12  C   UNL     1     -35.849  12.978   7.176  1.00  0.00     0.068 A 
ATOM     13  C   UNL     1     -35.023  13.417   6.136  1.00  0.00     0.162 A 
ATOM     14  C   UNL     1     -37.115  11.628   5.614  1.00  0.00     0.068 A 
ATOM     15  C   UNL     1     -35.244  12.961   4.825  1.00  0.00     0.200 A 
ATOM     16  C   UNL     1     -36.290  12.060   4.567  1.00  0.00     0.162 A 
BRANCH  13  17
ATOM     17  O   UNL     1     -33.988  14.305   6.426  1.00  0.00    -0.504 OA
ATOM     18  H   UNL     1     -33.945  15.233   6.023  1.00  0.00     0.293 HD
ENDBRANCH  13  17
BRANCH  15  19
ATOM     19  O   UNL     1     -34.416  13.406   3.793  1.00  0.00    -0.502 OA
ATOM     20  H   UNL     1     -33.548  13.897   3.970  1.00  0.00     0.293 HD
ENDBRANCH  15  19
BRANCH  16  21
ATOM     21  O   UNL     1     -36.505  11.594   3.271  1.00  0.00    -0.504 OA
ATOM     22  H   UNL     1     -36.835  12.207   2.533  1.00  0.00     0.293 HD
ENDBRANCH  16  21
ENDBRANCH   1  11
BRANCH  10  23
ATOM     23  O   UNL     1     -36.508   9.548   8.284  1.00  0.00    -0.500 OA
ATOM     24  H   UNL     1     -36.314   8.678   8.767  1.00  0.00     0.294 HD
ENDBRANCH  10  23
BRANCH   5  25
ATOM     25  O   UNL     1     -42.523  13.511  11.162  1.00  0.00    -0.507 OA
ATOM     26  H   UNL     1     -43.442  13.428  10.744  1.00  0.00     0.293 HD
ENDBRANCH   5  25
BRANCH   7  27
ATOM     27  O   UNL     1     -40.100   9.381  11.931  1.00  0.00    -0.507 OA
ATOM     28  H   UNL     1     -39.412   9.302  12.672  1.00  0.00     0.293 HD
ENDBRANCH   7  27
TORSDOF 7
ENDMDL
MODEL 8
REMARK VINA RESULT:    -6.858      2.611      8.075
REMARK INTER + INTRA:          -8.828
REMARK INTER:                  -8.463
REMARK INTRA:                  -0.364
REMARK UNBOUND:                -0.366
REMARK SMILES Oc1cc(O)c2cc(O)c(-c3cc(O)c(O)c(O)c3)[o+]c2c1
REMARK SMILES IDX 10 1 20 2 21 3 22 4 2 5 3 6 4 7 6 8 7 9 8 10 11 11 12 12
REMARK SMILES IDX 13 13 19 14 15 15 17 16 14 17 16 19 18 21 9 23 1 25 5 27
REMARK H PARENT 14 18 16 20 18 22 9 24 1 26 5 28
REMARK Flexibility Score: inf
ROOT
ATOM      1  C   UNL     1     -35.377  13.025   5.521  1.00  0.00     0.402 A 
ATOM      2  O   UNL     1     -36.028  13.800   6.387  1.00  0.00    -0.202 OA
ATOM      3  C   UNL     1     -36.712  13.319   7.421  1.00  0.00     0.368 A 
ATOM      4  C   UNL     1     -37.365  14.200   8.288  1.00  0.00     0.162 A 
ATOM      5  C   UNL     1     -38.086  13.709   9.380  1.00  0.00     0.128 A 
ATOM      6  C   UNL     1     -38.154  12.327   9.608  1.00  0.00     0.093 A 
ATOM      7  C   UNL     1     -37.506  11.431   8.746  1.00  0.00     0.136 A 
ATOM      8  C   UNL     1     -36.781  11.926   7.646  1.00  0.00     0.125 A 
ATOM      9  C   UNL     1     -36.121  11.080   6.749  1.00  0.00     0.078 A 
ATOM     10  C   UNL     1     -35.419  11.623   5.668  1.00  0.00     0.223 A 
ENDROOT
BRANCH   1  11
ATOM     11  C   UNL     1     -34.641  13.678   4.414  1.00  0.00     0.091 A 
ATOM     12  C   UNL     1     -35.265  13.827   3.165  1.00  0.00     0.068 A 
ATOM     13  C   UNL     1     -34.602  14.457   2.107  1.00  0.00     0.162 A 
ATOM     14  C   UNL     1     -33.351  14.203   4.601  1.00  0.00     0.068 A 
ATOM     15  C   UNL     1     -33.303  14.962   2.294  1.00  0.00     0.200 A 
ATOM     16  C   UNL     1     -32.680  14.837   3.546  1.00  0.00     0.162 A 
BRANCH  13  17
ATOM     17  O   UNL     1     -35.250  14.573   0.878  1.00  0.00    -0.504 OA
ATOM     18  H   UNL     1     -34.947  15.230   0.168  1.00  0.00     0.293 HD
ENDBRANCH  13  17
BRANCH  15  19
ATOM     19  O   UNL     1     -32.648  15.586   1.231  1.00  0.00    -0.502 OA
ATOM     20  H   UNL     1     -32.371  15.083   0.397  1.00  0.00     0.293 HD
ENDBRANCH  15  19
BRANCH  16  21
ATOM     21  O   UNL     1     -31.398  15.348   3.742  1.00  0.00    -0.504 OA
ATOM     22  H   UNL     1     -31.190  15.988   4.499  1.00  0.00     0.293 HD
ENDBRANCH  16  21
ENDBRANCH   1  11
BRANCH  10  23
ATOM     23  O   UNL     1     -34.803  10.784   4.742  1.00  0.00    -0.500 OA
ATOM     24  H   UNL     1     -34.581   9.820   4.962  1.00  0.00     0.294 HD
ENDBRANCH  10  23
BRANCH   5  25
ATOM     25  O   UNL     1     -38.729  14.601  10.236  1.00  0.00    -0.507 OA
ATOM     26  H   UNL     1     -39.643  14.398  10.623  1.00  0.00     0.293 HD
ENDBRANCH   5  25
BRANCH   7  27
ATOM     27  O   UNL     1     -37.583  10.058   8.981  1.00  0.00    -0.507 OA
ATOM     28  H   UNL     1     -37.334   9.382   8.267  1.00  0.00     0.293 HD
ENDBRANCH   7  27
TORSDOF 7
ENDMDL
MODEL 9
REMARK VINA RESULT:    -6.749      5.633     11.541
REMARK INTER + INTRA:          -8.693
REMARK INTER:                  -8.312
REMARK INTRA:                  -0.381
REMARK UNBOUND:                -0.366
REMARK SMILES Oc1cc(O)c2cc(O)c(-c3cc(O)c(O)c(O)c3)[o+]c2c1
REMARK SMILES IDX 10 1 20 2 21 3 22 4 2 5 3 6 4 7 6 8 7 9 8 10 11 11 12 12
REMARK SMILES IDX 13 13 19 14 15 15 17 16 14 17 16 19 18 21 9 23 1 25 5 27
REMARK H PARENT 14 18 16 20 18 22 9 24 1 26 5 28
REMARK Flexibility Score: inf
ROOT
ATOM      1  C   UNL     1     -32.131  13.498   1.387  1.00  0.00     0.402 A 
ATOM      2  O   UNL     1     -32.339  13.924   2.631  1.00  0.00    -0.202 OA
ATOM      3  C   UNL     1     -33.514  13.824   3.247  1.00  0.00     0.368 A 
ATOM      4  C   UNL     1     -33.649  14.291   4.558  1.00  0.00     0.162 A 
ATOM      5  C   UNL     1     -34.877  14.190   5.219  1.00  0.00     0.128 A 
ATOM      6  C   UNL     1     -35.976  13.616   4.566  1.00  0.00     0.093 A 
ATOM      7  C   UNL     1     -35.856  13.144   3.251  1.00  0.00     0.136 A 
ATOM      8  C   UNL     1     -34.620  13.247   2.586  1.00  0.00     0.125 A 
ATOM      9  C   UNL     1     -34.443  12.800   1.272  1.00  0.00     0.078 A 
ATOM     10  C   UNL     1     -33.195  12.932   0.655  1.00  0.00     0.223 A 
ENDROOT
BRANCH   1  11
ATOM     11  C   UNL     1     -30.776  13.656   0.810  1.00  0.00     0.091 A 
ATOM     12  C   UNL     1     -29.857  12.600   0.909  1.00  0.00     0.068 A 
ATOM     13  C   UNL     1     -28.577  12.713   0.357  1.00  0.00     0.162 A 
ATOM     14  C   UNL     1     -30.407  14.821   0.115  1.00  0.00     0.068 A 
ATOM     15  C   UNL     1     -28.206  13.888  -0.320  1.00  0.00     0.200 A 
ATOM     16  C   UNL     1     -29.127  14.942  -0.444  1.00  0.00     0.162 A 
BRANCH  13  17
ATOM     17  O   UNL     1     -27.689  11.647   0.489  1.00  0.00    -0.504 OA
ATOM     18  H   UNL     1     -27.206  11.453   1.359  1.00  0.00     0.293 HD
ENDBRANCH  13  17
BRANCH  15  19
ATOM     19  O   UNL     1     -26.926  13.994  -0.865  1.00  0.00    -0.502 OA
ATOM     20  H   UNL     1     -26.150  13.431  -0.537  1.00  0.00     0.293 HD
ENDBRANCH  15  19
BRANCH  16  21
ATOM     21  O   UNL     1     -28.770  16.104  -1.125  1.00  0.00    -0.504 OA
ATOM     22  H   UNL     1     -28.391  16.910  -0.640  1.00  0.00     0.293 HD
ENDBRANCH  16  21
ENDBRANCH   1  11
BRANCH  10  23
ATOM     23  O   UNL     1     -33.025  12.536  -0.671  1.00  0.00    -0.500 OA
ATOM     24  H   UNL     1     -33.749  12.035  -1.173  1.00  0.00     0.294 HD
ENDBRANCH  10  23
BRANCH   5  25
ATOM     25  O   UNL     1     -34.994  14.660   6.525  1.00  0.00    -0.507 OA
ATOM     26  H   UNL     1     -34.368  15.367   6.892  1.00  0.00     0.293 HD
ENDBRANCH   5  25
BRANCH   7  27
ATOM     27  O   UNL     1     -36.957  12.576   2.610  1.00  0.00    -0.507 OA
ATOM     28  H   UNL     1     -37.884  12.605   3.020  1.00  0.00     0.293 HD
ENDBRANCH   7  27
TORSDOF 7
ENDMDL
