MODEL 1
REMARK VINA RESULT:    -3.816      0.000      0.000
REMARK INTER + INTRA:          -7.452
REMARK INTER:                  -6.492
REMARK INTRA:                  -0.960
REMARK UNBOUND:                -0.960
REMARK SMILES CCCCCCCCCCCCCC(=O)[O-]
REMARK SMILES IDX 8 1 9 2 10 3 11 4 12 5 13 6 14 7 15 8 16 9 7 10 6 11 5 12
REMARK SMILES IDX 4 13 3 14 2 15 1 16
REMARK H PARENT
REMARK Flexibility Score: inf
ROOT
ATOM      1  C   UNL     1     155.563 155.530 166.770  1.00  0.00     0.000 C 
ENDROOT
BRANCH   1   2
ATOM      2  C   UNL     1     154.061 155.790 167.003  1.00  0.00     0.000 C 
BRANCH   2   3
ATOM      3  C   UNL     1     153.530 155.053 168.246  1.00  0.00     0.000 C 
BRANCH   3   4
ATOM      4  C   UNL     1     154.638 154.720 169.257  1.00  0.00     0.000 C 
BRANCH   4   5
ATOM      5  C   UNL     1     154.132 154.708 170.708  1.00  0.00     0.006 C 
BRANCH   5   6
ATOM      6  C   UNL     1     153.745 153.291 171.140  1.00  0.00     0.053 C 
BRANCH   6   7
ATOM      7  C   UNL     1     153.817 153.158 172.629  1.00  0.00     0.041 C 
ATOM      8  O   UNL     1     153.361 154.068 173.369  1.00  0.00    -0.550 OA
ATOM      9  O   UNL     1     154.434 152.051 173.198  1.00  0.00    -0.550 OA
ENDBRANCH   6   7
ENDBRANCH   5   6
ENDBRANCH   4   5
ENDBRANCH   3   4
ENDBRANCH   2   3
ENDBRANCH   1   2
BRANCH   1  10
ATOM     10  C   UNL     1     155.853 154.658 165.535  1.00  0.00     0.000 C 
BRANCH  10  11
ATOM     11  C   UNL     1     155.469 155.345 164.215  1.00  0.00    -0.000 C 
BRANCH  11  12
ATOM     12  C   UNL     1     154.062 154.933 163.732  1.00  0.00    -0.000 C 
BRANCH  12  13
ATOM     13  C   UNL     1     153.197 156.120 163.274  1.00  0.00    -0.000 C 
BRANCH  13  14
ATOM     14  C   UNL     1     153.968 157.451 163.264  1.00  0.00    -0.000 C 
BRANCH  14  15
ATOM     15  C   UNL     1     153.203 158.580 163.972  1.00  0.00    -0.003 C 
ATOM     16  C   UNL     1     153.861 159.004 165.285  1.00  0.00     0.004 C 
ENDBRANCH  14  15
ENDBRANCH  13  14
ENDBRANCH  12  13
ENDBRANCH  11  12
ENDBRANCH  10  11
ENDBRANCH   1  10
TORSDOF 12
ENDMDL
MODEL 2
REMARK VINA RESULT:    -3.812      3.557      7.527
REMARK INTER + INTRA:          -7.447
REMARK INTER:                  -6.471
REMARK INTRA:                  -0.976
REMARK UNBOUND:                -0.960
REMARK SMILES CCCCCCCCCCCCCC(=O)[O-]
REMARK SMILES IDX 8 1 9 2 10 3 11 4 12 5 13 6 14 7 15 8 16 9 7 10 6 11 5 12
REMARK SMILES IDX 4 13 3 14 2 15 1 16
REMARK H PARENT
REMARK Flexibility Score: inf
ROOT
ATOM      1  C   UNL     1     153.049 155.669 168.037  1.00  0.00     0.000 C 
ENDROOT
BRANCH   1   2
ATOM      2  C   UNL     1     153.627 155.283 166.660  1.00  0.00     0.000 C 
BRANCH   2   3
ATOM      3  C   UNL     1     154.487 156.407 166.055  1.00  0.00     0.000 C 
BRANCH   3   4
ATOM      4  C   UNL     1     155.985 156.067 166.044  1.00  0.00     0.000 C 
BRANCH   4   5
ATOM      5  C   UNL     1     156.290 154.710 166.697  1.00  0.00     0.006 C 
BRANCH   5   6
ATOM      6  C   UNL     1     157.164 153.847 165.782  1.00  0.00     0.053 C 
BRANCH   6   7
ATOM      7  C   UNL     1     156.346 153.265 164.673  1.00  0.00     0.041 C 
ATOM      8  O   UNL     1     155.275 152.654 164.927  1.00  0.00    -0.550 OA
ATOM      9  O   UNL     1     156.793 153.354 163.360  1.00  0.00    -0.550 OA
ENDBRANCH   6   7
ENDBRANCH   5   6
ENDBRANCH   4   5
ENDBRANCH   3   4
ENDBRANCH   2   3
ENDBRANCH   1   2
BRANCH   1  10
ATOM     10  C   UNL     1     153.227 154.578 169.108  1.00  0.00     0.000 C 
BRANCH  10  11
ATOM     11  C   UNL     1     154.476 154.791 169.978  1.00  0.00    -0.000 C 
BRANCH  11  12
ATOM     12  C   UNL     1     154.120 155.265 171.403  1.00  0.00    -0.000 C 
BRANCH  12  13
ATOM     13  C   UNL     1     153.268 154.255 172.191  1.00  0.00    -0.000 C 
BRANCH  13  14
ATOM     14  C   UNL     1     154.011 152.939 172.475  1.00  0.00    -0.000 C 
BRANCH  14  15
ATOM     15  C   UNL     1     154.359 152.768 173.962  1.00  0.00    -0.003 C 
ATOM     16  C   UNL     1     155.786 152.266 174.179  1.00  0.00     0.004 C 
ENDBRANCH  14  15
ENDBRANCH  13  14
ENDBRANCH  12  13
ENDBRANCH  11  12
ENDBRANCH  10  11
ENDBRANCH   1  10
TORSDOF 12
ENDMDL
MODEL 3
REMARK VINA RESULT:    -3.773      4.903      6.945
REMARK INTER + INTRA:          -7.380
REMARK INTER:                  -5.952
REMARK INTRA:                  -1.428
REMARK UNBOUND:                -0.960
REMARK SMILES CCCCCCCCCCCCCC(=O)[O-]
REMARK SMILES IDX 8 1 9 2 10 3 11 4 12 5 13 6 14 7 15 8 16 9 7 10 6 11 5 12
REMARK SMILES IDX 4 13 3 14 2 15 1 16
REMARK H PARENT
REMARK Flexibility Score: inf
ROOT
ATOM      1  C   UNL     1     156.639 154.198 163.859  1.00  0.00     0.000 C 
ENDROOT
BRANCH   1   2
ATOM      2  C   UNL     1     156.446 152.688 164.111  1.00  0.00     0.000 C 
BRANCH   2   3
ATOM      3  C   UNL     1     157.777 151.972 164.398  1.00  0.00     0.000 C 
BRANCH   3   4
ATOM      4  C   UNL     1     158.742 152.827 165.234  1.00  0.00     0.000 C 
BRANCH   4   5
ATOM      5  C   UNL     1     159.950 152.028 165.748  1.00  0.00     0.006 C 
BRANCH   5   6
ATOM      6  C   UNL     1     160.664 152.779 166.875  1.00  0.00     0.053 C 
BRANCH   6   7
ATOM      7  C   UNL     1     162.094 153.031 166.513  1.00  0.00     0.041 C 
ATOM      8  O   UNL     1     163.020 152.530 167.202  1.00  0.00    -0.550 OA
ATOM      9  O   UNL     1     162.403 153.862 165.444  1.00  0.00    -0.550 OA
ENDBRANCH   6   7
ENDBRANCH   5   6
ENDBRANCH   4   5
ENDBRANCH   3   4
ENDBRANCH   2   3
ENDBRANCH   1   2
BRANCH   1  10
ATOM     10  C   UNL     1     155.320 154.991 163.825  1.00  0.00     0.000 C 
BRANCH  10  11
ATOM     11  C   UNL     1     155.053 155.762 165.128  1.00  0.00    -0.000 C 
BRANCH  11  12
ATOM     12  C   UNL     1     156.298 155.818 166.038  1.00  0.00    -0.000 C 
BRANCH  12  13
ATOM     13  C   UNL     1     156.213 154.881 167.255  1.00  0.00    -0.000 C 
BRANCH  13  14
ATOM     14  C   UNL     1     154.764 154.589 167.682  1.00  0.00    -0.000 C 
BRANCH  14  15
ATOM     15  C   UNL     1     154.461 153.084 167.747  1.00  0.00    -0.003 C 
ATOM     16  C   UNL     1     153.707 152.581 166.517  1.00  0.00     0.004 C 
ENDBRANCH  14  15
ENDBRANCH  13  14
ENDBRANCH  12  13
ENDBRANCH  11  12
ENDBRANCH  10  11
ENDBRANCH   1  10
TORSDOF 12
ENDMDL
MODEL 4
REMARK VINA RESULT:    -3.722     14.459     16.907
REMARK INTER + INTRA:          -7.293
REMARK INTER:                  -5.243
REMARK INTRA:                  -2.050
REMARK UNBOUND:                -0.960
REMARK SMILES CCCCCCCCCCCCCC(=O)[O-]
REMARK SMILES IDX 8 1 9 2 10 3 11 4 12 5 13 6 14 7 15 8 16 9 7 10 6 11 5 12
REMARK SMILES IDX 4 13 3 14 2 15 1 16
REMARK H PARENT
REMARK Flexibility Score: inf
ROOT
ATOM      1  C   UNL     1     168.448 153.542 179.895  1.00  0.00     0.000 C 
ENDROOT
BRANCH   1   2
ATOM      2  C   UNL     1     167.003 153.385 180.411  1.00  0.00     0.000 C 
BRANCH   2   3
ATOM      3  C   UNL     1     166.288 154.740 180.557  1.00  0.00     0.000 C 
BRANCH   3   4
ATOM      4  C   UNL     1     166.807 155.795 179.568  1.00  0.00     0.000 C 
BRANCH   4   5
ATOM      5  C   UNL     1     165.684 156.673 178.994  1.00  0.00     0.006 C 
BRANCH   5   6
ATOM      6  C   UNL     1     164.324 155.984 179.136  1.00  0.00     0.053 C 
BRANCH   6   7
ATOM      7  C   UNL     1     163.440 156.324 177.979  1.00  0.00     0.041 C 
ATOM      8  O   UNL     1     162.788 157.401 177.974  1.00  0.00    -0.550 OA
ATOM      9  O   UNL     1     163.297 155.427 176.927  1.00  0.00    -0.550 OA
ENDBRANCH   6   7
ENDBRANCH   5   6
ENDBRANCH   4   5
ENDBRANCH   3   4
ENDBRANCH   2   3
ENDBRANCH   1   2
BRANCH   1  10
ATOM     10  C   UNL     1     168.955 152.326 179.099  1.00  0.00     0.000 C 
BRANCH  10  11
ATOM     11  C   UNL     1     167.840 151.321 178.769  1.00  0.00    -0.000 C 
BRANCH  11  12
ATOM     12  C   UNL     1     167.401 151.402 177.291  1.00  0.00    -0.000 C 
BRANCH  12  13
ATOM     13  C   UNL     1     166.091 152.179 177.081  1.00  0.00    -0.000 C 
BRANCH  13  14
ATOM     14  C   UNL     1     166.325 153.657 176.722  1.00  0.00    -0.000 C 
BRANCH  14  15
ATOM     15  C   UNL     1     167.581 153.863 175.862  1.00  0.00    -0.003 C 
ATOM     16  C   UNL     1     168.517 154.928 176.433  1.00  0.00     0.004 C 
ENDBRANCH  14  15
ENDBRANCH  13  14
ENDBRANCH  12  13
ENDBRANCH  11  12
ENDBRANCH  10  11
ENDBRANCH   1  10
TORSDOF 12
ENDMDL
MODEL 5
REMARK VINA RESULT:    -3.708      5.257      6.878
REMARK INTER + INTRA:          -7.269
REMARK INTER:                  -6.292
REMARK INTRA:                  -0.977
REMARK UNBOUND:                -0.960
REMARK SMILES CCCCCCCCCCCCCC(=O)[O-]
REMARK SMILES IDX 8 1 9 2 10 3 11 4 12 5 13 6 14 7 15 8 16 9 7 10 6 11 5 12
REMARK SMILES IDX 4 13 3 14 2 15 1 16
REMARK H PARENT
REMARK Flexibility Score: inf
ROOT
ATOM      1  C   UNL     1     158.346 153.026 163.554  1.00  0.00     0.000 C 
ENDROOT
BRANCH   1   2
ATOM      2  C   UNL     1     159.835 153.284 163.246  1.00  0.00     0.000 C 
BRANCH   2   3
ATOM      3  C   UNL     1     160.725 153.112 164.490  1.00  0.00     0.000 C 
BRANCH   3   4
ATOM      4  C   UNL     1     159.965 152.511 165.683  1.00  0.00     0.000 C 
BRANCH   4   5
ATOM      5  C   UNL     1     160.659 152.788 167.027  1.00  0.00     0.006 C 
BRANCH   5   6
ATOM      6  C   UNL     1     162.157 153.032 166.829  1.00  0.00     0.053 C 
BRANCH   6   7
ATOM      7  C   UNL     1     162.947 152.342 167.896  1.00  0.00     0.041 C 
ATOM      8  O   UNL     1     162.537 152.340 169.086  1.00  0.00    -0.550 OA
ATOM      9  O   UNL     1     164.161 151.743 167.585  1.00  0.00    -0.550 OA
ENDBRANCH   6   7
ENDBRANCH   5   6
ENDBRANCH   4   5
ENDBRANCH   3   4
ENDBRANCH   2   3
ENDBRANCH   1   2
BRANCH   1  10
ATOM     10  C   UNL     1     157.392 154.017 162.865  1.00  0.00     0.000 C 
BRANCH  10  11
ATOM     11  C   UNL     1     156.240 154.469 163.775  1.00  0.00    -0.000 C 
BRANCH  11  12
ATOM     12  C   UNL     1     156.523 154.175 165.264  1.00  0.00    -0.000 C 
BRANCH  12  13
ATOM     13  C   UNL     1     156.402 155.412 166.169  1.00  0.00    -0.000 C 
BRANCH  13  14
ATOM     14  C   UNL     1     155.149 155.380 167.060  1.00  0.00    -0.000 C 
BRANCH  14  15
ATOM     15  C   UNL     1     153.936 156.051 166.397  1.00  0.00    -0.003 C 
ATOM     16  C   UNL     1     154.318 157.293 165.593  1.00  0.00     0.004 C 
ENDBRANCH  14  15
ENDBRANCH  13  14
ENDBRANCH  12  13
ENDBRANCH  11  12
ENDBRANCH  10  11
ENDBRANCH   1  10
TORSDOF 12
ENDMDL
MODEL 6
REMARK VINA RESULT:    -3.671      4.757      7.009
REMARK INTER + INTRA:          -7.206
REMARK INTER:                  -5.234
REMARK INTRA:                  -1.971
REMARK UNBOUND:                -0.960
REMARK SMILES CCCCCCCCCCCCCC(=O)[O-]
REMARK SMILES IDX 8 1 9 2 10 3 11 4 12 5 13 6 14 7 15 8 16 9 7 10 6 11 5 12
REMARK SMILES IDX 4 13 3 14 2 15 1 16
REMARK H PARENT
REMARK Flexibility Score: inf
ROOT
ATOM      1  C   UNL     1     154.289 155.822 163.371  1.00  0.00     0.000 C 
ENDROOT
BRANCH   1   2
ATOM      2  C   UNL     1     155.207 154.641 163.746  1.00  0.00     0.000 C 
BRANCH   2   3
ATOM      3  C   UNL     1     156.212 155.013 164.851  1.00  0.00     0.000 C 
BRANCH   3   4
ATOM      4  C   UNL     1     157.025 153.806 165.345  1.00  0.00     0.000 C 
BRANCH   4   5
ATOM      5  C   UNL     1     156.776 152.541 164.509  1.00  0.00     0.006 C 
BRANCH   5   6
ATOM      6  C   UNL     1     158.098 151.892 164.092  1.00  0.00     0.053 C 
BRANCH   6   7
ATOM      7  C   UNL     1     158.291 151.997 162.612  1.00  0.00     0.041 C 
ATOM      8  O   UNL     1     158.994 151.149 162.002  1.00  0.00    -0.550 OA
ATOM      9  O   UNL     1     157.735 153.061 161.913  1.00  0.00    -0.550 OA
ENDBRANCH   6   7
ENDBRANCH   5   6
ENDBRANCH   4   5
ENDBRANCH   3   4
ENDBRANCH   2   3
ENDBRANCH   1   2
BRANCH   1  10
ATOM     10  C   UNL     1     153.011 155.904 164.224  1.00  0.00     0.000 C 
BRANCH  10  11
ATOM     11  C   UNL     1     153.055 157.039 165.260  1.00  0.00    -0.000 C 
BRANCH  11  12
ATOM     12  C   UNL     1     153.159 156.505 166.705  1.00  0.00    -0.000 C 
BRANCH  12  13
ATOM     13  C   UNL     1     152.957 154.984 166.814  1.00  0.00    -0.000 C 
BRANCH  13  14
ATOM     14  C   UNL     1     153.983 154.310 167.740  1.00  0.00    -0.000 C 
BRANCH  14  15
ATOM     15  C   UNL     1     154.170 152.818 167.426  1.00  0.00    -0.003 C 
ATOM     16  C   UNL     1     153.421 152.382 166.167  1.00  0.00     0.004 C 
ENDBRANCH  14  15
ENDBRANCH  13  14
ENDBRANCH  12  13
ENDBRANCH  11  12
ENDBRANCH  10  11
ENDBRANCH   1  10
TORSDOF 12
ENDMDL
MODEL 7
REMARK VINA RESULT:    -3.659     14.372     17.369
REMARK INTER + INTRA:          -7.186
REMARK INTER:                  -5.274
REMARK INTRA:                  -1.912
REMARK UNBOUND:                -0.960
REMARK SMILES CCCCCCCCCCCCCC(=O)[O-]
REMARK SMILES IDX 8 1 9 2 10 3 11 4 12 5 13 6 14 7 15 8 16 9 7 10 6 11 5 12
REMARK SMILES IDX 4 13 3 14 2 15 1 16
REMARK H PARENT
REMARK Flexibility Score: inf
ROOT
ATOM      1  C   UNL     1     166.022 152.386 177.276  1.00  0.00     0.000 C 
ENDROOT
BRANCH   1   2
ATOM      2  C   UNL     1     166.332 153.700 176.530  1.00  0.00     0.000 C 
BRANCH   2   3
ATOM      3  C   UNL     1     167.777 153.740 176.001  1.00  0.00     0.000 C 
BRANCH   3   4
ATOM      4  C   UNL     1     168.127 155.078 175.330  1.00  0.00     0.000 C 
BRANCH   4   5
ATOM      5  C   UNL     1     167.472 156.280 176.029  1.00  0.00     0.006 C 
BRANCH   5   6
ATOM      6  C   UNL     1     166.940 157.285 175.003  1.00  0.00     0.053 C 
BRANCH   6   7
ATOM      7  C   UNL     1     165.445 157.337 175.047  1.00  0.00     0.041 C 
ATOM      8  O   UNL     1     164.860 158.328 175.556  1.00  0.00    -0.550 OA
ATOM      9  O   UNL     1     164.699 156.267 174.569  1.00  0.00    -0.550 OA
ENDBRANCH   6   7
ENDBRANCH   5   6
ENDBRANCH   4   5
ENDBRANCH   3   4
ENDBRANCH   2   3
ENDBRANCH   1   2
BRANCH   1  10
ATOM     10  C   UNL     1     167.186 151.380 177.265  1.00  0.00     0.000 C 
BRANCH  10  11
ATOM     11  C   UNL     1     167.621 150.954 178.677  1.00  0.00    -0.000 C 
BRANCH  11  12
ATOM     12  C   UNL     1     168.889 151.701 179.146  1.00  0.00    -0.000 C 
BRANCH  12  13
ATOM     13  C   UNL     1     168.599 152.834 180.144  1.00  0.00    -0.000 C 
BRANCH  13  14
ATOM     14  C   UNL     1     168.680 154.230 179.503  1.00  0.00    -0.000 C 
BRANCH  14  15
ATOM     15  C   UNL     1     167.424 155.074 179.768  1.00  0.00    -0.003 C 
ATOM     16  C   UNL     1     166.315 154.280 180.457  1.00  0.00     0.004 C 
ENDBRANCH  14  15
ENDBRANCH  13  14
ENDBRANCH  12  13
ENDBRANCH  11  12
ENDBRANCH  10  11
ENDBRANCH   1  10
TORSDOF 12
ENDMDL
MODEL 8
REMARK VINA RESULT:    -3.632     15.446     17.140
REMARK INTER + INTRA:          -7.140
REMARK INTER:                  -4.979
REMARK INTRA:                  -2.161
REMARK UNBOUND:                -0.960
REMARK SMILES CCCCCCCCCCCCCC(=O)[O-]
REMARK SMILES IDX 8 1 9 2 10 3 11 4 12 5 13 6 14 7 15 8 16 9 7 10 6 11 5 12
REMARK SMILES IDX 4 13 3 14 2 15 1 16
REMARK H PARENT
REMARK Flexibility Score: inf
ROOT
ATOM      1  C   UNL     1     168.494 151.688 179.493  1.00  0.00     0.000 C 
ENDROOT
BRANCH   1   2
ATOM      2  C   UNL     1     169.449 152.628 178.728  1.00  0.00     0.000 C 
BRANCH   2   3
ATOM      3  C   UNL     1     169.315 154.091 179.186  1.00  0.00     0.000 C 
BRANCH   3   4
ATOM      4  C   UNL     1     168.023 154.350 179.976  1.00  0.00     0.000 C 
BRANCH   4   5
ATOM      5  C   UNL     1     167.178 155.484 179.375  1.00  0.00     0.006 C 
BRANCH   5   6
ATOM      6  C   UNL     1     165.695 155.298 179.709  1.00  0.00     0.053 C 
BRANCH   6   7
ATOM      7  C   UNL     1     164.848 156.168 178.835  1.00  0.00     0.041 C 
ATOM      8  O   UNL     1     163.672 155.823 178.547  1.00  0.00    -0.550 OA
ATOM      9  O   UNL     1     165.375 157.335 178.298  1.00  0.00    -0.550 OA
ENDBRANCH   6   7
ENDBRANCH   5   6
ENDBRANCH   4   5
ENDBRANCH   3   4
ENDBRANCH   2   3
ENDBRANCH   1   2
BRANCH   1  10
ATOM     10  C   UNL     1     167.539 150.901 178.579  1.00  0.00     0.000 C 
BRANCH  10  11
ATOM     11  C   UNL     1     167.377 151.541 177.191  1.00  0.00    -0.000 C 
BRANCH  11  12
ATOM     12  C   UNL     1     166.139 152.460 177.113  1.00  0.00    -0.000 C 
BRANCH  12  13
ATOM     13  C   UNL     1     166.411 153.797 176.402  1.00  0.00    -0.000 C 
BRANCH  13  14
ATOM     14  C   UNL     1     167.786 153.839 175.715  1.00  0.00    -0.000 C 
BRANCH  14  15
ATOM     15  C   UNL     1     168.411 155.242 175.734  1.00  0.00    -0.003 C 
ATOM     16  C   UNL     1     167.384 156.348 175.494  1.00  0.00     0.004 C 
ENDBRANCH  14  15
ENDBRANCH  13  14
ENDBRANCH  12  13
ENDBRANCH  11  12
ENDBRANCH  10  11
ENDBRANCH   1  10
TORSDOF 12
ENDMDL
MODEL 9
REMARK VINA RESULT:    -3.631     14.993     18.065
REMARK INTER + INTRA:          -7.138
REMARK INTER:                  -4.980
REMARK INTRA:                  -2.157
REMARK UNBOUND:                -0.960
REMARK SMILES CCCCCCCCCCCCCC(=O)[O-]
REMARK SMILES IDX 8 1 9 2 10 3 11 4 12 5 13 6 14 7 15 8 16 9 7 10 6 11 5 12
REMARK SMILES IDX 4 13 3 14 2 15 1 16
REMARK H PARENT
REMARK Flexibility Score: inf
ROOT
ATOM      1  C   UNL     1     168.325 150.875 179.177  1.00  0.00     0.000 C 
ENDROOT
BRANCH   1   2
ATOM      2  C   UNL     1     167.295 151.082 178.048  1.00  0.00     0.000 C 
BRANCH   2   3
ATOM      3  C   UNL     1     167.875 151.890 176.873  1.00  0.00     0.000 C 
BRANCH   3   4
ATOM      4  C   UNL     1     167.082 153.176 176.589  1.00  0.00     0.000 C 
BRANCH   4   5
ATOM      5  C   UNL     1     165.896 153.365 177.547  1.00  0.00     0.006 C 
BRANCH   5   6
ATOM      6  C   UNL     1     165.620 154.852 177.790  1.00  0.00     0.053 C 
BRANCH   6   7
ATOM      7  C   UNL     1     164.547 155.343 176.870  1.00  0.00     0.041 C 
ATOM      8  O   UNL     1     163.346 155.352 177.245  1.00  0.00    -0.550 OA
ATOM      9  O   UNL     1     164.869 155.743 175.579  1.00  0.00    -0.550 OA
ENDBRANCH   6   7
ENDBRANCH   5   6
ENDBRANCH   4   5
ENDBRANCH   3   4
ENDBRANCH   2   3
ENDBRANCH   1   2
BRANCH   1  10
ATOM     10  C   UNL     1     167.819 151.316 180.562  1.00  0.00     0.000 C 
BRANCH  10  11
ATOM     11  C   UNL     1     168.546 152.561 181.095  1.00  0.00    -0.000 C 
BRANCH  11  12
ATOM     12  C   UNL     1     167.889 153.871 180.612  1.00  0.00    -0.000 C 
BRANCH  12  13
ATOM     13  C   UNL     1     168.833 154.768 179.794  1.00  0.00    -0.000 C 
BRANCH  13  14
ATOM     14  C   UNL     1     170.167 154.079 179.458  1.00  0.00    -0.000 C 
BRANCH  14  15
ATOM     15  C   UNL     1     170.596 154.307 178.000  1.00  0.00    -0.003 C 
ATOM     16  C   UNL     1     169.800 155.419 177.318  1.00  0.00     0.004 C 
ENDBRANCH  14  15
ENDBRANCH  13  14
ENDBRANCH  12  13
ENDBRANCH  11  12
ENDBRANCH  10  11
ENDBRANCH   1  10
TORSDOF 12
ENDMDL
