MODEL 1
REMARK VINA RESULT:    -5.726      0.000      0.000
REMARK INTER + INTRA:         -18.549
REMARK INTER:                 -15.098
REMARK INTRA:                  -3.451
REMARK UNBOUND:                -3.451
REMARK SMILES CCCCCCCCCCCCCCCCCCCCCCCCCCCCCC(=O)[O-]
REMARK SMILES IDX 16 1 17 2 18 3 19 4 20 5 21 6 22 7 23 8 24 9 25 10 26 11
REMARK SMILES IDX 27 12 28 13 29 14 30 15 31 16 32 17 15 18 14 19 13 20 12 21
REMARK SMILES IDX 11 22 10 23 9 24 8 25 7 26 6 27 5 28 4 29 3 30 2 31 1 32
REMARK H PARENT
REMARK Flexibility Score: inf
ROOT
ATOM      1  C   UNL     1      -7.114 -13.532  -5.332  1.00  0.00     0.000 C 
ENDROOT
BRANCH   1   2
ATOM      2  C   UNL     1      -8.581 -13.850  -5.647  1.00  0.00     0.000 C 
BRANCH   2   3
ATOM      3  C   UNL     1      -8.727 -15.269  -6.211  1.00  0.00     0.000 C 
BRANCH   3   4
ATOM      4  C   UNL     1      -7.382 -15.797  -6.732  1.00  0.00     0.000 C 
BRANCH   4   5
ATOM      5  C   UNL     1      -7.014 -17.171  -6.142  1.00  0.00     0.000 C 
BRANCH   5   6
ATOM      6  C   UNL     1      -7.931 -17.656  -4.998  1.00  0.00     0.000 C 
BRANCH   6   7
ATOM      7  C   UNL     1      -8.678 -18.976  -5.266  1.00  0.00     0.000 C 
BRANCH   7   8
ATOM      8  C   UNL     1      -9.122 -19.125  -6.728  1.00  0.00     0.000 C 
BRANCH   8   9
ATOM      9  C   UNL     1     -10.429 -18.363  -6.993  1.00  0.00     0.000 C 
BRANCH   9  10
ATOM     10  C   UNL     1     -10.539 -17.844  -8.442  1.00  0.00     0.000 C 
BRANCH  10  11
ATOM     11  C   UNL     1      -9.351 -18.222  -9.347  1.00  0.00     0.000 C 
BRANCH  11  12
ATOM     12  C   UNL     1      -8.712 -16.996 -10.023  1.00  0.00     0.000 C 
BRANCH  12  13
ATOM     13  C   UNL     1      -9.743 -15.899 -10.354  1.00  0.00     0.006 C 
BRANCH  13  14
ATOM     14  C   UNL     1      -9.896 -15.618 -11.862  1.00  0.00     0.053 C 
BRANCH  14  15
ATOM     15  C   UNL     1     -11.307 -15.804 -12.326  1.00  0.00     0.041 C 
ATOM     16  O   UNL     1     -11.957 -16.833 -11.997  1.00  0.00    -0.550 OA
ATOM     17  O   UNL     1     -11.915 -14.830 -13.107  1.00  0.00    -0.550 OA
ENDBRANCH  14  15
ENDBRANCH  13  14
ENDBRANCH  12  13
ENDBRANCH  11  12
ENDBRANCH  10  11
ENDBRANCH   9  10
ENDBRANCH   8   9
ENDBRANCH   7   8
ENDBRANCH   6   7
ENDBRANCH   5   6
ENDBRANCH   4   5
ENDBRANCH   3   4
ENDBRANCH   2   3
ENDBRANCH   1   2
BRANCH   1  18
ATOM     18  C   UNL     1      -6.975 -12.864  -3.957  1.00  0.00     0.000 C 
BRANCH  18  19
ATOM     19  C   UNL     1      -6.128 -13.703  -2.978  1.00  0.00     0.000 C 
BRANCH  19  20
ATOM     20  C   UNL     1      -6.663 -15.131  -2.751  1.00  0.00     0.000 C 
BRANCH  20  21
ATOM     21  C   UNL     1      -5.560 -16.199  -2.582  1.00  0.00     0.000 C 
BRANCH  21  22
ATOM     22  C   UNL     1      -4.414 -15.758  -1.650  1.00  0.00     0.000 C 
BRANCH  22  23
ATOM     23  C   UNL     1      -3.497 -16.916  -1.211  1.00  0.00     0.000 C 
BRANCH  23  24
ATOM     24  C   UNL     1      -2.105 -16.842  -1.857  1.00  0.00    -0.000 C 
BRANCH  24  25
ATOM     25  C   UNL     1      -1.085 -17.666  -1.061  1.00  0.00    -0.000 C 
BRANCH  25  26
ATOM     26  C   UNL     1      -0.455 -16.833   0.059  1.00  0.00    -0.000 C 
BRANCH  26  27
ATOM     27  C   UNL     1      -0.805 -17.407   1.440  1.00  0.00    -0.000 C 
BRANCH  27  28
ATOM     28  C   UNL     1      -1.527 -16.376   2.334  1.00  0.00    -0.000 C 
BRANCH  28  29
ATOM     29  C   UNL     1      -1.135 -16.470   3.821  1.00  0.00    -0.000 C 
BRANCH  29  30
ATOM     30  C   UNL     1       0.336 -16.127   4.125  1.00  0.00    -0.000 C 
BRANCH  30  31
ATOM     31  C   UNL     1       0.944 -15.038   3.221  1.00  0.00    -0.003 C 
ATOM     32  C   UNL     1       0.436 -13.636   3.552  1.00  0.00     0.004 C 
ENDBRANCH  30  31
ENDBRANCH  29  30
ENDBRANCH  28  29
ENDBRANCH  27  28
ENDBRANCH  26  27
ENDBRANCH  25  26
ENDBRANCH  24  25
ENDBRANCH  23  24
ENDBRANCH  22  23
ENDBRANCH  21  22
ENDBRANCH  20  21
ENDBRANCH  19  20
ENDBRANCH  18  19
ENDBRANCH   1  18
TORSDOF 28
ENDMDL
MODEL 2
REMARK VINA RESULT:    -5.721      1.423      2.198
REMARK INTER + INTRA:         -18.537
REMARK INTER:                 -15.093
REMARK INTRA:                  -3.444
REMARK UNBOUND:                -3.451
REMARK SMILES CCCCCCCCCCCCCCCCCCCCCCCCCCCCCC(=O)[O-]
REMARK SMILES IDX 16 1 17 2 18 3 19 4 20 5 21 6 22 7 23 8 24 9 25 10 26 11
REMARK SMILES IDX 27 12 28 13 29 14 30 15 31 16 32 17 15 18 14 19 13 20 12 21
REMARK SMILES IDX 11 22 10 23 9 24 8 25 7 26 6 27 5 28 4 29 3 30 2 31 1 32
REMARK H PARENT
REMARK Flexibility Score: inf
ROOT
ATOM      1  C   UNL     1      -6.927 -13.504  -5.075  1.00  0.00     0.000 C 
ENDROOT
BRANCH   1   2
ATOM      2  C   UNL     1      -8.363 -13.737  -5.558  1.00  0.00     0.000 C 
BRANCH   2   3
ATOM      3  C   UNL     1      -8.623 -15.227  -5.813  1.00  0.00     0.000 C 
BRANCH   3   4
ATOM      4  C   UNL     1      -7.564 -15.818  -6.754  1.00  0.00     0.000 C 
BRANCH   4   5
ATOM      5  C   UNL     1      -6.722 -16.921  -6.084  1.00  0.00     0.000 C 
BRANCH   5   6
ATOM      6  C   UNL     1      -7.532 -17.963  -5.284  1.00  0.00     0.000 C 
BRANCH   6   7
ATOM      7  C   UNL     1      -8.134 -19.112  -6.117  1.00  0.00     0.000 C 
BRANCH   7   8
ATOM      8  C   UNL     1      -9.669 -19.125  -6.094  1.00  0.00     0.000 C 
BRANCH   8   9
ATOM      9  C   UNL     1     -10.248 -18.828  -7.486  1.00  0.00     0.000 C 
BRANCH   9  10
ATOM     10  C   UNL     1      -9.164 -18.484  -8.527  1.00  0.00     0.000 C 
BRANCH  10  11
ATOM     11  C   UNL     1      -9.707 -17.895  -9.843  1.00  0.00     0.000 C 
BRANCH  11  12
ATOM     12  C   UNL     1      -9.067 -16.539 -10.191  1.00  0.00     0.000 C 
BRANCH  12  13
ATOM     13  C   UNL     1      -9.655 -15.920 -11.474  1.00  0.00     0.006 C 
BRANCH  13  14
ATOM     14  C   UNL     1     -10.618 -14.744 -11.216  1.00  0.00     0.053 C 
BRANCH  14  15
ATOM     15  C   UNL     1     -11.848 -14.830 -12.067  1.00  0.00     0.041 C 
ATOM     16  O   UNL     1     -11.783 -15.300 -13.235  1.00  0.00    -0.550 OA
ATOM     17  O   UNL     1     -13.072 -14.409 -11.564  1.00  0.00    -0.550 OA
ENDBRANCH  14  15
ENDBRANCH  13  14
ENDBRANCH  12  13
ENDBRANCH  11  12
ENDBRANCH  10  11
ENDBRANCH   9  10
ENDBRANCH   8   9
ENDBRANCH   7   8
ENDBRANCH   6   7
ENDBRANCH   5   6
ENDBRANCH   4   5
ENDBRANCH   3   4
ENDBRANCH   2   3
ENDBRANCH   1   2
BRANCH   1  18
ATOM     18  C   UNL     1      -6.905 -13.004  -3.623  1.00  0.00     0.000 C 
BRANCH  18  19
ATOM     19  C   UNL     1      -6.054 -13.903  -2.703  1.00  0.00     0.000 C 
BRANCH  19  20
ATOM     20  C   UNL     1      -6.473 -15.388  -2.716  1.00  0.00     0.000 C 
BRANCH  20  21
ATOM     21  C   UNL     1      -5.326 -16.370  -2.393  1.00  0.00     0.000 C 
BRANCH  21  22
ATOM     22  C   UNL     1      -4.160 -15.723  -1.619  1.00  0.00     0.000 C 
BRANCH  22  23
ATOM     23  C   UNL     1      -3.484 -16.675  -0.613  1.00  0.00     0.000 C 
BRANCH  23  24
ATOM     24  C   UNL     1      -2.495 -17.638  -1.288  1.00  0.00    -0.000 C 
BRANCH  24  25
ATOM     25  C   UNL     1      -1.612 -18.337  -0.247  1.00  0.00    -0.000 C 
BRANCH  25  26
ATOM     26  C   UNL     1      -0.211 -18.608  -0.802  1.00  0.00    -0.000 C 
BRANCH  26  27
ATOM     27  C   UNL     1       0.872 -18.041   0.128  1.00  0.00    -0.000 C 
BRANCH  27  28
ATOM     28  C   UNL     1       0.337 -16.895   1.015  1.00  0.00    -0.000 C 
BRANCH  28  29
ATOM     29  C   UNL     1       0.852 -15.503   0.600  1.00  0.00    -0.000 C 
BRANCH  29  30
ATOM     30  C   UNL     1       1.431 -15.427  -0.825  1.00  0.00    -0.000 C 
BRANCH  30  31
ATOM     31  C   UNL     1       0.403 -15.091  -1.921  1.00  0.00    -0.003 C 
ATOM     32  C   UNL     1       0.491 -16.023  -3.128  1.00  0.00     0.004 C 
ENDBRANCH  30  31
ENDBRANCH  29  30
ENDBRANCH  28  29
ENDBRANCH  27  28
ENDBRANCH  26  27
ENDBRANCH  25  26
ENDBRANCH  24  25
ENDBRANCH  23  24
ENDBRANCH  22  23
ENDBRANCH  21  22
ENDBRANCH  20  21
ENDBRANCH  19  20
ENDBRANCH  18  19
ENDBRANCH   1  18
TORSDOF 28
ENDMDL
MODEL 3
REMARK VINA RESULT:    -5.653      1.608      2.854
REMARK INTER + INTRA:         -18.356
REMARK INTER:                 -15.205
REMARK INTRA:                  -3.151
REMARK UNBOUND:                -3.451
REMARK SMILES CCCCCCCCCCCCCCCCCCCCCCCCCCCCCC(=O)[O-]
REMARK SMILES IDX 16 1 17 2 18 3 19 4 20 5 21 6 22 7 23 8 24 9 25 10 26 11
REMARK SMILES IDX 27 12 28 13 29 14 30 15 31 16 32 17 15 18 14 19 13 20 12 21
REMARK SMILES IDX 11 22 10 23 9 24 8 25 7 26 6 27 5 28 4 29 3 30 2 31 1 32
REMARK H PARENT
REMARK Flexibility Score: inf
ROOT
ATOM      1  C   UNL     1      -7.647 -13.908  -6.176  1.00  0.00     0.000 C 
ENDROOT
BRANCH   1   2
ATOM      2  C   UNL     1      -8.306 -15.292  -6.191  1.00  0.00     0.000 C 
BRANCH   2   3
ATOM      3  C   UNL     1      -7.256 -16.399  -6.353  1.00  0.00     0.000 C 
BRANCH   3   4
ATOM      4  C   UNL     1      -7.579 -17.600  -5.452  1.00  0.00     0.000 C 
BRANCH   4   5
ATOM      5  C   UNL     1      -8.134 -18.802  -6.240  1.00  0.00     0.000 C 
BRANCH   5   6
ATOM      6  C   UNL     1      -9.637 -18.715  -6.587  1.00  0.00     0.000 C 
BRANCH   6   7
ATOM      7  C   UNL     1      -9.982 -18.909  -8.076  1.00  0.00     0.000 C 
BRANCH   7   8
ATOM      8  C   UNL     1      -9.023 -18.162  -9.014  1.00  0.00     0.000 C 
BRANCH   8   9
ATOM      9  C   UNL     1      -9.649 -16.853  -9.520  1.00  0.00     0.000 C 
BRANCH   9  10
ATOM     10  C   UNL     1      -9.149 -16.451 -10.923  1.00  0.00     0.000 C 
BRANCH  10  11
ATOM     11  C   UNL     1     -10.042 -15.427 -11.649  1.00  0.00     0.000 C 
BRANCH  11  12
ATOM     12  C   UNL     1     -11.488 -15.923 -11.821  1.00  0.00     0.000 C 
BRANCH  12  13
ATOM     13  C   UNL     1     -12.528 -14.825 -11.524  1.00  0.00     0.006 C 
BRANCH  13  14
ATOM     14  C   UNL     1     -11.914 -13.439 -11.248  1.00  0.00     0.053 C 
BRANCH  14  15
ATOM     15  C   UNL     1     -12.962 -12.411 -10.950  1.00  0.00     0.041 C 
ATOM     16  O   UNL     1     -14.172 -12.637 -11.219  1.00  0.00    -0.550 OA
ATOM     17  O   UNL     1     -12.605 -11.208 -10.354  1.00  0.00    -0.550 OA
ENDBRANCH  14  15
ENDBRANCH  13  14
ENDBRANCH  12  13
ENDBRANCH  11  12
ENDBRANCH  10  11
ENDBRANCH   9  10
ENDBRANCH   8   9
ENDBRANCH   7   8
ENDBRANCH   6   7
ENDBRANCH   5   6
ENDBRANCH   4   5
ENDBRANCH   3   4
ENDBRANCH   2   3
ENDBRANCH   1   2
BRANCH   1  18
ATOM     18  C   UNL     1      -7.787 -13.243  -4.799  1.00  0.00     0.000 C 
BRANCH  18  19
ATOM     19  C   UNL     1      -6.450 -13.193  -4.031  1.00  0.00     0.000 C 
BRANCH  19  20
ATOM     20  C   UNL     1      -6.501 -13.856  -2.639  1.00  0.00     0.000 C 
BRANCH  20  21
ATOM     21  C   UNL     1      -6.860 -15.357  -2.667  1.00  0.00     0.000 C 
BRANCH  21  22
ATOM     22  C   UNL     1      -5.636 -16.281  -2.815  1.00  0.00     0.000 C 
BRANCH  22  23
ATOM     23  C   UNL     1      -4.476 -15.924  -1.864  1.00  0.00     0.000 C 
BRANCH  23  24
ATOM     24  C   UNL     1      -4.199 -17.029  -0.834  1.00  0.00    -0.000 C 
BRANCH  24  25
ATOM     25  C   UNL     1      -2.731 -17.473  -0.886  1.00  0.00    -0.000 C 
BRANCH  25  26
ATOM     26  C   UNL     1      -1.882 -16.484  -1.690  1.00  0.00    -0.000 C 
BRANCH  26  27
ATOM     27  C   UNL     1      -0.391 -16.838  -1.605  1.00  0.00    -0.000 C 
BRANCH  27  28
ATOM     28  C   UNL     1       0.444 -15.703  -0.973  1.00  0.00    -0.000 C 
BRANCH  28  29
ATOM     29  C   UNL     1       0.848 -15.976   0.488  1.00  0.00    -0.000 C 
BRANCH  29  30
ATOM     30  C   UNL     1       0.479 -17.377   1.010  1.00  0.00    -0.000 C 
BRANCH  30  31
ATOM     31  C   UNL     1      -0.455 -17.383   2.235  1.00  0.00    -0.003 C 
ATOM     32  C   UNL     1      -1.394 -16.179   2.276  1.00  0.00     0.004 C 
ENDBRANCH  30  31
ENDBRANCH  29  30
ENDBRANCH  28  29
ENDBRANCH  27  28
ENDBRANCH  26  27
ENDBRANCH  25  26
ENDBRANCH  24  25
ENDBRANCH  23  24
ENDBRANCH  22  23
ENDBRANCH  21  22
ENDBRANCH  20  21
ENDBRANCH  19  20
ENDBRANCH  18  19
ENDBRANCH   1  18
TORSDOF 28
ENDMDL
MODEL 4
REMARK VINA RESULT:    -5.639      4.766     12.438
REMARK INTER + INTRA:         -18.320
REMARK INTER:                 -14.862
REMARK INTRA:                  -3.458
REMARK UNBOUND:                -3.451
REMARK SMILES CCCCCCCCCCCCCCCCCCCCCCCCCCCCCC(=O)[O-]
REMARK SMILES IDX 16 1 17 2 18 3 19 4 20 5 21 6 22 7 23 8 24 9 25 10 26 11
REMARK SMILES IDX 27 12 28 13 29 14 30 15 31 16 32 17 15 18 14 19 13 20 12 21
REMARK SMILES IDX 11 22 10 23 9 24 8 25 7 26 6 27 5 28 4 29 3 30 2 31 1 32
REMARK H PARENT
REMARK Flexibility Score: inf
ROOT
ATOM      1  C   UNL     1      -6.876 -13.327  -5.013  1.00  0.00     0.000 C 
ENDROOT
BRANCH   1   2
ATOM      2  C   UNL     1      -6.980 -12.939  -3.534  1.00  0.00     0.000 C 
BRANCH   2   3
ATOM      3  C   UNL     1      -6.150 -13.885  -2.657  1.00  0.00     0.000 C 
BRANCH   3   4
ATOM      4  C   UNL     1      -6.788 -15.280  -2.593  1.00  0.00     0.000 C 
BRANCH   4   5
ATOM      5  C   UNL     1      -5.764 -16.413  -2.800  1.00  0.00     0.000 C 
BRANCH   5   6
ATOM      6  C   UNL     1      -4.381 -16.164  -2.161  1.00  0.00     0.000 C 
BRANCH   6   7
ATOM      7  C   UNL     1      -4.159 -16.829  -0.788  1.00  0.00     0.000 C 
BRANCH   7   8
ATOM      8  C   UNL     1      -2.711 -17.293  -0.577  1.00  0.00     0.000 C 
BRANCH   8   9
ATOM      9  C   UNL     1      -1.884 -17.137  -1.862  1.00  0.00     0.000 C 
BRANCH   9  10
ATOM     10  C   UNL     1      -0.365 -17.082  -1.596  1.00  0.00     0.000 C 
BRANCH  10  11
ATOM     11  C   UNL     1       0.197 -15.661  -1.397  1.00  0.00     0.000 C 
BRANCH  11  12
ATOM     12  C   UNL     1       1.084 -15.548  -0.145  1.00  0.00     0.000 C 
BRANCH  12  13
ATOM     13  C   UNL     1       1.004 -16.799   0.751  1.00  0.00     0.006 C 
BRANCH  13  14
ATOM     14  C   UNL     1       0.825 -16.485   2.250  1.00  0.00     0.053 C 
BRANCH  14  15
ATOM     15  C   UNL     1      -0.602 -16.194   2.595  1.00  0.00     0.041 C 
ATOM     16  O   UNL     1      -1.000 -15.004   2.713  1.00  0.00    -0.550 OA
ATOM     17  O   UNL     1      -1.502 -17.238   2.767  1.00  0.00    -0.550 OA
ENDBRANCH  14  15
ENDBRANCH  13  14
ENDBRANCH  12  13
ENDBRANCH  11  12
ENDBRANCH  10  11
ENDBRANCH   9  10
ENDBRANCH   8   9
ENDBRANCH   7   8
ENDBRANCH   6   7
ENDBRANCH   5   6
ENDBRANCH   4   5
ENDBRANCH   3   4
ENDBRANCH   2   3
ENDBRANCH   1   2
BRANCH   1  18
ATOM     18  C   UNL     1      -8.265 -13.569  -5.622  1.00  0.00     0.000 C 
BRANCH  18  19
ATOM     19  C   UNL     1      -8.516 -15.056  -5.944  1.00  0.00     0.000 C 
BRANCH  19  20
ATOM     20  C   UNL     1      -7.344 -15.747  -6.670  1.00  0.00     0.000 C 
BRANCH  20  21
ATOM     21  C   UNL     1      -6.972 -17.131  -6.095  1.00  0.00     0.000 C 
BRANCH  21  22
ATOM     22  C   UNL     1      -8.158 -17.865  -5.441  1.00  0.00     0.000 C 
BRANCH  22  23
ATOM     23  C   UNL     1      -8.828 -18.900  -6.367  1.00  0.00     0.000 C 
BRANCH  23  24
ATOM     24  C   UNL     1     -10.153 -18.394  -6.956  1.00  0.00    -0.000 C 
BRANCH  24  25
ATOM     25  C   UNL     1     -10.076 -18.306  -8.485  1.00  0.00    -0.000 C 
BRANCH  25  26
ATOM     26  C   UNL     1      -9.760 -16.879  -8.943  1.00  0.00    -0.000 C 
BRANCH  26  27
ATOM     27  C   UNL     1      -8.824 -16.883 -10.160  1.00  0.00    -0.000 C 
BRANCH  27  28
ATOM     28  C   UNL     1      -9.527 -16.380 -11.439  1.00  0.00    -0.000 C 
BRANCH  28  29
ATOM     29  C   UNL     1     -10.355 -15.098 -11.223  1.00  0.00    -0.000 C 
BRANCH  29  30
ATOM     30  C   UNL     1     -11.669 -15.035 -12.023  1.00  0.00    -0.000 C 
BRANCH  30  31
ATOM     31  C   UNL     1     -12.329 -16.401 -12.287  1.00  0.00    -0.003 C 
ATOM     32  C   UNL     1     -12.885 -17.051 -11.021  1.00  0.00     0.004 C 
ENDBRANCH  30  31
ENDBRANCH  29  30
ENDBRANCH  28  29
ENDBRANCH  27  28
ENDBRANCH  26  27
ENDBRANCH  25  26
ENDBRANCH  24  25
ENDBRANCH  23  24
ENDBRANCH  22  23
ENDBRANCH  21  22
ENDBRANCH  20  21
ENDBRANCH  19  20
ENDBRANCH  18  19
ENDBRANCH   1  18
TORSDOF 28
ENDMDL
MODEL 5
REMARK VINA RESULT:    -5.376      4.961     12.502
REMARK INTER + INTRA:         -17.626
REMARK INTER:                 -14.173
REMARK INTRA:                  -3.453
REMARK UNBOUND:                -3.451
REMARK SMILES CCCCCCCCCCCCCCCCCCCCCCCCCCCCCC(=O)[O-]
REMARK SMILES IDX 16 1 17 2 18 3 19 4 20 5 21 6 22 7 23 8 24 9 25 10 26 11
REMARK SMILES IDX 27 12 28 13 29 14 30 15 31 16 32 17 15 18 14 19 13 20 12 21
REMARK SMILES IDX 11 22 10 23 9 24 8 25 7 26 6 27 5 28 4 29 3 30 2 31 1 32
REMARK H PARENT
REMARK Flexibility Score: inf
ROOT
ATOM      1  C   UNL     1      -8.667 -14.600  -5.981  1.00  0.00     0.000 C 
ENDROOT
BRANCH   1   2
ATOM      2  C   UNL     1      -7.142 -14.445  -5.937  1.00  0.00     0.000 C 
BRANCH   2   3
ATOM      3  C   UNL     1      -6.742 -13.130  -5.256  1.00  0.00     0.000 C 
BRANCH   3   4
ATOM      4  C   UNL     1      -7.173 -13.119  -3.782  1.00  0.00     0.000 C 
BRANCH   4   5
ATOM      5  C   UNL     1      -6.131 -13.774  -2.854  1.00  0.00     0.000 C 
BRANCH   5   6
ATOM      6  C   UNL     1      -6.529 -15.160  -2.303  1.00  0.00     0.000 C 
BRANCH   6   7
ATOM      7  C   UNL     1      -5.412 -16.221  -2.318  1.00  0.00     0.000 C 
BRANCH   7   8
ATOM      8  C   UNL     1      -4.160 -15.781  -1.547  1.00  0.00     0.000 C 
BRANCH   8   9
ATOM      9  C   UNL     1      -3.347 -16.993  -1.067  1.00  0.00     0.000 C 
BRANCH   9  10
ATOM     10  C   UNL     1      -2.030 -17.181  -1.849  1.00  0.00     0.000 C 
BRANCH  10  11
ATOM     11  C   UNL     1      -1.279 -18.487  -1.528  1.00  0.00     0.000 C 
BRANCH  11  12
ATOM     12  C   UNL     1      -0.452 -18.389  -0.234  1.00  0.00     0.000 C 
BRANCH  12  13
ATOM     13  C   UNL     1       0.282 -17.040  -0.103  1.00  0.00     0.006 C 
BRANCH  13  14
ATOM     14  C   UNL     1      -0.085 -16.250   1.168  1.00  0.00     0.053 C 
BRANCH  14  15
ATOM     15  C   UNL     1       0.138 -17.053   2.412  1.00  0.00     0.041 C 
ATOM     16  O   UNL     1       1.262 -17.045   2.983  1.00  0.00    -0.550 OA
ATOM     17  O   UNL     1      -0.902 -17.794   2.957  1.00  0.00    -0.550 OA
ENDBRANCH  14  15
ENDBRANCH  13  14
ENDBRANCH  12  13
ENDBRANCH  11  12
ENDBRANCH  10  11
ENDBRANCH   9  10
ENDBRANCH   8   9
ENDBRANCH   7   8
ENDBRANCH   6   7
ENDBRANCH   5   6
ENDBRANCH   4   5
ENDBRANCH   3   4
ENDBRANCH   2   3
ENDBRANCH   1   2
BRANCH   1  18
ATOM     18  C   UNL     1      -9.105 -15.932  -5.355  1.00  0.00     0.000 C 
BRANCH  18  19
ATOM     19  C   UNL     1      -7.907 -16.823  -4.966  1.00  0.00     0.000 C 
BRANCH  19  20
ATOM     20  C   UNL     1      -8.220 -18.333  -4.973  1.00  0.00     0.000 C 
BRANCH  20  21
ATOM     21  C   UNL     1      -7.544 -19.113  -6.121  1.00  0.00     0.000 C 
BRANCH  21  22
ATOM     22  C   UNL     1      -7.642 -18.405  -7.487  1.00  0.00     0.000 C 
BRANCH  22  23
ATOM     23  C   UNL     1      -8.903 -18.783  -8.288  1.00  0.00     0.000 C 
BRANCH  23  24
ATOM     24  C   UNL     1      -9.877 -17.605  -8.444  1.00  0.00    -0.000 C 
BRANCH  24  25
ATOM     25  C   UNL     1      -9.248 -16.479  -9.274  1.00  0.00    -0.000 C 
BRANCH  25  26
ATOM     26  C   UNL     1      -8.793 -16.990 -10.644  1.00  0.00    -0.000 C 
BRANCH  26  27
ATOM     27  C   UNL     1      -9.552 -16.285 -11.778  1.00  0.00    -0.000 C 
BRANCH  27  28
ATOM     28  C   UNL     1     -10.341 -15.056 -11.275  1.00  0.00    -0.000 C 
BRANCH  28  29
ATOM     29  C   UNL     1     -11.743 -14.925 -11.902  1.00  0.00    -0.000 C 
BRANCH  29  30
ATOM     30  C   UNL     1     -12.468 -16.262 -12.146  1.00  0.00    -0.000 C 
BRANCH  30  31
ATOM     31  C   UNL     1     -12.793 -17.061 -10.870  1.00  0.00    -0.003 C 
ATOM     32  C   UNL     1     -12.469 -18.549 -10.999  1.00  0.00     0.004 C 
ENDBRANCH  30  31
ENDBRANCH  29  30
ENDBRANCH  28  29
ENDBRANCH  27  28
ENDBRANCH  26  27
ENDBRANCH  25  26
ENDBRANCH  24  25
ENDBRANCH  23  24
ENDBRANCH  22  23
ENDBRANCH  21  22
ENDBRANCH  20  21
ENDBRANCH  19  20
ENDBRANCH  18  19
ENDBRANCH   1  18
TORSDOF 28
ENDMDL
MODEL 6
REMARK VINA RESULT:    -5.363      1.260      3.002
REMARK INTER + INTRA:         -17.593
REMARK INTER:                 -15.181
REMARK INTRA:                  -2.413
REMARK UNBOUND:                -3.451
REMARK SMILES CCCCCCCCCCCCCCCCCCCCCCCCCCCCCC(=O)[O-]
REMARK SMILES IDX 16 1 17 2 18 3 19 4 20 5 21 6 22 7 23 8 24 9 25 10 26 11
REMARK SMILES IDX 27 12 28 13 29 14 30 15 31 16 32 17 15 18 14 19 13 20 12 21
REMARK SMILES IDX 11 22 10 23 9 24 8 25 7 26 6 27 5 28 4 29 3 30 2 31 1 32
REMARK H PARENT
REMARK Flexibility Score: inf
ROOT
ATOM      1  C   UNL     1      -6.789 -15.422  -2.931  1.00  0.00     0.000 C 
ENDROOT
BRANCH   1   2
ATOM      2  C   UNL     1      -6.242 -14.020  -2.637  1.00  0.00     0.000 C 
BRANCH   2   3
ATOM      3  C   UNL     1      -6.883 -12.975  -3.559  1.00  0.00     0.000 C 
BRANCH   3   4
ATOM      4  C   UNL     1      -6.888 -13.456  -5.017  1.00  0.00     0.000 C 
BRANCH   4   5
ATOM      5  C   UNL     1      -8.305 -13.515  -5.619  1.00  0.00     0.000 C 
BRANCH   5   6
ATOM      6  C   UNL     1      -8.688 -14.870  -6.252  1.00  0.00     0.000 C 
BRANCH   6   7
ATOM      7  C   UNL     1      -7.521 -15.855  -6.458  1.00  0.00     0.000 C 
BRANCH   7   8
ATOM      8  C   UNL     1      -7.900 -17.306  -6.127  1.00  0.00     0.000 C 
BRANCH   8   9
ATOM      9  C   UNL     1      -9.348 -17.611  -6.542  1.00  0.00     0.000 C 
BRANCH   9  10
ATOM     10  C   UNL     1      -9.442 -18.370  -7.882  1.00  0.00     0.000 C 
BRANCH  10  11
ATOM     11  C   UNL     1     -10.135 -17.586  -9.012  1.00  0.00     0.000 C 
BRANCH  11  12
ATOM     12  C   UNL     1      -9.195 -16.575  -9.692  1.00  0.00     0.000 C 
BRANCH  12  13
ATOM     13  C   UNL     1      -9.902 -15.753 -10.787  1.00  0.00     0.006 C 
BRANCH  13  14
ATOM     14  C   UNL     1     -10.969 -16.542 -11.571  1.00  0.00     0.053 C 
BRANCH  14  15
ATOM     15  C   UNL     1     -11.961 -15.637 -12.234  1.00  0.00     0.041 C 
ATOM     16  O   UNL     1     -12.873 -15.087 -11.559  1.00  0.00    -0.550 OA
ATOM     17  O   UNL     1     -11.867 -15.382 -13.596  1.00  0.00    -0.550 OA
ENDBRANCH  14  15
ENDBRANCH  13  14
ENDBRANCH  12  13
ENDBRANCH  11  12
ENDBRANCH  10  11
ENDBRANCH   9  10
ENDBRANCH   8   9
ENDBRANCH   7   8
ENDBRANCH   6   7
ENDBRANCH   5   6
ENDBRANCH   4   5
ENDBRANCH   3   4
ENDBRANCH   2   3
ENDBRANCH   1   2
BRANCH   1  18
ATOM     18  C   UNL     1      -5.730 -16.499  -2.652  1.00  0.00     0.000 C 
BRANCH  18  19
ATOM     19  C   UNL     1      -4.617 -15.999  -1.709  1.00  0.00     0.000 C 
BRANCH  19  20
ATOM     20  C   UNL     1      -4.028 -17.095  -0.798  1.00  0.00     0.000 C 
BRANCH  20  21
ATOM     21  C   UNL     1      -2.521 -16.928  -0.503  1.00  0.00     0.000 C 
BRANCH  21  22
ATOM     22  C   UNL     1      -1.642 -18.015  -1.152  1.00  0.00     0.000 C 
BRANCH  22  23
ATOM     23  C   UNL     1      -0.716 -18.737  -0.153  1.00  0.00     0.000 C 
BRANCH  23  24
ATOM     24  C   UNL     1      -0.021 -17.765   0.812  1.00  0.00    -0.000 C 
BRANCH  24  25
ATOM     25  C   UNL     1      -0.141 -18.252   2.262  1.00  0.00    -0.000 C 
BRANCH  25  26
ATOM     26  C   UNL     1      -0.645 -17.135   3.181  1.00  0.00    -0.000 C 
BRANCH  26  27
ATOM     27  C   UNL     1      -0.569 -15.769   2.484  1.00  0.00    -0.000 C 
BRANCH  27  28
ATOM     28  C   UNL     1      -0.122 -14.647   3.447  1.00  0.00    -0.000 C 
BRANCH  28  29
ATOM     29  C   UNL     1       0.871 -13.653   2.816  1.00  0.00    -0.000 C 
BRANCH  29  30
ATOM     30  C   UNL     1       0.948 -12.283   3.516  1.00  0.00    -0.000 C 
BRANCH  30  31
ATOM     31  C   UNL     1       1.329 -11.109   2.596  1.00  0.00    -0.003 C 
ATOM     32  C   UNL     1       1.354  -9.765   3.321  1.00  0.00     0.004 C 
ENDBRANCH  30  31
ENDBRANCH  29  30
ENDBRANCH  28  29
ENDBRANCH  27  28
ENDBRANCH  26  27
ENDBRANCH  25  26
ENDBRANCH  24  25
ENDBRANCH  23  24
ENDBRANCH  22  23
ENDBRANCH  21  22
ENDBRANCH  20  21
ENDBRANCH  19  20
ENDBRANCH  18  19
ENDBRANCH   1  18
TORSDOF 28
ENDMDL
MODEL 7
REMARK VINA RESULT:    -5.327      4.582     12.065
REMARK INTER + INTRA:         -17.497
REMARK INTER:                 -14.023
REMARK INTRA:                  -3.474
REMARK UNBOUND:                -3.451
REMARK SMILES CCCCCCCCCCCCCCCCCCCCCCCCCCCCCC(=O)[O-]
REMARK SMILES IDX 16 1 17 2 18 3 19 4 20 5 21 6 22 7 23 8 24 9 25 10 26 11
REMARK SMILES IDX 27 12 28 13 29 14 30 15 31 16 32 17 15 18 14 19 13 20 12 21
REMARK SMILES IDX 11 22 10 23 9 24 8 25 7 26 6 27 5 28 4 29 3 30 2 31 1 32
REMARK H PARENT
REMARK Flexibility Score: inf
ROOT
ATOM      1  C   UNL     1      -7.877 -13.174  -5.746  1.00  0.00     0.000 C 
ENDROOT
BRANCH   1   2
ATOM      2  C   UNL     1      -7.425 -12.645  -4.380  1.00  0.00     0.000 C 
BRANCH   2   3
ATOM      3  C   UNL     1      -6.211 -13.426  -3.861  1.00  0.00     0.000 C 
BRANCH   3   4
ATOM      4  C   UNL     1      -6.503 -14.050  -2.489  1.00  0.00     0.000 C 
BRANCH   4   5
ATOM      5  C   UNL     1      -6.841 -15.551  -2.578  1.00  0.00     0.000 C 
BRANCH   5   6
ATOM      6  C   UNL     1      -5.618 -16.490  -2.661  1.00  0.00     0.000 C 
BRANCH   6   7
ATOM      7  C   UNL     1      -4.404 -16.069  -1.810  1.00  0.00     0.000 C 
BRANCH   7   8
ATOM      8  C   UNL     1      -4.104 -17.054  -0.671  1.00  0.00     0.000 C 
BRANCH   8   9
ATOM      9  C   UNL     1      -2.591 -17.259  -0.498  1.00  0.00     0.000 C 
BRANCH   9  10
ATOM     10  C   UNL     1      -1.862 -17.519  -1.832  1.00  0.00     0.000 C 
BRANCH  10  11
ATOM     11  C   UNL     1      -0.433 -18.075  -1.681  1.00  0.00     0.000 C 
BRANCH  11  12
ATOM     12  C   UNL     1       0.085 -17.984  -0.235  1.00  0.00     0.000 C 
BRANCH  12  13
ATOM     13  C   UNL     1       1.231 -16.965  -0.081  1.00  0.00     0.006 C 
BRANCH  13  14
ATOM     14  C   UNL     1       0.755 -15.511   0.108  1.00  0.00     0.053 C 
BRANCH  14  15
ATOM     15  C   UNL     1       1.323 -14.595  -0.932  1.00  0.00     0.041 C 
ATOM     16  O   UNL     1       1.592 -13.397  -0.648  1.00  0.00    -0.550 OA
ATOM     17  O   UNL     1       1.575 -15.070  -2.212  1.00  0.00    -0.550 OA
ENDBRANCH  14  15
ENDBRANCH  13  14
ENDBRANCH  12  13
ENDBRANCH  11  12
ENDBRANCH  10  11
ENDBRANCH   9  10
ENDBRANCH   8   9
ENDBRANCH   7   8
ENDBRANCH   6   7
ENDBRANCH   5   6
ENDBRANCH   4   5
ENDBRANCH   3   4
ENDBRANCH   2   3
ENDBRANCH   1   2
BRANCH   1  18
ATOM     18  C   UNL     1      -9.154 -14.017  -5.619  1.00  0.00     0.000 C 
BRANCH  18  19
ATOM     19  C   UNL     1      -8.967 -15.453  -6.148  1.00  0.00     0.000 C 
BRANCH  19  20
ATOM     20  C   UNL     1      -7.530 -15.769  -6.611  1.00  0.00     0.000 C 
BRANCH  20  21
ATOM     21  C   UNL     1      -6.899 -16.996  -5.918  1.00  0.00     0.000 C 
BRANCH  21  22
ATOM     22  C   UNL     1      -7.303 -18.339  -6.557  1.00  0.00     0.000 C 
BRANCH  22  23
ATOM     23  C   UNL     1      -8.567 -18.963  -5.933  1.00  0.00     0.000 C 
BRANCH  23  24
ATOM     24  C   UNL     1      -9.755 -18.981  -6.905  1.00  0.00    -0.000 C 
BRANCH  24  25
ATOM     25  C   UNL     1      -9.289 -18.748  -8.348  1.00  0.00    -0.000 C 
BRANCH  25  26
ATOM     26  C   UNL     1      -9.978 -17.526  -8.962  1.00  0.00    -0.000 C 
BRANCH  26  27
ATOM     27  C   UNL     1      -9.051 -16.809  -9.955  1.00  0.00    -0.000 C 
BRANCH  27  28
ATOM     28  C   UNL     1      -9.797 -15.740 -10.782  1.00  0.00    -0.000 C 
BRANCH  28  29
ATOM     29  C   UNL     1     -10.893 -16.323 -11.696  1.00  0.00    -0.000 C 
BRANCH  29  30
ATOM     30  C   UNL     1     -12.304 -15.755 -11.456  1.00  0.00    -0.000 C 
BRANCH  30  31
ATOM     31  C   UNL     1     -13.433 -16.802 -11.482  1.00  0.00    -0.003 C 
ATOM     32  C   UNL     1     -13.005 -18.156 -10.917  1.00  0.00     0.004 C 
ENDBRANCH  30  31
ENDBRANCH  29  30
ENDBRANCH  28  29
ENDBRANCH  27  28
ENDBRANCH  26  27
ENDBRANCH  25  26
ENDBRANCH  24  25
ENDBRANCH  23  24
ENDBRANCH  22  23
ENDBRANCH  21  22
ENDBRANCH  20  21
ENDBRANCH  19  20
ENDBRANCH  18  19
ENDBRANCH   1  18
TORSDOF 28
ENDMDL
MODEL 8
REMARK VINA RESULT:    -5.216      1.767      4.062
REMARK INTER + INTRA:         -17.206
REMARK INTER:                 -14.037
REMARK INTRA:                  -3.169
REMARK UNBOUND:                -3.451
REMARK SMILES CCCCCCCCCCCCCCCCCCCCCCCCCCCCCC(=O)[O-]
REMARK SMILES IDX 16 1 17 2 18 3 19 4 20 5 21 6 22 7 23 8 24 9 25 10 26 11
REMARK SMILES IDX 27 12 28 13 29 14 30 15 31 16 32 17 15 18 14 19 13 20 12 21
REMARK SMILES IDX 11 22 10 23 9 24 8 25 7 26 6 27 5 28 4 29 3 30 2 31 1 32
REMARK H PARENT
REMARK Flexibility Score: inf
ROOT
ATOM      1  C   UNL     1      -6.124 -15.393  -3.317  1.00  0.00     0.000 C 
ENDROOT
BRANCH   1   2
ATOM      2  C   UNL     1      -6.493 -14.071  -2.635  1.00  0.00     0.000 C 
BRANCH   2   3
ATOM      3  C   UNL     1      -6.661 -12.948  -3.666  1.00  0.00     0.000 C 
BRANCH   3   4
ATOM      4  C   UNL     1      -6.930 -13.520  -5.065  1.00  0.00     0.000 C 
BRANCH   4   5
ATOM      5  C   UNL     1      -8.306 -13.108  -5.622  1.00  0.00     0.000 C 
BRANCH   5   6
ATOM      6  C   UNL     1      -9.185 -14.278  -6.116  1.00  0.00     0.000 C 
BRANCH   6   7
ATOM      7  C   UNL     1      -9.088 -15.573  -5.287  1.00  0.00     0.000 C 
BRANCH   7   8
ATOM      8  C   UNL     1      -8.629 -16.780  -6.117  1.00  0.00     0.000 C 
BRANCH   8   9
ATOM      9  C   UNL     1      -7.904 -16.333  -7.395  1.00  0.00     0.000 C 
BRANCH   9  10
ATOM     10  C   UNL     1      -8.282 -17.180  -8.628  1.00  0.00     0.000 C 
BRANCH  10  11
ATOM     11  C   UNL     1      -9.609 -16.775  -9.298  1.00  0.00     0.000 C 
BRANCH  11  12
ATOM     12  C   UNL     1      -9.396 -16.067 -10.647  1.00  0.00     0.000 C 
BRANCH  12  13
ATOM     13  C   UNL     1     -10.157 -16.751 -11.800  1.00  0.00     0.006 C 
BRANCH  13  14
ATOM     14  C   UNL     1     -11.145 -15.824 -12.535  1.00  0.00     0.053 C 
BRANCH  14  15
ATOM     15  C   UNL     1     -12.330 -15.482 -11.686  1.00  0.00     0.041 C 
ATOM     16  O   UNL     1     -12.738 -14.292 -11.610  1.00  0.00    -0.550 OA
ATOM     17  O   UNL     1     -13.001 -16.482 -10.994  1.00  0.00    -0.550 OA
ENDBRANCH  14  15
ENDBRANCH  13  14
ENDBRANCH  12  13
ENDBRANCH  11  12
ENDBRANCH  10  11
ENDBRANCH   9  10
ENDBRANCH   8   9
ENDBRANCH   7   8
ENDBRANCH   6   7
ENDBRANCH   5   6
ENDBRANCH   4   5
ENDBRANCH   3   4
ENDBRANCH   2   3
ENDBRANCH   1   2
BRANCH   1  18
ATOM     18  C   UNL     1      -5.661 -16.436  -2.289  1.00  0.00     0.000 C 
BRANCH  18  19
ATOM     19  C   UNL     1      -4.192 -16.234  -1.866  1.00  0.00     0.000 C 
BRANCH  19  20
ATOM     20  C   UNL     1      -3.814 -16.945  -0.550  1.00  0.00     0.000 C 
BRANCH  20  21
ATOM     21  C   UNL     1      -2.429 -17.626  -0.576  1.00  0.00     0.000 C 
BRANCH  21  22
ATOM     22  C   UNL     1      -1.515 -17.206   0.592  1.00  0.00     0.000 C 
BRANCH  22  23
ATOM     23  C   UNL     1      -0.112 -17.843   0.538  1.00  0.00     0.000 C 
BRANCH  23  24
ATOM     24  C   UNL     1       0.847 -17.245   1.578  1.00  0.00    -0.000 C 
BRANCH  24  25
ATOM     25  C   UNL     1       1.807 -16.242   0.926  1.00  0.00    -0.000 C 
BRANCH  25  26
ATOM     26  C   UNL     1       1.300 -14.806   1.086  1.00  0.00    -0.000 C 
BRANCH  26  27
ATOM     27  C   UNL     1       1.396 -14.035  -0.238  1.00  0.00    -0.000 C 
BRANCH  27  28
ATOM     28  C   UNL     1       1.572 -14.976  -1.450  1.00  0.00    -0.000 C 
BRANCH  28  29
ATOM     29  C   UNL     1       0.251 -15.306  -2.171  1.00  0.00    -0.000 C 
BRANCH  29  30
ATOM     30  C   UNL     1       0.238 -16.657  -2.910  1.00  0.00    -0.000 C 
BRANCH  30  31
ATOM     31  C   UNL     1       1.629 -17.194  -3.295  1.00  0.00    -0.003 C 
ATOM     32  C   UNL     1       1.743 -18.711  -3.153  1.00  0.00     0.004 C 
ENDBRANCH  30  31
ENDBRANCH  29  30
ENDBRANCH  28  29
ENDBRANCH  27  28
ENDBRANCH  26  27
ENDBRANCH  25  26
ENDBRANCH  24  25
ENDBRANCH  23  24
ENDBRANCH  22  23
ENDBRANCH  21  22
ENDBRANCH  20  21
ENDBRANCH  19  20
ENDBRANCH  18  19
ENDBRANCH   1  18
TORSDOF 28
ENDMDL
MODEL 9
REMARK VINA RESULT:    -5.215      1.375      2.121
REMARK INTER + INTRA:         -17.204
REMARK INTER:                 -14.119
REMARK INTRA:                  -3.085
REMARK UNBOUND:                -3.451
REMARK SMILES CCCCCCCCCCCCCCCCCCCCCCCCCCCCCC(=O)[O-]
REMARK SMILES IDX 16 1 17 2 18 3 19 4 20 5 21 6 22 7 23 8 24 9 25 10 26 11
REMARK SMILES IDX 27 12 28 13 29 14 30 15 31 16 32 17 15 18 14 19 13 20 12 21
REMARK SMILES IDX 11 22 10 23 9 24 8 25 7 26 6 27 5 28 4 29 3 30 2 31 1 32
REMARK H PARENT
REMARK Flexibility Score: inf
ROOT
ATOM      1  C   UNL     1      -6.882 -13.504  -3.983  1.00  0.00     0.000 C 
ENDROOT
BRANCH   1   2
ATOM      2  C   UNL     1      -7.648 -14.717  -4.523  1.00  0.00     0.000 C 
BRANCH   2   3
ATOM      3  C   UNL     1      -7.796 -14.640  -6.047  1.00  0.00     0.000 C 
BRANCH   3   4
ATOM      4  C   UNL     1      -7.216 -15.892  -6.722  1.00  0.00     0.000 C 
BRANCH   4   5
ATOM      5  C   UNL     1      -6.580 -16.869  -5.714  1.00  0.00     0.000 C 
BRANCH   5   6
ATOM      6  C   UNL     1      -7.242 -18.263  -5.652  1.00  0.00     0.000 C 
BRANCH   6   7
ATOM      7  C   UNL     1      -8.782 -18.264  -5.695  1.00  0.00     0.000 C 
BRANCH   7   8
ATOM      8  C   UNL     1      -9.345 -19.089  -6.861  1.00  0.00     0.000 C 
BRANCH   8   9
ATOM      9  C   UNL     1      -9.030 -18.430  -8.212  1.00  0.00     0.000 C 
BRANCH   9  10
ATOM     10  C   UNL     1     -10.130 -17.452  -8.675  1.00  0.00     0.000 C 
BRANCH  10  11
ATOM     11  C   UNL     1     -11.212 -18.086  -9.569  1.00  0.00     0.000 C 
BRANCH  11  12
ATOM     12  C   UNL     1     -11.165 -17.561 -11.015  1.00  0.00     0.000 C 
BRANCH  12  13
ATOM     13  C   UNL     1     -10.096 -16.469 -11.213  1.00  0.00     0.006 C 
BRANCH  13  14
ATOM     14  C   UNL     1     -10.636 -15.032 -11.078  1.00  0.00     0.053 C 
BRANCH  14  15
ATOM     15  C   UNL     1     -11.822 -14.794 -11.962  1.00  0.00     0.041 C 
ATOM     16  O   UNL     1     -11.810 -15.181 -13.161  1.00  0.00    -0.550 OA
ATOM     17  O   UNL     1     -12.950 -14.162 -11.456  1.00  0.00    -0.550 OA
ENDBRANCH  14  15
ENDBRANCH  13  14
ENDBRANCH  12  13
ENDBRANCH  11  12
ENDBRANCH  10  11
ENDBRANCH   9  10
ENDBRANCH   8   9
ENDBRANCH   7   8
ENDBRANCH   6   7
ENDBRANCH   5   6
ENDBRANCH   4   5
ENDBRANCH   3   4
ENDBRANCH   2   3
ENDBRANCH   1   2
BRANCH   1  18
ATOM     18  C   UNL     1      -6.164 -13.843  -2.668  1.00  0.00     0.000 C 
BRANCH  18  19
ATOM     19  C   UNL     1      -6.261 -15.341  -2.314  1.00  0.00     0.000 C 
BRANCH  19  20
ATOM     20  C   UNL     1      -4.913 -16.088  -2.373  1.00  0.00     0.000 C 
BRANCH  20  21
ATOM     21  C   UNL     1      -4.568 -16.871  -1.087  1.00  0.00     0.000 C 
BRANCH  21  22
ATOM     22  C   UNL     1      -3.091 -16.743  -0.666  1.00  0.00     0.000 C 
BRANCH  22  23
ATOM     23  C   UNL     1      -2.135 -16.474  -1.844  1.00  0.00     0.000 C 
BRANCH  23  24
ATOM     24  C   UNL     1      -1.014 -17.520  -1.944  1.00  0.00    -0.000 C 
BRANCH  24  25
ATOM     25  C   UNL     1       0.328 -16.857  -2.275  1.00  0.00    -0.000 C 
BRANCH  25  26
ATOM     26  C   UNL     1       0.218 -15.330  -2.231  1.00  0.00    -0.000 C 
BRANCH  26  27
ATOM     27  C   UNL     1       1.018 -14.751  -1.055  1.00  0.00    -0.000 C 
BRANCH  27  28
ATOM     28  C   UNL     1       1.747 -15.849  -0.249  1.00  0.00    -0.000 C 
BRANCH  28  29
ATOM     29  C   UNL     1       1.213 -16.014   1.187  1.00  0.00    -0.000 C 
BRANCH  29  30
ATOM     30  C   UNL     1       0.631 -17.404   1.504  1.00  0.00    -0.000 C 
BRANCH  30  31
ATOM     31  C   UNL     1      -0.677 -17.384   2.317  1.00  0.00    -0.003 C 
ATOM     32  C   UNL     1      -1.281 -15.986   2.443  1.00  0.00     0.004 C 
ENDBRANCH  30  31
ENDBRANCH  29  30
ENDBRANCH  28  29
ENDBRANCH  27  28
ENDBRANCH  26  27
ENDBRANCH  25  26
ENDBRANCH  24  25
ENDBRANCH  23  24
ENDBRANCH  22  23
ENDBRANCH  21  22
ENDBRANCH  20  21
ENDBRANCH  19  20
ENDBRANCH  18  19
ENDBRANCH   1  18
TORSDOF 28
ENDMDL
