MODEL 1
REMARK VINA RESULT:    -5.655      0.000      0.000
REMARK INTER + INTRA:          -6.917
REMARK INTER:                  -6.646
REMARK INTRA:                  -0.271
REMARK UNBOUND:                -0.271
REMARK SMILES O=c1cc(-c2ccc(O)c(O)c2)oc2cc(O)cc(O)c12
REMARK SMILES IDX 4 1 3 2 2 3 1 4 21 5 19 6 18 7 16 8 15 9 14 10 13 11 5 12
REMARK SMILES IDX 6 13 7 14 8 15 12 16 10 17 9 18 11 20 20 22 17 24
REMARK H PARENT 9 19 11 21 20 23 17 25
REMARK Flexibility Score: inf
ROOT
ATOM      1  C   UNL     1     -39.391  31.881  14.271  1.00  0.00     0.138 A 
ATOM      2  C   UNL     1     -38.087  32.273  13.938  1.00  0.00     0.100 A 
ATOM      3  C   UNL     1     -37.037  31.364  14.076  1.00  0.00     0.197 A 
ATOM      4  O   UNL     1     -35.870  31.764  13.829  1.00  0.00    -0.289 OA
ATOM      5  C   UNL     1     -37.301  30.047  14.519  1.00  0.00     0.107 A 
ATOM      6  C   UNL     1     -36.316  29.024  14.658  1.00  0.00     0.134 A 
ATOM      7  C   UNL     1     -36.676  27.791  15.217  1.00  0.00     0.093 A 
ATOM      8  C   UNL     1     -37.994  27.524  15.584  1.00  0.00     0.123 A 
ATOM      9  C   UNL     1     -38.976  28.497  15.402  1.00  0.00     0.094 A 
ATOM     10  C   UNL     1     -38.642  29.749  14.880  1.00  0.00     0.146 A 
ATOM     11  O   UNL     1     -39.604  30.655  14.736  1.00  0.00    -0.456 OA
ENDROOT
BRANCH   1  12
ATOM     12  C   UNL     1     -40.545  32.808  14.142  1.00  0.00     0.021 A 
ATOM     13  C   UNL     1     -40.659  33.964  14.938  1.00  0.00     0.016 A 
ATOM     14  C   UNL     1     -41.750  34.823  14.788  1.00  0.00     0.051 A 
ATOM     15  C   UNL     1     -42.740  34.550  13.841  1.00  0.00     0.157 A 
ATOM     16  C   UNL     1     -41.538  32.546  13.181  1.00  0.00     0.062 A 
ATOM     17  C   UNL     1     -42.635  33.408  13.031  1.00  0.00     0.158 A 
BRANCH  15  18
ATOM     18  O   UNL     1     -43.819  35.426  13.716  1.00  0.00    -0.504 OA
ATOM     19  H   UNL     1     -43.842  36.322  14.185  1.00  0.00     0.293 HD
ENDBRANCH  15  18
BRANCH  17  20
ATOM     20  O   UNL     1     -43.618  33.131  12.082  1.00  0.00    -0.504 OA
ATOM     21  H   UNL     1     -44.262  32.358  12.194  1.00  0.00     0.293 HD
ENDBRANCH  17  20
ENDBRANCH   1  12
BRANCH   6  22
ATOM     22  O   UNL     1     -34.988  29.157  14.243  1.00  0.00    -0.507 OA
ATOM     23  H   UNL     1     -34.697  29.420  13.314  1.00  0.00     0.293 HD
ENDBRANCH   6  22
BRANCH   8  24
ATOM     24  O   UNL     1     -38.318  26.280  16.123  1.00  0.00    -0.508 OA
ATOM     25  H   UNL     1     -38.820  25.583  15.584  1.00  0.00     0.293 HD
ENDBRANCH   8  24
TORSDOF 5
ENDMDL
MODEL 2
REMARK VINA RESULT:    -5.578      2.038      7.128
REMARK INTER + INTRA:          -6.827
REMARK INTER:                  -6.536
REMARK INTRA:                  -0.291
REMARK UNBOUND:                -0.271
REMARK SMILES O=c1cc(-c2ccc(O)c(O)c2)oc2cc(O)cc(O)c12
REMARK SMILES IDX 4 1 3 2 2 3 1 4 21 5 19 6 18 7 16 8 15 9 14 10 13 11 5 12
REMARK SMILES IDX 6 13 7 14 8 15 12 16 10 17 9 18 11 20 20 22 17 24
REMARK H PARENT 9 19 11 21 20 23 17 25
REMARK Flexibility Score: inf
ROOT
ATOM      1  C   UNL     1     -37.930  29.156  14.795  1.00  0.00     0.138 A 
ATOM      2  C   UNL     1     -37.332  30.313  15.314  1.00  0.00     0.100 A 
ATOM      3  C   UNL     1     -37.870  31.564  15.010  1.00  0.00     0.197 A 
ATOM      4  O   UNL     1     -37.275  32.586  15.440  1.00  0.00    -0.289 OA
ATOM      5  C   UNL     1     -39.033  31.653  14.210  1.00  0.00     0.107 A 
ATOM      6  C   UNL     1     -39.693  32.872  13.869  1.00  0.00     0.134 A 
ATOM      7  C   UNL     1     -40.769  32.846  12.973  1.00  0.00     0.093 A 
ATOM      8  C   UNL     1     -41.246  31.644  12.453  1.00  0.00     0.123 A 
ATOM      9  C   UNL     1     -40.642  30.441  12.821  1.00  0.00     0.094 A 
ATOM     10  C   UNL     1     -39.545  30.436  13.686  1.00  0.00     0.146 A 
ATOM     11  O   UNL     1     -38.989  29.271  14.000  1.00  0.00    -0.456 OA
ENDROOT
BRANCH   1  12
ATOM     12  C   UNL     1     -37.399  27.800  15.087  1.00  0.00     0.021 A 
ATOM     13  C   UNL     1     -36.022  27.515  15.022  1.00  0.00     0.016 A 
ATOM     14  C   UNL     1     -35.549  26.232  15.311  1.00  0.00     0.051 A 
ATOM     15  C   UNL     1     -36.437  25.217  15.676  1.00  0.00     0.157 A 
ATOM     16  C   UNL     1     -38.286  26.777  15.468  1.00  0.00     0.062 A 
ATOM     17  C   UNL     1     -37.812  25.489  15.758  1.00  0.00     0.158 A 
BRANCH  15  18
ATOM     18  O   UNL     1     -35.935  23.946  15.959  1.00  0.00    -0.504 OA
ATOM     19  H   UNL     1     -35.484  23.376  15.254  1.00  0.00     0.293 HD
ENDBRANCH  15  18
BRANCH  17  20
ATOM     20  O   UNL     1     -38.703  24.481  16.125  1.00  0.00    -0.504 OA
ATOM     21  H   UNL     1     -38.586  23.955  16.982  1.00  0.00     0.293 HD
ENDBRANCH  17  20
ENDBRANCH   1  12
BRANCH   6  22
ATOM     22  O   UNL     1     -39.351  34.119  14.399  1.00  0.00    -0.507 OA
ATOM     23  H   UNL     1     -39.211  34.958  13.856  1.00  0.00     0.293 HD
ENDBRANCH   6  22
BRANCH   8  24
ATOM     24  O   UNL     1     -42.329  31.656  11.576  1.00  0.00    -0.508 OA
ATOM     25  H   UNL     1     -42.347  32.265  10.765  1.00  0.00     0.293 HD
ENDBRANCH   8  24
TORSDOF 5
ENDMDL
MODEL 3
REMARK VINA RESULT:    -5.415      2.823      8.067
REMARK INTER + INTRA:          -6.635
REMARK INTER:                  -6.341
REMARK INTRA:                  -0.294
REMARK UNBOUND:                -0.271
REMARK SMILES O=c1cc(-c2ccc(O)c(O)c2)oc2cc(O)cc(O)c12
REMARK SMILES IDX 4 1 3 2 2 3 1 4 21 5 19 6 18 7 16 8 15 9 14 10 13 11 5 12
REMARK SMILES IDX 6 13 7 14 8 15 12 16 10 17 9 18 11 20 20 22 17 24
REMARK H PARENT 9 19 11 21 20 23 17 25
REMARK Flexibility Score: inf
ROOT
ATOM      1  C   UNL     1     -37.130  26.740  15.177  1.00  0.00     0.138 A 
ATOM      2  C   UNL     1     -35.979  27.416  14.749  1.00  0.00     0.100 A 
ATOM      3  C   UNL     1     -36.002  28.806  14.621  1.00  0.00     0.197 A 
ATOM      4  O   UNL     1     -34.974  29.378  14.175  1.00  0.00    -0.289 OA
ATOM      5  C   UNL     1     -37.175  29.523  14.956  1.00  0.00     0.107 A 
ATOM      6  C   UNL     1     -37.301  30.943  14.904  1.00  0.00     0.134 A 
ATOM      7  C   UNL     1     -38.548  31.535  15.147  1.00  0.00     0.093 A 
ATOM      8  C   UNL     1     -39.654  30.764  15.498  1.00  0.00     0.123 A 
ATOM      9  C   UNL     1     -39.530  29.379  15.605  1.00  0.00     0.094 A 
ATOM     10  C   UNL     1     -38.309  28.756  15.335  1.00  0.00     0.146 A 
ATOM     11  O   UNL     1     -38.235  27.433  15.433  1.00  0.00    -0.456 OA
ENDROOT
BRANCH   1  12
ATOM     12  C   UNL     1     -37.160  25.263  15.332  1.00  0.00     0.021 A 
ATOM     13  C   UNL     1     -38.316  24.588  15.769  1.00  0.00     0.016 A 
ATOM     14  C   UNL     1     -38.319  23.197  15.895  1.00  0.00     0.051 A 
ATOM     15  C   UNL     1     -37.176  22.456  15.583  1.00  0.00     0.157 A 
ATOM     16  C   UNL     1     -36.018  24.510  15.006  1.00  0.00     0.062 A 
ATOM     17  C   UNL     1     -36.019  23.113  15.134  1.00  0.00     0.158 A 
BRANCH  15  18
ATOM     18  O   UNL     1     -37.209  21.068  15.720  1.00  0.00    -0.504 OA
ATOM     19  H   UNL     1     -36.584  20.573  16.344  1.00  0.00     0.293 HD
ENDBRANCH  15  18
BRANCH  17  20
ATOM     20  O   UNL     1     -34.877  22.380  14.817  1.00  0.00    -0.504 OA
ATOM     21  H   UNL     1     -34.471  22.404  13.890  1.00  0.00     0.293 HD
ENDBRANCH  17  20
ENDBRANCH   1  12
BRANCH   6  22
ATOM     22  O   UNL     1     -36.237  31.813  14.647  1.00  0.00    -0.507 OA
ATOM     23  H   UNL     1     -35.503  31.644  13.976  1.00  0.00     0.293 HD
ENDBRANCH   6  22
BRANCH   8  24
ATOM     24  O   UNL     1     -40.875  31.389  15.747  1.00  0.00    -0.508 OA
ATOM     25  H   UNL     1     -41.128  31.707  16.675  1.00  0.00     0.293 HD
ENDBRANCH   8  24
TORSDOF 5
ENDMDL
MODEL 4
REMARK VINA RESULT:    -5.371      1.723      2.485
REMARK INTER + INTRA:          -6.584
REMARK INTER:                  -6.307
REMARK INTRA:                  -0.277
REMARK UNBOUND:                -0.271
REMARK SMILES O=c1cc(-c2ccc(O)c(O)c2)oc2cc(O)cc(O)c12
REMARK SMILES IDX 4 1 3 2 2 3 1 4 21 5 19 6 18 7 16 8 15 9 14 10 13 11 5 12
REMARK SMILES IDX 6 13 7 14 8 15 12 16 10 17 9 18 11 20 20 22 17 24
REMARK H PARENT 9 19 11 21 20 23 17 25
REMARK Flexibility Score: inf
ROOT
ATOM      1  C   UNL     1     -41.077  33.069  15.168  1.00  0.00     0.138 A 
ATOM      2  C   UNL     1     -39.852  33.748  15.104  1.00  0.00     0.100 A 
ATOM      3  C   UNL     1     -38.661  33.021  15.071  1.00  0.00     0.197 A 
ATOM      4  O   UNL     1     -37.576  33.658  15.077  1.00  0.00    -0.289 OA
ATOM      5  C   UNL     1     -38.701  31.606  15.069  1.00  0.00     0.107 A 
ATOM      6  C   UNL     1     -37.553  30.762  14.996  1.00  0.00     0.134 A 
ATOM      7  C   UNL     1     -37.708  29.375  15.119  1.00  0.00     0.093 A 
ATOM      8  C   UNL     1     -38.971  28.800  15.252  1.00  0.00     0.123 A 
ATOM      9  C   UNL     1     -40.105  29.612  15.270  1.00  0.00     0.094 A 
ATOM     10  C   UNL     1     -39.981  31.001  15.184  1.00  0.00     0.146 A 
ATOM     11  O   UNL     1     -41.084  31.741  15.220  1.00  0.00    -0.456 OA
ENDROOT
BRANCH   1  12
ATOM     12  C   UNL     1     -42.373  33.793  15.204  1.00  0.00     0.021 A 
ATOM     13  C   UNL     1     -43.397  33.433  16.101  1.00  0.00     0.016 A 
ATOM     14  C   UNL     1     -44.603  34.137  16.120  1.00  0.00     0.051 A 
ATOM     15  C   UNL     1     -44.807  35.215  15.254  1.00  0.00     0.157 A 
ATOM     16  C   UNL     1     -42.580  34.887  14.345  1.00  0.00     0.062 A 
ATOM     17  C   UNL     1     -43.791  35.595  14.362  1.00  0.00     0.158 A 
BRANCH  15  18
ATOM     18  O   UNL     1     -46.022  35.899  15.295  1.00  0.00    -0.504 OA
ATOM     19  H   UNL     1     -46.692  35.761  16.042  1.00  0.00     0.293 HD
ENDBRANCH  15  18
BRANCH  17  20
ATOM     20  O   UNL     1     -43.985  36.671  13.498  1.00  0.00    -0.504 OA
ATOM     21  H   UNL     1     -43.327  36.885  12.759  1.00  0.00     0.293 HD
ENDBRANCH  17  20
ENDBRANCH   1  12
BRANCH   6  22
ATOM     22  O   UNL     1     -36.253  31.228  14.779  1.00  0.00    -0.507 OA
ATOM     23  H   UNL     1     -35.414  30.690  14.934  1.00  0.00     0.293 HD
ENDBRANCH   6  22
BRANCH   8  24
ATOM     24  O   UNL     1     -39.087  27.415  15.357  1.00  0.00    -0.508 OA
ATOM     25  H   UNL     1     -39.751  26.986  15.991  1.00  0.00     0.293 HD
ENDBRANCH   8  24
TORSDOF 5
ENDMDL
MODEL 5
REMARK VINA RESULT:    -5.244      1.537      6.908
REMARK INTER + INTRA:          -6.434
REMARK INTER:                  -6.153
REMARK INTRA:                  -0.282
REMARK UNBOUND:                -0.271
REMARK SMILES O=c1cc(-c2ccc(O)c(O)c2)oc2cc(O)cc(O)c12
REMARK SMILES IDX 4 1 3 2 2 3 1 4 21 5 19 6 18 7 16 8 15 9 14 10 13 11 5 12
REMARK SMILES IDX 6 13 7 14 8 15 12 16 10 17 9 18 11 20 20 22 17 24
REMARK H PARENT 9 19 11 21 20 23 17 25
REMARK Flexibility Score: inf
ROOT
ATOM      1  C   UNL     1     -38.608  31.026  14.895  1.00  0.00     0.138 A 
ATOM      2  C   UNL     1     -38.177  32.167  15.587  1.00  0.00     0.100 A 
ATOM      3  C   UNL     1     -38.924  33.343  15.510  1.00  0.00     0.197 A 
ATOM      4  O   UNL     1     -38.480  34.367  16.091  1.00  0.00    -0.289 OA
ATOM      5  C   UNL     1     -40.125  33.366  14.763  1.00  0.00     0.107 A 
ATOM      6  C   UNL     1     -40.989  34.496  14.648  1.00  0.00     0.134 A 
ATOM      7  C   UNL     1     -42.091  34.437  13.785  1.00  0.00     0.093 A 
ATOM      8  C   UNL     1     -42.394  33.272  13.082  1.00  0.00     0.123 A 
ATOM      9  C   UNL     1     -41.587  32.143  13.228  1.00  0.00     0.094 A 
ATOM     10  C   UNL     1     -40.461  32.181  14.054  1.00  0.00     0.146 A 
ATOM     11  O   UNL     1     -39.710  31.090  14.156  1.00  0.00    -0.456 OA
ENDROOT
BRANCH   1  12
ATOM     12  C   UNL     1     -37.852  29.748  14.943  1.00  0.00     0.021 A 
ATOM     13  C   UNL     1     -36.487  29.682  14.601  1.00  0.00     0.016 A 
ATOM     14  C   UNL     1     -35.799  28.469  14.664  1.00  0.00     0.051 A 
ATOM     15  C   UNL     1     -36.453  27.304  15.075  1.00  0.00     0.157 A 
ATOM     16  C   UNL     1     -38.501  28.575  15.369  1.00  0.00     0.062 A 
ATOM     17  C   UNL     1     -37.811  27.356  15.432  1.00  0.00     0.158 A 
BRANCH  15  18
ATOM     18  O   UNL     1     -35.739  26.107  15.128  1.00  0.00    -0.504 OA
ATOM     19  H   UNL     1     -35.100  25.828  14.394  1.00  0.00     0.293 HD
ENDBRANCH  15  18
BRANCH  17  20
ATOM     20  O   UNL     1     -38.469  26.199  15.846  1.00  0.00    -0.504 OA
ATOM     21  H   UNL     1     -39.142  26.213  16.602  1.00  0.00     0.293 HD
ENDBRANCH  17  20
ENDBRANCH   1  12
BRANCH   6  22
ATOM     22  O   UNL     1     -40.826  35.681  15.371  1.00  0.00    -0.507 OA
ATOM     23  H   UNL     1     -41.562  36.160  15.867  1.00  0.00     0.293 HD
ENDBRANCH   6  22
BRANCH   8  24
ATOM     24  O   UNL     1     -43.507  33.245  12.244  1.00  0.00    -0.508 OA
ATOM     25  H   UNL     1     -44.067  34.075  12.080  1.00  0.00     0.293 HD
ENDBRANCH   8  24
TORSDOF 5
ENDMDL
MODEL 6
REMARK VINA RESULT:    -5.051      1.919      7.247
REMARK INTER + INTRA:          -6.207
REMARK INTER:                  -5.929
REMARK INTRA:                  -0.279
REMARK UNBOUND:                -0.271
REMARK SMILES O=c1cc(-c2ccc(O)c(O)c2)oc2cc(O)cc(O)c12
REMARK SMILES IDX 4 1 3 2 2 3 1 4 21 5 19 6 18 7 16 8 15 9 14 10 13 11 5 12
REMARK SMILES IDX 6 13 7 14 8 15 12 16 10 17 9 18 11 20 20 22 17 24
REMARK H PARENT 9 19 11 21 20 23 17 25
REMARK Flexibility Score: inf
ROOT
ATOM      1  C   UNL     1     -40.748  32.251  14.574  1.00  0.00     0.138 A 
ATOM      2  C   UNL     1     -40.127  33.217  13.770  1.00  0.00     0.100 A 
ATOM      3  C   UNL     1     -40.738  34.459  13.590  1.00  0.00     0.197 A 
ATOM      4  O   UNL     1     -40.188  35.283  12.813  1.00  0.00    -0.289 OA
ATOM      5  C   UNL     1     -41.959  34.745  14.245  1.00  0.00     0.107 A 
ATOM      6  C   UNL     1     -42.650  35.990  14.167  1.00  0.00     0.134 A 
ATOM      7  C   UNL     1     -43.911  36.118  14.764  1.00  0.00     0.093 A 
ATOM      8  C   UNL     1     -44.476  35.068  15.485  1.00  0.00     0.123 A 
ATOM      9  C   UNL     1     -43.785  33.863  15.614  1.00  0.00     0.094 A 
ATOM     10  C   UNL     1     -42.541  33.692  15.000  1.00  0.00     0.146 A 
ATOM     11  O   UNL     1     -41.921  32.524  15.134  1.00  0.00    -0.456 OA
ENDROOT
BRANCH   1  12
ATOM     12  C   UNL     1     -40.142  30.914  14.801  1.00  0.00     0.021 A 
ATOM     13  C   UNL     1     -40.919  29.740  14.802  1.00  0.00     0.016 A 
ATOM     14  C   UNL     1     -40.321  28.494  15.009  1.00  0.00     0.051 A 
ATOM     15  C   UNL     1     -38.942  28.396  15.210  1.00  0.00     0.157 A 
ATOM     16  C   UNL     1     -38.752  30.806  14.991  1.00  0.00     0.062 A 
ATOM     17  C   UNL     1     -38.151  29.556  15.199  1.00  0.00     0.158 A 
BRANCH  15  18
ATOM     18  O   UNL     1     -38.374  27.138  15.414  1.00  0.00    -0.504 OA
ATOM     19  H   UNL     1     -37.450  27.023  15.812  1.00  0.00     0.293 HD
ENDBRANCH  15  18
BRANCH  17  20
ATOM     20  O   UNL     1     -36.774  29.465  15.396  1.00  0.00    -0.504 OA
ATOM     21  H   UNL     1     -36.359  28.685  15.890  1.00  0.00     0.293 HD
ENDBRANCH  17  20
ENDBRANCH   1  12
BRANCH   6  22
ATOM     22  O   UNL     1     -42.137  37.131  13.543  1.00  0.00    -0.507 OA
ATOM     23  H   UNL     1     -41.179  37.439  13.602  1.00  0.00     0.293 HD
ENDBRANCH   6  22
BRANCH   8  24
ATOM     24  O   UNL     1     -45.726  35.236  16.079  1.00  0.00    -0.508 OA
ATOM     25  H   UNL     1     -46.506  35.634  15.568  1.00  0.00     0.293 HD
ENDBRANCH   8  24
TORSDOF 5
ENDMDL
MODEL 7
REMARK VINA RESULT:    -4.783      1.435      2.964
REMARK INTER + INTRA:          -5.893
REMARK INTER:                  -5.599
REMARK INTRA:                  -0.294
REMARK UNBOUND:                -0.271
REMARK SMILES O=c1cc(-c2ccc(O)c(O)c2)oc2cc(O)cc(O)c12
REMARK SMILES IDX 4 1 3 2 2 3 1 4 21 5 19 6 18 7 16 8 15 9 14 10 13 11 5 12
REMARK SMILES IDX 6 13 7 14 8 15 12 16 10 17 9 18 11 20 20 22 17 24
REMARK H PARENT 9 19 11 21 20 23 17 25
REMARK Flexibility Score: inf
ROOT
ATOM      1  C   UNL     1     -40.492  32.334  14.626  1.00  0.00     0.138 A 
ATOM      2  C   UNL     1     -41.144  31.140  14.965  1.00  0.00     0.100 A 
ATOM      3  C   UNL     1     -40.403  29.965  15.103  1.00  0.00     0.197 A 
ATOM      4  O   UNL     1     -41.024  28.897  15.345  1.00  0.00    -0.289 OA
ATOM      5  C   UNL     1     -38.999  29.994  14.932  1.00  0.00     0.107 A 
ATOM      6  C   UNL     1     -38.138  28.868  15.088  1.00  0.00     0.134 A 
ATOM      7  C   UNL     1     -36.777  28.991  14.779  1.00  0.00     0.093 A 
ATOM      8  C   UNL     1     -36.237  30.212  14.380  1.00  0.00     0.123 A 
ATOM      9  C   UNL     1     -37.059  31.334  14.276  1.00  0.00     0.094 A 
ATOM     10  C   UNL     1     -38.427  31.235  14.543  1.00  0.00     0.146 A 
ATOM     11  O   UNL     1     -39.179  32.323  14.418  1.00  0.00    -0.456 OA
ENDROOT
BRANCH   1  12
ATOM     12  C   UNL     1     -41.231  33.613  14.468  1.00  0.00     0.021 A 
ATOM     13  C   UNL     1     -40.591  34.787  14.027  1.00  0.00     0.016 A 
ATOM     14  C   UNL     1     -41.313  35.974  13.878  1.00  0.00     0.051 A 
ATOM     15  C   UNL     1     -42.681  36.010  14.158  1.00  0.00     0.157 A 
ATOM     16  C   UNL     1     -42.611  33.652  14.736  1.00  0.00     0.062 A 
ATOM     17  C   UNL     1     -43.336  34.844  14.587  1.00  0.00     0.158 A 
BRANCH  15  18
ATOM     18  O   UNL     1     -43.375  37.209  14.001  1.00  0.00    -0.504 OA
ATOM     19  H   UNL     1     -43.082  37.919  13.340  1.00  0.00     0.293 HD
ENDBRANCH  15  18
BRANCH  17  20
ATOM     20  O   UNL     1     -44.702  34.871  14.865  1.00  0.00    -0.504 OA
ATOM     21  H   UNL     1     -45.093  35.516  15.542  1.00  0.00     0.293 HD
ENDBRANCH  17  20
ENDBRANCH   1  12
BRANCH   6  22
ATOM     22  O   UNL     1     -38.559  27.622  15.563  1.00  0.00    -0.507 OA
ATOM     23  H   UNL     1     -38.993  26.906  15.000  1.00  0.00     0.293 HD
ENDBRANCH   6  22
BRANCH   8  24
ATOM     24  O   UNL     1     -34.875  30.301  14.095  1.00  0.00    -0.508 OA
ATOM     25  H   UNL     1     -34.315  29.473  13.925  1.00  0.00     0.293 HD
ENDBRANCH   8  24
TORSDOF 5
ENDMDL
MODEL 8
REMARK VINA RESULT:    -4.717      2.196      7.790
REMARK INTER + INTRA:          -5.815
REMARK INTER:                  -5.533
REMARK INTRA:                  -0.281
REMARK UNBOUND:                -0.271
REMARK SMILES O=c1cc(-c2ccc(O)c(O)c2)oc2cc(O)cc(O)c12
REMARK SMILES IDX 4 1 3 2 2 3 1 4 21 5 19 6 18 7 16 8 15 9 14 10 13 11 5 12
REMARK SMILES IDX 6 13 7 14 8 15 12 16 10 17 9 18 11 20 20 22 17 24
REMARK H PARENT 9 19 11 21 20 23 17 25
REMARK Flexibility Score: inf
ROOT
ATOM      1  C   UNL     1     -41.048  33.054  15.059  1.00  0.00     0.138 A 
ATOM      2  C   UNL     1     -42.393  32.916  15.427  1.00  0.00     0.100 A 
ATOM      3  C   UNL     1     -43.272  33.984  15.240  1.00  0.00     0.197 A 
ATOM      4  O   UNL     1     -44.459  33.851  15.638  1.00  0.00    -0.289 OA
ATOM      5  C   UNL     1     -42.807  35.182  14.649  1.00  0.00     0.107 A 
ATOM      6  C   UNL     1     -43.622  36.320  14.372  1.00  0.00     0.134 A 
ATOM      7  C   UNL     1     -43.027  37.494  13.893  1.00  0.00     0.093 A 
ATOM      8  C   UNL     1     -41.660  37.552  13.625  1.00  0.00     0.123 A 
ATOM      9  C   UNL     1     -40.863  36.428  13.841  1.00  0.00     0.094 A 
ATOM     10  C   UNL     1     -41.420  35.253  14.351  1.00  0.00     0.146 A 
ATOM     11  O   UNL     1     -40.624  34.209  14.557  1.00  0.00    -0.456 OA
ENDROOT
BRANCH   1  12
ATOM     12  C   UNL     1     -40.069  31.950  15.235  1.00  0.00     0.021 A 
ATOM     13  C   UNL     1     -38.739  32.195  15.624  1.00  0.00     0.016 A 
ATOM     14  C   UNL     1     -37.843  31.137  15.792  1.00  0.00     0.051 A 
ATOM     15  C   UNL     1     -38.257  29.819  15.584  1.00  0.00     0.157 A 
ATOM     16  C   UNL     1     -40.484  30.620  15.040  1.00  0.00     0.062 A 
ATOM     17  C   UNL     1     -39.585  29.556  15.208  1.00  0.00     0.158 A 
BRANCH  15  18
ATOM     18  O   UNL     1     -37.339  28.783  15.759  1.00  0.00    -0.504 OA
ATOM     19  H   UNL     1     -36.862  28.349  14.978  1.00  0.00     0.293 HD
ENDBRANCH  15  18
BRANCH  17  20
ATOM     20  O   UNL     1     -40.006  28.244  15.002  1.00  0.00    -0.504 OA
ATOM     21  H   UNL     1     -40.540  27.741  15.700  1.00  0.00     0.293 HD
ENDBRANCH  17  20
ENDBRANCH   1  12
BRANCH   6  22
ATOM     22  O   UNL     1     -45.011  36.342  14.524  1.00  0.00    -0.507 OA
ATOM     23  H   UNL     1     -45.523  35.838  15.233  1.00  0.00     0.293 HD
ENDBRANCH   6  22
BRANCH   8  24
ATOM     24  O   UNL     1     -41.106  38.733  13.134  1.00  0.00    -0.508 OA
ATOM     25  H   UNL     1     -41.437  39.641  13.440  1.00  0.00     0.293 HD
ENDBRANCH   8  24
TORSDOF 5
ENDMDL
MODEL 9
REMARK VINA RESULT:    -4.596      2.604      7.185
REMARK INTER + INTRA:          -5.673
REMARK INTER:                  -5.365
REMARK INTRA:                  -0.308
REMARK UNBOUND:                -0.271
REMARK SMILES O=c1cc(-c2ccc(O)c(O)c2)oc2cc(O)cc(O)c12
REMARK SMILES IDX 4 1 3 2 2 3 1 4 21 5 19 6 18 7 16 8 15 9 14 10 13 11 5 12
REMARK SMILES IDX 6 13 7 14 8 15 12 16 10 17 9 18 11 20 20 22 17 24
REMARK H PARENT 9 19 11 21 20 23 17 25
REMARK Flexibility Score: inf
ROOT
ATOM      1  C   UNL     1     -39.956  32.596  14.028  1.00  0.00     0.138 A 
ATOM      2  C   UNL     1     -41.221  33.181  14.178  1.00  0.00     0.100 A 
ATOM      3  C   UNL     1     -41.410  34.517  13.818  1.00  0.00     0.197 A 
ATOM      4  O   UNL     1     -42.539  35.032  14.023  1.00  0.00    -0.289 OA
ATOM      5  C   UNL     1     -40.334  35.258  13.275  1.00  0.00     0.107 A 
ATOM      6  C   UNL     1     -40.421  36.612  12.835  1.00  0.00     0.134 A 
ATOM      7  C   UNL     1     -39.260  37.279  12.423  1.00  0.00     0.093 A 
ATOM      8  C   UNL     1     -38.030  36.625  12.378  1.00  0.00     0.123 A 
ATOM      9  C   UNL     1     -37.943  35.284  12.754  1.00  0.00     0.094 A 
ATOM     10  C   UNL     1     -39.076  34.601  13.203  1.00  0.00     0.146 A 
ATOM     11  O   UNL     1     -38.949  33.329  13.567  1.00  0.00    -0.456 OA
ENDROOT
BRANCH   1  12
ATOM     12  C   UNL     1     -39.700  31.179  14.394  1.00  0.00     0.021 A 
ATOM     13  C   UNL     1     -40.712  30.202  14.326  1.00  0.00     0.016 A 
ATOM     14  C   UNL     1     -40.440  28.875  14.667  1.00  0.00     0.051 A 
ATOM     15  C   UNL     1     -39.158  28.497  15.073  1.00  0.00     0.157 A 
ATOM     16  C   UNL     1     -38.408  30.789  14.790  1.00  0.00     0.062 A 
ATOM     17  C   UNL     1     -38.134  29.457  15.133  1.00  0.00     0.158 A 
BRANCH  15  18
ATOM     18  O   UNL     1     -38.917  27.165  15.408  1.00  0.00    -0.504 OA
ATOM     19  H   UNL     1     -38.052  26.866  15.841  1.00  0.00     0.293 HD
ENDBRANCH  15  18
BRANCH  17  20
ATOM     20  O   UNL     1     -36.851  29.086  15.534  1.00  0.00    -0.504 OA
ATOM     21  H   UNL     1     -36.025  29.481  15.102  1.00  0.00     0.293 HD
ENDBRANCH  17  20
ENDBRANCH   1  12
BRANCH   6  22
ATOM     22  O   UNL     1     -41.615  37.334  12.760  1.00  0.00    -0.507 OA
ATOM     23  H   UNL     1     -42.302  37.393  13.497  1.00  0.00     0.293 HD
ENDBRANCH   6  22
BRANCH   8  24
ATOM     24  O   UNL     1     -36.899  37.317  11.948  1.00  0.00    -0.508 OA
ATOM     25  H   UNL     1     -36.176  36.862  11.402  1.00  0.00     0.293 HD
ENDBRANCH   8  24
TORSDOF 5
ENDMDL
