MODEL 1
REMARK VINA RESULT:    -4.857      0.000      0.000
REMARK INTER + INTRA:          -6.024
REMARK INTER:                  -5.709
REMARK INTRA:                  -0.315
REMARK UNBOUND:                -0.315
REMARK SMILES O=c1cc(-c2ccc(O)c(O)c2)oc2cc(O)cc(O)c12
REMARK SMILES IDX 4 1 3 2 2 3 1 4 21 5 19 6 18 7 16 8 15 9 14 10 13 11 5 12
REMARK SMILES IDX 6 13 7 14 8 15 12 16 10 17 9 18 11 20 20 22 17 24
REMARK H PARENT 9 19 11 21 20 23 17 25
REMARK Flexibility Score: inf
ROOT
ATOM      1  C   UNL     1       2.406  -0.841  -8.804  1.00  0.00     0.138 A 
ATOM      2  C   UNL     1       3.180  -1.949  -8.432  1.00  0.00     0.100 A 
ATOM      3  C   UNL     1       2.583  -3.206  -8.330  1.00  0.00     0.197 A 
ATOM      4  O   UNL     1       3.289  -4.169  -7.935  1.00  0.00    -0.289 OA
ATOM      5  C   UNL     1       1.209  -3.358  -8.635  1.00  0.00     0.107 A 
ATOM      6  C   UNL     1       0.503  -4.598  -8.606  1.00  0.00     0.134 A 
ATOM      7  C   UNL     1      -0.882  -4.608  -8.813  1.00  0.00     0.093 A 
ATOM      8  C   UNL     1      -1.575  -3.432  -9.108  1.00  0.00     0.123 A 
ATOM      9  C   UNL     1      -0.887  -2.224  -9.191  1.00  0.00     0.094 A 
ATOM     10  C   UNL     1       0.489  -2.176  -8.956  1.00  0.00     0.146 A 
ATOM     11  O   UNL     1       1.107  -1.001  -9.031  1.00  0.00    -0.456 OA
ENDROOT
BRANCH   1  12
ATOM     12  C   UNL     1       2.991   0.519  -8.928  1.00  0.00     0.021 A 
ATOM     13  C   UNL     1       4.381   0.720  -9.015  1.00  0.00     0.016 A 
ATOM     14  C   UNL     1       4.904   2.010  -9.141  1.00  0.00     0.051 A 
ATOM     15  C   UNL     1       4.050   3.118  -9.191  1.00  0.00     0.157 A 
ATOM     16  C   UNL     1       2.139   1.636  -8.992  1.00  0.00     0.062 A 
ATOM     17  C   UNL     1       2.660   2.929  -9.117  1.00  0.00     0.158 A 
BRANCH  15  18
ATOM     18  O   UNL     1       4.575   4.403  -9.315  1.00  0.00    -0.504 OA
ATOM     19  H   UNL     1       4.047   5.221  -9.034  1.00  0.00     0.293 HD
ENDBRANCH  15  18
BRANCH  17  20
ATOM     20  O   UNL     1       1.781   4.010  -9.167  1.00  0.00    -0.504 OA
ATOM     21  H   UNL     1       1.152   4.157  -9.948  1.00  0.00     0.293 HD
ENDBRANCH  17  20
ENDBRANCH   1  12
BRANCH   6  22
ATOM     22  O   UNL     1       1.113  -5.839  -8.405  1.00  0.00    -0.507 OA
ATOM     23  H   UNL     1       1.980  -6.132  -8.830  1.00  0.00     0.293 HD
ENDBRANCH   6  22
BRANCH   8  24
ATOM     24  O   UNL     1      -2.951  -3.454  -9.328  1.00  0.00    -0.508 OA
ATOM     25  H   UNL     1      -3.451  -4.324  -9.470  1.00  0.00     0.293 HD
ENDBRANCH   8  24
TORSDOF 5
ENDMDL
MODEL 2
REMARK VINA RESULT:    -4.843     14.694     16.256
REMARK INTER + INTRA:          -6.007
REMARK INTER:                  -5.716
REMARK INTRA:                  -0.291
REMARK UNBOUND:                -0.315
REMARK SMILES O=c1cc(-c2ccc(O)c(O)c2)oc2cc(O)cc(O)c12
REMARK SMILES IDX 4 1 3 2 2 3 1 4 21 5 19 6 18 7 16 8 15 9 14 10 13 11 5 12
REMARK SMILES IDX 6 13 7 14 8 15 12 16 10 17 9 18 11 20 20 22 17 24
REMARK H PARENT 9 19 11 21 20 23 17 25
REMARK Flexibility Score: inf
ROOT
ATOM      1  C   UNL     1     -11.760   4.081  -5.126  1.00  0.00     0.138 A 
ATOM      2  C   UNL     1     -11.808   3.307  -6.294  1.00  0.00     0.100 A 
ATOM      3  C   UNL     1     -11.807   3.936  -7.540  1.00  0.00     0.197 A 
ATOM      4  O   UNL     1     -11.913   3.219  -8.567  1.00  0.00    -0.289 OA
ATOM      5  C   UNL     1     -11.724   5.347  -7.615  1.00  0.00     0.107 A 
ATOM      6  C   UNL     1     -11.675   6.094  -8.829  1.00  0.00     0.134 A 
ATOM      7  C   UNL     1     -11.711   7.493  -8.780  1.00  0.00     0.093 A 
ATOM      8  C   UNL     1     -11.735   8.172  -7.560  1.00  0.00     0.123 A 
ATOM      9  C   UNL     1     -11.730   7.453  -6.367  1.00  0.00     0.094 A 
ATOM     10  C   UNL     1     -11.728   6.056  -6.383  1.00  0.00     0.146 A 
ATOM     11  O   UNL     1     -11.738   5.406  -5.223  1.00  0.00    -0.456 OA
ENDROOT
BRANCH   1  12
ATOM     12  C   UNL     1     -11.758   3.464  -3.775  1.00  0.00     0.021 A 
ATOM     13  C   UNL     1     -12.125   4.194  -2.629  1.00  0.00     0.016 A 
ATOM     14  C   UNL     1     -12.125   3.585  -1.371  1.00  0.00     0.051 A 
ATOM     15  C   UNL     1     -11.768   2.238  -1.237  1.00  0.00     0.157 A 
ATOM     16  C   UNL     1     -11.415   2.108  -3.633  1.00  0.00     0.062 A 
ATOM     17  C   UNL     1     -11.413   1.496  -2.375  1.00  0.00     0.158 A 
BRANCH  15  18
ATOM     18  O   UNL     1     -11.768   1.634   0.019  1.00  0.00    -0.504 OA
ATOM     19  H   UNL     1     -11.136   0.875   0.243  1.00  0.00     0.293 HD
ENDBRANCH  15  18
BRANCH  17  20
ATOM     20  O   UNL     1     -11.056   0.151  -2.277  1.00  0.00    -0.504 OA
ATOM     21  H   UNL     1     -10.865  -0.416  -3.094  1.00  0.00     0.293 HD
ENDBRANCH  17  20
ENDBRANCH   1  12
BRANCH   6  22
ATOM     22  O   UNL     1     -11.563   5.517 -10.097  1.00  0.00    -0.507 OA
ATOM     23  H   UNL     1     -12.328   5.117 -10.618  1.00  0.00     0.293 HD
ENDBRANCH   6  22
BRANCH   8  24
ATOM     24  O   UNL     1     -11.756   9.565  -7.521  1.00  0.00    -0.508 OA
ATOM     25  H   UNL     1     -12.599  10.076  -7.284  1.00  0.00     0.293 HD
ENDBRANCH   8  24
TORSDOF 5
ENDMDL
MODEL 3
REMARK VINA RESULT:    -4.805      1.927      7.097
REMARK INTER + INTRA:          -5.963
REMARK INTER:                  -5.675
REMARK INTRA:                  -0.288
REMARK UNBOUND:                -0.315
REMARK SMILES O=c1cc(-c2ccc(O)c(O)c2)oc2cc(O)cc(O)c12
REMARK SMILES IDX 4 1 3 2 2 3 1 4 21 5 19 6 18 7 16 8 15 9 14 10 13 11 5 12
REMARK SMILES IDX 6 13 7 14 8 15 12 16 10 17 9 18 11 20 20 22 17 24
REMARK H PARENT 9 19 11 21 20 23 17 25
REMARK Flexibility Score: inf
ROOT
ATOM      1  C   UNL     1       1.561  -2.159  -8.628  1.00  0.00     0.138 A 
ATOM      2  C   UNL     1       1.470  -0.926  -9.288  1.00  0.00     0.100 A 
ATOM      3  C   UNL     1       2.505   0.002  -9.162  1.00  0.00     0.197 A 
ATOM      4  O   UNL     1       2.367   1.123  -9.715  1.00  0.00    -0.289 OA
ATOM      5  C   UNL     1       3.651  -0.322  -8.398  1.00  0.00     0.107 A 
ATOM      6  C   UNL     1       4.784   0.529  -8.233  1.00  0.00     0.134 A 
ATOM      7  C   UNL     1       5.810   0.150  -7.358  1.00  0.00     0.093 A 
ATOM      8  C   UNL     1       5.770  -1.076  -6.688  1.00  0.00     0.123 A 
ATOM      9  C   UNL     1       4.694  -1.937  -6.884  1.00  0.00     0.094 A 
ATOM     10  C   UNL     1       3.639  -1.573  -7.724  1.00  0.00     0.146 A 
ATOM     11  O   UNL     1       2.623  -2.417  -7.872  1.00  0.00    -0.456 OA
ENDROOT
BRANCH   1  12
ATOM     12  C   UNL     1       0.489  -3.183  -8.728  1.00  0.00     0.021 A 
ATOM     13  C   UNL     1       0.748  -4.548  -8.501  1.00  0.00     0.016 A 
ATOM     14  C   UNL     1      -0.281  -5.488  -8.591  1.00  0.00     0.051 A 
ATOM     15  C   UNL     1      -1.586  -5.084  -8.899  1.00  0.00     0.157 A 
ATOM     16  C   UNL     1      -0.826  -2.783  -9.023  1.00  0.00     0.062 A 
ATOM     17  C   UNL     1      -1.858  -3.723  -9.115  1.00  0.00     0.158 A 
BRANCH  15  18
ATOM     18  O   UNL     1      -2.609  -6.025  -8.989  1.00  0.00    -0.504 OA
ATOM     19  H   UNL     1      -2.710  -6.766  -8.305  1.00  0.00     0.293 HD
ENDBRANCH  15  18
BRANCH  17  20
ATOM     20  O   UNL     1      -3.147  -3.286  -9.420  1.00  0.00    -0.504 OA
ATOM     21  H   UNL     1      -3.329  -2.633 -10.173  1.00  0.00     0.293 HD
ENDBRANCH  17  20
ENDBRANCH   1  12
BRANCH   6  22
ATOM     22  O   UNL     1       4.963   1.734  -8.919  1.00  0.00    -0.507 OA
ATOM     23  H   UNL     1       5.470   1.834  -9.785  1.00  0.00     0.293 HD
ENDBRANCH   6  22
BRANCH   8  24
ATOM     24  O   UNL     1       6.803  -1.451  -5.831  1.00  0.00    -0.508 OA
ATOM     25  H   UNL     1       7.389  -2.255  -6.027  1.00  0.00     0.293 HD
ENDBRANCH   8  24
TORSDOF 5
ENDMDL
MODEL 4
REMARK VINA RESULT:    -4.779      1.520      6.724
REMARK INTER + INTRA:          -5.932
REMARK INTER:                  -5.615
REMARK INTRA:                  -0.317
REMARK UNBOUND:                -0.315
REMARK SMILES O=c1cc(-c2ccc(O)c(O)c2)oc2cc(O)cc(O)c12
REMARK SMILES IDX 4 1 3 2 2 3 1 4 21 5 19 6 18 7 16 8 15 9 14 10 13 11 5 12
REMARK SMILES IDX 6 13 7 14 8 15 12 16 10 17 9 18 11 20 20 22 17 24
REMARK H PARENT 9 19 11 21 20 23 17 25
REMARK Flexibility Score: inf
ROOT
ATOM      1  C   UNL     1       1.679  -2.492  -8.621  1.00  0.00     0.138 A 
ATOM      2  C   UNL     1       2.936  -2.881  -8.137  1.00  0.00     0.100 A 
ATOM      3  C   UNL     1       3.974  -1.950  -8.083  1.00  0.00     0.197 A 
ATOM      4  O   UNL     1       5.106  -2.344  -7.702  1.00  0.00    -0.289 OA
ATOM      5  C   UNL     1       3.742  -0.614  -8.487  1.00  0.00     0.107 A 
ATOM      6  C   UNL     1       4.713   0.430  -8.437  1.00  0.00     0.134 A 
ATOM      7  C   UNL     1       4.403   1.686  -8.973  1.00  0.00     0.093 A 
ATOM      8  C   UNL     1       3.138   1.953  -9.501  1.00  0.00     0.123 A 
ATOM      9  C   UNL     1       2.165   0.957  -9.505  1.00  0.00     0.094 A 
ATOM     10  C   UNL     1       2.454  -0.317  -9.010  1.00  0.00     0.146 A 
ATOM     11  O   UNL     1       1.503  -1.245  -9.045  1.00  0.00    -0.456 OA
ENDROOT
BRANCH   1  12
ATOM     12  C   UNL     1       0.540  -3.441  -8.700  1.00  0.00     0.021 A 
ATOM     13  C   UNL     1       0.703  -4.814  -8.434  1.00  0.00     0.016 A 
ATOM     14  C   UNL     1      -0.389  -5.683  -8.505  1.00  0.00     0.051 A 
ATOM     15  C   UNL     1      -1.661  -5.198  -8.833  1.00  0.00     0.157 A 
ATOM     16  C   UNL     1      -0.743  -2.959  -9.014  1.00  0.00     0.062 A 
ATOM     17  C   UNL     1      -1.838  -3.828  -9.087  1.00  0.00     0.158 A 
BRANCH  15  18
ATOM     18  O   UNL     1      -2.747  -6.068  -8.904  1.00  0.00    -0.504 OA
ATOM     19  H   UNL     1      -3.079  -6.570  -8.089  1.00  0.00     0.293 HD
ENDBRANCH  15  18
BRANCH  17  20
ATOM     20  O   UNL     1      -3.092  -3.311  -9.413  1.00  0.00    -0.504 OA
ATOM     21  H   UNL     1      -3.451  -2.465  -8.987  1.00  0.00     0.293 HD
ENDBRANCH  17  20
ENDBRANCH   1  12
BRANCH   6  22
ATOM     22  O   UNL     1       5.976   0.295  -7.854  1.00  0.00    -0.507 OA
ATOM     23  H   UNL     1       6.623   1.052  -7.697  1.00  0.00     0.293 HD
ENDBRANCH   6  22
BRANCH   8  24
ATOM     24  O   UNL     1       2.834   3.211 -10.018  1.00  0.00    -0.508 OA
ATOM     25  H   UNL     1       1.875   3.509 -10.157  1.00  0.00     0.293 HD
ENDBRANCH   8  24
TORSDOF 5
ENDMDL
MODEL 5
REMARK VINA RESULT:    -4.646      2.019      7.611
REMARK INTER + INTRA:          -5.776
REMARK INTER:                  -5.499
REMARK INTRA:                  -0.277
REMARK UNBOUND:                -0.315
REMARK SMILES O=c1cc(-c2ccc(O)c(O)c2)oc2cc(O)cc(O)c12
REMARK SMILES IDX 4 1 3 2 2 3 1 4 21 5 19 6 18 7 16 8 15 9 14 10 13 11 5 12
REMARK SMILES IDX 6 13 7 14 8 15 12 16 10 17 9 18 11 20 20 22 17 24
REMARK H PARENT 9 19 11 21 20 23 17 25
REMARK Flexibility Score: inf
ROOT
ATOM      1  C   UNL     1       3.189   1.619  -9.018  1.00  0.00     0.138 A 
ATOM      2  C   UNL     1       4.556   1.928  -9.043  1.00  0.00     0.100 A 
ATOM      3  C   UNL     1       4.961   3.258  -9.162  1.00  0.00     0.197 A 
ATOM      4  O   UNL     1       6.193   3.499  -9.243  1.00  0.00    -0.289 OA
ATOM      5  C   UNL     1       3.990   4.286  -9.224  1.00  0.00     0.107 A 
ATOM      6  C   UNL     1       4.286   5.679  -9.306  1.00  0.00     0.134 A 
ATOM      7  C   UNL     1       3.243   6.597  -9.480  1.00  0.00     0.093 A 
ATOM      8  C   UNL     1       1.912   6.177  -9.516  1.00  0.00     0.123 A 
ATOM      9  C   UNL     1       1.608   4.825  -9.383  1.00  0.00     0.094 A 
ATOM     10  C   UNL     1       2.628   3.881  -9.243  1.00  0.00     0.146 A 
ATOM     11  O   UNL     1       2.297   2.598  -9.134  1.00  0.00    -0.456 OA
ENDROOT
BRANCH   1  12
ATOM     12  C   UNL     1       2.702   0.221  -8.893  1.00  0.00     0.021 A 
ATOM     13  C   UNL     1       1.652  -0.270  -9.691  1.00  0.00     0.016 A 
ATOM     14  C   UNL     1       1.222  -1.593  -9.560  1.00  0.00     0.051 A 
ATOM     15  C   UNL     1       1.835  -2.450  -8.637  1.00  0.00     0.157 A 
ATOM     16  C   UNL     1       3.323  -0.649  -7.979  1.00  0.00     0.062 A 
ATOM     17  C   UNL     1       2.893  -1.975  -7.845  1.00  0.00     0.158 A 
BRANCH  15  18
ATOM     18  O   UNL     1       1.402  -3.768  -8.508  1.00  0.00    -0.504 OA
ATOM     19  H   UNL     1       1.189  -4.170  -7.603  1.00  0.00     0.293 HD
ENDBRANCH  15  18
BRANCH  17  20
ATOM     20  O   UNL     1       3.529  -2.802  -6.920  1.00  0.00    -0.504 OA
ATOM     21  H   UNL     1       3.853  -2.457  -6.024  1.00  0.00     0.293 HD
ENDBRANCH  17  20
ENDBRANCH   1  12
BRANCH   6  22
ATOM     22  O   UNL     1       5.574   6.211  -9.195  1.00  0.00    -0.507 OA
ATOM     23  H   UNL     1       6.408   5.673  -9.013  1.00  0.00     0.293 HD
ENDBRANCH   6  22
BRANCH   8  24
ATOM     24  O   UNL     1       0.879   7.100  -9.674  1.00  0.00    -0.508 OA
ATOM     25  H   UNL     1      -0.086   6.804  -9.767  1.00  0.00     0.293 HD
ENDBRANCH   8  24
TORSDOF 5
ENDMDL
MODEL 6
REMARK VINA RESULT:    -4.571     20.468     22.328
REMARK INTER + INTRA:          -5.688
REMARK INTER:                  -5.416
REMARK INTRA:                  -0.272
REMARK UNBOUND:                -0.315
REMARK SMILES O=c1cc(-c2ccc(O)c(O)c2)oc2cc(O)cc(O)c12
REMARK SMILES IDX 4 1 3 2 2 3 1 4 21 5 19 6 18 7 16 8 15 9 14 10 13 11 5 12
REMARK SMILES IDX 6 13 7 14 8 15 12 16 10 17 9 18 11 20 20 22 17 24
REMARK H PARENT 9 19 11 21 20 23 17 25
REMARK Flexibility Score: inf
ROOT
ATOM      1  C   UNL     1     -10.138   1.336   8.395  1.00  0.00     0.138 A 
ATOM      2  C   UNL     1      -9.024   1.653   9.184  1.00  0.00     0.100 A 
ATOM      3  C   UNL     1      -8.733   2.989   9.464  1.00  0.00     0.197 A 
ATOM      4  O   UNL     1      -7.693   3.245  10.123  1.00  0.00    -0.289 OA
ATOM      5  C   UNL     1      -9.583   4.010   8.975  1.00  0.00     0.107 A 
ATOM      6  C   UNL     1      -9.408   5.403   9.231  1.00  0.00     0.134 A 
ATOM      7  C   UNL     1     -10.245   6.331   8.598  1.00  0.00     0.093 A 
ATOM      8  C   UNL     1     -11.287   5.912   7.768  1.00  0.00     0.123 A 
ATOM      9  C   UNL     1     -11.500   4.553   7.554  1.00  0.00     0.094 A 
ATOM     10  C   UNL     1     -10.660   3.604   8.144  1.00  0.00     0.146 A 
ATOM     11  O   UNL     1     -10.888   2.317   7.904  1.00  0.00    -0.456 OA
ENDROOT
BRANCH   1  12
ATOM     12  C   UNL     1     -10.494  -0.068   8.068  1.00  0.00     0.021 A 
ATOM     13  C   UNL     1     -10.720  -0.483   6.742  1.00  0.00     0.016 A 
ATOM     14  C   UNL     1     -11.043  -1.813   6.461  1.00  0.00     0.051 A 
ATOM     15  C   UNL     1     -11.137  -2.753   7.495  1.00  0.00     0.157 A 
ATOM     16  C   UNL     1     -10.576  -1.021   9.099  1.00  0.00     0.062 A 
ATOM     17  C   UNL     1     -10.900  -2.354   8.820  1.00  0.00     0.158 A 
BRANCH  15  18
ATOM     18  O   UNL     1     -11.460  -4.078   7.211  1.00  0.00    -0.504 OA
ATOM     19  H   UNL     1     -10.925  -4.624   6.546  1.00  0.00     0.293 HD
ENDBRANCH  15  18
BRANCH  17  20
ATOM     20  O   UNL     1     -10.981  -3.264   9.874  1.00  0.00    -0.504 OA
ATOM     21  H   UNL     1     -11.265  -2.985  10.805  1.00  0.00     0.293 HD
ENDBRANCH  17  20
ENDBRANCH   1  12
BRANCH   6  22
ATOM     22  O   UNL     1      -8.453   5.923  10.110  1.00  0.00    -0.507 OA
ATOM     23  H   UNL     1      -8.330   5.630  11.067  1.00  0.00     0.293 HD
ENDBRANCH   6  22
BRANCH   8  24
ATOM     24  O   UNL     1     -12.125   6.842   7.155  1.00  0.00    -0.508 OA
ATOM     25  H   UNL     1     -11.860   7.817   7.066  1.00  0.00     0.293 HD
ENDBRANCH   8  24
TORSDOF 5
ENDMDL
MODEL 7
REMARK VINA RESULT:    -4.555      2.552      6.882
REMARK INTER + INTRA:          -5.668
REMARK INTER:                  -5.399
REMARK INTRA:                  -0.270
REMARK UNBOUND:                -0.315
REMARK SMILES O=c1cc(-c2ccc(O)c(O)c2)oc2cc(O)cc(O)c12
REMARK SMILES IDX 4 1 3 2 2 3 1 4 21 5 19 6 18 7 16 8 15 9 14 10 13 11 5 12
REMARK SMILES IDX 6 13 7 14 8 15 12 16 10 17 9 18 11 20 20 22 17 24
REMARK H PARENT 9 19 11 21 20 23 17 25
REMARK Flexibility Score: inf
ROOT
ATOM      1  C   UNL     1       2.503  -1.598  -8.164  1.00  0.00     0.138 A 
ATOM      2  C   UNL     1       2.896  -0.458  -8.878  1.00  0.00     0.100 A 
ATOM      3  C   UNL     1       4.078   0.199  -8.532  1.00  0.00     0.197 A 
ATOM      4  O   UNL     1       4.374   1.254  -9.149  1.00  0.00    -0.289 OA
ATOM      5  C   UNL     1       4.884  -0.308  -7.485  1.00  0.00     0.107 A 
ATOM      6  C   UNL     1       6.129   0.255  -7.072  1.00  0.00     0.134 A 
ATOM      7  C   UNL     1       6.782  -0.265  -5.948  1.00  0.00     0.093 A 
ATOM      8  C   UNL     1       6.266  -1.364  -5.258  1.00  0.00     0.123 A 
ATOM      9  C   UNL     1       5.079  -1.955  -5.685  1.00  0.00     0.094 A 
ATOM     10  C   UNL     1       4.386  -1.439  -6.783  1.00  0.00     0.146 A 
ATOM     11  O   UNL     1       3.250  -2.022  -7.150  1.00  0.00    -0.456 OA
ENDROOT
BRANCH   1  12
ATOM     12  C   UNL     1       1.256  -2.336  -8.490  1.00  0.00     0.021 A 
ATOM     13  C   UNL     1       1.256  -3.726  -8.711  1.00  0.00     0.016 A 
ATOM     14  C   UNL     1       0.067  -4.397  -9.006  1.00  0.00     0.051 A 
ATOM     15  C   UNL     1      -1.143  -3.696  -9.077  1.00  0.00     0.157 A 
ATOM     16  C   UNL     1       0.035  -1.641  -8.549  1.00  0.00     0.062 A 
ATOM     17  C   UNL     1      -1.158  -2.311  -8.845  1.00  0.00     0.158 A 
BRANCH  15  18
ATOM     18  O   UNL     1      -2.328  -4.368  -9.372  1.00  0.00    -0.504 OA
ATOM     19  H   UNL     1      -3.043  -3.951  -9.957  1.00  0.00     0.293 HD
ENDBRANCH  15  18
BRANCH  17  20
ATOM     20  O   UNL     1      -2.346  -1.582  -8.903  1.00  0.00    -0.504 OA
ATOM     21  H   UNL     1      -3.247  -2.031  -9.026  1.00  0.00     0.293 HD
ENDBRANCH  17  20
ENDBRANCH   1  12
BRANCH   6  22
ATOM     22  O   UNL     1       6.774   1.299  -7.742  1.00  0.00    -0.507 OA
ATOM     23  H   UNL     1       7.670   1.225  -8.198  1.00  0.00     0.293 HD
ENDBRANCH   6  22
BRANCH   8  24
ATOM     24  O   UNL     1       6.931  -1.884  -4.149  1.00  0.00    -0.508 OA
ATOM     25  H   UNL     1       7.242  -2.848  -4.122  1.00  0.00     0.293 HD
ENDBRANCH   8  24
TORSDOF 5
ENDMDL
MODEL 8
REMARK VINA RESULT:    -4.521      4.150      6.716
REMARK INTER + INTRA:          -5.629
REMARK INTER:                  -5.320
REMARK INTRA:                  -0.309
REMARK UNBOUND:                -0.315
REMARK SMILES O=c1cc(-c2ccc(O)c(O)c2)oc2cc(O)cc(O)c12
REMARK SMILES IDX 4 1 3 2 2 3 1 4 21 5 19 6 18 7 16 8 15 9 14 10 13 11 5 12
REMARK SMILES IDX 6 13 7 14 8 15 12 16 10 17 9 18 11 20 20 22 17 24
REMARK H PARENT 9 19 11 21 20 23 17 25
REMARK Flexibility Score: inf
ROOT
ATOM      1  C   UNL     1       4.985  -2.739  -6.113  1.00  0.00     0.138 A 
ATOM      2  C   UNL     1       5.190  -1.412  -6.513  1.00  0.00     0.100 A 
ATOM      3  C   UNL     1       4.383  -0.858  -7.508  1.00  0.00     0.197 A 
ATOM      4  O   UNL     1       4.631   0.315  -7.890  1.00  0.00    -0.289 OA
ATOM      5  C   UNL     1       3.346  -1.631  -8.083  1.00  0.00     0.107 A 
ATOM      6  C   UNL     1       2.436  -1.159  -9.076  1.00  0.00     0.134 A 
ATOM      7  C   UNL     1       1.524  -2.049  -9.654  1.00  0.00     0.093 A 
ATOM      8  C   UNL     1       1.449  -3.379  -9.234  1.00  0.00     0.123 A 
ATOM      9  C   UNL     1       2.295  -3.836  -8.228  1.00  0.00     0.094 A 
ATOM     10  C   UNL     1       3.240  -2.981  -7.654  1.00  0.00     0.146 A 
ATOM     11  O   UNL     1       4.040  -3.460  -6.707  1.00  0.00    -0.456 OA
ENDROOT
BRANCH   1  12
ATOM     12  C   UNL     1       5.814  -3.378  -5.058  1.00  0.00     0.021 A 
ATOM     13  C   UNL     1       7.111  -2.920  -4.760  1.00  0.00     0.016 A 
ATOM     14  C   UNL     1       7.864  -3.532  -3.755  1.00  0.00     0.051 A 
ATOM     15  C   UNL     1       7.335  -4.605  -3.027  1.00  0.00     0.157 A 
ATOM     16  C   UNL     1       5.284  -4.446  -4.313  1.00  0.00     0.062 A 
ATOM     17  C   UNL     1       6.037  -5.062  -3.307  1.00  0.00     0.158 A 
BRANCH  15  18
ATOM     18  O   UNL     1       8.090  -5.214  -2.027  1.00  0.00    -0.504 OA
ATOM     19  H   UNL     1       9.019  -4.884  -1.788  1.00  0.00     0.293 HD
ENDBRANCH  15  18
BRANCH  17  20
ATOM     20  O   UNL     1       5.478  -6.125  -2.598  1.00  0.00    -0.504 OA
ATOM     21  H   UNL     1       5.980  -6.600  -1.857  1.00  0.00     0.293 HD
ENDBRANCH  17  20
ENDBRANCH   1  12
BRANCH   6  22
ATOM     22  O   UNL     1       2.370   0.170  -9.506  1.00  0.00    -0.507 OA
ATOM     23  H   UNL     1       3.129   0.675  -9.938  1.00  0.00     0.293 HD
ENDBRANCH   6  22
BRANCH   8  24
ATOM     24  O   UNL     1       0.527  -4.254  -9.805  1.00  0.00    -0.508 OA
ATOM     25  H   UNL     1       0.765  -4.825 -10.608  1.00  0.00     0.293 HD
ENDBRANCH   8  24
TORSDOF 5
ENDMDL
