MODEL 1
REMARK VINA RESULT:    -3.666      0.000      0.000
REMARK INTER + INTRA:          -7.699
REMARK INTER:                  -6.667
REMARK INTRA:                  -1.032
REMARK UNBOUND:                -1.032
REMARK SMILES CCCCCCCCCCCCCCCC(=O)[O-]
REMARK SMILES IDX 9 1 10 2 11 3 12 4 13 5 14 6 15 7 16 8 17 9 18 10 8 11 7 12
REMARK SMILES IDX 6 13 5 14 4 15 3 16 2 17 1 18
REMARK H PARENT
REMARK Flexibility Score: inf
ROOT
ATOM      1  C   UNL     1       8.130   4.344  -4.099  1.00  0.00     0.000 C 
ENDROOT
BRANCH   1   2
ATOM      2  C   UNL     1       7.240   3.439  -4.963  1.00  0.00     0.000 C 
BRANCH   2   3
ATOM      3  C   UNL     1       6.889   2.105  -4.274  1.00  0.00     0.000 C 
BRANCH   3   4
ATOM      4  C   UNL     1       6.004   1.155  -5.100  1.00  0.00     0.000 C 
BRANCH   4   5
ATOM      5  C   UNL     1       5.454  -0.021  -4.275  1.00  0.00     0.000 C 
BRANCH   5   6
ATOM      6  C   UNL     1       4.974  -1.191  -5.154  1.00  0.00     0.006 C 
BRANCH   6   7
ATOM      7  C   UNL     1       4.494  -2.421  -4.367  1.00  0.00     0.053 C 
BRANCH   7   8
ATOM      8  C   UNL     1       3.297  -2.117  -3.520  1.00  0.00     0.041 C 
ATOM      9  O   UNL     1       2.138  -2.211  -4.005  1.00  0.00    -0.550 OA
ATOM     10  O   UNL     1       3.459  -1.760  -2.188  1.00  0.00    -0.550 OA
ENDBRANCH   7   8
ENDBRANCH   6   7
ENDBRANCH   5   6
ENDBRANCH   4   5
ENDBRANCH   3   4
ENDBRANCH   2   3
ENDBRANCH   1   2
BRANCH   1  11
ATOM     11  C   UNL     1       7.341   4.914  -2.911  1.00  0.00     0.000 C 
BRANCH  11  12
ATOM     12  C   UNL     1       6.159   5.801  -3.345  1.00  0.00    -0.000 C 
BRANCH  12  13
ATOM     13  C   UNL     1       4.889   5.659  -2.487  1.00  0.00    -0.000 C 
BRANCH  13  14
ATOM     14  C   UNL     1       4.178   6.998  -2.242  1.00  0.00    -0.000 C 
BRANCH  14  15
ATOM     15  C   UNL     1       4.953   7.858  -1.237  1.00  0.00    -0.000 C 
BRANCH  15  16
ATOM     16  C   UNL     1       5.245   7.072   0.050  1.00  0.00    -0.000 C 
BRANCH  16  17
ATOM     17  C   UNL     1       6.725   7.133   0.457  1.00  0.00    -0.003 C 
ATOM     18  C   UNL     1       7.341   5.749   0.663  1.00  0.00     0.004 C 
ENDBRANCH  16  17
ENDBRANCH  15  16
ENDBRANCH  14  15
ENDBRANCH  13  14
ENDBRANCH  12  13
ENDBRANCH  11  12
ENDBRANCH   1  11
TORSDOF 14
ENDMDL
MODEL 2
REMARK VINA RESULT:    -3.559      4.643      7.160
REMARK INTER + INTRA:          -7.504
REMARK INTER:                  -5.861
REMARK INTRA:                  -1.643
REMARK UNBOUND:                -1.032
REMARK SMILES CCCCCCCCCCCCCCCC(=O)[O-]
REMARK SMILES IDX 9 1 10 2 11 3 12 4 13 5 14 6 15 7 16 8 17 9 18 10 8 11 7 12
REMARK SMILES IDX 6 13 5 14 4 15 3 16 2 17 1 18
REMARK H PARENT
REMARK Flexibility Score: inf
ROOT
ATOM      1  C   UNL     1       5.521   1.995  -8.163  1.00  0.00     0.000 C 
ENDROOT
BRANCH   1   2
ATOM      2  C   UNL     1       6.582   2.004  -7.053  1.00  0.00     0.000 C 
BRANCH   2   3
ATOM      3  C   UNL     1       6.497   0.774  -6.129  1.00  0.00     0.000 C 
BRANCH   3   4
ATOM      4  C   UNL     1       5.897   1.042  -4.736  1.00  0.00     0.000 C 
BRANCH   4   5
ATOM      5  C   UNL     1       5.331  -0.224  -4.073  1.00  0.00     0.000 C 
BRANCH   5   6
ATOM      6  C   UNL     1       5.274  -1.426  -5.035  1.00  0.00     0.006 C 
BRANCH   6   7
ATOM      7  C   UNL     1       3.860  -1.787  -5.517  1.00  0.00     0.053 C 
BRANCH   7   8
ATOM      8  C   UNL     1       3.135  -2.655  -4.535  1.00  0.00     0.041 C 
ATOM      9  O   UNL     1       3.437  -3.872  -4.420  1.00  0.00    -0.550 OA
ATOM     10  O   UNL     1       2.146  -2.112  -3.724  1.00  0.00    -0.550 OA
ENDBRANCH   7   8
ENDBRANCH   6   7
ENDBRANCH   5   6
ENDBRANCH   4   5
ENDBRANCH   3   4
ENDBRANCH   2   3
ENDBRANCH   1   2
BRANCH   1  11
ATOM     11  C   UNL     1       5.017   0.568  -8.427  1.00  0.00     0.000 C 
BRANCH  11  12
ATOM     12  C   UNL     1       3.515   0.514  -8.760  1.00  0.00    -0.000 C 
BRANCH  12  13
ATOM     13  C   UNL     1       2.906   1.842  -9.243  1.00  0.00    -0.000 C 
BRANCH  13  14
ATOM     14  C   UNL     1       1.519   1.670  -9.878  1.00  0.00    -0.000 C 
BRANCH  14  15
ATOM     15  C   UNL     1       0.411   1.819  -8.828  1.00  0.00    -0.000 C 
BRANCH  15  16
ATOM     16  C   UNL     1      -0.479   0.568  -8.786  1.00  0.00    -0.000 C 
BRANCH  16  17
ATOM     17  C   UNL     1      -0.477  -0.111  -7.408  1.00  0.00    -0.003 C 
ATOM     18  C   UNL     1       0.559  -1.229  -7.299  1.00  0.00     0.004 C 
ENDBRANCH  16  17
ENDBRANCH  15  16
ENDBRANCH  14  15
ENDBRANCH  13  14
ENDBRANCH  12  13
ENDBRANCH  11  12
ENDBRANCH   1  11
TORSDOF 14
ENDMDL
MODEL 3
REMARK VINA RESULT:    -3.539      5.402      7.357
REMARK INTER + INTRA:          -7.467
REMARK INTER:                  -6.381
REMARK INTRA:                  -1.086
REMARK UNBOUND:                -1.032
REMARK SMILES CCCCCCCCCCCCCCCC(=O)[O-]
REMARK SMILES IDX 9 1 10 2 11 3 12 4 13 5 14 6 15 7 16 8 17 9 18 10 8 11 7 12
REMARK SMILES IDX 6 13 5 14 4 15 3 16 2 17 1 18
REMARK H PARENT
REMARK Flexibility Score: inf
ROOT
ATOM      1  C   UNL     1       3.994   1.214  -9.800  1.00  0.00     0.000 C 
ENDROOT
BRANCH   1   2
ATOM      2  C   UNL     1       3.774   2.662  -9.342  1.00  0.00     0.000 C 
BRANCH   2   3
ATOM      3  C   UNL     1       2.308   3.118  -9.472  1.00  0.00     0.000 C 
BRANCH   3   4
ATOM      4  C   UNL     1       1.302   2.001  -9.804  1.00  0.00     0.000 C 
BRANCH   4   5
ATOM      5  C   UNL     1       0.018   2.080  -8.961  1.00  0.00     0.000 C 
BRANCH   5   6
ATOM      6  C   UNL     1      -0.579   0.693  -8.654  1.00  0.00     0.006 C 
BRANCH   6   7
ATOM      7  C   UNL     1       0.454  -0.364  -8.233  1.00  0.00     0.053 C 
BRANCH   7   8
ATOM      8  C   UNL     1       0.034  -1.102  -7.000  1.00  0.00     0.041 C 
ATOM      9  O   UNL     1       0.649  -2.142  -6.643  1.00  0.00    -0.550 OA
ATOM     10  O   UNL     1      -1.017  -0.625  -6.227  1.00  0.00    -0.550 OA
ENDBRANCH   7   8
ENDBRANCH   6   7
ENDBRANCH   5   6
ENDBRANCH   4   5
ENDBRANCH   3   4
ENDBRANCH   2   3
ENDBRANCH   1   2
BRANCH   1  11
ATOM     11  C   UNL     1       4.875   0.451  -8.800  1.00  0.00     0.000 C 
BRANCH  11  12
ATOM     12  C   UNL     1       5.291   1.308  -7.590  1.00  0.00    -0.000 C 
BRANCH  12  13
ATOM     13  C   UNL     1       6.227   0.609  -6.588  1.00  0.00    -0.000 C 
BRANCH  13  14
ATOM     14  C   UNL     1       5.575   0.383  -5.216  1.00  0.00    -0.000 C 
BRANCH  14  15
ATOM     15  C   UNL     1       5.401  -1.114  -4.929  1.00  0.00    -0.000 C 
BRANCH  15  16
ATOM     16  C   UNL     1       5.268  -1.373  -3.422  1.00  0.00    -0.000 C 
BRANCH  16  17
ATOM     17  C   UNL     1       3.817  -1.643  -2.995  1.00  0.00    -0.003 C 
ATOM     18  C   UNL     1       3.004  -2.353  -4.077  1.00  0.00     0.004 C 
ENDBRANCH  16  17
ENDBRANCH  15  16
ENDBRANCH  14  15
ENDBRANCH  13  14
ENDBRANCH  12  13
ENDBRANCH  11  12
ENDBRANCH   1  11
TORSDOF 14
ENDMDL
MODEL 4
REMARK VINA RESULT:    -3.524      1.517      2.361
REMARK INTER + INTRA:          -7.440
REMARK INTER:                  -6.187
REMARK INTRA:                  -1.253
REMARK UNBOUND:                -1.032
REMARK SMILES CCCCCCCCCCCCCCCC(=O)[O-]
REMARK SMILES IDX 9 1 10 2 11 3 12 4 13 5 14 6 15 7 16 8 17 9 18 10 8 11 7 12
REMARK SMILES IDX 6 13 5 14 4 15 3 16 2 17 1 18
REMARK H PARENT
REMARK Flexibility Score: inf
ROOT
ATOM      1  C   UNL     1       6.844   3.246  -4.264  1.00  0.00     0.000 C 
ENDROOT
BRANCH   1   2
ATOM      2  C   UNL     1       7.876   2.114  -4.158  1.00  0.00     0.000 C 
BRANCH   2   3
ATOM      3  C   UNL     1       7.292   0.732  -4.505  1.00  0.00     0.000 C 
BRANCH   3   4
ATOM      4  C   UNL     1       5.856   0.748  -5.059  1.00  0.00     0.000 C 
BRANCH   4   5
ATOM      5  C   UNL     1       5.156  -0.617  -4.953  1.00  0.00     0.000 C 
BRANCH   5   6
ATOM      6  C   UNL     1       5.235  -1.219  -3.538  1.00  0.00     0.006 C 
BRANCH   6   7
ATOM      7  C   UNL     1       3.884  -1.676  -2.965  1.00  0.00     0.053 C 
BRANCH   7   8
ATOM      8  C   UNL     1       3.150  -2.580  -3.907  1.00  0.00     0.041 C 
ATOM      9  O   UNL     1       2.008  -2.261  -4.332  1.00  0.00    -0.550 OA
ATOM     10  O   UNL     1       3.741  -3.760  -4.341  1.00  0.00    -0.550 OA
ENDBRANCH   7   8
ENDBRANCH   6   7
ENDBRANCH   5   6
ENDBRANCH   4   5
ENDBRANCH   3   4
ENDBRANCH   2   3
ENDBRANCH   1   2
BRANCH   1  11
ATOM     11  C   UNL     1       7.533   4.619  -4.254  1.00  0.00     0.000 C 
BRANCH  11  12
ATOM     12  C   UNL     1       7.264   5.436  -5.532  1.00  0.00    -0.000 C 
BRANCH  12  13
ATOM     13  C   UNL     1       7.350   6.962  -5.358  1.00  0.00    -0.000 C 
BRANCH  13  14
ATOM     14  C   UNL     1       5.977   7.621  -5.157  1.00  0.00    -0.000 C 
BRANCH  14  15
ATOM     15  C   UNL     1       5.758   7.998  -3.687  1.00  0.00    -0.000 C 
BRANCH  15  16
ATOM     16  C   UNL     1       4.422   7.445  -3.170  1.00  0.00    -0.000 C 
BRANCH  16  17
ATOM     17  C   UNL     1       4.559   6.038  -2.569  1.00  0.00    -0.003 C 
ATOM     18  C   UNL     1       5.632   5.959  -1.483  1.00  0.00     0.004 C 
ENDBRANCH  16  17
ENDBRANCH  15  16
ENDBRANCH  14  15
ENDBRANCH  13  14
ENDBRANCH  12  13
ENDBRANCH  11  12
ENDBRANCH   1  11
TORSDOF 14
ENDMDL
MODEL 5
REMARK VINA RESULT:    -3.496      1.303      2.624
REMARK INTER + INTRA:          -7.389
REMARK INTER:                  -6.103
REMARK INTRA:                  -1.286
REMARK UNBOUND:                -1.032
REMARK SMILES CCCCCCCCCCCCCCCC(=O)[O-]
REMARK SMILES IDX 9 1 10 2 11 3 12 4 13 5 14 6 15 7 16 8 17 9 18 10 8 11 7 12
REMARK SMILES IDX 6 13 5 14 4 15 3 16 2 17 1 18
REMARK H PARENT
REMARK Flexibility Score: inf
ROOT
ATOM      1  C   UNL     1       7.174   3.894  -4.856  1.00  0.00     0.000 C 
ENDROOT
BRANCH   1   2
ATOM      2  C   UNL     1       6.769   2.618  -4.104  1.00  0.00     0.000 C 
BRANCH   2   3
ATOM      3  C   UNL     1       6.417   1.450  -5.046  1.00  0.00     0.000 C 
BRANCH   3   4
ATOM      4  C   UNL     1       5.534   0.352  -4.425  1.00  0.00     0.000 C 
BRANCH   4   5
ATOM      5  C   UNL     1       6.258  -0.999  -4.297  1.00  0.00     0.000 C 
BRANCH   5   6
ATOM      6  C   UNL     1       5.553  -1.962  -3.323  1.00  0.00     0.006 C 
BRANCH   6   7
ATOM      7  C   UNL     1       4.057  -1.676  -3.118  1.00  0.00     0.053 C 
BRANCH   7   8
ATOM      8  C   UNL     1       3.196  -2.508  -4.019  1.00  0.00     0.041 C 
ATOM      9  O   UNL     1       2.270  -1.972  -4.683  1.00  0.00    -0.550 OA
ATOM     10  O   UNL     1       3.437  -3.869  -4.148  1.00  0.00    -0.550 OA
ENDBRANCH   7   8
ENDBRANCH   6   7
ENDBRANCH   5   6
ENDBRANCH   4   5
ENDBRANCH   3   4
ENDBRANCH   2   3
ENDBRANCH   1   2
BRANCH   1  11
ATOM     11  C   UNL     1       8.483   4.468  -4.293  1.00  0.00     0.000 C 
BRANCH  11  12
ATOM     12  C   UNL     1       9.075   3.614  -3.156  1.00  0.00    -0.000 C 
BRANCH  12  13
ATOM     13  C   UNL     1       9.104   4.296  -1.777  1.00  0.00    -0.000 C 
BRANCH  13  14
ATOM     14  C   UNL     1       8.333   5.624  -1.749  1.00  0.00    -0.000 C 
BRANCH  14  15
ATOM     15  C   UNL     1       7.492   5.745  -0.472  1.00  0.00    -0.000 C 
BRANCH  15  16
ATOM     16  C   UNL     1       6.071   6.231  -0.793  1.00  0.00    -0.000 C 
BRANCH  16  17
ATOM     17  C   UNL     1       5.482   5.553  -2.039  1.00  0.00    -0.003 C 
ATOM     18  C   UNL     1       4.358   6.367  -2.680  1.00  0.00     0.004 C 
ENDBRANCH  16  17
ENDBRANCH  15  16
ENDBRANCH  14  15
ENDBRANCH  13  14
ENDBRANCH  12  13
ENDBRANCH  11  12
ENDBRANCH   1  11
TORSDOF 14
ENDMDL
MODEL 6
REMARK VINA RESULT:    -3.491      1.240      2.388
REMARK INTER + INTRA:          -7.379
REMARK INTER:                  -6.383
REMARK INTRA:                  -0.996
REMARK UNBOUND:                -1.032
REMARK SMILES CCCCCCCCCCCCCCCC(=O)[O-]
REMARK SMILES IDX 9 1 10 2 11 3 12 4 13 5 14 6 15 7 16 8 17 9 18 10 8 11 7 12
REMARK SMILES IDX 6 13 5 14 4 15 3 16 2 17 1 18
REMARK H PARENT
REMARK Flexibility Score: inf
ROOT
ATOM      1  C   UNL     1       6.940   3.345  -4.111  1.00  0.00     0.000 C 
ENDROOT
BRANCH   1   2
ATOM      2  C   UNL     1       7.439   1.976  -4.596  1.00  0.00     0.000 C 
BRANCH   2   3
ATOM      3  C   UNL     1       6.680   1.463  -5.835  1.00  0.00     0.000 C 
BRANCH   3   4
ATOM      4  C   UNL     1       5.555   0.454  -5.541  1.00  0.00     0.000 C 
BRANCH   4   5
ATOM      5  C   UNL     1       5.563  -0.048  -4.088  1.00  0.00     0.000 C 
BRANCH   5   6
ATOM      6  C   UNL     1       5.213  -1.543  -3.972  1.00  0.00     0.006 C 
BRANCH   6   7
ATOM      7  C   UNL     1       4.221  -2.047  -5.032  1.00  0.00     0.053 C 
BRANCH   7   8
ATOM      8  C   UNL     1       3.097  -2.829  -4.425  1.00  0.00     0.041 C 
ATOM      9  O   UNL     1       3.040  -4.078  -4.574  1.00  0.00    -0.550 OA
ATOM     10  O   UNL     1       2.128  -2.182  -3.668  1.00  0.00    -0.550 OA
ENDBRANCH   7   8
ENDBRANCH   6   7
ENDBRANCH   5   6
ENDBRANCH   4   5
ENDBRANCH   3   4
ENDBRANCH   2   3
ENDBRANCH   1   2
BRANCH   1  11
ATOM     11  C   UNL     1       8.065   4.121  -3.410  1.00  0.00     0.000 C 
BRANCH  11  12
ATOM     12  C   UNL     1       7.615   5.503  -2.902  1.00  0.00    -0.000 C 
BRANCH  12  13
ATOM     13  C   UNL     1       7.337   5.581  -1.390  1.00  0.00    -0.000 C 
BRANCH  13  14
ATOM     14  C   UNL     1       5.876   5.928  -1.067  1.00  0.00    -0.000 C 
BRANCH  14  15
ATOM     15  C   UNL     1       5.014   5.919  -2.336  1.00  0.00    -0.000 C 
BRANCH  15  16
ATOM     16  C   UNL     1       3.960   7.035  -2.293  1.00  0.00    -0.000 C 
BRANCH  16  17
ATOM     17  C   UNL     1       4.340   8.241  -3.163  1.00  0.00    -0.003 C 
ATOM     18  C   UNL     1       5.309   7.878  -4.289  1.00  0.00     0.004 C 
ENDBRANCH  16  17
ENDBRANCH  15  16
ENDBRANCH  14  15
ENDBRANCH  13  14
ENDBRANCH  12  13
ENDBRANCH  11  12
ENDBRANCH   1  11
TORSDOF 14
ENDMDL
MODEL 7
REMARK VINA RESULT:    -3.401      5.248      7.652
REMARK INTER + INTRA:          -7.216
REMARK INTER:                  -5.425
REMARK INTRA:                  -1.791
REMARK UNBOUND:                -1.032
REMARK SMILES CCCCCCCCCCCCCCCC(=O)[O-]
REMARK SMILES IDX 9 1 10 2 11 3 12 4 13 5 14 6 15 7 16 8 17 9 18 10 8 11 7 12
REMARK SMILES IDX 6 13 5 14 4 15 3 16 2 17 1 18
REMARK H PARENT
REMARK Flexibility Score: inf
ROOT
ATOM      1  C   UNL     1       5.830  -0.802  -7.924  1.00  0.00     0.000 C 
ENDROOT
BRANCH   1   2
ATOM      2  C   UNL     1       4.498  -0.054  -8.075  1.00  0.00     0.000 C 
BRANCH   2   3
ATOM      3  C   UNL     1       3.279  -0.996  -8.109  1.00  0.00     0.000 C 
BRANCH   3   4
ATOM      4  C   UNL     1       2.296  -0.752  -9.269  1.00  0.00     0.000 C 
BRANCH   4   5
ATOM      5  C   UNL     1       1.710   0.670  -9.270  1.00  0.00     0.000 C 
BRANCH   5   6
ATOM      6  C   UNL     1       0.344   0.752  -8.564  1.00  0.00     0.006 C 
BRANCH   6   7
ATOM      7  C   UNL     1      -0.372  -0.599  -8.407  1.00  0.00     0.053 C 
BRANCH   7   8
ATOM      8  C   UNL     1      -0.569  -0.969  -6.969  1.00  0.00     0.041 C 
ATOM      9  O   UNL     1       0.386  -1.444  -6.300  1.00  0.00    -0.550 OA
ATOM     10  O   UNL     1      -1.800  -0.760  -6.359  1.00  0.00    -0.550 OA
ENDBRANCH   7   8
ENDBRANCH   6   7
ENDBRANCH   5   6
ENDBRANCH   4   5
ENDBRANCH   3   4
ENDBRANCH   2   3
ENDBRANCH   1   2
BRANCH   1  11
ATOM     11  C   UNL     1       6.351  -0.710  -6.482  1.00  0.00     0.000 C 
BRANCH  11  12
ATOM     12  C   UNL     1       5.622   0.360  -5.648  1.00  0.00    -0.000 C 
BRANCH  12  13
ATOM     13  C   UNL     1       5.618   0.110  -4.129  1.00  0.00    -0.000 C 
BRANCH  13  14
ATOM     14  C   UNL     1       5.562  -1.382  -3.768  1.00  0.00    -0.000 C 
BRANCH  14  15
ATOM     15  C   UNL     1       4.155  -1.785  -3.310  1.00  0.00    -0.000 C 
BRANCH  15  16
ATOM     16  C   UNL     1       3.303  -2.254  -4.499  1.00  0.00    -0.000 C 
BRANCH  16  17
ATOM     17  C   UNL     1       3.525  -3.735  -4.837  1.00  0.00    -0.003 C 
ATOM     18  C   UNL     1       4.358  -3.935  -6.103  1.00  0.00     0.004 C 
ENDBRANCH  16  17
ENDBRANCH  15  16
ENDBRANCH  14  15
ENDBRANCH  13  14
ENDBRANCH  12  13
ENDBRANCH  11  12
ENDBRANCH   1  11
TORSDOF 14
ENDMDL
MODEL 8
REMARK VINA RESULT:    -3.348      9.976     13.775
REMARK INTER + INTRA:          -7.120
REMARK INTER:                  -4.763
REMARK INTRA:                  -2.357
REMARK UNBOUND:                -1.032
REMARK SMILES CCCCCCCCCCCCCCCC(=O)[O-]
REMARK SMILES IDX 9 1 10 2 11 3 12 4 13 5 14 6 15 7 16 8 17 9 18 10 8 11 7 12
REMARK SMILES IDX 6 13 5 14 4 15 3 16 2 17 1 18
REMARK H PARENT
REMARK Flexibility Score: inf
ROOT
ATOM      1  C   UNL     1      -7.845  -3.225  -4.705  1.00  0.00     0.000 C 
ENDROOT
BRANCH   1   2
ATOM      2  C   UNL     1      -7.543  -3.209  -6.211  1.00  0.00     0.000 C 
BRANCH   2   3
ATOM      3  C   UNL     1      -7.091  -1.826  -6.718  1.00  0.00     0.000 C 
BRANCH   3   4
ATOM      4  C   UNL     1      -5.671  -1.778  -7.310  1.00  0.00     0.000 C 
BRANCH   4   5
ATOM      5  C   UNL     1      -4.822  -3.003  -6.933  1.00  0.00     0.000 C 
BRANCH   5   6
ATOM      6  C   UNL     1      -3.345  -2.649  -6.677  1.00  0.00     0.006 C 
BRANCH   6   7
ATOM      7  C   UNL     1      -3.056  -1.141  -6.613  1.00  0.00     0.053 C 
BRANCH   7   8
ATOM      8  C   UNL     1      -1.660  -0.816  -7.048  1.00  0.00     0.041 C 
ATOM      9  O   UNL     1      -0.739  -0.710  -6.195  1.00  0.00    -0.550 OA
ATOM     10  O   UNL     1      -1.369  -0.661  -8.397  1.00  0.00    -0.550 OA
ENDBRANCH   7   8
ENDBRANCH   6   7
ENDBRANCH   5   6
ENDBRANCH   4   5
ENDBRANCH   3   4
ENDBRANCH   2   3
ENDBRANCH   1   2
BRANCH   1  11
ATOM     11  C   UNL     1      -7.431  -1.900  -4.049  1.00  0.00     0.000 C 
BRANCH  11  12
ATOM     12  C   UNL     1      -6.495  -2.094  -2.841  1.00  0.00    -0.000 C 
BRANCH  12  13
ATOM     13  C   UNL     1      -5.027  -2.386  -3.196  1.00  0.00    -0.000 C 
BRANCH  13  14
ATOM     14  C   UNL     1      -4.528  -3.725  -2.634  1.00  0.00    -0.000 C 
BRANCH  14  15
ATOM     15  C   UNL     1      -4.076  -4.662  -3.760  1.00  0.00    -0.000 C 
BRANCH  15  16
ATOM     16  C   UNL     1      -4.971  -5.907  -3.834  1.00  0.00    -0.000 C 
BRANCH  16  17
ATOM     17  C   UNL     1      -5.929  -6.017  -2.639  1.00  0.00    -0.003 C 
ATOM     18  C   UNL     1      -7.344  -6.423  -3.048  1.00  0.00     0.004 C 
ENDBRANCH  16  17
ENDBRANCH  15  16
ENDBRANCH  14  15
ENDBRANCH  13  14
ENDBRANCH  12  13
ENDBRANCH  11  12
ENDBRANCH   1  11
TORSDOF 14
ENDMDL
MODEL 9
REMARK VINA RESULT:    -3.323     10.789     13.830
REMARK INTER + INTRA:          -7.074
REMARK INTER:                  -4.239
REMARK INTRA:                  -2.836
REMARK UNBOUND:                -1.032
REMARK SMILES CCCCCCCCCCCCCCCC(=O)[O-]
REMARK SMILES IDX 9 1 10 2 11 3 12 4 13 5 14 6 15 7 16 8 17 9 18 10 8 11 7 12
REMARK SMILES IDX 6 13 5 14 4 15 3 16 2 17 1 18
REMARK H PARENT
REMARK Flexibility Score: inf
ROOT
ATOM      1  C   UNL     1      -8.126  -4.347  -5.510  1.00  0.00     0.000 C 
ENDROOT
BRANCH   1   2
ATOM      2  C   UNL     1      -6.885  -4.699  -6.343  1.00  0.00     0.000 C 
BRANCH   2   3
ATOM      3  C   UNL     1      -6.497  -3.591  -7.342  1.00  0.00     0.000 C 
BRANCH   3   4
ATOM      4  C   UNL     1      -7.220  -2.247  -7.143  1.00  0.00     0.000 C 
BRANCH   4   5
ATOM      5  C   UNL     1      -6.297  -1.034  -7.347  1.00  0.00     0.000 C 
BRANCH   5   6
ATOM      6  C   UNL     1      -4.899  -1.428  -7.860  1.00  0.00     0.006 C 
BRANCH   6   7
ATOM      7  C   UNL     1      -3.764  -0.509  -7.382  1.00  0.00     0.053 C 
BRANCH   7   8
ATOM      8  C   UNL     1      -2.488  -1.260  -7.154  1.00  0.00     0.041 C 
ATOM      9  O   UNL     1      -1.709  -0.918  -6.226  1.00  0.00    -0.550 OA
ATOM     10  O   UNL     1      -2.175  -2.356  -7.948  1.00  0.00    -0.550 OA
ENDBRANCH   7   8
ENDBRANCH   6   7
ENDBRANCH   5   6
ENDBRANCH   4   5
ENDBRANCH   3   4
ENDBRANCH   2   3
ENDBRANCH   1   2
BRANCH   1  11
ATOM     11  C   UNL     1      -7.796  -4.350  -4.009  1.00  0.00     0.000 C 
BRANCH  11  12
ATOM     12  C   UNL     1      -8.259  -3.069  -3.290  1.00  0.00    -0.000 C 
BRANCH  12  13
ATOM     13  C   UNL     1      -7.309  -1.866  -3.426  1.00  0.00    -0.000 C 
BRANCH  13  14
ATOM     14  C   UNL     1      -5.879  -2.176  -2.958  1.00  0.00    -0.000 C 
BRANCH  14  15
ATOM     15  C   UNL     1      -4.861  -1.881  -4.067  1.00  0.00    -0.000 C 
BRANCH  15  16
ATOM     16  C   UNL     1      -4.109  -3.156  -4.477  1.00  0.00    -0.000 C 
BRANCH  16  17
ATOM     17  C   UNL     1      -4.143  -4.238  -3.388  1.00  0.00    -0.003 C 
ATOM     18  C   UNL     1      -4.207  -5.654  -3.961  1.00  0.00     0.004 C 
ENDBRANCH  16  17
ENDBRANCH  15  16
ENDBRANCH  14  15
ENDBRANCH  13  14
ENDBRANCH  12  13
ENDBRANCH  11  12
ENDBRANCH   1  11
TORSDOF 14
ENDMDL
