MODEL 1
REMARK VINA RESULT:    -6.343      0.000      0.000
REMARK INTER + INTRA:          -7.751
REMARK INTER:                  -7.641
REMARK INTRA:                  -0.111
REMARK UNBOUND:                -0.111
REMARK SMILES O=c1c(O)c(-c2ccc(O)c(O)c2)oc2cc(O)cc(O)c12
REMARK SMILES IDX 5 1 3 2 2 3 1 4 22 5 20 6 19 7 17 8 16 9 15 10 14 11 6 12
REMARK SMILES IDX 7 13 8 14 9 15 13 16 11 17 10 18 12 20 4 22 21 24 18 26
REMARK H PARENT 10 19 12 21 4 23 21 25 18 27
REMARK Flexibility Score: inf
ROOT
ATOM      1  C   UNL     1      -7.640   5.888   2.493  1.00  0.00     0.180 A 
ATOM      2  C   UNL     1      -6.557   5.783   1.603  1.00  0.00     0.208 A 
ATOM      3  C   UNL     1      -6.803   5.842   0.222  1.00  0.00     0.238 A 
ATOM      4  O   UNL     1      -5.825   5.802  -0.569  1.00  0.00    -0.285 OA
ATOM      5  C   UNL     1      -8.129   5.987  -0.253  1.00  0.00     0.111 A 
ATOM      6  C   UNL     1      -8.498   6.018  -1.631  1.00  0.00     0.134 A 
ATOM      7  C   UNL     1      -9.824   6.297  -1.985  1.00  0.00     0.093 A 
ATOM      8  C   UNL     1     -10.806   6.483  -1.009  1.00  0.00     0.123 A 
ATOM      9  C   UNL     1     -10.467   6.396   0.339  1.00  0.00     0.094 A 
ATOM     10  C   UNL     1      -9.146   6.155   0.723  1.00  0.00     0.146 A 
ATOM     11  O   UNL     1      -8.864   6.090   2.019  1.00  0.00    -0.452 OA
ENDROOT
BRANCH   1  12
ATOM     12  C   UNL     1      -7.464   5.811   3.961  1.00  0.00     0.025 A 
ATOM     13  C   UNL     1      -6.659   6.734   4.651  1.00  0.00     0.016 A 
ATOM     14  C   UNL     1      -6.488   6.626   6.034  1.00  0.00     0.051 A 
ATOM     15  C   UNL     1      -7.106   5.589   6.745  1.00  0.00     0.157 A 
ATOM     16  C   UNL     1      -8.064   4.761   4.675  1.00  0.00     0.062 A 
ATOM     17  C   UNL     1      -7.896   4.651   6.061  1.00  0.00     0.158 A 
BRANCH  15  18
ATOM     18  O   UNL     1      -6.936   5.487   8.124  1.00  0.00    -0.504 OA
ATOM     19  H   UNL     1      -7.285   4.690   8.644  1.00  0.00     0.293 HD
ENDBRANCH  15  18
BRANCH  17  20
ATOM     20  O   UNL     1      -8.519   3.603   6.737  1.00  0.00    -0.504 OA
ATOM     21  H   UNL     1      -8.085   3.137   7.525  1.00  0.00     0.293 HD
ENDBRANCH  17  20
ENDBRANCH   1  12
BRANCH   2  22
ATOM     22  O   UNL     1      -5.254   5.662   2.093  1.00  0.00    -0.502 OA
ATOM     23  H   UNL     1      -4.473   6.168   1.693  1.00  0.00     0.293 HD
ENDBRANCH   2  22
BRANCH   6  24
ATOM     24  O   UNL     1      -7.614   5.755  -2.682  1.00  0.00    -0.507 OA
ATOM     25  H   UNL     1      -6.619   5.620  -2.576  1.00  0.00     0.293 HD
ENDBRANCH   6  24
BRANCH   8  26
ATOM     26  O   UNL     1     -12.126   6.745  -1.371  1.00  0.00    -0.508 OA
ATOM     27  H   UNL     1     -12.903   6.274  -0.922  1.00  0.00     0.293 HD
ENDBRANCH   8  26
TORSDOF 6
ENDMDL
MODEL 2
REMARK VINA RESULT:    -5.953      1.977      2.501
REMARK INTER + INTRA:          -7.282
REMARK INTER:                  -6.964
REMARK INTRA:                  -0.318
REMARK UNBOUND:                -0.111
REMARK SMILES O=c1c(O)c(-c2ccc(O)c(O)c2)oc2cc(O)cc(O)c12
REMARK SMILES IDX 5 1 3 2 2 3 1 4 22 5 20 6 19 7 17 8 16 9 15 10 14 11 6 12
REMARK SMILES IDX 7 13 8 14 9 15 13 16 11 17 10 18 12 20 4 22 21 24 18 26
REMARK H PARENT 10 19 12 21 4 23 21 25 18 27
REMARK Flexibility Score: inf
ROOT
ATOM      1  C   UNL     1      -7.101   6.435   1.259  1.00  0.00     0.180 A 
ATOM      2  C   UNL     1      -6.152   5.840   0.410  1.00  0.00     0.208 A 
ATOM      3  C   UNL     1      -6.144   6.187  -0.951  1.00  0.00     0.238 A 
ATOM      4  O   UNL     1      -5.258   5.693  -1.696  1.00  0.00    -0.285 OA
ATOM      5  C   UNL     1      -7.095   7.111  -1.448  1.00  0.00     0.111 A 
ATOM      6  C   UNL     1      -7.204   7.504  -2.816  1.00  0.00     0.134 A 
ATOM      7  C   UNL     1      -8.096   8.523  -3.173  1.00  0.00     0.093 A 
ATOM      8  C   UNL     1      -8.928   9.117  -2.221  1.00  0.00     0.123 A 
ATOM      9  C   UNL     1      -8.871   8.698  -0.894  1.00  0.00     0.094 A 
ATOM     10  C   UNL     1      -7.966   7.710  -0.501  1.00  0.00     0.146 A 
ATOM     11  O   UNL     1      -7.937   7.347   0.776  1.00  0.00    -0.452 OA
ENDROOT
BRANCH   1  12
ATOM     12  C   UNL     1      -7.188   6.102   2.699  1.00  0.00     0.025 A 
ATOM     13  C   UNL     1      -8.092   5.136   3.173  1.00  0.00     0.016 A 
ATOM     14  C   UNL     1      -8.173   4.855   4.540  1.00  0.00     0.051 A 
ATOM     15  C   UNL     1      -7.365   5.544   5.453  1.00  0.00     0.157 A 
ATOM     16  C   UNL     1      -6.394   6.804   3.621  1.00  0.00     0.062 A 
ATOM     17  C   UNL     1      -6.472   6.525   4.991  1.00  0.00     0.158 A 
BRANCH  15  18
ATOM     18  O   UNL     1      -7.447   5.259   6.815  1.00  0.00    -0.504 OA
ATOM     19  H   UNL     1      -6.626   5.015   7.357  1.00  0.00     0.293 HD
ENDBRANCH  15  18
BRANCH  17  20
ATOM     20  O   UNL     1      -5.659   7.234   5.874  1.00  0.00    -0.504 OA
ATOM     21  H   UNL     1      -5.469   8.222   5.756  1.00  0.00     0.293 HD
ENDBRANCH  17  20
ENDBRANCH   1  12
BRANCH   2  22
ATOM     22  O   UNL     1      -5.209   4.948   0.926  1.00  0.00    -0.502 OA
ATOM     23  H   UNL     1      -5.100   4.786   1.920  1.00  0.00     0.293 HD
ENDBRANCH   2  22
BRANCH   6  24
ATOM     24  O   UNL     1      -6.485   6.911  -3.859  1.00  0.00    -0.507 OA
ATOM     25  H   UNL     1      -5.498   6.706  -3.832  1.00  0.00     0.293 HD
ENDBRANCH   6  24
BRANCH   8  26
ATOM     26  O   UNL     1      -9.825  10.120  -2.588  1.00  0.00    -0.508 OA
ATOM     27  H   UNL     1      -9.686  10.675  -3.424  1.00  0.00     0.293 HD
ENDBRANCH   8  26
TORSDOF 6
ENDMDL
MODEL 3
REMARK VINA RESULT:    -5.867      2.150      6.794
REMARK INTER + INTRA:          -7.178
REMARK INTER:                  -6.903
REMARK INTRA:                  -0.275
REMARK UNBOUND:                -0.111
REMARK SMILES O=c1c(O)c(-c2ccc(O)c(O)c2)oc2cc(O)cc(O)c12
REMARK SMILES IDX 5 1 3 2 2 3 1 4 22 5 20 6 19 7 17 8 16 9 15 10 14 11 6 12
REMARK SMILES IDX 7 13 8 14 9 15 13 16 11 17 10 18 12 20 4 22 21 24 18 26
REMARK H PARENT 10 19 12 21 4 23 21 25 18 27
REMARK Flexibility Score: inf
ROOT
ATOM      1  C   UNL     1      -8.032   6.096   3.172  1.00  0.00     0.180 A 
ATOM      2  C   UNL     1      -6.783   6.056   3.814  1.00  0.00     0.208 A 
ATOM      3  C   UNL     1      -6.712   6.358   5.184  1.00  0.00     0.238 A 
ATOM      4  O   UNL     1      -5.600   6.267   5.766  1.00  0.00    -0.285 OA
ATOM      5  C   UNL     1      -7.887   6.713   5.889  1.00  0.00     0.111 A 
ATOM      6  C   UNL     1      -7.925   7.077   7.269  1.00  0.00     0.134 A 
ATOM      7  C   UNL     1      -9.161   7.283   7.895  1.00  0.00     0.093 A 
ATOM      8  C   UNL     1     -10.355   7.201   7.175  1.00  0.00     0.123 A 
ATOM      9  C   UNL     1     -10.324   6.904   5.814  1.00  0.00     0.094 A 
ATOM     10  C   UNL     1      -9.109   6.658   5.170  1.00  0.00     0.146 A 
ATOM     11  O   UNL     1      -9.126   6.369   3.874  1.00  0.00    -0.452 OA
ENDROOT
BRANCH   1  12
ATOM     12  C   UNL     1      -8.184   5.815   1.726  1.00  0.00     0.025 A 
ATOM     13  C   UNL     1      -8.660   4.574   1.268  1.00  0.00     0.016 A 
ATOM     14  C   UNL     1      -8.772   4.323  -0.102  1.00  0.00     0.051 A 
ATOM     15  C   UNL     1      -8.399   5.300  -1.034  1.00  0.00     0.157 A 
ATOM     16  C   UNL     1      -7.792   6.784   0.788  1.00  0.00     0.062 A 
ATOM     17  C   UNL     1      -7.904   6.536  -0.586  1.00  0.00     0.158 A 
BRANCH  15  18
ATOM     18  O   UNL     1      -8.515   5.047  -2.399  1.00  0.00    -0.504 OA
ATOM     19  H   UNL     1      -9.238   4.441  -2.767  1.00  0.00     0.293 HD
ENDBRANCH  15  18
BRANCH  17  20
ATOM     20  O   UNL     1      -7.517   7.527  -1.487  1.00  0.00    -0.504 OA
ATOM     21  H   UNL     1      -8.188   8.024  -2.060  1.00  0.00     0.293 HD
ENDBRANCH  17  20
ENDBRANCH   1  12
BRANCH   2  22
ATOM     22  O   UNL     1      -5.639   5.681   3.104  1.00  0.00    -0.502 OA
ATOM     23  H   UNL     1      -4.711   5.994   3.363  1.00  0.00     0.293 HD
ENDBRANCH   2  22
BRANCH   6  24
ATOM     24  O   UNL     1      -6.787   7.276   8.056  1.00  0.00    -0.507 OA
ATOM     25  H   UNL     1      -6.173   8.074   7.987  1.00  0.00     0.293 HD
ENDBRANCH   6  24
BRANCH   8  26
ATOM     26  O   UNL     1     -11.580   7.423   7.803  1.00  0.00    -0.508 OA
ATOM     27  H   UNL     1     -11.673   7.386   8.811  1.00  0.00     0.293 HD
ENDBRANCH   8  26
TORSDOF 6
ENDMDL
MODEL 4
REMARK VINA RESULT:    -5.843      2.496      7.536
REMARK INTER + INTRA:          -7.149
REMARK INTER:                  -7.117
REMARK INTRA:                  -0.032
REMARK UNBOUND:                -0.111
REMARK SMILES O=c1c(O)c(-c2ccc(O)c(O)c2)oc2cc(O)cc(O)c12
REMARK SMILES IDX 5 1 3 2 2 3 1 4 22 5 20 6 19 7 17 8 16 9 15 10 14 11 6 12
REMARK SMILES IDX 7 13 8 14 9 15 13 16 11 17 10 18 12 20 4 22 21 24 18 26
REMARK H PARENT 10 19 12 21 4 23 21 25 18 27
REMARK Flexibility Score: inf
ROOT
ATOM      1  C   UNL     1      -7.693   6.401  -1.666  1.00  0.00     0.180 A 
ATOM      2  C   UNL     1      -6.440   5.993  -1.180  1.00  0.00     0.208 A 
ATOM      3  C   UNL     1      -6.283   5.769   0.198  1.00  0.00     0.238 A 
ATOM      4  O   UNL     1      -5.174   5.352   0.621  1.00  0.00    -0.285 OA
ATOM      5  C   UNL     1      -7.377   5.973   1.073  1.00  0.00     0.111 A 
ATOM      6  C   UNL     1      -7.322   5.815   2.490  1.00  0.00     0.134 A 
ATOM      7  C   UNL     1      -8.498   5.915   3.244  1.00  0.00     0.093 A 
ATOM      8  C   UNL     1      -9.716   6.232   2.637  1.00  0.00     0.123 A 
ATOM      9  C   UNL     1      -9.770   6.446   1.262  1.00  0.00     0.094 A 
ATOM     10  C   UNL     1      -8.620   6.317   0.480  1.00  0.00     0.146 A 
ATOM     11  O   UNL     1      -8.718   6.520  -0.829  1.00  0.00    -0.452 OA
ENDROOT
BRANCH   1  12
ATOM     12  C   UNL     1      -7.929   6.680  -3.101  1.00  0.00     0.025 A 
ATOM     13  C   UNL     1      -8.936   6.013  -3.821  1.00  0.00     0.016 A 
ATOM     14  C   UNL     1      -9.125   6.276  -5.180  1.00  0.00     0.051 A 
ATOM     15  C   UNL     1      -8.303   7.196  -5.844  1.00  0.00     0.157 A 
ATOM     16  C   UNL     1      -7.095   7.586  -3.776  1.00  0.00     0.062 A 
ATOM     17  C   UNL     1      -7.281   7.853  -5.138  1.00  0.00     0.158 A 
BRANCH  15  18
ATOM     18  O   UNL     1      -8.495   7.458  -7.199  1.00  0.00    -0.504 OA
ATOM     19  H   UNL     1      -9.030   6.832  -7.790  1.00  0.00     0.293 HD
ENDBRANCH  15  18
BRANCH  17  20
ATOM     20  O   UNL     1      -6.441   8.768  -5.770  1.00  0.00    -0.504 OA
ATOM     21  H   UNL     1      -5.885   9.437  -5.250  1.00  0.00     0.293 HD
ENDBRANCH  17  20
ENDBRANCH   1  12
BRANCH   2  22
ATOM     22  O   UNL     1      -5.379   5.777  -2.064  1.00  0.00    -0.502 OA
ATOM     23  H   UNL     1      -4.410   5.817  -1.772  1.00  0.00     0.293 HD
ENDBRANCH   2  22
BRANCH   6  24
ATOM     24  O   UNL     1      -6.141   5.589   3.205  1.00  0.00    -0.507 OA
ATOM     25  H   UNL     1      -5.618   4.726   3.192  1.00  0.00     0.293 HD
ENDBRANCH   6  24
BRANCH   8  26
ATOM     26  O   UNL     1     -10.879   6.345   3.397  1.00  0.00    -0.508 OA
ATOM     27  H   UNL     1     -11.412   5.530   3.676  1.00  0.00     0.293 HD
ENDBRANCH   8  26
TORSDOF 6
ENDMDL
MODEL 5
REMARK VINA RESULT:    -5.781      2.467      3.805
REMARK INTER + INTRA:          -7.075
REMARK INTER:                  -6.836
REMARK INTRA:                  -0.239
REMARK UNBOUND:                -0.111
REMARK SMILES O=c1c(O)c(-c2ccc(O)c(O)c2)oc2cc(O)cc(O)c12
REMARK SMILES IDX 5 1 3 2 2 3 1 4 22 5 20 6 19 7 17 8 16 9 15 10 14 11 6 12
REMARK SMILES IDX 7 13 8 14 9 15 13 16 11 17 10 18 12 20 4 22 21 24 18 26
REMARK H PARENT 10 19 12 21 4 23 21 25 18 27
REMARK Flexibility Score: inf
ROOT
ATOM      1  C   UNL     1      -7.731   6.328  -0.189  1.00  0.00     0.180 A 
ATOM      2  C   UNL     1      -8.245   5.292  -0.988  1.00  0.00     0.208 A 
ATOM      3  C   UNL     1      -8.322   5.478  -2.378  1.00  0.00     0.238 A 
ATOM      4  O   UNL     1      -8.732   4.528  -3.094  1.00  0.00    -0.285 OA
ATOM      5  C   UNL     1      -7.900   6.703  -2.949  1.00  0.00     0.111 A 
ATOM      6  C   UNL     1      -7.970   7.016  -4.340  1.00  0.00     0.134 A 
ATOM      7  C   UNL     1      -7.403   8.207  -4.810  1.00  0.00     0.093 A 
ATOM      8  C   UNL     1      -6.826   9.126  -3.929  1.00  0.00     0.123 A 
ATOM      9  C   UNL     1      -6.806   8.856  -2.563  1.00  0.00     0.094 A 
ATOM     10  C   UNL     1      -7.331   7.660  -2.069  1.00  0.00     0.146 A 
ATOM     11  O   UNL     1      -7.282   7.439  -0.760  1.00  0.00    -0.452 OA
ENDROOT
BRANCH   1  12
ATOM     12  C   UNL     1      -7.642   6.215   1.285  1.00  0.00     0.025 A 
ATOM     13  C   UNL     1      -6.409   6.013   1.930  1.00  0.00     0.016 A 
ATOM     14  C   UNL     1      -6.353   5.886   3.321  1.00  0.00     0.051 A 
ATOM     15  C   UNL     1      -7.525   5.946   4.085  1.00  0.00     0.157 A 
ATOM     16  C   UNL     1      -8.816   6.254   2.054  1.00  0.00     0.062 A 
ATOM     17  C   UNL     1      -8.763   6.129   3.447  1.00  0.00     0.158 A 
BRANCH  15  18
ATOM     18  O   UNL     1      -7.464   5.822   5.472  1.00  0.00    -0.504 OA
ATOM     19  H   UNL     1      -6.643   6.104   5.995  1.00  0.00     0.293 HD
ENDBRANCH  15  18
BRANCH  17  20
ATOM     20  O   UNL     1      -9.949   6.186   4.178  1.00  0.00    -0.504 OA
ATOM     21  H   UNL     1     -10.822   6.492   3.765  1.00  0.00     0.293 HD
ENDBRANCH  17  20
ENDBRANCH   1  12
BRANCH   2  22
ATOM     22  O   UNL     1      -8.636   4.083  -0.406  1.00  0.00    -0.502 OA
ATOM     23  H   UNL     1      -8.073   3.243  -0.467  1.00  0.00     0.293 HD
ENDBRANCH   2  22
BRANCH   6  24
ATOM     24  O   UNL     1      -8.605   6.210  -5.290  1.00  0.00    -0.507 OA
ATOM     25  H   UNL     1      -9.541   6.359  -5.636  1.00  0.00     0.293 HD
ENDBRANCH   6  24
BRANCH   8  26
ATOM     26  O   UNL     1      -6.278  10.316  -4.404  1.00  0.00    -0.508 OA
ATOM     27  H   UNL     1      -6.701  10.827  -5.170  1.00  0.00     0.293 HD
ENDBRANCH   8  26
TORSDOF 6
ENDMDL
MODEL 6
REMARK VINA RESULT:    -5.753      1.217      2.862
REMARK INTER + INTRA:          -7.041
REMARK INTER:                  -7.045
REMARK INTRA:                   0.004
REMARK UNBOUND:                -0.111
REMARK SMILES O=c1c(O)c(-c2ccc(O)c(O)c2)oc2cc(O)cc(O)c12
REMARK SMILES IDX 5 1 3 2 2 3 1 4 22 5 20 6 19 7 17 8 16 9 15 10 14 11 6 12
REMARK SMILES IDX 7 13 8 14 9 15 13 16 11 17 10 18 12 20 4 22 21 24 18 26
REMARK H PARENT 10 19 12 21 4 23 21 25 18 27
REMARK Flexibility Score: inf
ROOT
ATOM      1  C   UNL     1      -8.062   5.882   2.635  1.00  0.00     0.180 A 
ATOM      2  C   UNL     1      -9.401   5.947   2.211  1.00  0.00     0.208 A 
ATOM      3  C   UNL     1      -9.676   6.041   0.837  1.00  0.00     0.238 A 
ATOM      4  O   UNL     1     -10.876   6.044   0.459  1.00  0.00    -0.285 OA
ATOM      5  C   UNL     1      -8.610   6.085  -0.094  1.00  0.00     0.111 A 
ATOM      6  C   UNL     1      -8.771   6.220  -1.505  1.00  0.00     0.134 A 
ATOM      7  C   UNL     1      -7.652   6.121  -2.342  1.00  0.00     0.093 A 
ATOM      8  C   UNL     1      -6.370   5.958  -1.812  1.00  0.00     0.123 A 
ATOM      9  C   UNL     1      -6.196   5.885  -0.432  1.00  0.00     0.094 A 
ATOM     10  C   UNL     1      -7.297   5.944   0.426  1.00  0.00     0.146 A 
ATOM     11  O   UNL     1      -7.086   5.860   1.734  1.00  0.00    -0.452 OA
ENDROOT
BRANCH   1  12
ATOM     12  C   UNL     1      -7.692   5.808   4.067  1.00  0.00     0.025 A 
ATOM     13  C   UNL     1      -6.749   6.688   4.625  1.00  0.00     0.016 A 
ATOM     14  C   UNL     1      -6.398   6.583   5.974  1.00  0.00     0.051 A 
ATOM     15  C   UNL     1      -6.971   5.591   6.780  1.00  0.00     0.157 A 
ATOM     16  C   UNL     1      -8.249   4.802   4.874  1.00  0.00     0.062 A 
ATOM     17  C   UNL     1      -7.900   4.695   6.225  1.00  0.00     0.158 A 
BRANCH  15  18
ATOM     18  O   UNL     1      -6.620   5.491   8.125  1.00  0.00    -0.504 OA
ATOM     19  H   UNL     1      -5.820   4.947   8.426  1.00  0.00     0.293 HD
ENDBRANCH  15  18
BRANCH  17  20
ATOM     20  O   UNL     1      -8.484   3.692   6.998  1.00  0.00    -0.504 OA
ATOM     21  H   UNL     1      -9.392   3.302   6.777  1.00  0.00     0.293 HD
ENDBRANCH  17  20
ENDBRANCH   1  12
BRANCH   2  22
ATOM     22  O   UNL     1     -10.438   5.880   3.145  1.00  0.00    -0.502 OA
ATOM     23  H   UNL     1     -10.430   6.413   4.006  1.00  0.00     0.293 HD
ENDBRANCH   2  22
BRANCH   6  24
ATOM     24  O   UNL     1      -9.996   6.478  -2.130  1.00  0.00    -0.507 OA
ATOM     25  H   UNL     1     -10.887   6.504  -1.658  1.00  0.00     0.293 HD
ENDBRANCH   6  24
BRANCH   8  26
ATOM     26  O   UNL     1      -5.260   5.876  -2.650  1.00  0.00    -0.508 OA
ATOM     27  H   UNL     1      -4.835   6.704  -3.050  1.00  0.00     0.293 HD
ENDBRANCH   8  26
TORSDOF 6
ENDMDL
MODEL 7
REMARK VINA RESULT:    -5.746      2.008      6.894
REMARK INTER + INTRA:          -7.033
REMARK INTER:                  -6.716
REMARK INTRA:                  -0.317
REMARK UNBOUND:                -0.111
REMARK SMILES O=c1c(O)c(-c2ccc(O)c(O)c2)oc2cc(O)cc(O)c12
REMARK SMILES IDX 5 1 3 2 2 3 1 4 22 5 20 6 19 7 17 8 16 9 15 10 14 11 6 12
REMARK SMILES IDX 7 13 8 14 9 15 13 16 11 17 10 18 12 20 4 22 21 24 18 26
REMARK H PARENT 10 19 12 21 4 23 21 25 18 27
REMARK Flexibility Score: inf
ROOT
ATOM      1  C   UNL     1      -7.943   6.107   0.226  1.00  0.00     0.180 A 
ATOM      2  C   UNL     1      -6.634   5.870   0.678  1.00  0.00     0.208 A 
ATOM      3  C   UNL     1      -6.379   5.872   2.059  1.00  0.00     0.238 A 
ATOM      4  O   UNL     1      -5.216   5.606   2.460  1.00  0.00    -0.285 OA
ATOM      5  C   UNL     1      -7.432   6.129   2.969  1.00  0.00     0.111 A 
ATOM      6  C   UNL     1      -7.281   6.195   4.387  1.00  0.00     0.134 A 
ATOM      7  C   UNL     1      -8.415   6.325   5.198  1.00  0.00     0.093 A 
ATOM      8  C   UNL     1      -9.688   6.456   4.639  1.00  0.00     0.123 A 
ATOM      9  C   UNL     1      -9.840   6.451   3.255  1.00  0.00     0.094 A 
ATOM     10  C   UNL     1      -8.732   6.287   2.421  1.00  0.00     0.146 A 
ATOM     11  O   UNL     1      -8.923   6.279   1.107  1.00  0.00    -0.452 OA
ENDROOT
BRANCH   1  12
ATOM     12  C   UNL     1      -8.285   6.145  -1.214  1.00  0.00     0.025 A 
ATOM     13  C   UNL     1      -8.577   4.969  -1.928  1.00  0.00     0.016 A 
ATOM     14  C   UNL     1      -8.873   5.027  -3.292  1.00  0.00     0.051 A 
ATOM     15  C   UNL     1      -8.870   6.255  -3.966  1.00  0.00     0.157 A 
ATOM     16  C   UNL     1      -8.263   7.371  -1.899  1.00  0.00     0.062 A 
ATOM     17  C   UNL     1      -8.560   7.433  -3.265  1.00  0.00     0.158 A 
BRANCH  15  18
ATOM     18  O   UNL     1      -9.169   6.309  -5.326  1.00  0.00    -0.504 OA
ATOM     19  H   UNL     1      -8.439   6.358  -6.028  1.00  0.00     0.293 HD
ENDBRANCH  15  18
BRANCH  17  20
ATOM     20  O   UNL     1      -8.541   8.670  -3.907  1.00  0.00    -0.504 OA
ATOM     21  H   UNL     1      -9.110   8.862  -4.722  1.00  0.00     0.293 HD
ENDBRANCH  17  20
ENDBRANCH   1  12
BRANCH   2  22
ATOM     22  O   UNL     1      -5.613   5.598  -0.237  1.00  0.00    -0.502 OA
ATOM     23  H   UNL     1      -5.324   4.654  -0.465  1.00  0.00     0.293 HD
ENDBRANCH   2  22
BRANCH   6  24
ATOM     24  O   UNL     1      -6.045   6.167   5.042  1.00  0.00    -0.507 OA
ATOM     25  H   UNL     1      -5.203   5.760   4.663  1.00  0.00     0.293 HD
ENDBRANCH   6  24
BRANCH   8  26
ATOM     26  O   UNL     1     -10.810   6.600   5.454  1.00  0.00    -0.508 OA
ATOM     27  H   UNL     1     -10.744   6.543   6.463  1.00  0.00     0.293 HD
ENDBRANCH   8  26
TORSDOF 6
ENDMDL
MODEL 8
REMARK VINA RESULT:    -5.714      3.055      4.470
REMARK INTER + INTRA:          -6.994
REMARK INTER:                  -6.915
REMARK INTRA:                  -0.080
REMARK UNBOUND:                -0.111
REMARK SMILES O=c1c(O)c(-c2ccc(O)c(O)c2)oc2cc(O)cc(O)c12
REMARK SMILES IDX 5 1 3 2 2 3 1 4 22 5 20 6 19 7 17 8 16 9 15 10 14 11 6 12
REMARK SMILES IDX 7 13 8 14 9 15 13 16 11 17 10 18 12 20 4 22 21 24 18 26
REMARK H PARENT 10 19 12 21 4 23 21 25 18 27
REMARK Flexibility Score: inf
ROOT
ATOM      1  C   UNL     1      -7.668   7.448  -0.644  1.00  0.00     0.180 A 
ATOM      2  C   UNL     1      -7.260   8.792  -0.694  1.00  0.00     0.208 A 
ATOM      3  C   UNL     1      -7.090   9.406  -1.946  1.00  0.00     0.238 A 
ATOM      4  O   UNL     1      -6.776  10.624  -1.984  1.00  0.00    -0.285 OA
ATOM      5  C   UNL     1      -7.313   8.664  -3.130  1.00  0.00     0.111 A 
ATOM      6  C   UNL     1      -7.132   9.173  -4.452  1.00  0.00     0.134 A 
ATOM      7  C   UNL     1      -7.509   8.391  -5.551  1.00  0.00     0.093 A 
ATOM      8  C   UNL     1      -7.999   7.095  -5.378  1.00  0.00     0.123 A 
ATOM      9  C   UNL     1      -8.124   6.568  -4.095  1.00  0.00     0.094 A 
ATOM     10  C   UNL     1      -7.791   7.336  -2.977  1.00  0.00     0.146 A 
ATOM     11  O   UNL     1      -7.934   6.799  -1.772  1.00  0.00    -0.452 OA
ENDROOT
BRANCH   1  12
ATOM     12  C   UNL     1      -7.845   6.726   0.636  1.00  0.00     0.025 A 
ATOM     13  C   UNL     1      -9.086   6.172   0.999  1.00  0.00     0.016 A 
ATOM     14  C   UNL     1      -9.235   5.515   2.223  1.00  0.00     0.051 A 
ATOM     15  C   UNL     1      -8.153   5.413   3.108  1.00  0.00     0.157 A 
ATOM     16  C   UNL     1      -6.770   6.638   1.535  1.00  0.00     0.062 A 
ATOM     17  C   UNL     1      -6.915   5.980   2.762  1.00  0.00     0.158 A 
BRANCH  15  18
ATOM     18  O   UNL     1      -8.305   4.755   4.327  1.00  0.00    -0.504 OA
ATOM     19  H   UNL     1      -9.088   4.948   4.940  1.00  0.00     0.293 HD
ENDBRANCH  15  18
BRANCH  17  20
ATOM     20  O   UNL     1      -5.821   5.902   3.623  1.00  0.00    -0.504 OA
ATOM     21  H   UNL     1      -5.897   6.116   4.610  1.00  0.00     0.293 HD
ENDBRANCH  17  20
ENDBRANCH   1  12
BRANCH   2  22
ATOM     22  O   UNL     1      -7.066   9.512   0.488  1.00  0.00    -0.502 OA
ATOM     23  H   UNL     1      -7.306   9.139   1.398  1.00  0.00     0.293 HD
ENDBRANCH   2  22
BRANCH   6  24
ATOM     24  O   UNL     1      -6.565  10.419  -4.737  1.00  0.00    -0.507 OA
ATOM     25  H   UNL     1      -6.090  10.651  -5.597  1.00  0.00     0.293 HD
ENDBRANCH   6  24
BRANCH   8  26
ATOM     26  O   UNL     1      -8.357   6.318  -6.478  1.00  0.00    -0.508 OA
ATOM     27  H   UNL     1      -8.694   6.737  -7.337  1.00  0.00     0.293 HD
ENDBRANCH   8  26
TORSDOF 6
ENDMDL
MODEL 9
REMARK VINA RESULT:    -5.647      3.462      7.932
REMARK INTER + INTRA:          -6.913
REMARK INTER:                  -6.583
REMARK INTRA:                  -0.329
REMARK UNBOUND:                -0.111
REMARK SMILES O=c1c(O)c(-c2ccc(O)c(O)c2)oc2cc(O)cc(O)c12
REMARK SMILES IDX 5 1 3 2 2 3 1 4 22 5 20 6 19 7 17 8 16 9 15 10 14 11 6 12
REMARK SMILES IDX 7 13 8 14 9 15 13 16 11 17 10 18 12 20 4 22 21 24 18 26
REMARK H PARENT 10 19 12 21 4 23 21 25 18 27
REMARK Flexibility Score: inf
ROOT
ATOM      1  C   UNL     1      -8.244   6.926  -2.802  1.00  0.00     0.180 A 
ATOM      2  C   UNL     1      -7.290   6.270  -2.006  1.00  0.00     0.208 A 
ATOM      3  C   UNL     1      -7.682   5.752  -0.761  1.00  0.00     0.238 A 
ATOM      4  O   UNL     1      -6.837   5.119  -0.076  1.00  0.00    -0.285 OA
ATOM      5  C   UNL     1      -9.018   5.912  -0.321  1.00  0.00     0.111 A 
ATOM      6  C   UNL     1      -9.515   5.463   0.940  1.00  0.00     0.134 A 
ATOM      7  C   UNL     1     -10.885   5.557   1.215  1.00  0.00     0.093 A 
ATOM      8  C   UNL     1     -11.764   6.145   0.302  1.00  0.00     0.123 A 
ATOM      9  C   UNL     1     -11.279   6.639  -0.906  1.00  0.00     0.094 A 
ATOM     10  C   UNL     1      -9.924   6.526  -1.224  1.00  0.00     0.146 A 
ATOM     11  O   UNL     1      -9.505   7.002  -2.391  1.00  0.00    -0.452 OA
ENDROOT
BRANCH   1  12
ATOM     12  C   UNL     1      -7.901   7.520  -4.115  1.00  0.00     0.025 A 
ATOM     13  C   UNL     1      -7.493   8.861  -4.227  1.00  0.00     0.016 A 
ATOM     14  C   UNL     1      -7.198   9.406  -5.479  1.00  0.00     0.051 A 
ATOM     15  C   UNL     1      -7.318   8.627  -6.637  1.00  0.00     0.157 A 
ATOM     16  C   UNL     1      -8.040   6.749  -5.281  1.00  0.00     0.062 A 
ATOM     17  C   UNL     1      -7.744   7.292  -6.537  1.00  0.00     0.158 A 
BRANCH  15  18
ATOM     18  O   UNL     1      -7.020   9.174  -7.884  1.00  0.00    -0.504 OA
ATOM     19  H   UNL     1      -7.053   8.616  -8.730  1.00  0.00     0.293 HD
ENDBRANCH  15  18
BRANCH  17  20
ATOM     20  O   UNL     1      -7.881   6.492  -7.670  1.00  0.00    -0.504 OA
ATOM     21  H   UNL     1      -8.007   5.488  -7.608  1.00  0.00     0.293 HD
ENDBRANCH  17  20
ENDBRANCH   1  12
BRANCH   2  22
ATOM     22  O   UNL     1      -5.982   6.105  -2.470  1.00  0.00    -0.502 OA
ATOM     23  H   UNL     1      -5.344   6.883  -2.588  1.00  0.00     0.293 HD
ENDBRANCH   2  22
BRANCH   6  24
ATOM     24  O   UNL     1      -8.708   4.946   1.958  1.00  0.00    -0.507 OA
ATOM     25  H   UNL     1      -7.990   5.464   2.441  1.00  0.00     0.293 HD
ENDBRANCH   6  24
BRANCH   8  26
ATOM     26  O   UNL     1     -13.123   6.249   0.592  1.00  0.00    -0.508 OA
ATOM     27  H   UNL     1     -13.812   5.670   0.124  1.00  0.00     0.293 HD
ENDBRANCH   8  26
TORSDOF 6
ENDMDL
