MODEL 1
REMARK VINA RESULT:    -3.428      0.000      0.000
REMARK INTER + INTRA:          -4.072
REMARK INTER:                  -3.929
REMARK INTRA:                  -0.144
REMARK UNBOUND:                -0.144
REMARK SMILES O=C([O-])C=Cc1ccc(O)cc1
REMARK SMILES IDX 6 1 7 2 12 3 8 4 11 5 9 6 5 7 4 8 2 9 1 10 3 11 10 12
REMARK H PARENT 10 13
REMARK Flexibility Score: inf
ROOT
ATOM      1  C   UNL     1      16.792  22.998   5.433  1.00  0.00    -0.025 A 
ATOM      2  C   UNL     1      16.509  24.372   5.281  1.00  0.00     0.012 A 
ATOM      3  C   UNL     1      17.151  22.251   4.298  1.00  0.00     0.012 A 
ATOM      4  C   UNL     1      16.561  24.969   4.018  1.00  0.00     0.047 A 
ATOM      5  C   UNL     1      17.201  22.852   3.037  1.00  0.00     0.047 A 
ATOM      6  C   UNL     1      16.904  24.212   2.893  1.00  0.00     0.115 A 
ENDROOT
BRANCH   1   7
ATOM      7  C   UNL     1      16.763  22.318   6.751  1.00  0.00     0.010 C 
ATOM      8  C   UNL     1      16.105  21.174   6.985  1.00  0.00     0.025 C 
BRANCH   8   9
ATOM      9  C   UNL     1      16.114  20.528   8.306  1.00  0.00     0.064 C 
ATOM     10  O   UNL     1      17.157  20.566   9.010  1.00  0.00    -0.545 OA
ATOM     11  O   UNL     1      14.988  19.871   8.791  1.00  0.00    -0.545 OA
ENDBRANCH   8   9
ENDBRANCH   1   7
BRANCH   6  12
ATOM     12  O   UNL     1      16.950  24.822   1.641  1.00  0.00    -0.508 OA
ATOM     13  H   UNL     1      16.597  25.761   1.496  1.00  0.00     0.293 HD
ENDBRANCH   6  12
TORSDOF 3
ENDMDL
MODEL 2
REMARK VINA RESULT:    -3.404      4.258      8.537
REMARK INTER + INTRA:          -4.045
REMARK INTER:                  -3.897
REMARK INTRA:                  -0.148
REMARK UNBOUND:                -0.144
REMARK SMILES O=C([O-])C=Cc1ccc(O)cc1
REMARK SMILES IDX 6 1 7 2 12 3 8 4 11 5 9 6 5 7 4 8 2 9 1 10 3 11 10 12
REMARK H PARENT 10 13
REMARK Flexibility Score: inf
ROOT
ATOM      1  C   UNL     1      16.392  23.942  -0.318  1.00  0.00    -0.025 A 
ATOM      2  C   UNL     1      15.640  22.863   0.192  1.00  0.00     0.012 A 
ATOM      3  C   UNL     1      17.105  24.755   0.578  1.00  0.00     0.012 A 
ATOM      4  C   UNL     1      15.588  22.626   1.568  1.00  0.00     0.047 A 
ATOM      5  C   UNL     1      17.050  24.514   1.955  1.00  0.00     0.047 A 
ATOM      6  C   UNL     1      16.289  23.451   2.454  1.00  0.00     0.115 A 
ENDROOT
BRANCH   1   7
ATOM      7  C   UNL     1      16.491  24.231  -1.771  1.00  0.00     0.010 C 
ATOM      8  C   UNL     1      17.631  24.573  -2.387  1.00  0.00     0.025 C 
BRANCH   8   9
ATOM      9  C   UNL     1      17.684  24.839  -3.832  1.00  0.00     0.064 C 
ATOM     10  O   UNL     1      16.616  24.862  -4.500  1.00  0.00    -0.545 OA
ATOM     11  O   UNL     1      18.896  25.062  -4.477  1.00  0.00    -0.545 OA
ENDBRANCH   8   9
ENDBRANCH   1   7
BRANCH   6  12
ATOM     12  O   UNL     1      16.226  23.201   3.823  1.00  0.00    -0.508 OA
ATOM     13  H   UNL     1      16.930  23.559   4.459  1.00  0.00     0.293 HD
ENDBRANCH   6  12
TORSDOF 3
ENDMDL
MODEL 3
REMARK VINA RESULT:    -3.393      1.370      1.784
REMARK INTER + INTRA:          -4.032
REMARK INTER:                  -3.898
REMARK INTRA:                  -0.134
REMARK UNBOUND:                -0.144
REMARK SMILES O=C([O-])C=Cc1ccc(O)cc1
REMARK SMILES IDX 6 1 7 2 12 3 8 4 11 5 9 6 5 7 4 8 2 9 1 10 3 11 10 12
REMARK H PARENT 10 13
REMARK Flexibility Score: inf
ROOT
ATOM      1  C   UNL     1      17.128  22.950   3.771  1.00  0.00    -0.025 A 
ATOM      2  C   UNL     1      17.875  24.139   3.632  1.00  0.00     0.012 A 
ATOM      3  C   UNL     1      16.376  22.489   2.677  1.00  0.00     0.012 A 
ATOM      4  C   UNL     1      17.843  24.856   2.432  1.00  0.00     0.047 A 
ATOM      5  C   UNL     1      16.348  23.211   1.479  1.00  0.00     0.047 A 
ATOM      6  C   UNL     1      17.079  24.397   1.355  1.00  0.00     0.115 A 
ENDROOT
BRANCH   1   7
ATOM      7  C   UNL     1      17.135  22.144   5.017  1.00  0.00     0.010 C 
ATOM      8  C   UNL     1      16.728  22.607   6.207  1.00  0.00     0.025 C 
BRANCH   8   9
ATOM      9  C   UNL     1      16.741  21.768   7.414  1.00  0.00     0.064 C 
ATOM     10  O   UNL     1      17.386  22.146   8.428  1.00  0.00    -0.545 OA
ATOM     11  O   UNL     1      16.055  20.559   7.455  1.00  0.00    -0.545 OA
ENDBRANCH   8   9
ENDBRANCH   1   7
BRANCH   6  12
ATOM     12  O   UNL     1      17.058  25.125   0.167  1.00  0.00    -0.508 OA
ATOM     13  H   UNL     1      16.285  25.738  -0.065  1.00  0.00     0.293 HD
ENDBRANCH   6  12
TORSDOF 3
ENDMDL
MODEL 4
REMARK VINA RESULT:    -3.296      1.707      5.683
REMARK INTER + INTRA:          -3.921
REMARK INTER:                  -3.785
REMARK INTRA:                  -0.136
REMARK UNBOUND:                -0.144
REMARK SMILES O=C([O-])C=Cc1ccc(O)cc1
REMARK SMILES IDX 6 1 7 2 12 3 8 4 11 5 9 6 5 7 4 8 2 9 1 10 3 11 10 12
REMARK H PARENT 10 13
REMARK Flexibility Score: inf
ROOT
ATOM      1  C   UNL     1      16.728  23.499   6.101  1.00  0.00    -0.025 A 
ATOM      2  C   UNL     1      16.712  22.189   6.624  1.00  0.00     0.012 A 
ATOM      3  C   UNL     1      17.109  24.559   6.941  1.00  0.00     0.012 A 
ATOM      4  C   UNL     1      17.046  21.957   7.961  1.00  0.00     0.047 A 
ATOM      5  C   UNL     1      17.442  24.322   8.279  1.00  0.00     0.047 A 
ATOM      6  C   UNL     1      17.409  23.021   8.793  1.00  0.00     0.115 A 
ENDROOT
BRANCH   1   7
ATOM      7  C   UNL     1      16.393  23.799   4.687  1.00  0.00     0.010 C 
ATOM      8  C   UNL     1      16.995  23.218   3.640  1.00  0.00     0.025 C 
BRANCH   8   9
ATOM      9  C   UNL     1      16.622  23.538   2.253  1.00  0.00     0.064 C 
ATOM     10  O   UNL     1      16.908  24.669   1.778  1.00  0.00    -0.545 OA
ATOM     11  O   UNL     1      15.956  22.613   1.457  1.00  0.00    -0.545 OA
ENDBRANCH   8   9
ENDBRANCH   1   7
BRANCH   6  12
ATOM     12  O   UNL     1      17.738  22.773  10.124  1.00  0.00    -0.508 OA
ATOM     13  H   UNL     1      18.701  22.774  10.440  1.00  0.00     0.293 HD
ENDBRANCH   6  12
TORSDOF 3
ENDMDL
MODEL 5
REMARK VINA RESULT:    -3.172      2.715      6.627
REMARK INTER + INTRA:          -3.779
REMARK INTER:                  -3.638
REMARK INTRA:                  -0.141
REMARK UNBOUND:                -0.144
REMARK SMILES O=C([O-])C=Cc1ccc(O)cc1
REMARK SMILES IDX 6 1 7 2 12 3 8 4 11 5 9 6 5 7 4 8 2 9 1 10 3 11 10 12
REMARK H PARENT 10 13
REMARK Flexibility Score: inf
ROOT
ATOM      1  C   UNL     1      16.279  23.217   2.571  1.00  0.00    -0.025 A 
ATOM      2  C   UNL     1      16.994  22.215   3.260  1.00  0.00     0.012 A 
ATOM      3  C   UNL     1      15.900  24.378   3.266  1.00  0.00     0.012 A 
ATOM      4  C   UNL     1      17.296  22.368   4.616  1.00  0.00     0.047 A 
ATOM      5  C   UNL     1      16.205  24.527   4.622  1.00  0.00     0.047 A 
ATOM      6  C   UNL     1      16.901  23.521   5.302  1.00  0.00     0.115 A 
ENDROOT
BRANCH   1   7
ATOM      7  C   UNL     1      15.942  23.111   1.130  1.00  0.00     0.010 C 
ATOM      8  C   UNL     1      16.464  23.902   0.182  1.00  0.00     0.025 C 
BRANCH   8   9
ATOM      9  C   UNL     1      16.110  23.752  -1.237  1.00  0.00     0.064 C 
ATOM     10  O   UNL     1      14.947  23.386  -1.553  1.00  0.00    -0.545 OA
ATOM     11  O   UNL     1      17.040  24.006  -2.240  1.00  0.00    -0.545 OA
ENDBRANCH   8   9
ENDBRANCH   1   7
BRANCH   6  12
ATOM     12  O   UNL     1      17.210  23.657   6.654  1.00  0.00    -0.508 OA
ATOM     13  H   UNL     1      17.832  23.008   7.123  1.00  0.00     0.293 HD
ENDBRANCH   6  12
TORSDOF 3
ENDMDL
MODEL 6
REMARK VINA RESULT:    -3.152      1.188      5.636
REMARK INTER + INTRA:          -3.757
REMARK INTER:                  -3.605
REMARK INTRA:                  -0.152
REMARK UNBOUND:                -0.144
REMARK SMILES O=C([O-])C=Cc1ccc(O)cc1
REMARK SMILES IDX 6 1 7 2 12 3 8 4 11 5 9 6 5 7 4 8 2 9 1 10 3 11 10 12
REMARK H PARENT 10 13
REMARK Flexibility Score: inf
ROOT
ATOM      1  C   UNL     1      16.447  22.531   6.426  1.00  0.00    -0.025 A 
ATOM      2  C   UNL     1      15.816  22.917   7.628  1.00  0.00     0.012 A 
ATOM      3  C   UNL     1      16.523  21.164   6.110  1.00  0.00     0.012 A 
ATOM      4  C   UNL     1      15.300  21.951   8.496  1.00  0.00     0.047 A 
ATOM      5  C   UNL     1      16.005  20.202   6.982  1.00  0.00     0.047 A 
ATOM      6  C   UNL     1      15.394  20.593   8.179  1.00  0.00     0.115 A 
ENDROOT
BRANCH   1   7
ATOM      7  C   UNL     1      17.002  23.514   5.463  1.00  0.00     0.010 C 
ATOM      8  C   UNL     1      17.184  23.260   4.160  1.00  0.00     0.025 C 
BRANCH   8   9
ATOM      9  C   UNL     1      17.726  24.270   3.239  1.00  0.00     0.064 C 
ATOM     10  O   UNL     1      18.607  25.074   3.645  1.00  0.00    -0.545 OA
ATOM     11  O   UNL     1      17.279  24.357   1.925  1.00  0.00    -0.545 OA
ENDBRANCH   8   9
ENDBRANCH   1   7
BRANCH   6  12
ATOM     12  O   UNL     1      14.875  19.643   9.057  1.00  0.00    -0.508 OA
ATOM     13  H   UNL     1      14.636  18.709   8.745  1.00  0.00     0.293 HD
ENDBRANCH   6  12
TORSDOF 3
ENDMDL
MODEL 7
REMARK VINA RESULT:    -3.080      3.770      5.289
REMARK INTER + INTRA:          -3.674
REMARK INTER:                  -3.535
REMARK INTRA:                  -0.139
REMARK UNBOUND:                -0.144
REMARK SMILES O=C([O-])C=Cc1ccc(O)cc1
REMARK SMILES IDX 6 1 7 2 12 3 8 4 11 5 9 6 5 7 4 8 2 9 1 10 3 11 10 12
REMARK H PARENT 10 13
REMARK Flexibility Score: inf
ROOT
ATOM      1  C   UNL     1      16.322  21.462   7.593  1.00  0.00    -0.025 A 
ATOM      2  C   UNL     1      16.583  21.018   6.280  1.00  0.00     0.012 A 
ATOM      3  C   UNL     1      15.719  20.575   8.501  1.00  0.00     0.012 A 
ATOM      4  C   UNL     1      16.223  19.725   5.887  1.00  0.00     0.047 A 
ATOM      5  C   UNL     1      15.361  19.283   8.103  1.00  0.00     0.047 A 
ATOM      6  C   UNL     1      15.610  18.856   6.794  1.00  0.00     0.115 A 
ENDROOT
BRANCH   1   7
ATOM      7  C   UNL     1      16.694  22.819   8.066  1.00  0.00     0.010 C 
ATOM      8  C   UNL     1      17.632  23.054   8.993  1.00  0.00     0.025 C 
BRANCH   8   9
ATOM      9  C   UNL     1      17.976  24.417   9.423  1.00  0.00     0.064 C 
ATOM     10  O   UNL     1      17.161  25.073  10.125  1.00  0.00    -0.545 OA
ATOM     11  O   UNL     1      19.188  24.998   9.066  1.00  0.00    -0.545 OA
ENDBRANCH   8   9
ENDBRANCH   1   7
BRANCH   6  12
ATOM     12  O   UNL     1      15.257  17.572   6.385  1.00  0.00    -0.508 OA
ATOM     13  H   UNL     1      14.364  17.163   6.636  1.00  0.00     0.293 HD
ENDBRANCH   6  12
TORSDOF 3
ENDMDL
MODEL 8
REMARK VINA RESULT:    -2.923      4.596      6.641
REMARK INTER + INTRA:          -3.494
REMARK INTER:                  -3.356
REMARK INTRA:                  -0.138
REMARK UNBOUND:                -0.144
REMARK SMILES O=C([O-])C=Cc1ccc(O)cc1
REMARK SMILES IDX 6 1 7 2 12 3 8 4 11 5 9 6 5 7 4 8 2 9 1 10 3 11 10 12
REMARK H PARENT 10 13
REMARK Flexibility Score: inf
ROOT
ATOM      1  C   UNL     1      16.290  23.874  -1.083  1.00  0.00    -0.025 A 
ATOM      2  C   UNL     1      17.543  24.341  -1.532  1.00  0.00     0.012 A 
ATOM      3  C   UNL     1      15.236  23.767  -2.006  1.00  0.00     0.012 A 
ATOM      4  C   UNL     1      17.721  24.714  -2.867  1.00  0.00     0.047 A 
ATOM      5  C   UNL     1      15.419  24.142  -3.341  1.00  0.00     0.047 A 
ATOM      6  C   UNL     1      16.661  24.619  -3.774  1.00  0.00     0.115 A 
ENDROOT
BRANCH   1   7
ATOM      7  C   UNL     1      16.049  23.454   0.320  1.00  0.00     0.010 C 
ATOM      8  C   UNL     1      16.683  23.984   1.375  1.00  0.00     0.025 C 
BRANCH   8   9
ATOM      9  C   UNL     1      16.404  23.545   2.751  1.00  0.00     0.064 C 
ATOM     10  O   UNL     1      16.841  22.433   3.150  1.00  0.00    -0.545 OA
ATOM     11  O   UNL     1      15.661  24.336   3.620  1.00  0.00    -0.545 OA
ENDBRANCH   8   9
ENDBRANCH   1   7
BRANCH   6  12
ATOM     12  O   UNL     1      16.855  24.995  -5.102  1.00  0.00    -0.508 OA
ATOM     13  H   UNL     1      16.416  24.492  -5.864  1.00  0.00     0.293 HD
ENDBRANCH   6  12
TORSDOF 3
ENDMDL
MODEL 9
REMARK VINA RESULT:    -2.923      3.293      4.729
REMARK INTER + INTRA:          -3.494
REMARK INTER:                  -3.351
REMARK INTRA:                  -0.142
REMARK UNBOUND:                -0.144
REMARK SMILES O=C([O-])C=Cc1ccc(O)cc1
REMARK SMILES IDX 6 1 7 2 12 3 8 4 11 5 9 6 5 7 4 8 2 9 1 10 3 11 10 12
REMARK H PARENT 10 13
REMARK Flexibility Score: inf
ROOT
ATOM      1  C   UNL     1      16.318  23.769   1.069  1.00  0.00    -0.025 A 
ATOM      2  C   UNL     1      15.544  23.051   0.134  1.00  0.00     0.012 A 
ATOM      3  C   UNL     1      17.234  24.726   0.600  1.00  0.00     0.012 A 
ATOM      4  C   UNL     1      15.707  23.273  -1.237  1.00  0.00     0.047 A 
ATOM      5  C   UNL     1      17.393  24.944  -0.772  1.00  0.00     0.047 A 
ATOM      6  C   UNL     1      16.633  24.216  -1.694  1.00  0.00     0.115 A 
ENDROOT
BRANCH   1   7
ATOM      7  C   UNL     1      16.176  23.582   2.535  1.00  0.00     0.010 C 
ATOM      8  C   UNL     1      17.213  23.456   3.374  1.00  0.00     0.025 C 
BRANCH   8   9
ATOM      9  C   UNL     1      17.026  23.283   4.822  1.00  0.00     0.064 C 
ATOM     10  O   UNL     1      16.874  24.297   5.555  1.00  0.00    -0.545 OA
ATOM     11  O   UNL     1      17.016  22.018   5.399  1.00  0.00    -0.545 OA
ENDBRANCH   8   9
ENDBRANCH   1   7
BRANCH   6  12
ATOM     12  O   UNL     1      16.784  24.424  -3.064  1.00  0.00    -0.508 OA
ATOM     13  H   UNL     1      17.109  25.311  -3.431  1.00  0.00     0.293 HD
ENDBRANCH   6  12
TORSDOF 3
ENDMDL
