MODEL 1
REMARK VINA RESULT:    -4.349      0.000      0.000
REMARK INTER + INTRA:          -5.352
REMARK INTER:                  -5.112
REMARK INTRA:                  -0.240
REMARK UNBOUND:                -0.240
REMARK SMILES O=c1c(O)c(-c2ccc(O)cc2)oc2cc(O)cc(O)c12
REMARK SMILES IDX 5 1 3 2 2 3 1 4 21 5 19 6 18 7 16 8 15 9 14 10 13 11 6 12
REMARK SMILES IDX 7 13 8 14 9 15 12 16 11 17 10 18 4 20 20 22 17 24
REMARK H PARENT 10 19 4 21 20 23 17 25
REMARK Flexibility Score: inf
ROOT
ATOM      1  C   UNL     1      -6.103   8.210  -2.605  1.00  0.00     0.180 A 
ATOM      2  C   UNL     1      -7.390   8.361  -3.148  1.00  0.00     0.208 A 
ATOM      3  C   UNL     1      -8.248   9.330  -2.604  1.00  0.00     0.238 A 
ATOM      4  O   UNL     1      -9.418   9.424  -3.057  1.00  0.00    -0.285 OA
ATOM      5  C   UNL     1      -7.803  10.145  -1.534  1.00  0.00     0.111 A 
ATOM      6  C   UNL     1      -8.574  11.185  -0.933  1.00  0.00     0.134 A 
ATOM      7  C   UNL     1      -8.083  11.839   0.203  1.00  0.00     0.093 A 
ATOM      8  C   UNL     1      -6.823  11.538   0.720  1.00  0.00     0.123 A 
ATOM      9  C   UNL     1      -6.036  10.565   0.103  1.00  0.00     0.094 A 
ATOM     10  C   UNL     1      -6.514   9.869  -1.010  1.00  0.00     0.146 A 
ATOM     11  O   UNL     1      -5.737   8.944  -1.561  1.00  0.00    -0.452 OA
ENDROOT
BRANCH   1  12
ATOM     12  C   UNL     1      -5.132   7.227  -3.142  1.00  0.00     0.021 A 
ATOM     13  C   UNL     1      -4.901   5.998  -2.496  1.00  0.00     0.016 A 
ATOM     14  C   UNL     1      -3.999   5.077  -3.035  1.00  0.00     0.047 A 
ATOM     15  C   UNL     1      -3.327   5.364  -4.231  1.00  0.00     0.115 A 
ATOM     16  C   UNL     1      -4.471   7.498  -4.352  1.00  0.00     0.016 A 
ATOM     17  C   UNL     1      -3.568   6.574  -4.888  1.00  0.00     0.047 A 
BRANCH  15  18
ATOM     18  O   UNL     1      -2.424   4.453  -4.776  1.00  0.00    -0.508 OA
ATOM     19  H   UNL     1      -1.515   4.295  -4.359  1.00  0.00     0.293 HD
ENDBRANCH  15  18
ENDBRANCH   1  12
BRANCH   2  20
ATOM     20  O   UNL     1      -7.817   7.532  -4.189  1.00  0.00    -0.502 OA
ATOM     21  H   UNL     1      -8.793   7.308  -4.340  1.00  0.00     0.293 HD
ENDBRANCH   2  20
BRANCH   6  22
ATOM     22  O   UNL     1      -9.806  11.627  -1.424  1.00  0.00    -0.507 OA
ATOM     23  H   UNL     1     -10.175  11.403  -2.335  1.00  0.00     0.293 HD
ENDBRANCH   6  22
BRANCH   8  24
ATOM     24  O   UNL     1      -6.359  12.222   1.842  1.00  0.00    -0.508 OA
ATOM     25  H   UNL     1      -5.652  12.945   1.767  1.00  0.00     0.293 HD
ENDBRANCH   8  24
TORSDOF 5
ENDMDL
MODEL 2
REMARK VINA RESULT:    -4.312      4.410      8.627
REMARK INTER + INTRA:          -5.308
REMARK INTER:                  -5.112
REMARK INTRA:                  -0.196
REMARK UNBOUND:                -0.240
REMARK SMILES O=c1c(O)c(-c2ccc(O)cc2)oc2cc(O)cc(O)c12
REMARK SMILES IDX 5 1 3 2 2 3 1 4 21 5 19 6 18 7 16 8 15 9 14 10 13 11 6 12
REMARK SMILES IDX 7 13 8 14 9 15 12 16 11 17 10 18 4 20 20 22 17 24
REMARK H PARENT 10 19 4 21 20 23 17 25
REMARK Flexibility Score: inf
ROOT
ATOM      1  C   UNL     1      -3.833  13.065   2.318  1.00  0.00     0.180 A 
ATOM      2  C   UNL     1      -3.552  11.772   2.791  1.00  0.00     0.208 A 
ATOM      3  C   UNL     1      -4.140  10.670   2.150  1.00  0.00     0.238 A 
ATOM      4  O   UNL     1      -3.928   9.519   2.612  1.00  0.00    -0.285 OA
ATOM      5  C   UNL     1      -4.989  10.874   1.035  1.00  0.00     0.111 A 
ATOM      6  C   UNL     1      -5.606   9.827   0.285  1.00  0.00     0.134 A 
ATOM      7  C   UNL     1      -6.530  10.150  -0.716  1.00  0.00     0.093 A 
ATOM      8  C   UNL     1      -6.809  11.477  -1.040  1.00  0.00     0.123 A 
ATOM      9  C   UNL     1      -6.166  12.507  -0.353  1.00  0.00     0.094 A 
ATOM     10  C   UNL     1      -5.267  12.218   0.676  1.00  0.00     0.146 A 
ATOM     11  O   UNL     1      -4.684  13.228   1.312  1.00  0.00    -0.452 OA
ENDROOT
BRANCH   1  12
ATOM     12  C   UNL     1      -3.231  14.274   2.926  1.00  0.00     0.021 A 
ATOM     13  C   UNL     1      -3.624  14.727   4.199  1.00  0.00     0.016 A 
ATOM     14  C   UNL     1      -3.024  15.857   4.763  1.00  0.00     0.047 A 
ATOM     15  C   UNL     1      -2.017  16.540   4.069  1.00  0.00     0.115 A 
ATOM     16  C   UNL     1      -2.205  14.953   2.247  1.00  0.00     0.016 A 
ATOM     17  C   UNL     1      -1.608  16.083   2.813  1.00  0.00     0.047 A 
BRANCH  15  18
ATOM     18  O   UNL     1      -1.413  17.669   4.620  1.00  0.00    -0.508 OA
ATOM     19  H   UNL     1      -0.479  17.632   5.011  1.00  0.00     0.293 HD
ENDBRANCH  15  18
ENDBRANCH   1  12
BRANCH   2  20
ATOM     20  O   UNL     1      -2.729  11.595   3.907  1.00  0.00    -0.502 OA
ATOM     21  H   UNL     1      -2.908  10.886   4.607  1.00  0.00     0.293 HD
ENDBRANCH   2  20
BRANCH   6  22
ATOM     22  O   UNL     1      -5.328   8.469   0.465  1.00  0.00    -0.507 OA
ATOM     23  H   UNL     1      -6.022   7.739   0.486  1.00  0.00     0.293 HD
ENDBRANCH   6  22
BRANCH   8  24
ATOM     24  O   UNL     1      -7.721  11.760  -2.054  1.00  0.00    -0.508 OA
ATOM     25  H   UNL     1      -7.848  12.703  -2.405  1.00  0.00     0.293 HD
ENDBRANCH   8  24
TORSDOF 5
ENDMDL
MODEL 3
REMARK VINA RESULT:    -4.216      9.097     11.059
REMARK INTER + INTRA:          -5.196
REMARK INTER:                  -4.931
REMARK INTRA:                  -0.264
REMARK UNBOUND:                -0.240
REMARK SMILES O=c1c(O)c(-c2ccc(O)cc2)oc2cc(O)cc(O)c12
REMARK SMILES IDX 5 1 3 2 2 3 1 4 21 5 19 6 18 7 16 8 15 9 14 10 13 11 6 12
REMARK SMILES IDX 7 13 8 14 9 15 12 16 11 17 10 18 4 20 20 22 17 24
REMARK H PARENT 10 19 4 21 20 23 17 25
REMARK Flexibility Score: inf
ROOT
ATOM      1  C   UNL     1       3.068   6.259   2.133  1.00  0.00     0.180 A 
ATOM      2  C   UNL     1       2.212   7.360   2.308  1.00  0.00     0.208 A 
ATOM      3  C   UNL     1       0.872   7.131   2.661  1.00  0.00     0.238 A 
ATOM      4  O   UNL     1       0.097   8.117   2.763  1.00  0.00    -0.285 OA
ATOM      5  C   UNL     1       0.411   5.805   2.850  1.00  0.00     0.111 A 
ATOM      6  C   UNL     1      -0.916   5.459   3.248  1.00  0.00     0.134 A 
ATOM      7  C   UNL     1      -1.298   4.112   3.277  1.00  0.00     0.093 A 
ATOM      8  C   UNL     1      -0.386   3.098   2.988  1.00  0.00     0.123 A 
ATOM      9  C   UNL     1       0.930   3.424   2.657  1.00  0.00     0.094 A 
ATOM     10  C   UNL     1       1.331   4.759   2.583  1.00  0.00     0.146 A 
ATOM     11  O   UNL     1       2.590   5.026   2.254  1.00  0.00    -0.452 OA
ENDROOT
BRANCH   1  12
ATOM     12  C   UNL     1       4.499   6.422   1.786  1.00  0.00     0.021 A 
ATOM     13  C   UNL     1       5.507   6.316   2.762  1.00  0.00     0.016 A 
ATOM     14  C   UNL     1       6.852   6.449   2.405  1.00  0.00     0.047 A 
ATOM     15  C   UNL     1       7.208   6.675   1.069  1.00  0.00     0.115 A 
ATOM     16  C   UNL     1       4.866   6.627   0.445  1.00  0.00     0.016 A 
ATOM     17  C   UNL     1       6.213   6.760   0.092  1.00  0.00     0.047 A 
BRANCH  15  18
ATOM     18  O   UNL     1       8.546   6.810   0.703  1.00  0.00    -0.508 OA
ATOM     19  H   UNL     1       8.847   6.687  -0.256  1.00  0.00     0.293 HD
ENDBRANCH  15  18
ENDBRANCH   1  12
BRANCH   2  20
ATOM     20  O   UNL     1       2.683   8.659   2.095  1.00  0.00    -0.502 OA
ATOM     21  H   UNL     1       3.663   8.900   2.170  1.00  0.00     0.293 HD
ENDBRANCH   2  20
BRANCH   6  22
ATOM     22  O   UNL     1      -1.880   6.390   3.647  1.00  0.00    -0.507 OA
ATOM     23  H   UNL     1      -1.681   7.337   3.928  1.00  0.00     0.293 HD
ENDBRANCH   6  22
BRANCH   8  24
ATOM     24  O   UNL     1      -0.796   1.768   3.044  1.00  0.00    -0.508 OA
ATOM     25  H   UNL     1      -1.514   1.409   2.425  1.00  0.00     0.293 HD
ENDBRANCH   8  24
TORSDOF 5
ENDMDL
MODEL 4
REMARK VINA RESULT:    -4.200      4.628      7.750
REMARK INTER + INTRA:          -5.176
REMARK INTER:                  -4.890
REMARK INTRA:                  -0.286
REMARK UNBOUND:                -0.240
REMARK SMILES O=c1c(O)c(-c2ccc(O)cc2)oc2cc(O)cc(O)c12
REMARK SMILES IDX 5 1 3 2 2 3 1 4 21 5 19 6 18 7 16 8 15 9 14 10 13 11 6 12
REMARK SMILES IDX 7 13 8 14 9 15 12 16 11 17 10 18 4 20 20 22 17 24
REMARK H PARENT 10 19 4 21 20 23 17 25
REMARK Flexibility Score: inf
ROOT
ATOM      1  C   UNL     1      -4.780  11.893   1.752  1.00  0.00     0.180 A 
ATOM      2  C   UNL     1      -4.022  10.756   2.084  1.00  0.00     0.208 A 
ATOM      3  C   UNL     1      -2.870  10.912   2.871  1.00  0.00     0.238 A 
ATOM      4  O   UNL     1      -2.167   9.899   3.120  1.00  0.00    -0.285 OA
ATOM      5  C   UNL     1      -2.499  12.200   3.329  1.00  0.00     0.111 A 
ATOM      6  C   UNL     1      -1.374  12.469   4.165  1.00  0.00     0.134 A 
ATOM      7  C   UNL     1      -1.027  13.795   4.448  1.00  0.00     0.093 A 
ATOM      8  C   UNL     1      -1.799  14.858   3.982  1.00  0.00     0.123 A 
ATOM      9  C   UNL     1      -2.935  14.604   3.213  1.00  0.00     0.094 A 
ATOM     10  C   UNL     1      -3.287  13.293   2.883  1.00  0.00     0.146 A 
ATOM     11  O   UNL     1      -4.370  13.094   2.141  1.00  0.00    -0.452 OA
ENDROOT
BRANCH   1  12
ATOM     12  C   UNL     1      -6.020  11.805   0.947  1.00  0.00     0.021 A 
ATOM     13  C   UNL     1      -7.286  11.731   1.557  1.00  0.00     0.016 A 
ATOM     14  C   UNL     1      -8.444  11.673   0.776  1.00  0.00     0.047 A 
ATOM     15  C   UNL     1      -8.354  11.703  -0.621  1.00  0.00     0.115 A 
ATOM     16  C   UNL     1      -5.941  11.856  -0.455  1.00  0.00     0.016 A 
ATOM     17  C   UNL     1      -7.101  11.798  -1.233  1.00  0.00     0.047 A 
BRANCH  15  18
ATOM     18  O   UNL     1      -9.502  11.645  -1.409  1.00  0.00    -0.508 OA
ATOM     19  H   UNL     1     -10.202  10.927  -1.273  1.00  0.00     0.293 HD
ENDBRANCH  15  18
ENDBRANCH   1  12
BRANCH   2  20
ATOM     20  O   UNL     1      -4.395   9.497   1.604  1.00  0.00    -0.502 OA
ATOM     21  H   UNL     1      -3.868   9.011   0.889  1.00  0.00     0.293 HD
ENDBRANCH   2  20
BRANCH   6  22
ATOM     22  O   UNL     1      -0.588  11.477   4.760  1.00  0.00    -0.507 OA
ATOM     23  H   UNL     1       0.399  11.561   4.946  1.00  0.00     0.293 HD
ENDBRANCH   6  22
BRANCH   8  24
ATOM     24  O   UNL     1      -1.433  16.165   4.298  1.00  0.00    -0.508 OA
ATOM     25  H   UNL     1      -1.484  16.514   5.248  1.00  0.00     0.293 HD
ENDBRANCH   8  24
TORSDOF 5
ENDMDL
MODEL 5
REMARK VINA RESULT:    -4.194      4.975      6.855
REMARK INTER + INTRA:          -5.170
REMARK INTER:                  -4.893
REMARK INTRA:                  -0.277
REMARK UNBOUND:                -0.240
REMARK SMILES O=c1c(O)c(-c2ccc(O)cc2)oc2cc(O)cc(O)c12
REMARK SMILES IDX 5 1 3 2 2 3 1 4 21 5 19 6 18 7 16 8 15 9 14 10 13 11 6 12
REMARK SMILES IDX 7 13 8 14 9 15 12 16 11 17 10 18 4 20 20 22 17 24
REMARK H PARENT 10 19 4 21 20 23 17 25
REMARK Flexibility Score: inf
ROOT
ATOM      1  C   UNL     1      -5.347  12.245   1.713  1.00  0.00     0.180 A 
ATOM      2  C   UNL     1      -5.452  12.256   0.312  1.00  0.00     0.208 A 
ATOM      3  C   UNL     1      -6.703  12.014  -0.280  1.00  0.00     0.238 A 
ATOM      4  O   UNL     1      -6.780  11.972  -1.535  1.00  0.00    -0.285 OA
ATOM      5  C   UNL     1      -7.835  11.780   0.538  1.00  0.00     0.111 A 
ATOM      6  C   UNL     1      -9.158  11.563   0.047  1.00  0.00     0.134 A 
ATOM      7  C   UNL     1     -10.176  11.211   0.941  1.00  0.00     0.093 A 
ATOM      8  C   UNL     1      -9.936  11.133   2.313  1.00  0.00     0.123 A 
ATOM      9  C   UNL     1      -8.660  11.401   2.809  1.00  0.00     0.094 A 
ATOM     10  C   UNL     1      -7.615  11.719   1.939  1.00  0.00     0.146 A 
ATOM     11  O   UNL     1      -6.413  11.957   2.451  1.00  0.00    -0.452 OA
ENDROOT
BRANCH   1  12
ATOM     12  C   UNL     1      -4.068  12.516   2.409  1.00  0.00     0.021 A 
ATOM     13  C   UNL     1      -3.602  13.830   2.601  1.00  0.00     0.016 A 
ATOM     14  C   UNL     1      -2.404  14.062   3.283  1.00  0.00     0.047 A 
ATOM     15  C   UNL     1      -1.665  12.988   3.793  1.00  0.00     0.115 A 
ATOM     16  C   UNL     1      -3.331  11.446   2.944  1.00  0.00     0.016 A 
ATOM     17  C   UNL     1      -2.132  11.682   3.625  1.00  0.00     0.047 A 
BRANCH  15  18
ATOM     18  O   UNL     1      -0.468  13.208   4.474  1.00  0.00    -0.508 OA
ATOM     19  H   UNL     1      -0.443  13.717   5.349  1.00  0.00     0.293 HD
ENDBRANCH  15  18
ENDBRANCH   1  12
BRANCH   2  20
ATOM     20  O   UNL     1      -4.317  12.469  -0.477  1.00  0.00    -0.502 OA
ATOM     21  H   UNL     1      -3.605  13.145  -0.233  1.00  0.00     0.293 HD
ENDBRANCH   2  20
BRANCH   6  22
ATOM     22  O   UNL     1      -9.526  11.706  -1.294  1.00  0.00    -0.507 OA
ATOM     23  H   UNL     1     -10.451  11.540  -1.656  1.00  0.00     0.293 HD
ENDBRANCH   6  22
BRANCH   8  24
ATOM     24  O   UNL     1     -10.978  10.796   3.174  1.00  0.00    -0.508 OA
ATOM     25  H   UNL     1     -11.354   9.856   3.208  1.00  0.00     0.293 HD
ENDBRANCH   8  24
TORSDOF 5
ENDMDL
MODEL 6
REMARK VINA RESULT:    -4.186      1.848      7.118
REMARK INTER + INTRA:          -5.160
REMARK INTER:                  -4.861
REMARK INTRA:                  -0.299
REMARK UNBOUND:                -0.240
REMARK SMILES O=c1c(O)c(-c2ccc(O)cc2)oc2cc(O)cc(O)c12
REMARK SMILES IDX 5 1 3 2 2 3 1 4 21 5 19 6 18 7 16 8 15 9 14 10 13 11 6 12
REMARK SMILES IDX 7 13 8 14 9 15 12 16 11 17 10 18 4 20 20 22 17 24
REMARK H PARENT 10 19 4 21 20 23 17 25
REMARK Flexibility Score: inf
ROOT
ATOM      1  C   UNL     1      -6.343   8.220  -3.171  1.00  0.00     0.180 A 
ATOM      2  C   UNL     1      -5.811   7.195  -2.370  1.00  0.00     0.208 A 
ATOM      3  C   UNL     1      -4.807   6.369  -2.900  1.00  0.00     0.238 A 
ATOM      4  O   UNL     1      -4.372   5.419  -2.199  1.00  0.00    -0.285 OA
ATOM      5  C   UNL     1      -4.337   6.589  -4.218  1.00  0.00     0.111 A 
ATOM      6  C   UNL     1      -3.295   5.839  -4.843  1.00  0.00     0.134 A 
ATOM      7  C   UNL     1      -3.003   6.057  -6.194  1.00  0.00     0.093 A 
ATOM      8  C   UNL     1      -3.666   7.042  -6.925  1.00  0.00     0.123 A 
ATOM      9  C   UNL     1      -4.645   7.822  -6.308  1.00  0.00     0.094 A 
ATOM     10  C   UNL     1      -4.985   7.602  -4.971  1.00  0.00     0.146 A 
ATOM     11  O   UNL     1      -5.929   8.360  -4.424  1.00  0.00    -0.452 OA
ENDROOT
BRANCH   1  12
ATOM     12  C   UNL     1      -7.386   9.147  -2.673  1.00  0.00     0.021 A 
ATOM     13  C   UNL     1      -7.050  10.329  -1.988  1.00  0.00     0.016 A 
ATOM     14  C   UNL     1      -8.051  11.201  -1.550  1.00  0.00     0.047 A 
ATOM     15  C   UNL     1      -9.398  10.910  -1.801  1.00  0.00     0.115 A 
ATOM     16  C   UNL     1      -8.739   8.874  -2.939  1.00  0.00     0.016 A 
ATOM     17  C   UNL     1      -9.738   9.748  -2.499  1.00  0.00     0.047 A 
BRANCH  15  18
ATOM     18  O   UNL     1     -10.404  11.771  -1.367  1.00  0.00    -0.508 OA
ATOM     19  H   UNL     1     -11.377  11.602  -1.589  1.00  0.00     0.293 HD
ENDBRANCH  15  18
ENDBRANCH   1  12
BRANCH   2  20
ATOM     20  O   UNL     1      -6.304   6.982  -1.080  1.00  0.00    -0.502 OA
ATOM     21  H   UNL     1      -6.233   7.679  -0.349  1.00  0.00     0.293 HD
ENDBRANCH   2  20
BRANCH   6  22
ATOM     22  O   UNL     1      -2.507   4.895  -4.178  1.00  0.00    -0.507 OA
ATOM     23  H   UNL     1      -2.383   4.852  -3.178  1.00  0.00     0.293 HD
ENDBRANCH   6  22
BRANCH   8  24
ATOM     24  O   UNL     1      -3.337   7.243  -8.264  1.00  0.00    -0.508 OA
ATOM     25  H   UNL     1      -3.410   6.496  -8.946  1.00  0.00     0.293 HD
ENDBRANCH   8  24
TORSDOF 5
ENDMDL
MODEL 7
REMARK VINA RESULT:    -4.171      9.398     11.053
REMARK INTER + INTRA:          -5.142
REMARK INTER:                  -4.865
REMARK INTRA:                  -0.278
REMARK UNBOUND:                -0.240
REMARK SMILES O=c1c(O)c(-c2ccc(O)cc2)oc2cc(O)cc(O)c12
REMARK SMILES IDX 5 1 3 2 2 3 1 4 21 5 19 6 18 7 16 8 15 9 14 10 13 11 6 12
REMARK SMILES IDX 7 13 8 14 9 15 12 16 11 17 10 18 4 20 20 22 17 24
REMARK H PARENT 10 19 4 21 20 23 17 25
REMARK Flexibility Score: inf
ROOT
ATOM      1  C   UNL     1      -1.384   2.108   3.108  1.00  0.00     0.180 A 
ATOM      2  C   UNL     1      -0.758   1.840   4.337  1.00  0.00     0.208 A 
ATOM      3  C   UNL     1       0.411   2.542   4.673  1.00  0.00     0.238 A 
ATOM      4  O   UNL     1       0.997   2.259   5.750  1.00  0.00    -0.285 OA
ATOM      5  C   UNL     1       0.929   3.514   3.783  1.00  0.00     0.111 A 
ATOM      6  C   UNL     1       2.084   4.313   4.039  1.00  0.00     0.134 A 
ATOM      7  C   UNL     1       2.581   5.149   3.033  1.00  0.00     0.093 A 
ATOM      8  C   UNL     1       1.931   5.265   1.805  1.00  0.00     0.123 A 
ATOM      9  C   UNL     1       0.767   4.533   1.566  1.00  0.00     0.094 A 
ATOM     10  C   UNL     1       0.267   3.663   2.537  1.00  0.00     0.146 A 
ATOM     11  O   UNL     1      -0.838   2.978   2.266  1.00  0.00    -0.452 OA
ENDROOT
BRANCH   1  12
ATOM     12  C   UNL     1      -2.633   1.427   2.695  1.00  0.00     0.021 A 
ATOM     13  C   UNL     1      -3.891   2.029   2.877  1.00  0.00     0.016 A 
ATOM     14  C   UNL     1      -5.055   1.377   2.457  1.00  0.00     0.047 A 
ATOM     15  C   UNL     1      -4.974   0.123   1.838  1.00  0.00     0.115 A 
ATOM     16  C   UNL     1      -2.561   0.178   2.053  1.00  0.00     0.016 A 
ATOM     17  C   UNL     1      -3.726  -0.472   1.635  1.00  0.00     0.047 A 
BRANCH  15  18
ATOM     18  O   UNL     1      -6.127  -0.537   1.416  1.00  0.00    -0.508 OA
ATOM     19  H   UNL     1      -6.727  -1.025   2.070  1.00  0.00     0.293 HD
ENDBRANCH  15  18
ENDBRANCH   1  12
BRANCH   2  20
ATOM     20  O   UNL     1      -1.275   0.861   5.191  1.00  0.00    -0.502 OA
ATOM     21  H   UNL     1      -1.893   1.083   5.962  1.00  0.00     0.293 HD
ENDBRANCH   2  20
BRANCH   6  22
ATOM     22  O   UNL     1       2.757   4.342   5.264  1.00  0.00    -0.507 OA
ATOM     23  H   UNL     1       2.617   3.681   6.012  1.00  0.00     0.293 HD
ENDBRANCH   6  22
BRANCH   8  24
ATOM     24  O   UNL     1       2.445   6.120   0.833  1.00  0.00    -0.508 OA
ATOM     25  H   UNL     1       3.419   6.400   0.835  1.00  0.00     0.293 HD
ENDBRANCH   8  24
TORSDOF 5
ENDMDL
MODEL 8
REMARK VINA RESULT:    -4.118     10.077     11.591
REMARK INTER + INTRA:          -5.080
REMARK INTER:                  -4.795
REMARK INTRA:                  -0.285
REMARK UNBOUND:                -0.240
REMARK SMILES O=c1c(O)c(-c2ccc(O)cc2)oc2cc(O)cc(O)c12
REMARK SMILES IDX 5 1 3 2 2 3 1 4 21 5 19 6 18 7 16 8 15 9 14 10 13 11 6 12
REMARK SMILES IDX 7 13 8 14 9 15 12 16 11 17 10 18 4 20 20 22 17 24
REMARK H PARENT 10 19 4 21 20 23 17 25
REMARK Flexibility Score: inf
ROOT
ATOM      1  C   UNL     1       3.019   6.449   2.378  1.00  0.00     0.180 A 
ATOM      2  C   UNL     1       4.246   6.296   1.711  1.00  0.00     0.208 A 
ATOM      3  C   UNL     1       5.044   7.429   1.484  1.00  0.00     0.238 A 
ATOM      4  O   UNL     1       6.116   7.294   0.839  1.00  0.00    -0.285 OA
ATOM      5  C   UNL     1       4.611   8.698   1.940  1.00  0.00     0.111 A 
ATOM      6  C   UNL     1       5.357   9.907   1.800  1.00  0.00     0.134 A 
ATOM      7  C   UNL     1       4.774  11.124   2.171  1.00  0.00     0.093 A 
ATOM      8  C   UNL     1       3.501  11.171   2.737  1.00  0.00     0.123 A 
ATOM      9  C   UNL     1       2.786   9.988   2.933  1.00  0.00     0.094 A 
ATOM     10  C   UNL     1       3.326   8.762   2.540  1.00  0.00     0.146 A 
ATOM     11  O   UNL     1       2.610   7.661   2.735  1.00  0.00    -0.452 OA
ENDROOT
BRANCH   1  12
ATOM     12  C   UNL     1       2.135   5.298   2.675  1.00  0.00     0.021 A 
ATOM     13  C   UNL     1       1.193   4.835   1.737  1.00  0.00     0.016 A 
ATOM     14  C   UNL     1       0.387   3.732   2.031  1.00  0.00     0.047 A 
ATOM     15  C   UNL     1       0.520   3.069   3.259  1.00  0.00     0.115 A 
ATOM     16  C   UNL     1       2.276   4.614   3.895  1.00  0.00     0.016 A 
ATOM     17  C   UNL     1       1.467   3.511   4.186  1.00  0.00     0.047 A 
BRANCH  15  18
ATOM     18  O   UNL     1      -0.280   1.969   3.563  1.00  0.00    -0.508 OA
ATOM     19  H   UNL     1      -0.454   1.238   2.885  1.00  0.00     0.293 HD
ENDBRANCH  15  18
ENDBRANCH   1  12
BRANCH   2  20
ATOM     20  O   UNL     1       4.644   5.037   1.250  1.00  0.00    -0.502 OA
ATOM     21  H   UNL     1       5.068   4.901   0.341  1.00  0.00     0.293 HD
ENDBRANCH   2  20
BRANCH   6  22
ATOM     22  O   UNL     1       6.673   9.962   1.331  1.00  0.00    -0.507 OA
ATOM     23  H   UNL     1       7.263   9.158   1.179  1.00  0.00     0.293 HD
ENDBRANCH   6  22
BRANCH   8  24
ATOM     24  O   UNL     1       2.959  12.399   3.110  1.00  0.00    -0.508 OA
ATOM     25  H   UNL     1       2.047  12.697   2.782  1.00  0.00     0.293 HD
ENDBRANCH   8  24
TORSDOF 5
ENDMDL
MODEL 9
REMARK VINA RESULT:    -3.973      9.215     11.760
REMARK INTER + INTRA:          -4.910
REMARK INTER:                  -4.617
REMARK INTRA:                  -0.293
REMARK UNBOUND:                -0.240
REMARK SMILES O=c1c(O)c(-c2ccc(O)cc2)oc2cc(O)cc(O)c12
REMARK SMILES IDX 5 1 3 2 2 3 1 4 21 5 19 6 18 7 16 8 15 9 14 10 13 11 6 12
REMARK SMILES IDX 7 13 8 14 9 15 12 16 11 17 10 18 4 20 20 22 17 24
REMARK H PARENT 10 19 4 21 20 23 17 25
REMARK Flexibility Score: inf
ROOT
ATOM      1  C   UNL     1      -0.241   3.323   3.549  1.00  0.00     0.180 A 
ATOM      2  C   UNL     1      -1.474   2.868   3.054  1.00  0.00     0.208 A 
ATOM      3  C   UNL     1      -1.960   1.620   3.478  1.00  0.00     0.238 A 
ATOM      4  O   UNL     1      -3.038   1.194   2.989  1.00  0.00    -0.285 OA
ATOM      5  C   UNL     1      -1.213   0.851   4.403  1.00  0.00     0.111 A 
ATOM      6  C   UNL     1      -1.628  -0.409   4.931  1.00  0.00     0.134 A 
ATOM      7  C   UNL     1      -0.750  -1.141   5.738  1.00  0.00     0.093 A 
ATOM      8  C   UNL     1       0.500  -0.634   6.090  1.00  0.00     0.123 A 
ATOM      9  C   UNL     1       0.891   0.624   5.628  1.00  0.00     0.094 A 
ATOM     10  C   UNL     1       0.053   1.363   4.791  1.00  0.00     0.146 A 
ATOM     11  O   UNL     1       0.468   2.550   4.365  1.00  0.00    -0.452 OA
ENDROOT
BRANCH   1  12
ATOM     12  C   UNL     1       0.325   4.638   3.169  1.00  0.00     0.021 A 
ATOM     13  C   UNL     1       0.084   5.790   3.940  1.00  0.00     0.016 A 
ATOM     14  C   UNL     1       0.648   7.016   3.574  1.00  0.00     0.047 A 
ATOM     15  C   UNL     1       1.470   7.103   2.443  1.00  0.00     0.115 A 
ATOM     16  C   UNL     1       1.168   4.731   2.048  1.00  0.00     0.016 A 
ATOM     17  C   UNL     1       1.730   5.959   1.685  1.00  0.00     0.047 A 
BRANCH  15  18
ATOM     18  O   UNL     1       2.037   8.320   2.069  1.00  0.00    -0.508 OA
ATOM     19  H   UNL     1       2.999   8.383   1.760  1.00  0.00     0.293 HD
ENDBRANCH  15  18
ENDBRANCH   1  12
BRANCH   2  20
ATOM     20  O   UNL     1      -2.185   3.634   2.125  1.00  0.00    -0.502 OA
ATOM     21  H   UNL     1      -3.161   3.466   1.916  1.00  0.00     0.293 HD
ENDBRANCH   2  20
BRANCH   6  22
ATOM     22  O   UNL     1      -2.892  -0.966   4.716  1.00  0.00    -0.507 OA
ATOM     23  H   UNL     1      -3.372  -1.570   5.366  1.00  0.00     0.293 HD
ENDBRANCH   6  22
BRANCH   8  24
ATOM     24  O   UNL     1       1.341  -1.383   6.909  1.00  0.00    -0.508 OA
ATOM     25  H   UNL     1       1.115  -2.337   7.168  1.00  0.00     0.293 HD
ENDBRANCH   8  24
TORSDOF 5
ENDMDL
