MODEL 1
REMARK VINA RESULT:    -4.842      0.000      0.000
REMARK INTER + INTRA:         -13.563
REMARK INTER:                 -10.503
REMARK INTRA:                  -3.060
REMARK UNBOUND:                -3.060
REMARK SMILES CCCCCCCCCCCCCCCCCCCCCC(=O)[O-]
REMARK SMILES IDX 12 1 11 2 10 3 9 4 8 5 7 6 6 7 5 8 4 9 3 10 2 11 1 12 13 13
REMARK SMILES IDX 14 14 15 15 16 16 17 17 18 18 19 19 20 20 21 21 22 22 23 23
REMARK SMILES IDX 24 24
REMARK H PARENT
REMARK Flexibility Score: inf
ROOT
ATOM      1  C   UNL     1     187.626 192.638 191.753  1.00  0.00     0.000 C 
ENDROOT
BRANCH   1   2
ATOM      2  C   UNL     1     187.759 192.934 193.259  1.00  0.00     0.000 C 
BRANCH   2   3
ATOM      3  C   UNL     1     188.520 194.225 193.611  1.00  0.00     0.000 C 
BRANCH   3   4
ATOM      4  C   UNL     1     189.533 194.030 194.752  1.00  0.00    -0.000 C 
BRANCH   4   5
ATOM      5  C   UNL     1     189.242 194.943 195.955  1.00  0.00    -0.000 C 
BRANCH   5   6
ATOM      6  C   UNL     1     188.833 196.363 195.524  1.00  0.00    -0.000 C 
BRANCH   6   7
ATOM      7  C   UNL     1     187.460 196.775 196.081  1.00  0.00    -0.000 C 
BRANCH   7   8
ATOM      8  C   UNL     1     186.731 195.615 196.782  1.00  0.00    -0.000 C 
BRANCH   8   9
ATOM      9  C   UNL     1     185.389 195.276 196.099  1.00  0.00    -0.000 C 
BRANCH   9  10
ATOM     10  C   UNL     1     185.311 195.734 194.632  1.00  0.00    -0.000 C 
BRANCH  10  11
ATOM     11  C   UNL     1     184.461 194.800 193.760  1.00  0.00    -0.003 C 
ATOM     12  C   UNL     1     183.013 195.279 193.689  1.00  0.00     0.004 C 
ENDBRANCH  10  11
ENDBRANCH   9  10
ENDBRANCH   8   9
ENDBRANCH   7   8
ENDBRANCH   6   7
ENDBRANCH   5   6
ENDBRANCH   4   5
ENDBRANCH   3   4
ENDBRANCH   2   3
ENDBRANCH   1   2
BRANCH   1  13
ATOM     13  C   UNL     1     188.893 192.006 191.154  1.00  0.00     0.000 C 
BRANCH  13  14
ATOM     14  C   UNL     1     189.766 191.299 192.207  1.00  0.00     0.000 C 
BRANCH  14  15
ATOM     15  C   UNL     1     191.279 191.580 192.105  1.00  0.00     0.000 C 
BRANCH  15  16
ATOM     16  C   UNL     1     191.749 192.159 190.756  1.00  0.00     0.000 C 
BRANCH  16  17
ATOM     17  C   UNL     1     192.475 193.513 190.851  1.00  0.00     0.000 C 
BRANCH  17  18
ATOM     18  C   UNL     1     191.894 194.425 191.941  1.00  0.00     0.000 C 
BRANCH  18  19
ATOM     19  C   UNL     1     191.463 195.775 191.355  1.00  0.00     0.000 C 
BRANCH  19  20
ATOM     20  C   UNL     1     191.063 196.756 192.468  1.00  0.00     0.006 C 
BRANCH  20  21
ATOM     21  C   UNL     1     191.071 198.214 191.990  1.00  0.00     0.053 C 
BRANCH  21  22
ATOM     22  C   UNL     1     192.341 198.916 192.361  1.00  0.00     0.041 C 
ATOM     23  O   UNL     1     192.701 199.947 191.735  1.00  0.00    -0.550 OA
ATOM     24  O   UNL     1     193.149 198.405 193.370  1.00  0.00    -0.550 OA
ENDBRANCH  21  22
ENDBRANCH  20  21
ENDBRANCH  19  20
ENDBRANCH  18  19
ENDBRANCH  17  18
ENDBRANCH  16  17
ENDBRANCH  15  16
ENDBRANCH  14  15
ENDBRANCH  13  14
ENDBRANCH   1  13
TORSDOF 20
ENDMDL
MODEL 2
REMARK VINA RESULT:    -4.664      2.302      6.047
REMARK INTER + INTRA:         -13.177
REMARK INTER:                 -10.333
REMARK INTRA:                  -2.844
REMARK UNBOUND:                -3.060
REMARK SMILES CCCCCCCCCCCCCCCCCCCCCC(=O)[O-]
REMARK SMILES IDX 12 1 11 2 10 3 9 4 8 5 7 6 6 7 5 8 4 9 3 10 2 11 1 12 13 13
REMARK SMILES IDX 14 14 15 15 16 16 17 17 18 18 19 19 20 20 21 21 22 22 23 23
REMARK SMILES IDX 24 24
REMARK H PARENT
REMARK Flexibility Score: inf
ROOT
ATOM      1  C   UNL     1     185.710 195.870 195.201  1.00  0.00     0.000 C 
ENDROOT
BRANCH   1   2
ATOM      2  C   UNL     1     184.291 195.655 194.642  1.00  0.00     0.000 C 
BRANCH   2   3
ATOM      3  C   UNL     1     184.179 194.610 193.517  1.00  0.00     0.000 C 
BRANCH   3   4
ATOM      4  C   UNL     1     185.281 193.538 193.584  1.00  0.00    -0.000 C 
BRANCH   4   5
ATOM      5  C   UNL     1     186.244 193.616 192.388  1.00  0.00    -0.000 C 
BRANCH   5   6
ATOM      6  C   UNL     1     186.801 192.235 191.996  1.00  0.00    -0.000 C 
BRANCH   6   7
ATOM      7  C   UNL     1     188.245 192.024 192.482  1.00  0.00    -0.000 C 
BRANCH   7   8
ATOM      8  C   UNL     1     189.272 192.813 191.650  1.00  0.00    -0.000 C 
BRANCH   8   9
ATOM      9  C   UNL     1     190.705 192.661 192.203  1.00  0.00    -0.000 C 
BRANCH   9  10
ATOM     10  C   UNL     1     191.800 192.888 191.147  1.00  0.00    -0.000 C 
BRANCH  10  11
ATOM     11  C   UNL     1     192.622 194.160 191.403  1.00  0.00    -0.003 C 
ATOM     12  C   UNL     1     191.781 195.414 191.171  1.00  0.00     0.004 C 
ENDBRANCH  10  11
ENDBRANCH   9  10
ENDBRANCH   8   9
ENDBRANCH   7   8
ENDBRANCH   6   7
ENDBRANCH   5   6
ENDBRANCH   4   5
ENDBRANCH   3   4
ENDBRANCH   2   3
ENDBRANCH   1   2
BRANCH   1  13
ATOM     13  C   UNL     1     185.892 195.290 196.613  1.00  0.00     0.000 C 
BRANCH  13  14
ATOM     14  C   UNL     1     187.311 194.746 196.858  1.00  0.00     0.000 C 
BRANCH  14  15
ATOM     15  C   UNL     1     187.973 194.062 195.645  1.00  0.00     0.000 C 
BRANCH  15  16
ATOM     16  C   UNL     1     189.408 194.527 195.330  1.00  0.00     0.000 C 
BRANCH  16  17
ATOM     17  C   UNL     1     189.525 195.519 194.159  1.00  0.00     0.000 C 
BRANCH  17  18
ATOM     18  C   UNL     1     190.034 196.900 194.596  1.00  0.00     0.000 C 
BRANCH  18  19
ATOM     19  C   UNL     1     188.884 197.770 195.116  1.00  0.00     0.000 C 
BRANCH  19  20
ATOM     20  C   UNL     1     188.828 197.751 196.651  1.00  0.00     0.006 C 
BRANCH  20  21
ATOM     21  C   UNL     1     190.150 198.202 197.288  1.00  0.00     0.053 C 
BRANCH  21  22
ATOM     22  C   UNL     1     190.049 199.583 197.859  1.00  0.00     0.041 C 
ATOM     23  O   UNL     1     188.936 200.031 198.243  1.00  0.00    -0.550 OA
ATOM     24  O   UNL     1     191.177 200.392 197.930  1.00  0.00    -0.550 OA
ENDBRANCH  21  22
ENDBRANCH  20  21
ENDBRANCH  19  20
ENDBRANCH  18  19
ENDBRANCH  17  18
ENDBRANCH  16  17
ENDBRANCH  15  16
ENDBRANCH  14  15
ENDBRANCH  13  14
ENDBRANCH   1  13
TORSDOF 20
ENDMDL
MODEL 3
REMARK VINA RESULT:    -4.634      1.565      5.882
REMARK INTER + INTRA:         -13.114
REMARK INTER:                  -9.723
REMARK INTRA:                  -3.391
REMARK UNBOUND:                -3.060
REMARK SMILES CCCCCCCCCCCCCCCCCCCCCC(=O)[O-]
REMARK SMILES IDX 12 1 11 2 10 3 9 4 8 5 7 6 6 7 5 8 4 9 3 10 2 11 1 12 13 13
REMARK SMILES IDX 14 14 15 15 16 16 17 17 18 18 19 19 20 20 21 21 22 22 23 23
REMARK SMILES IDX 24 24
REMARK H PARENT
REMARK Flexibility Score: inf
ROOT
ATOM      1  C   UNL     1     185.686 194.252 193.535  1.00  0.00     0.000 C 
ENDROOT
BRANCH   1   2
ATOM      2  C   UNL     1     185.984 192.902 194.213  1.00  0.00     0.000 C 
BRANCH   2   3
ATOM      3  C   UNL     1     185.215 191.696 193.644  1.00  0.00     0.000 C 
BRANCH   3   4
ATOM      4  C   UNL     1     186.142 190.620 193.053  1.00  0.00    -0.000 C 
BRANCH   4   5
ATOM      5  C   UNL     1     186.029 190.529 191.522  1.00  0.00    -0.000 C 
BRANCH   5   6
ATOM      6  C   UNL     1     187.366 190.826 190.819  1.00  0.00    -0.000 C 
BRANCH   6   7
ATOM      7  C   UNL     1     187.740 192.316 190.871  1.00  0.00    -0.000 C 
BRANCH   7   8
ATOM      8  C   UNL     1     188.894 192.606 191.848  1.00  0.00    -0.000 C 
BRANCH   8   9
ATOM      9  C   UNL     1     189.724 191.341 192.156  1.00  0.00    -0.000 C 
BRANCH   9  10
ATOM     10  C   UNL     1     191.211 191.475 191.784  1.00  0.00    -0.000 C 
BRANCH  10  11
ATOM     11  C   UNL     1     191.488 192.663 190.852  1.00  0.00    -0.003 C 
ATOM     12  C   UNL     1     192.787 193.370 191.234  1.00  0.00     0.004 C 
ENDBRANCH  10  11
ENDBRANCH   9  10
ENDBRANCH   8   9
ENDBRANCH   7   8
ENDBRANCH   6   7
ENDBRANCH   5   6
ENDBRANCH   4   5
ENDBRANCH   3   4
ENDBRANCH   2   3
ENDBRANCH   1   2
BRANCH   1  13
ATOM     13  C   UNL     1     185.576 195.414 194.536  1.00  0.00     0.000 C 
BRANCH  13  14
ATOM     14  C   UNL     1     185.317 194.939 195.978  1.00  0.00     0.000 C 
BRANCH  14  15
ATOM     15  C   UNL     1     186.367 195.381 197.016  1.00  0.00     0.000 C 
BRANCH  15  16
ATOM     16  C   UNL     1     187.753 195.733 196.440  1.00  0.00     0.000 C 
BRANCH  16  17
ATOM     17  C   UNL     1     188.813 194.625 196.580  1.00  0.00     0.000 C 
BRANCH  17  18
ATOM     18  C   UNL     1     189.513 194.299 195.254  1.00  0.00     0.000 C 
BRANCH  18  19
ATOM     19  C   UNL     1     189.273 195.405 194.220  1.00  0.00     0.000 C 
BRANCH  19  20
ATOM     20  C   UNL     1     190.519 195.622 193.346  1.00  0.00     0.006 C 
BRANCH  20  21
ATOM     21  C   UNL     1     190.993 197.081 193.360  1.00  0.00     0.053 C 
BRANCH  21  22
ATOM     22  C   UNL     1     191.412 197.543 191.998  1.00  0.00     0.041 C 
ATOM     23  O   UNL     1     191.784 198.732 191.819  1.00  0.00    -0.550 OA
ATOM     24  O   UNL     1     191.352 196.671 190.917  1.00  0.00    -0.550 OA
ENDBRANCH  21  22
ENDBRANCH  20  21
ENDBRANCH  19  20
ENDBRANCH  18  19
ENDBRANCH  17  18
ENDBRANCH  16  17
ENDBRANCH  15  16
ENDBRANCH  14  15
ENDBRANCH  13  14
ENDBRANCH   1  13
TORSDOF 20
ENDMDL
MODEL 4
REMARK VINA RESULT:    -4.624      1.139      3.088
REMARK INTER + INTRA:         -13.091
REMARK INTER:                 -10.030
REMARK INTRA:                  -3.061
REMARK UNBOUND:                -3.060
REMARK SMILES CCCCCCCCCCCCCCCCCCCCCC(=O)[O-]
REMARK SMILES IDX 12 1 11 2 10 3 9 4 8 5 7 6 6 7 5 8 4 9 3 10 2 11 1 12 13 13
REMARK SMILES IDX 14 14 15 15 16 16 17 17 18 18 19 19 20 20 21 21 22 22 23 23
REMARK SMILES IDX 24 24
REMARK H PARENT
REMARK Flexibility Score: inf
ROOT
ATOM      1  C   UNL     1     189.622 194.128 194.863  1.00  0.00     0.000 C 
ENDROOT
BRANCH   1   2
ATOM      2  C   UNL     1     189.552 195.663 194.960  1.00  0.00     0.000 C 
BRANCH   2   3
ATOM      3  C   UNL     1     188.890 196.212 196.237  1.00  0.00     0.000 C 
BRANCH   3   4
ATOM      4  C   UNL     1     187.425 195.769 196.390  1.00  0.00    -0.000 C 
BRANCH   4   5
ATOM      5  C   UNL     1     186.499 196.449 195.367  1.00  0.00    -0.000 C 
BRANCH   5   6
ATOM      6  C   UNL     1     185.294 195.568 194.994  1.00  0.00    -0.000 C 
BRANCH   6   7
ATOM      7  C   UNL     1     185.695 194.110 194.712  1.00  0.00    -0.000 C 
BRANCH   7   8
ATOM      8  C   UNL     1     186.266 193.915 193.296  1.00  0.00    -0.000 C 
BRANCH   8   9
ATOM      9  C   UNL     1     185.790 192.593 192.656  1.00  0.00    -0.000 C 
BRANCH   9  10
ATOM     10  C   UNL     1     186.833 191.465 192.723  1.00  0.00    -0.000 C 
BRANCH  10  11
ATOM     11  C   UNL     1     187.235 190.941 191.338  1.00  0.00    -0.003 C 
ATOM     12  C   UNL     1     187.407 192.088 190.344  1.00  0.00     0.004 C 
ENDBRANCH  10  11
ENDBRANCH   9  10
ENDBRANCH   8   9
ENDBRANCH   7   8
ENDBRANCH   6   7
ENDBRANCH   5   6
ENDBRANCH   4   5
ENDBRANCH   3   4
ENDBRANCH   2   3
ENDBRANCH   1   2
BRANCH   1  13
ATOM     13  C   UNL     1     189.776 193.626 193.418  1.00  0.00     0.000 C 
BRANCH  13  14
ATOM     14  C   UNL     1     190.322 192.188 193.340  1.00  0.00     0.000 C 
BRANCH  14  15
ATOM     15  C   UNL     1     190.789 191.736 191.941  1.00  0.00     0.000 C 
BRANCH  15  16
ATOM     16  C   UNL     1     191.102 192.877 190.953  1.00  0.00     0.000 C 
BRANCH  16  17
ATOM     17  C   UNL     1     192.580 193.305 190.906  1.00  0.00     0.000 C 
BRANCH  17  18
ATOM     18  C   UNL     1     192.814 194.706 191.488  1.00  0.00     0.000 C 
BRANCH  18  19
ATOM     19  C   UNL     1     191.676 195.658 191.103  1.00  0.00     0.000 C 
BRANCH  19  20
ATOM     20  C   UNL     1     191.479 196.744 192.172  1.00  0.00     0.006 C 
BRANCH  20  21
ATOM     21  C   UNL     1     191.273 198.135 191.558  1.00  0.00     0.053 C 
BRANCH  21  22
ATOM     22  C   UNL     1     192.373 199.079 191.937  1.00  0.00     0.041 C 
ATOM     23  O   UNL     1     192.688 200.026 191.169  1.00  0.00    -0.550 OA
ATOM     24  O   UNL     1     193.079 198.888 193.119  1.00  0.00    -0.550 OA
ENDBRANCH  21  22
ENDBRANCH  20  21
ENDBRANCH  19  20
ENDBRANCH  18  19
ENDBRANCH  17  18
ENDBRANCH  16  17
ENDBRANCH  15  16
ENDBRANCH  14  15
ENDBRANCH  13  14
ENDBRANCH   1  13
TORSDOF 20
ENDMDL
MODEL 5
REMARK VINA RESULT:    -4.614      1.687      3.910
REMARK INTER + INTRA:         -13.069
REMARK INTER:                 -10.823
REMARK INTRA:                  -2.246
REMARK UNBOUND:                -3.060
REMARK SMILES CCCCCCCCCCCCCCCCCCCCCC(=O)[O-]
REMARK SMILES IDX 12 1 11 2 10 3 9 4 8 5 7 6 6 7 5 8 4 9 3 10 2 11 1 12 13 13
REMARK SMILES IDX 14 14 15 15 16 16 17 17 18 18 19 19 20 20 21 21 22 22 23 23
REMARK SMILES IDX 24 24
REMARK H PARENT
REMARK Flexibility Score: inf
ROOT
ATOM      1  C   UNL     1     186.280 193.665 192.743  1.00  0.00     0.000 C 
ENDROOT
BRANCH   1   2
ATOM      2  C   UNL     1     184.918 193.460 193.432  1.00  0.00     0.000 C 
BRANCH   2   3
ATOM      3  C   UNL     1     184.138 194.751 193.743  1.00  0.00     0.000 C 
BRANCH   3   4
ATOM      4  C   UNL     1     184.984 195.797 194.488  1.00  0.00    -0.000 C 
BRANCH   4   5
ATOM      5  C   UNL     1     185.366 195.338 195.905  1.00  0.00    -0.000 C 
BRANCH   5   6
ATOM      6  C   UNL     1     186.717 195.916 196.362  1.00  0.00    -0.000 C 
BRANCH   6   7
ATOM      7  C   UNL     1     187.649 196.238 195.182  1.00  0.00    -0.000 C 
BRANCH   7   8
ATOM      8  C   UNL     1     188.459 197.528 195.400  1.00  0.00    -0.000 C 
BRANCH   8   9
ATOM      9  C   UNL     1     189.911 197.235 195.835  1.00  0.00    -0.000 C 
BRANCH   9  10
ATOM     10  C   UNL     1     190.260 197.788 197.228  1.00  0.00    -0.000 C 
BRANCH  10  11
ATOM     11  C   UNL     1     189.433 199.026 197.602  1.00  0.00    -0.003 C 
ATOM     12  C   UNL     1     190.337 200.191 198.000  1.00  0.00     0.004 C 
ENDBRANCH  10  11
ENDBRANCH   9  10
ENDBRANCH   8   9
ENDBRANCH   7   8
ENDBRANCH   6   7
ENDBRANCH   5   6
ENDBRANCH   4   5
ENDBRANCH   3   4
ENDBRANCH   2   3
ENDBRANCH   1   2
BRANCH   1  13
ATOM     13  C   UNL     1     187.344 192.658 193.210  1.00  0.00     0.000 C 
BRANCH  13  14
ATOM     14  C   UNL     1     188.013 191.910 192.042  1.00  0.00     0.000 C 
BRANCH  14  15
ATOM     15  C   UNL     1     189.033 190.829 192.451  1.00  0.00     0.000 C 
BRANCH  15  16
ATOM     16  C   UNL     1     190.400 191.361 192.927  1.00  0.00     0.000 C 
BRANCH  16  17
ATOM     17  C   UNL     1     191.538 191.232 191.899  1.00  0.00     0.000 C 
BRANCH  17  18
ATOM     18  C   UNL     1     191.526 192.354 190.851  1.00  0.00     0.000 C 
BRANCH  18  19
ATOM     19  C   UNL     1     192.122 193.645 191.422  1.00  0.00     0.000 C 
BRANCH  19  20
ATOM     20  C   UNL     1     191.051 194.739 191.547  1.00  0.00     0.006 C 
BRANCH  20  21
ATOM     21  C   UNL     1     191.332 195.700 192.710  1.00  0.00     0.053 C 
BRANCH  21  22
ATOM     22  C   UNL     1     191.489 197.114 192.239  1.00  0.00     0.041 C 
ATOM     23  O   UNL     1     191.170 197.428 191.062  1.00  0.00    -0.550 OA
ATOM     24  O   UNL     1     192.027 198.075 193.087  1.00  0.00    -0.550 OA
ENDBRANCH  21  22
ENDBRANCH  20  21
ENDBRANCH  19  20
ENDBRANCH  18  19
ENDBRANCH  17  18
ENDBRANCH  16  17
ENDBRANCH  15  16
ENDBRANCH  14  15
ENDBRANCH  13  14
ENDBRANCH   1  13
TORSDOF 20
ENDMDL
MODEL 6
REMARK VINA RESULT:    -4.588      3.676      7.209
REMARK INTER + INTRA:         -13.012
REMARK INTER:                  -9.843
REMARK INTRA:                  -3.169
REMARK UNBOUND:                -3.060
REMARK SMILES CCCCCCCCCCCCCCCCCCCCCC(=O)[O-]
REMARK SMILES IDX 12 1 11 2 10 3 9 4 8 5 7 6 6 7 5 8 4 9 3 10 2 11 1 12 13 13
REMARK SMILES IDX 14 14 15 15 16 16 17 17 18 18 19 19 20 20 21 21 22 22 23 23
REMARK SMILES IDX 24 24
REMARK H PARENT
REMARK Flexibility Score: inf
ROOT
ATOM      1  C   UNL     1     185.768 195.793 195.984  1.00  0.00     0.000 C 
ENDROOT
BRANCH   1   2
ATOM      2  C   UNL     1     186.561 194.791 196.843  1.00  0.00     0.000 C 
BRANCH   2   3
ATOM      3  C   UNL     1     188.055 195.115 197.022  1.00  0.00     0.000 C 
BRANCH   3   4
ATOM      4  C   UNL     1     188.940 194.478 195.937  1.00  0.00    -0.000 C 
BRANCH   4   5
ATOM      5  C   UNL     1     189.322 195.477 194.832  1.00  0.00    -0.000 C 
BRANCH   5   6
ATOM      6  C   UNL     1     190.271 194.860 193.789  1.00  0.00    -0.000 C 
BRANCH   6   7
ATOM      7  C   UNL     1     190.927 195.921 192.890  1.00  0.00    -0.000 C 
BRANCH   7   8
ATOM      8  C   UNL     1     191.342 195.363 191.517  1.00  0.00    -0.000 C 
BRANCH   8   9
ATOM      9  C   UNL     1     190.853 193.914 191.309  1.00  0.00    -0.000 C 
BRANCH   9  10
ATOM     10  C   UNL     1     191.979 192.868 191.382  1.00  0.00    -0.000 C 
BRANCH  10  11
ATOM     11  C   UNL     1     191.453 191.426 191.414  1.00  0.00    -0.003 C 
ATOM     12  C   UNL     1     190.927 191.063 192.801  1.00  0.00     0.004 C 
ENDBRANCH  10  11
ENDBRANCH   9  10
ENDBRANCH   8   9
ENDBRANCH   7   8
ENDBRANCH   6   7
ENDBRANCH   5   6
ENDBRANCH   4   5
ENDBRANCH   3   4
ENDBRANCH   2   3
ENDBRANCH   1   2
BRANCH   1  13
ATOM     13  C   UNL     1     184.305 195.372 195.769  1.00  0.00     0.000 C 
BRANCH  13  14
ATOM     14  C   UNL     1     183.936 195.230 194.281  1.00  0.00     0.000 C 
BRANCH  14  15
ATOM     15  C   UNL     1     185.079 194.757 193.361  1.00  0.00     0.000 C 
BRANCH  15  16
ATOM     16  C   UNL     1     185.132 193.237 193.108  1.00  0.00     0.000 C 
BRANCH  16  17
ATOM     17  C   UNL     1     186.372 192.528 193.681  1.00  0.00     0.000 C 
BRANCH  17  18
ATOM     18  C   UNL     1     187.636 192.769 192.843  1.00  0.00     0.000 C 
BRANCH  18  19
ATOM     19  C   UNL     1     187.302 192.825 191.348  1.00  0.00     0.000 C 
BRANCH  19  20
ATOM     20  C   UNL     1     187.834 191.583 190.618  1.00  0.00     0.006 C 
BRANCH  20  21
ATOM     21  C   UNL     1     186.709 190.746 189.994  1.00  0.00     0.053 C 
BRANCH  21  22
ATOM     22  C   UNL     1     186.021 189.890 191.014  1.00  0.00     0.041 C 
ATOM     23  O   UNL     1     184.766 189.908 191.112  1.00  0.00    -0.550 OA
ATOM     24  O   UNL     1     186.769 189.106 191.885  1.00  0.00    -0.550 OA
ENDBRANCH  21  22
ENDBRANCH  20  21
ENDBRANCH  19  20
ENDBRANCH  18  19
ENDBRANCH  17  18
ENDBRANCH  16  17
ENDBRANCH  15  16
ENDBRANCH  14  15
ENDBRANCH  13  14
ENDBRANCH   1  13
TORSDOF 20
ENDMDL
MODEL 7
REMARK VINA RESULT:    -4.576      1.511      5.678
REMARK INTER + INTRA:         -12.987
REMARK INTER:                  -9.819
REMARK INTRA:                  -3.168
REMARK UNBOUND:                -3.060
REMARK SMILES CCCCCCCCCCCCCCCCCCCCCC(=O)[O-]
REMARK SMILES IDX 12 1 11 2 10 3 9 4 8 5 7 6 6 7 5 8 4 9 3 10 2 11 1 12 13 13
REMARK SMILES IDX 14 14 15 15 16 16 17 17 18 18 19 19 20 20 21 21 22 22 23 23
REMARK SMILES IDX 24 24
REMARK H PARENT
REMARK Flexibility Score: inf
ROOT
ATOM      1  C   UNL     1     185.350 195.226 196.657  1.00  0.00     0.000 C 
ENDROOT
BRANCH   1   2
ATOM      2  C   UNL     1     185.499 195.958 195.311  1.00  0.00     0.000 C 
BRANCH   2   3
ATOM      3  C   UNL     1     184.712 195.344 194.138  1.00  0.00     0.000 C 
BRANCH   3   4
ATOM      4  C   UNL     1     184.388 193.855 194.349  1.00  0.00    -0.000 C 
BRANCH   4   5
ATOM      5  C   UNL     1     185.390 192.933 193.636  1.00  0.00    -0.000 C 
BRANCH   5   6
ATOM      6  C   UNL     1     186.339 193.709 192.706  1.00  0.00    -0.000 C 
BRANCH   6   7
ATOM      7  C   UNL     1     187.809 193.294 192.885  1.00  0.00    -0.000 C 
BRANCH   7   8
ATOM      8  C   UNL     1     188.038 191.794 192.631  1.00  0.00    -0.000 C 
BRANCH   8   9
ATOM      9  C   UNL     1     189.539 191.440 192.559  1.00  0.00    -0.000 C 
BRANCH   9  10
ATOM     10  C   UNL     1     190.466 192.657 192.719  1.00  0.00    -0.000 C 
BRANCH  10  11
ATOM     11  C   UNL     1     191.577 192.705 191.660  1.00  0.00    -0.003 C 
ATOM     12  C   UNL     1     191.219 191.848 190.448  1.00  0.00     0.004 C 
ENDBRANCH  10  11
ENDBRANCH   9  10
ENDBRANCH   8   9
ENDBRANCH   7   8
ENDBRANCH   6   7
ENDBRANCH   5   6
ENDBRANCH   4   5
ENDBRANCH   3   4
ENDBRANCH   2   3
ENDBRANCH   1   2
BRANCH   1  13
ATOM     13  C   UNL     1     186.701 194.860 197.293  1.00  0.00     0.000 C 
BRANCH  13  14
ATOM     14  C   UNL     1     187.754 194.433 196.254  1.00  0.00     0.000 C 
BRANCH  14  15
ATOM     15  C   UNL     1     189.222 194.618 196.690  1.00  0.00     0.000 C 
BRANCH  15  16
ATOM     16  C   UNL     1     189.462 195.724 197.736  1.00  0.00     0.000 C 
BRANCH  16  17
ATOM     17  C   UNL     1     189.898 197.081 197.156  1.00  0.00     0.000 C 
BRANCH  17  18
ATOM     18  C   UNL     1     188.756 197.819 196.444  1.00  0.00     0.000 C 
BRANCH  18  19
ATOM     19  C   UNL     1     188.879 197.682 194.922  1.00  0.00     0.000 C 
BRANCH  19  20
ATOM     20  C   UNL     1     190.334 197.416 194.508  1.00  0.00     0.006 C 
BRANCH  20  21
ATOM     21  C   UNL     1     190.442 196.355 193.404  1.00  0.00     0.053 C 
BRANCH  21  22
ATOM     22  C   UNL     1     191.241 196.847 192.236  1.00  0.00     0.041 C 
ATOM     23  O   UNL     1     191.417 196.107 191.232  1.00  0.00    -0.550 OA
ATOM     24  O   UNL     1     191.828 198.107 192.273  1.00  0.00    -0.550 OA
ENDBRANCH  21  22
ENDBRANCH  20  21
ENDBRANCH  19  20
ENDBRANCH  18  19
ENDBRANCH  17  18
ENDBRANCH  16  17
ENDBRANCH  15  16
ENDBRANCH  14  15
ENDBRANCH  13  14
ENDBRANCH   1  13
TORSDOF 20
ENDMDL
MODEL 8
REMARK VINA RESULT:    -4.566      2.256      6.461
REMARK INTER + INTRA:         -12.965
REMARK INTER:                 -10.253
REMARK INTRA:                  -2.712
REMARK UNBOUND:                -3.060
REMARK SMILES CCCCCCCCCCCCCCCCCCCCCC(=O)[O-]
REMARK SMILES IDX 12 1 11 2 10 3 9 4 8 5 7 6 6 7 5 8 4 9 3 10 2 11 1 12 13 13
REMARK SMILES IDX 14 14 15 15 16 16 17 17 18 18 19 19 20 20 21 21 22 22 23 23
REMARK SMILES IDX 24 24
REMARK H PARENT
REMARK Flexibility Score: inf
ROOT
ATOM      1  C   UNL     1     189.855 192.754 193.375  1.00  0.00     0.000 C 
ENDROOT
BRANCH   1   2
ATOM      2  C   UNL     1     190.536 191.797 192.379  1.00  0.00     0.000 C 
BRANCH   2   3
ATOM      3  C   UNL     1     191.200 192.474 191.166  1.00  0.00     0.000 C 
BRANCH   3   4
ATOM      4  C   UNL     1     192.667 192.858 191.424  1.00  0.00    -0.000 C 
BRANCH   4   5
ATOM      5  C   UNL     1     193.000 194.270 190.914  1.00  0.00    -0.000 C 
BRANCH   5   6
ATOM      6  C   UNL     1     191.863 195.272 191.185  1.00  0.00    -0.000 C 
BRANCH   6   7
ATOM      7  C   UNL     1     191.959 195.908 192.581  1.00  0.00    -0.000 C 
BRANCH   7   8
ATOM      8  C   UNL     1     190.784 196.855 192.885  1.00  0.00    -0.000 C 
BRANCH   8   9
ATOM      9  C   UNL     1     191.045 198.287 192.372  1.00  0.00    -0.000 C 
BRANCH   9  10
ATOM     10  C   UNL     1     192.510 198.735 192.517  1.00  0.00    -0.000 C 
BRANCH  10  11
ATOM     11  C   UNL     1     192.774 200.119 191.909  1.00  0.00    -0.003 C 
ATOM     12  C   UNL     1     193.001 200.024 190.402  1.00  0.00     0.004 C 
ENDBRANCH  10  11
ENDBRANCH   9  10
ENDBRANCH   8   9
ENDBRANCH   7   8
ENDBRANCH   6   7
ENDBRANCH   5   6
ENDBRANCH   4   5
ENDBRANCH   3   4
ENDBRANCH   2   3
ENDBRANCH   1   2
BRANCH   1  13
ATOM     13  C   UNL     1     188.806 193.661 192.713  1.00  0.00     0.000 C 
BRANCH  13  14
ATOM     14  C   UNL     1     187.514 192.910 192.341  1.00  0.00     0.000 C 
BRANCH  14  15
ATOM     15  C   UNL     1     186.338 193.097 193.321  1.00  0.00     0.000 C 
BRANCH  15  16
ATOM     16  C   UNL     1     186.036 194.557 193.713  1.00  0.00     0.000 C 
BRANCH  16  17
ATOM     17  C   UNL     1     185.789 194.786 195.215  1.00  0.00     0.000 C 
BRANCH  17  18
ATOM     18  C   UNL     1     186.456 196.065 195.740  1.00  0.00     0.000 C 
BRANCH  18  19
ATOM     19  C   UNL     1     187.848 196.250 195.127  1.00  0.00     0.000 C 
BRANCH  19  20
ATOM     20  C   UNL     1     188.904 195.447 195.904  1.00  0.00     0.006 C 
BRANCH  20  21
ATOM     21  C   UNL     1     188.606 195.397 197.409  1.00  0.00     0.053 C 
BRANCH  21  22
ATOM     22  C   UNL     1     189.802 195.779 198.226  1.00  0.00     0.041 C 
ATOM     23  O   UNL     1     190.323 194.946 199.014  1.00  0.00    -0.550 OA
ATOM     24  O   UNL     1     190.315 197.069 198.149  1.00  0.00    -0.550 OA
ENDBRANCH  21  22
ENDBRANCH  20  21
ENDBRANCH  19  20
ENDBRANCH  18  19
ENDBRANCH  17  18
ENDBRANCH  16  17
ENDBRANCH  15  16
ENDBRANCH  14  15
ENDBRANCH  13  14
ENDBRANCH   1  13
TORSDOF 20
ENDMDL
MODEL 9
REMARK VINA RESULT:    -4.542      1.135      5.216
REMARK INTER + INTRA:         -12.913
REMARK INTER:                 -10.378
REMARK INTRA:                  -2.536
REMARK UNBOUND:                -3.060
REMARK SMILES CCCCCCCCCCCCCCCCCCCCCC(=O)[O-]
REMARK SMILES IDX 12 1 11 2 10 3 9 4 8 5 7 6 6 7 5 8 4 9 3 10 2 11 1 12 13 13
REMARK SMILES IDX 14 14 15 15 16 16 17 17 18 18 19 19 20 20 21 21 22 22 23 23
REMARK SMILES IDX 24 24
REMARK H PARENT
REMARK Flexibility Score: inf
ROOT
ATOM      1  C   UNL     1     185.676 195.982 195.236  1.00  0.00     0.000 C 
ENDROOT
BRANCH   1   2
ATOM      2  C   UNL     1     184.198 195.635 194.980  1.00  0.00     0.000 C 
BRANCH   2   3
ATOM      3  C   UNL     1     183.932 194.768 193.736  1.00  0.00     0.000 C 
BRANCH   3   4
ATOM      4  C   UNL     1     183.796 193.272 194.068  1.00  0.00    -0.000 C 
BRANCH   4   5
ATOM      5  C   UNL     1     184.836 192.413 193.329  1.00  0.00    -0.000 C 
BRANCH   5   6
ATOM      6  C   UNL     1     186.232 193.063 193.322  1.00  0.00    -0.000 C 
BRANCH   6   7
ATOM      7  C   UNL     1     186.952 192.894 191.974  1.00  0.00    -0.000 C 
BRANCH   7   8
ATOM      8  C   UNL     1     187.581 191.500 191.807  1.00  0.00    -0.000 C 
BRANCH   8   9
ATOM      9  C   UNL     1     189.122 191.545 191.883  1.00  0.00    -0.000 C 
BRANCH   9  10
ATOM     10  C   UNL     1     189.785 192.091 190.607  1.00  0.00    -0.000 C 
BRANCH  10  11
ATOM     11  C   UNL     1     191.311 192.201 190.727  1.00  0.00    -0.003 C 
ATOM     12  C   UNL     1     191.810 191.549 192.016  1.00  0.00     0.004 C 
ENDBRANCH  10  11
ENDBRANCH   9  10
ENDBRANCH   8   9
ENDBRANCH   7   8
ENDBRANCH   6   7
ENDBRANCH   5   6
ENDBRANCH   4   5
ENDBRANCH   3   4
ENDBRANCH   2   3
ENDBRANCH   1   2
BRANCH   1  13
ATOM     13  C   UNL     1     186.261 195.249 196.455  1.00  0.00     0.000 C 
BRANCH  13  14
ATOM     14  C   UNL     1     187.790 195.088 196.379  1.00  0.00     0.000 C 
BRANCH  14  15
ATOM     15  C   UNL     1     188.433 195.520 195.046  1.00  0.00     0.000 C 
BRANCH  15  16
ATOM     16  C   UNL     1     189.612 194.648 194.572  1.00  0.00     0.000 C 
BRANCH  16  17
ATOM     17  C   UNL     1     190.006 194.839 193.096  1.00  0.00     0.000 C 
BRANCH  17  18
ATOM     18  C   UNL     1     191.055 195.943 192.898  1.00  0.00     0.000 C 
BRANCH  18  19
ATOM     19  C   UNL     1     191.465 196.052 191.426  1.00  0.00     0.000 C 
BRANCH  19  20
ATOM     20  C   UNL     1     191.425 197.512 190.949  1.00  0.00     0.006 C 
BRANCH  20  21
ATOM     21  C   UNL     1     191.671 198.506 192.092  1.00  0.00     0.053 C 
BRANCH  21  22
ATOM     22  C   UNL     1     192.626 199.588 191.693  1.00  0.00     0.041 C 
ATOM     23  O   UNL     1     192.794 199.869 190.477  1.00  0.00    -0.550 OA
ATOM     24  O   UNL     1     193.364 200.259 192.662  1.00  0.00    -0.550 OA
ENDBRANCH  21  22
ENDBRANCH  20  21
ENDBRANCH  19  20
ENDBRANCH  18  19
ENDBRANCH  17  18
ENDBRANCH  16  17
ENDBRANCH  15  16
ENDBRANCH  14  15
ENDBRANCH  13  14
ENDBRANCH   1  13
TORSDOF 20
ENDMDL
