MODEL 1
REMARK VINA RESULT:    -4.349      0.000      0.000
REMARK INTER + INTRA:         -14.466
REMARK INTER:                 -10.960
REMARK INTRA:                  -3.506
REMARK UNBOUND:                -3.506
REMARK SMILES CCCCCCCCCCCCCCCCCCCCCCCCCCCC(=O)[O-]
REMARK SMILES IDX 15 1 16 2 17 3 18 4 19 5 20 6 21 7 22 8 23 9 24 10 25 11
REMARK SMILES IDX 26 12 27 13 28 14 29 15 30 16 14 17 13 18 12 19 11 20 10 21
REMARK SMILES IDX 9 22 8 23 7 24 6 25 5 26 4 27 3 28 2 29 1 30
REMARK H PARENT
REMARK Flexibility Score: inf
ROOT
ATOM      1  C   UNL     1      44.882  36.517 -13.607  1.00  0.00     0.000 C 
ENDROOT
BRANCH   1   2
ATOM      2  C   UNL     1      45.132  37.893 -14.252  1.00  0.00     0.000 C 
BRANCH   2   3
ATOM      3  C   UNL     1      46.258  37.867 -15.296  1.00  0.00     0.000 C 
BRANCH   3   4
ATOM      4  C   UNL     1      46.678  36.425 -15.610  1.00  0.00     0.000 C 
BRANCH   4   5
ATOM      5  C   UNL     1      47.182  36.298 -17.057  1.00  0.00     0.000 C 
BRANCH   5   6
ATOM      6  C   UNL     1      48.037  37.498 -17.490  1.00  0.00     0.000 C 
BRANCH   6   7
ATOM      7  C   UNL     1      49.437  37.494 -16.850  1.00  0.00     0.000 C 
BRANCH   7   8
ATOM      8  C   UNL     1      50.044  36.081 -16.819  1.00  0.00     0.000 C 
BRANCH   8   9
ATOM      9  C   UNL     1      51.575  36.094 -17.000  1.00  0.00     0.000 C 
BRANCH   9  10
ATOM     10  C   UNL     1      52.205  37.430 -16.566  1.00  0.00     0.000 C 
BRANCH  10  11
ATOM     11  C   UNL     1      53.709  37.487 -16.890  1.00  0.00     0.000 C 
BRANCH  11  12
ATOM     12  C   UNL     1      53.993  37.715 -18.388  1.00  0.00     0.006 C 
BRANCH  12  13
ATOM     13  C   UNL     1      54.108  36.422 -19.219  1.00  0.00     0.053 C 
BRANCH  13  14
ATOM     14  C   UNL     1      55.267  36.470 -20.168  1.00  0.00     0.041 C 
ATOM     15  O   UNL     1      55.777  37.577 -20.491  1.00  0.00    -0.550 OA
ATOM     16  O   UNL     1      55.831  35.286 -20.637  1.00  0.00    -0.550 OA
ENDBRANCH  13  14
ENDBRANCH  12  13
ENDBRANCH  11  12
ENDBRANCH  10  11
ENDBRANCH   9  10
ENDBRANCH   8   9
ENDBRANCH   7   8
ENDBRANCH   6   7
ENDBRANCH   5   6
ENDBRANCH   4   5
ENDBRANCH   3   4
ENDBRANCH   2   3
ENDBRANCH   1   2
BRANCH   1  17
ATOM     17  C   UNL     1      43.591  36.419 -12.765  1.00  0.00     0.000 C 
BRANCH  17  18
ATOM     18  C   UNL     1      43.091  37.776 -12.219  1.00  0.00     0.000 C 
BRANCH  18  19
ATOM     19  C   UNL     1      42.456  37.643 -10.824  1.00  0.00     0.000 C 
BRANCH  19  20
ATOM     20  C   UNL     1      43.462  37.903  -9.691  1.00  0.00     0.000 C 
BRANCH  20  21
ATOM     21  C   UNL     1      43.392  36.842  -8.583  1.00  0.00     0.000 C 
BRANCH  21  22
ATOM     22  C   UNL     1      43.630  35.441  -9.156  1.00  0.00    -0.000 C 
BRANCH  22  23
ATOM     23  C   UNL     1      44.601  34.641  -8.279  1.00  0.00    -0.000 C 
BRANCH  23  24
ATOM     24  C   UNL     1      46.011  34.630  -8.889  1.00  0.00    -0.000 C 
BRANCH  24  25
ATOM     25  C   UNL     1      46.054  35.210 -10.314  1.00  0.00    -0.000 C 
BRANCH  25  26
ATOM     26  C   UNL     1      46.868  36.507 -10.467  1.00  0.00    -0.000 C 
BRANCH  26  27
ATOM     27  C   UNL     1      48.313  36.252 -10.926  1.00  0.00    -0.000 C 
BRANCH  27  28
ATOM     28  C   UNL     1      48.424  36.067 -12.448  1.00  0.00    -0.000 C 
BRANCH  28  29
ATOM     29  C   UNL     1      49.216  37.196 -13.125  1.00  0.00    -0.003 C 
ATOM     30  C   UNL     1      50.695  36.834 -13.239  1.00  0.00     0.004 C 
ENDBRANCH  28  29
ENDBRANCH  27  28
ENDBRANCH  26  27
ENDBRANCH  25  26
ENDBRANCH  24  25
ENDBRANCH  23  24
ENDBRANCH  22  23
ENDBRANCH  21  22
ENDBRANCH  20  21
ENDBRANCH  19  20
ENDBRANCH  18  19
ENDBRANCH  17  18
ENDBRANCH   1  17
TORSDOF 26
ENDMDL
MODEL 2
REMARK VINA RESULT:    -4.265      1.145      2.364
REMARK INTER + INTRA:         -14.253
REMARK INTER:                 -11.020
REMARK INTRA:                  -3.233
REMARK UNBOUND:                -3.506
REMARK SMILES CCCCCCCCCCCCCCCCCCCCCCCCCCCC(=O)[O-]
REMARK SMILES IDX 15 1 16 2 17 3 18 4 19 5 20 6 21 7 22 8 23 9 24 10 25 11
REMARK SMILES IDX 26 12 27 13 28 14 29 15 30 16 14 17 13 18 12 19 11 20 10 21
REMARK SMILES IDX 9 22 8 23 7 24 6 25 5 26 4 27 3 28 2 29 1 30
REMARK H PARENT
REMARK Flexibility Score: inf
ROOT
ATOM      1  C   UNL     1      46.512  37.000 -14.893  1.00  0.00     0.000 C 
ENDROOT
BRANCH   1   2
ATOM      2  C   UNL     1      47.404  36.010 -14.120  1.00  0.00     0.000 C 
BRANCH   2   3
ATOM      3  C   UNL     1      47.582  34.671 -14.850  1.00  0.00     0.000 C 
BRANCH   3   4
ATOM      4  C   UNL     1      47.735  34.889 -16.360  1.00  0.00     0.000 C 
BRANCH   4   5
ATOM      5  C   UNL     1      49.211  35.084 -16.743  1.00  0.00     0.000 C 
BRANCH   5   6
ATOM      6  C   UNL     1      49.522  36.525 -17.177  1.00  0.00     0.000 C 
BRANCH   6   7
ATOM      7  C   UNL     1      50.118  37.374 -16.039  1.00  0.00     0.000 C 
BRANCH   7   8
ATOM      8  C   UNL     1      51.311  36.670 -15.369  1.00  0.00     0.000 C 
BRANCH   8   9
ATOM      9  C   UNL     1      52.415  37.660 -14.946  1.00  0.00     0.000 C 
BRANCH   9  10
ATOM     10  C   UNL     1      53.619  37.640 -15.906  1.00  0.00     0.000 C 
BRANCH  10  11
ATOM     11  C   UNL     1      53.208  37.994 -17.347  1.00  0.00     0.000 C 
BRANCH  11  12
ATOM     12  C   UNL     1      54.337  37.759 -18.369  1.00  0.00     0.006 C 
BRANCH  12  13
ATOM     13  C   UNL     1      54.172  36.487 -19.223  1.00  0.00     0.053 C 
BRANCH  13  14
ATOM     14  C   UNL     1      55.356  36.253 -20.110  1.00  0.00     0.041 C 
ATOM     15  O   UNL     1      55.915  35.122 -20.136  1.00  0.00    -0.550 OA
ATOM     16  O   UNL     1      55.796  37.262 -20.964  1.00  0.00    -0.550 OA
ENDBRANCH  13  14
ENDBRANCH  12  13
ENDBRANCH  11  12
ENDBRANCH  10  11
ENDBRANCH   9  10
ENDBRANCH   8   9
ENDBRANCH   7   8
ENDBRANCH   6   7
ENDBRANCH   5   6
ENDBRANCH   4   5
ENDBRANCH   3   4
ENDBRANCH   2   3
ENDBRANCH   1   2
BRANCH   1  17
ATOM     17  C   UNL     1      45.493  37.770 -14.025  1.00  0.00     0.000 C 
BRANCH  17  18
ATOM     18  C   UNL     1      44.381  36.881 -13.422  1.00  0.00     0.000 C 
BRANCH  18  19
ATOM     19  C   UNL     1      43.565  37.621 -12.348  1.00  0.00     0.000 C 
BRANCH  19  20
ATOM     20  C   UNL     1      43.189  36.714 -11.164  1.00  0.00     0.000 C 
BRANCH  20  21
ATOM     21  C   UNL     1      42.576  37.495  -9.993  1.00  0.00     0.000 C 
BRANCH  21  22
ATOM     22  C   UNL     1      42.794  36.752  -8.671  1.00  0.00    -0.000 C 
BRANCH  22  23
ATOM     23  C   UNL     1      44.111  37.173  -8.009  1.00  0.00    -0.000 C 
BRANCH  23  24
ATOM     24  C   UNL     1      44.893  35.948  -7.512  1.00  0.00    -0.000 C 
BRANCH  24  25
ATOM     25  C   UNL     1      44.427  34.633  -8.163  1.00  0.00    -0.000 C 
BRANCH  25  26
ATOM     26  C   UNL     1      45.558  33.686  -8.604  1.00  0.00    -0.000 C 
BRANCH  26  27
ATOM     27  C   UNL     1      46.817  34.438  -9.067  1.00  0.00    -0.000 C 
BRANCH  27  28
ATOM     28  C   UNL     1      46.584  35.232 -10.363  1.00  0.00    -0.000 C 
BRANCH  28  29
ATOM     29  C   UNL     1      47.687  36.269 -10.627  1.00  0.00    -0.003 C 
ATOM     30  C   UNL     1      47.106  37.679 -10.701  1.00  0.00     0.004 C 
ENDBRANCH  28  29
ENDBRANCH  27  28
ENDBRANCH  26  27
ENDBRANCH  25  26
ENDBRANCH  24  25
ENDBRANCH  23  24
ENDBRANCH  22  23
ENDBRANCH  21  22
ENDBRANCH  20  21
ENDBRANCH  19  20
ENDBRANCH  18  19
ENDBRANCH  17  18
ENDBRANCH   1  17
TORSDOF 26
ENDMDL
MODEL 3
REMARK VINA RESULT:    -4.182      4.655      9.584
REMARK INTER + INTRA:         -14.045
REMARK INTER:                 -10.476
REMARK INTRA:                  -3.569
REMARK UNBOUND:                -3.506
REMARK SMILES CCCCCCCCCCCCCCCCCCCCCCCCCCCC(=O)[O-]
REMARK SMILES IDX 15 1 16 2 17 3 18 4 19 5 20 6 21 7 22 8 23 9 24 10 25 11
REMARK SMILES IDX 26 12 27 13 28 14 29 15 30 16 14 17 13 18 12 19 11 20 10 21
REMARK SMILES IDX 9 22 8 23 7 24 6 25 5 26 4 27 3 28 2 29 1 30
REMARK H PARENT
REMARK Flexibility Score: inf
ROOT
ATOM      1  C   UNL     1      45.941  34.399 -13.691  1.00  0.00     0.000 C 
ENDROOT
BRANCH   1   2
ATOM      2  C   UNL     1      45.146  35.269 -12.700  1.00  0.00     0.000 C 
BRANCH   2   3
ATOM      3  C   UNL     1      44.365  36.398 -13.390  1.00  0.00     0.000 C 
BRANCH   3   4
ATOM      4  C   UNL     1      44.150  37.576 -12.431  1.00  0.00     0.000 C 
BRANCH   4   5
ATOM      5  C   UNL     1      42.655  37.779 -12.132  1.00  0.00     0.000 C 
BRANCH   5   6
ATOM      6  C   UNL     1      42.144  36.843 -11.027  1.00  0.00     0.000 C 
BRANCH   6   7
ATOM      7  C   UNL     1      41.725  37.599  -9.752  1.00  0.00     0.000 C 
BRANCH   7   8
ATOM      8  C   UNL     1      42.917  37.823  -8.806  1.00  0.00     0.000 C 
BRANCH   8   9
ATOM      9  C   UNL     1      43.634  36.508  -8.442  1.00  0.00     0.000 C 
BRANCH   9  10
ATOM     10  C   UNL     1      45.142  36.558  -8.748  1.00  0.00     0.000 C 
BRANCH  10  11
ATOM     11  C   UNL     1      45.562  35.455  -9.738  1.00  0.00     0.000 C 
BRANCH  11  12
ATOM     12  C   UNL     1      46.691  34.558  -9.194  1.00  0.00     0.006 C 
BRANCH  12  13
ATOM     13  C   UNL     1      46.447  34.016  -7.772  1.00  0.00     0.053 C 
BRANCH  13  14
ATOM     14  C   UNL     1      45.176  33.229  -7.685  1.00  0.00     0.041 C 
ATOM     15  O   UNL     1      44.966  32.271  -8.477  1.00  0.00    -0.550 OA
ATOM     16  O   UNL     1      44.254  33.508  -6.679  1.00  0.00    -0.550 OA
ENDBRANCH  13  14
ENDBRANCH  12  13
ENDBRANCH  11  12
ENDBRANCH  10  11
ENDBRANCH   9  10
ENDBRANCH   8   9
ENDBRANCH   7   8
ENDBRANCH   6   7
ENDBRANCH   5   6
ENDBRANCH   4   5
ENDBRANCH   3   4
ENDBRANCH   2   3
ENDBRANCH   1   2
BRANCH   1  17
ATOM     17  C   UNL     1      47.468  34.628 -13.677  1.00  0.00     0.000 C 
BRANCH  17  18
ATOM     18  C   UNL     1      47.912  35.861 -12.857  1.00  0.00     0.000 C 
BRANCH  18  19
ATOM     19  C   UNL     1      49.442  35.945 -12.716  1.00  0.00     0.000 C 
BRANCH  19  20
ATOM     20  C   UNL     1      49.979  37.365 -12.955  1.00  0.00     0.000 C 
BRANCH  20  21
ATOM     21  C   UNL     1      49.738  37.855 -14.390  1.00  0.00     0.000 C 
BRANCH  21  22
ATOM     22  C   UNL     1      51.064  37.993 -15.147  1.00  0.00    -0.000 C 
BRANCH  22  23
ATOM     23  C   UNL     1      51.751  36.633 -15.314  1.00  0.00    -0.000 C 
BRANCH  23  24
ATOM     24  C   UNL     1      51.890  36.266 -16.800  1.00  0.00    -0.000 C 
BRANCH  24  25
ATOM     25  C   UNL     1      50.536  36.000 -17.482  1.00  0.00    -0.000 C 
BRANCH  25  26
ATOM     26  C   UNL     1      49.579  35.084 -16.699  1.00  0.00    -0.000 C 
BRANCH  26  27
ATOM     27  C   UNL     1      48.103  35.483 -16.867  1.00  0.00    -0.000 C 
BRANCH  27  28
ATOM     28  C   UNL     1      47.931  36.762 -17.704  1.00  0.00    -0.000 C 
BRANCH  28  29
ATOM     29  C   UNL     1      47.571  37.986 -16.848  1.00  0.00    -0.003 C 
ATOM     30  C   UNL     1      46.484  37.642 -15.832  1.00  0.00     0.004 C 
ENDBRANCH  28  29
ENDBRANCH  27  28
ENDBRANCH  26  27
ENDBRANCH  25  26
ENDBRANCH  24  25
ENDBRANCH  23  24
ENDBRANCH  22  23
ENDBRANCH  21  22
ENDBRANCH  20  21
ENDBRANCH  19  20
ENDBRANCH  18  19
ENDBRANCH  17  18
ENDBRANCH   1  17
TORSDOF 26
ENDMDL
MODEL 4
REMARK VINA RESULT:    -3.822      4.611      9.869
REMARK INTER + INTRA:         -13.137
REMARK INTER:                 -10.303
REMARK INTRA:                  -2.834
REMARK UNBOUND:                -3.506
REMARK SMILES CCCCCCCCCCCCCCCCCCCCCCCCCCCC(=O)[O-]
REMARK SMILES IDX 15 1 16 2 17 3 18 4 19 5 20 6 21 7 22 8 23 9 24 10 25 11
REMARK SMILES IDX 26 12 27 13 28 14 29 15 30 16 14 17 13 18 12 19 11 20 10 21
REMARK SMILES IDX 9 22 8 23 7 24 6 25 5 26 4 27 3 28 2 29 1 30
REMARK H PARENT
REMARK Flexibility Score: inf
ROOT
ATOM      1  C   UNL     1      47.295  36.590 -17.317  1.00  0.00     0.000 C 
ENDROOT
BRANCH   1   2
ATOM      2  C   UNL     1      46.843  37.615 -16.260  1.00  0.00     0.000 C 
BRANCH   2   3
ATOM      3  C   UNL     1      46.191  36.960 -15.034  1.00  0.00     0.000 C 
BRANCH   3   4
ATOM      4  C   UNL     1      45.252  37.943 -14.325  1.00  0.00     0.000 C 
BRANCH   4   5
ATOM      5  C   UNL     1      44.310  37.208 -13.356  1.00  0.00     0.000 C 
BRANCH   5   6
ATOM      6  C   UNL     1      43.800  38.117 -12.227  1.00  0.00     0.000 C 
BRANCH   6   7
ATOM      7  C   UNL     1      42.284  37.984 -11.994  1.00  0.00     0.000 C 
BRANCH   7   8
ATOM      8  C   UNL     1      41.928  38.086 -10.501  1.00  0.00     0.000 C 
BRANCH   8   9
ATOM      9  C   UNL     1      42.635  37.011  -9.652  1.00  0.00     0.000 C 
BRANCH   9  10
ATOM     10  C   UNL     1      43.894  37.552  -8.952  1.00  0.00     0.000 C 
BRANCH  10  11
ATOM     11  C   UNL     1      44.004  37.047  -7.501  1.00  0.00     0.000 C 
BRANCH  11  12
ATOM     12  C   UNL     1      44.868  35.777  -7.370  1.00  0.00     0.006 C 
BRANCH  12  13
ATOM     13  C   UNL     1      44.493  34.647  -8.349  1.00  0.00     0.053 C 
BRANCH  13  14
ATOM     14  C   UNL     1      44.720  33.293  -7.751  1.00  0.00     0.041 C 
ATOM     15  O   UNL     1      45.573  32.511  -8.254  1.00  0.00    -0.550 OA
ATOM     16  O   UNL     1      44.042  32.922  -6.592  1.00  0.00    -0.550 OA
ENDBRANCH  13  14
ENDBRANCH  12  13
ENDBRANCH  11  12
ENDBRANCH  10  11
ENDBRANCH   9  10
ENDBRANCH   8   9
ENDBRANCH   7   8
ENDBRANCH   6   7
ENDBRANCH   5   6
ENDBRANCH   4   5
ENDBRANCH   3   4
ENDBRANCH   2   3
ENDBRANCH   1   2
BRANCH   1  17
ATOM     17  C   UNL     1      47.722  35.218 -16.750  1.00  0.00     0.000 C 
BRANCH  17  18
ATOM     18  C   UNL     1      49.232  35.110 -16.436  1.00  0.00     0.000 C 
BRANCH  18  19
ATOM     19  C   UNL     1      50.048  36.225 -17.113  1.00  0.00     0.000 C 
BRANCH  19  20
ATOM     20  C   UNL     1      51.463  35.767 -17.503  1.00  0.00     0.000 C 
BRANCH  20  21
ATOM     21  C   UNL     1      52.556  36.452 -16.670  1.00  0.00     0.000 C 
BRANCH  21  22
ATOM     22  C   UNL     1      52.128  37.869 -16.272  1.00  0.00    -0.000 C 
BRANCH  22  23
ATOM     23  C   UNL     1      52.370  38.122 -14.779  1.00  0.00    -0.000 C 
BRANCH  23  24
ATOM     24  C   UNL     1      51.077  37.929 -13.972  1.00  0.00    -0.000 C 
BRANCH  24  25
ATOM     25  C   UNL     1      50.795  36.454 -13.632  1.00  0.00    -0.000 C 
BRANCH  25  26
ATOM     26  C   UNL     1      49.942  36.226 -12.371  1.00  0.00    -0.000 C 
BRANCH  26  27
ATOM     27  C   UNL     1      48.445  36.480 -12.613  1.00  0.00    -0.000 C 
BRANCH  27  28
ATOM     28  C   UNL     1      47.866  37.537 -11.658  1.00  0.00    -0.000 C 
BRANCH  28  29
ATOM     29  C   UNL     1      47.278  36.920 -10.380  1.00  0.00    -0.003 C 
ATOM     30  C   UNL     1      46.629  35.568 -10.672  1.00  0.00     0.004 C 
ENDBRANCH  28  29
ENDBRANCH  27  28
ENDBRANCH  26  27
ENDBRANCH  25  26
ENDBRANCH  24  25
ENDBRANCH  23  24
ENDBRANCH  22  23
ENDBRANCH  21  22
ENDBRANCH  20  21
ENDBRANCH  19  20
ENDBRANCH  18  19
ENDBRANCH  17  18
ENDBRANCH   1  17
TORSDOF 26
ENDMDL
MODEL 5
REMARK VINA RESULT:    -3.669      2.359      7.602
REMARK INTER + INTRA:         -12.752
REMARK INTER:                 -10.081
REMARK INTRA:                  -2.671
REMARK UNBOUND:                -3.506
REMARK SMILES CCCCCCCCCCCCCCCCCCCCCCCCCCCC(=O)[O-]
REMARK SMILES IDX 15 1 16 2 17 3 18 4 19 5 20 6 21 7 22 8 23 9 24 10 25 11
REMARK SMILES IDX 26 12 27 13 28 14 29 15 30 16 14 17 13 18 12 19 11 20 10 21
REMARK SMILES IDX 9 22 8 23 7 24 6 25 5 26 4 27 3 28 2 29 1 30
REMARK H PARENT
REMARK Flexibility Score: inf
ROOT
ATOM      1  C   UNL     1      46.021  34.028  -8.745  1.00  0.00     0.000 C 
ENDROOT
BRANCH   1   2
ATOM      2  C   UNL     1      45.173  34.726  -7.666  1.00  0.00     0.000 C 
BRANCH   2   3
ATOM      3  C   UNL     1      44.786  36.163  -8.047  1.00  0.00     0.000 C 
BRANCH   3   4
ATOM      4  C   UNL     1      43.361  36.212  -8.611  1.00  0.00     0.000 C 
BRANCH   4   5
ATOM      5  C   UNL     1      43.316  36.992  -9.935  1.00  0.00     0.000 C 
BRANCH   5   6
ATOM      6  C   UNL     1      44.535  37.909 -10.119  1.00  0.00     0.000 C 
BRANCH   6   7
ATOM      7  C   UNL     1      45.064  37.914 -11.565  1.00  0.00     0.000 C 
BRANCH   7   8
ATOM      8  C   UNL     1      43.967  37.533 -12.574  1.00  0.00     0.000 C 
BRANCH   8   9
ATOM      9  C   UNL     1      44.446  36.483 -13.596  1.00  0.00     0.000 C 
BRANCH   9  10
ATOM     10  C   UNL     1      45.340  35.406 -12.954  1.00  0.00     0.000 C 
BRANCH  10  11
ATOM     11  C   UNL     1      45.938  34.455 -14.007  1.00  0.00     0.000 C 
BRANCH  11  12
ATOM     12  C   UNL     1      47.194  35.027 -14.691  1.00  0.00     0.006 C 
BRANCH  12  13
ATOM     13  C   UNL     1      47.407  34.549 -16.141  1.00  0.00     0.053 C 
BRANCH  13  14
ATOM     14  C   UNL     1      48.417  35.387 -16.862  1.00  0.00     0.041 C 
ATOM     15  O   UNL     1      49.637  35.066 -16.845  1.00  0.00    -0.550 OA
ATOM     16  O   UNL     1      48.001  36.482 -17.616  1.00  0.00    -0.550 OA
ENDBRANCH  13  14
ENDBRANCH  12  13
ENDBRANCH  11  12
ENDBRANCH  10  11
ENDBRANCH   9  10
ENDBRANCH   8   9
ENDBRANCH   7   8
ENDBRANCH   6   7
ENDBRANCH   5   6
ENDBRANCH   4   5
ENDBRANCH   3   4
ENDBRANCH   2   3
ENDBRANCH   1   2
BRANCH   1  17
ATOM     17  C   UNL     1      46.519  34.952  -9.879  1.00  0.00     0.000 C 
BRANCH  17  18
ATOM     18  C   UNL     1      47.991  35.398  -9.726  1.00  0.00     0.000 C 
BRANCH  18  19
ATOM     19  C   UNL     1      48.322  36.618 -10.603  1.00  0.00     0.000 C 
BRANCH  19  20
ATOM     20  C   UNL     1      48.587  36.238 -12.068  1.00  0.00     0.000 C 
BRANCH  20  21
ATOM     21  C   UNL     1      48.268  37.380 -13.043  1.00  0.00     0.000 C 
BRANCH  21  22
ATOM     22  C   UNL     1      49.546  38.125 -13.444  1.00  0.00    -0.000 C 
BRANCH  22  23
ATOM     23  C   UNL     1      50.723  37.157 -13.611  1.00  0.00    -0.000 C 
BRANCH  23  24
ATOM     24  C   UNL     1      52.044  37.922 -13.782  1.00  0.00    -0.000 C 
BRANCH  24  25
ATOM     25  C   UNL     1      52.906  37.383 -14.937  1.00  0.00    -0.000 C 
BRANCH  25  26
ATOM     26  C   UNL     1      52.221  37.375 -16.315  1.00  0.00    -0.000 C 
BRANCH  26  27
ATOM     27  C   UNL     1      53.014  36.584 -17.368  1.00  0.00    -0.000 C 
BRANCH  27  28
ATOM     28  C   UNL     1      54.193  37.386 -17.943  1.00  0.00    -0.000 C 
BRANCH  28  29
ATOM     29  C   UNL     1      54.489  37.036 -19.409  1.00  0.00    -0.003 C 
ATOM     30  C   UNL     1      55.944  37.338 -19.762  1.00  0.00     0.004 C 
ENDBRANCH  28  29
ENDBRANCH  27  28
ENDBRANCH  26  27
ENDBRANCH  25  26
ENDBRANCH  24  25
ENDBRANCH  23  24
ENDBRANCH  22  23
ENDBRANCH  21  22
ENDBRANCH  20  21
ENDBRANCH  19  20
ENDBRANCH  18  19
ENDBRANCH  17  18
ENDBRANCH   1  17
TORSDOF 26
ENDMDL
MODEL 6
REMARK VINA RESULT:    -3.535      3.452      5.325
REMARK INTER + INTRA:         -12.414
REMARK INTER:                  -9.399
REMARK INTRA:                  -3.015
REMARK UNBOUND:                -3.506
REMARK SMILES CCCCCCCCCCCCCCCCCCCCCCCCCCCC(=O)[O-]
REMARK SMILES IDX 15 1 16 2 17 3 18 4 19 5 20 6 21 7 22 8 23 9 24 10 25 11
REMARK SMILES IDX 26 12 27 13 28 14 29 15 30 16 14 17 13 18 12 19 11 20 10 21
REMARK SMILES IDX 9 22 8 23 7 24 6 25 5 26 4 27 3 28 2 29 1 30
REMARK H PARENT
REMARK Flexibility Score: inf
ROOT
ATOM      1  C   UNL     1      46.394  35.259 -13.035  1.00  0.00     0.000 C 
ENDROOT
BRANCH   1   2
ATOM      2  C   UNL     1      47.138  34.405 -14.078  1.00  0.00     0.000 C 
BRANCH   2   3
ATOM      3  C   UNL     1      47.124  35.030 -15.481  1.00  0.00     0.000 C 
BRANCH   3   4
ATOM      4  C   UNL     1      47.008  36.557 -15.396  1.00  0.00     0.000 C 
BRANCH   4   5
ATOM      5  C   UNL     1      47.173  37.202 -16.782  1.00  0.00     0.000 C 
BRANCH   5   6
ATOM      6  C   UNL     1      48.633  37.568 -17.091  1.00  0.00     0.000 C 
BRANCH   6   7
ATOM      7  C   UNL     1      49.438  36.384 -17.657  1.00  0.00     0.000 C 
BRANCH   7   8
ATOM      8  C   UNL     1      50.496  35.886 -16.657  1.00  0.00     0.000 C 
BRANCH   8   9
ATOM      9  C   UNL     1      51.694  36.850 -16.542  1.00  0.00     0.000 C 
BRANCH   9  10
ATOM     10  C   UNL     1      52.167  37.025 -15.087  1.00  0.00     0.000 C 
BRANCH  10  11
ATOM     11  C   UNL     1      51.095  37.706 -14.215  1.00  0.00     0.000 C 
BRANCH  11  12
ATOM     12  C   UNL     1      49.992  36.735 -13.751  1.00  0.00     0.006 C 
BRANCH  12  13
ATOM     13  C   UNL     1      50.140  36.249 -12.296  1.00  0.00     0.053 C 
BRANCH  13  14
ATOM     14  C   UNL     1      48.960  36.633 -11.457  1.00  0.00     0.041 C 
ATOM     15  O   UNL     1      48.219  37.593 -11.804  1.00  0.00    -0.550 OA
ATOM     16  O   UNL     1      48.636  35.883 -10.329  1.00  0.00    -0.550 OA
ENDBRANCH  13  14
ENDBRANCH  12  13
ENDBRANCH  11  12
ENDBRANCH  10  11
ENDBRANCH   9  10
ENDBRANCH   8   9
ENDBRANCH   7   8
ENDBRANCH   6   7
ENDBRANCH   5   6
ENDBRANCH   4   5
ENDBRANCH   3   4
ENDBRANCH   2   3
ENDBRANCH   1   2
BRANCH   1  17
ATOM     17  C   UNL     1      44.868  35.027 -12.974  1.00  0.00     0.000 C 
BRANCH  17  18
ATOM     18  C   UNL     1      44.028  36.272 -13.341  1.00  0.00     0.000 C 
BRANCH  18  19
ATOM     19  C   UNL     1      44.636  37.569 -12.780  1.00  0.00     0.000 C 
BRANCH  19  20
ATOM     20  C   UNL     1      43.842  38.124 -11.586  1.00  0.00     0.000 C 
BRANCH  20  21
ATOM     21  C   UNL     1      42.365  37.709 -11.614  1.00  0.00     0.000 C 
BRANCH  21  22
ATOM     22  C   UNL     1      41.821  37.540 -10.192  1.00  0.00    -0.000 C 
BRANCH  22  23
ATOM     23  C   UNL     1      42.581  36.445  -9.434  1.00  0.00    -0.000 C 
BRANCH  23  24
ATOM     24  C   UNL     1      43.408  37.044  -8.286  1.00  0.00    -0.000 C 
BRANCH  24  25
ATOM     25  C   UNL     1      44.840  36.485  -8.221  1.00  0.00    -0.000 C 
BRANCH  25  26
ATOM     26  C   UNL     1      45.193  35.464  -9.318  1.00  0.00    -0.000 C 
BRANCH  26  27
ATOM     27  C   UNL     1      46.230  34.428  -8.854  1.00  0.00    -0.000 C 
BRANCH  27  28
ATOM     28  C   UNL     1      45.591  33.078  -8.490  1.00  0.00    -0.000 C 
BRANCH  28  29
ATOM     29  C   UNL     1      44.233  33.236  -7.788  1.00  0.00    -0.003 C 
ATOM     30  C   UNL     1      44.349  32.925  -6.297  1.00  0.00     0.004 C 
ENDBRANCH  28  29
ENDBRANCH  27  28
ENDBRANCH  26  27
ENDBRANCH  25  26
ENDBRANCH  24  25
ENDBRANCH  23  24
ENDBRANCH  22  23
ENDBRANCH  21  22
ENDBRANCH  20  21
ENDBRANCH  19  20
ENDBRANCH  18  19
ENDBRANCH  17  18
ENDBRANCH   1  17
TORSDOF 26
ENDMDL
MODEL 7
REMARK VINA RESULT:    -3.501      3.060      8.168
REMARK INTER + INTRA:         -12.328
REMARK INTER:                  -9.375
REMARK INTRA:                  -2.954
REMARK UNBOUND:                -3.506
REMARK SMILES CCCCCCCCCCCCCCCCCCCCCCCCCCCC(=O)[O-]
REMARK SMILES IDX 15 1 16 2 17 3 18 4 19 5 20 6 21 7 22 8 23 9 24 10 25 11
REMARK SMILES IDX 26 12 27 13 28 14 29 15 30 16 14 17 13 18 12 19 11 20 10 21
REMARK SMILES IDX 9 22 8 23 7 24 6 25 5 26 4 27 3 28 2 29 1 30
REMARK H PARENT
REMARK Flexibility Score: inf
ROOT
ATOM      1  C   UNL     1      46.065  34.198  -9.930  1.00  0.00     0.000 C 
ENDROOT
BRANCH   1   2
ATOM      2  C   UNL     1      45.628  35.085  -8.750  1.00  0.00     0.000 C 
BRANCH   2   3
ATOM      3  C   UNL     1      44.101  35.195  -8.619  1.00  0.00     0.000 C 
BRANCH   3   4
ATOM      4  C   UNL     1      43.682  36.643  -8.337  1.00  0.00     0.000 C 
BRANCH   4   5
ATOM      5  C   UNL     1      42.600  37.108  -9.326  1.00  0.00     0.000 C 
BRANCH   5   6
ATOM      6  C   UNL     1      42.691  36.387 -10.680  1.00  0.00     0.000 C 
BRANCH   6   7
ATOM      7  C   UNL     1      42.540  37.345 -11.876  1.00  0.00     0.000 C 
BRANCH   7   8
ATOM      8  C   UNL     1      43.634  37.113 -12.932  1.00  0.00     0.000 C 
BRANCH   8   9
ATOM      9  C   UNL     1      44.807  38.103 -12.791  1.00  0.00     0.000 C 
BRANCH   9  10
ATOM     10  C   UNL     1      45.387  38.125 -11.365  1.00  0.00     0.000 C 
BRANCH  10  11
ATOM     11  C   UNL     1      46.924  38.037 -11.370  1.00  0.00     0.000 C 
BRANCH  11  12
ATOM     12  C   UNL     1      47.525  38.094 -12.788  1.00  0.00     0.006 C 
BRANCH  12  13
ATOM     13  C   UNL     1      49.035  37.789 -12.854  1.00  0.00     0.053 C 
BRANCH  13  14
ATOM     14  C   UNL     1      49.372  36.492 -12.187  1.00  0.00     0.041 C 
ATOM     15  O   UNL     1      48.981  36.263 -11.009  1.00  0.00    -0.550 OA
ATOM     16  O   UNL     1      50.055  35.504 -12.892  1.00  0.00    -0.550 OA
ENDBRANCH  13  14
ENDBRANCH  12  13
ENDBRANCH  11  12
ENDBRANCH  10  11
ENDBRANCH   9  10
ENDBRANCH   8   9
ENDBRANCH   7   8
ENDBRANCH   6   7
ENDBRANCH   5   6
ENDBRANCH   4   5
ENDBRANCH   3   4
ENDBRANCH   2   3
ENDBRANCH   1   2
BRANCH   1  17
ATOM     17  C   UNL     1      45.742  34.771 -11.328  1.00  0.00     0.000 C 
BRANCH  17  18
ATOM     18  C   UNL     1      46.716  34.309 -12.437  1.00  0.00     0.000 C 
BRANCH  18  19
ATOM     19  C   UNL     1      46.036  34.241 -13.815  1.00  0.00     0.000 C 
BRANCH  19  20
ATOM     20  C   UNL     1      46.489  35.371 -14.753  1.00  0.00     0.000 C 
BRANCH  20  21
ATOM     21  C   UNL     1      47.855  35.093 -15.397  1.00  0.00     0.000 C 
BRANCH  21  22
ATOM     22  C   UNL     1      47.856  35.511 -16.871  1.00  0.00    -0.000 C 
BRANCH  22  23
ATOM     23  C   UNL     1      49.042  36.429 -17.187  1.00  0.00    -0.000 C 
BRANCH  23  24
ATOM     24  C   UNL     1      50.341  35.875 -16.582  1.00  0.00    -0.000 C 
BRANCH  24  25
ATOM     25  C   UNL     1      51.166  36.944 -15.844  1.00  0.00    -0.000 C 
BRANCH  25  26
ATOM     26  C   UNL     1      52.444  37.400 -16.571  1.00  0.00    -0.000 C 
BRANCH  26  27
ATOM     27  C   UNL     1      52.846  36.455 -17.716  1.00  0.00    -0.000 C 
BRANCH  27  28
ATOM     28  C   UNL     1      53.796  37.122 -18.724  1.00  0.00    -0.000 C 
BRANCH  28  29
ATOM     29  C   UNL     1      55.016  36.249 -19.055  1.00  0.00    -0.003 C 
ATOM     30  C   UNL     1      55.375  36.349 -20.536  1.00  0.00     0.004 C 
ENDBRANCH  28  29
ENDBRANCH  27  28
ENDBRANCH  26  27
ENDBRANCH  25  26
ENDBRANCH  24  25
ENDBRANCH  23  24
ENDBRANCH  22  23
ENDBRANCH  21  22
ENDBRANCH  20  21
ENDBRANCH  19  20
ENDBRANCH  18  19
ENDBRANCH  17  18
ENDBRANCH   1  17
TORSDOF 26
ENDMDL
MODEL 8
REMARK VINA RESULT:    -3.440      3.316      9.016
REMARK INTER + INTRA:         -12.176
REMARK INTER:                  -9.497
REMARK INTRA:                  -2.679
REMARK UNBOUND:                -3.506
REMARK SMILES CCCCCCCCCCCCCCCCCCCCCCCCCCCC(=O)[O-]
REMARK SMILES IDX 15 1 16 2 17 3 18 4 19 5 20 6 21 7 22 8 23 9 24 10 25 11
REMARK SMILES IDX 26 12 27 13 28 14 29 15 30 16 14 17 13 18 12 19 11 20 10 21
REMARK SMILES IDX 9 22 8 23 7 24 6 25 5 26 4 27 3 28 2 29 1 30
REMARK H PARENT
REMARK Flexibility Score: inf
ROOT
ATOM      1  C   UNL     1      46.924  35.377 -13.671  1.00  0.00     0.000 C 
ENDROOT
BRANCH   1   2
ATOM      2  C   UNL     1      45.546  36.024 -13.902  1.00  0.00     0.000 C 
BRANCH   2   3
ATOM      3  C   UNL     1      45.531  37.526 -13.580  1.00  0.00     0.000 C 
BRANCH   3   4
ATOM      4  C   UNL     1      44.337  37.879 -12.685  1.00  0.00     0.000 C 
BRANCH   4   5
ATOM      5  C   UNL     1      43.332  36.717 -12.620  1.00  0.00     0.000 C 
BRANCH   5   6
ATOM      6  C   UNL     1      42.201  36.972 -11.611  1.00  0.00     0.000 C 
BRANCH   6   7
ATOM      7  C   UNL     1      42.543  38.083 -10.601  1.00  0.00     0.000 C 
BRANCH   7   8
ATOM      8  C   UNL     1      41.976  37.776  -9.204  1.00  0.00     0.000 C 
BRANCH   8   9
ATOM      9  C   UNL     1      42.989  37.033  -8.310  1.00  0.00     0.000 C 
BRANCH   9  10
ATOM     10  C   UNL     1      44.390  36.962  -8.944  1.00  0.00     0.000 C 
BRANCH  10  11
ATOM     11  C   UNL     1      44.817  35.510  -9.228  1.00  0.00     0.000 C 
BRANCH  11  12
ATOM     12  C   UNL     1      45.914  35.405 -10.306  1.00  0.00     0.006 C 
BRANCH  12  13
ATOM     13  C   UNL     1      47.353  35.438  -9.757  1.00  0.00     0.053 C 
BRANCH  13  14
ATOM     14  C   UNL     1      48.247  36.306 -10.587  1.00  0.00     0.041 C 
ATOM     15  O   UNL     1      49.339  35.855 -11.030  1.00  0.00    -0.550 OA
ATOM     16  O   UNL     1      47.840  37.592 -10.935  1.00  0.00    -0.550 OA
ENDBRANCH  13  14
ENDBRANCH  12  13
ENDBRANCH  11  12
ENDBRANCH  10  11
ENDBRANCH   9  10
ENDBRANCH   8   9
ENDBRANCH   7   8
ENDBRANCH   6   7
ENDBRANCH   5   6
ENDBRANCH   4   5
ENDBRANCH   3   4
ENDBRANCH   2   3
ENDBRANCH   1   2
BRANCH   1  17
ATOM     17  C   UNL     1      47.281  34.239 -14.652  1.00  0.00     0.000 C 
BRANCH  17  18
ATOM     18  C   UNL     1      47.695  34.728 -16.059  1.00  0.00     0.000 C 
BRANCH  18  19
ATOM     19  C   UNL     1      47.653  36.262 -16.176  1.00  0.00     0.000 C 
BRANCH  19  20
ATOM     20  C   UNL     1      48.403  36.780 -17.414  1.00  0.00     0.000 C 
BRANCH  20  21
ATOM     21  C   UNL     1      49.833  37.237 -17.091  1.00  0.00     0.000 C 
BRANCH  21  22
ATOM     22  C   UNL     1      49.852  38.115 -15.835  1.00  0.00    -0.000 C 
BRANCH  22  23
ATOM     23  C   UNL     1      50.174  37.287 -14.585  1.00  0.00    -0.000 C 
BRANCH  23  24
ATOM     24  C   UNL     1      51.662  36.907 -14.546  1.00  0.00    -0.000 C 
BRANCH  24  25
ATOM     25  C   UNL     1      52.597  38.123 -14.674  1.00  0.00    -0.000 C 
BRANCH  25  26
ATOM     26  C   UNL     1      53.773  37.942 -15.651  1.00  0.00    -0.000 C 
BRANCH  26  27
ATOM     27  C   UNL     1      53.355  38.113 -17.122  1.00  0.00    -0.000 C 
BRANCH  27  28
ATOM     28  C   UNL     1      54.457  37.674 -18.101  1.00  0.00    -0.000 C 
BRANCH  28  29
ATOM     29  C   UNL     1      54.014  36.519 -19.011  1.00  0.00    -0.003 C 
ATOM     30  C   UNL     1      55.015  36.298 -20.143  1.00  0.00     0.004 C 
ENDBRANCH  28  29
ENDBRANCH  27  28
ENDBRANCH  26  27
ENDBRANCH  25  26
ENDBRANCH  24  25
ENDBRANCH  23  24
ENDBRANCH  22  23
ENDBRANCH  21  22
ENDBRANCH  20  21
ENDBRANCH  19  20
ENDBRANCH  18  19
ENDBRANCH  17  18
ENDBRANCH   1  17
TORSDOF 26
ENDMDL
