MODEL 1
REMARK VINA RESULT:    -4.659      0.000      0.000
REMARK INTER + INTRA:         -14.646
REMARK INTER:                 -10.652
REMARK INTRA:                  -3.995
REMARK UNBOUND:                -3.995
REMARK SMILES CCCCCCCCCCCCCCCCCCCCCCCC(=O)[O-]
REMARK SMILES IDX 13 1 14 2 15 3 16 4 17 5 18 6 19 7 20 8 21 9 22 10 23 11
REMARK SMILES IDX 24 12 25 13 26 14 12 15 11 16 10 17 9 18 8 19 7 20 6 21 5 22
REMARK SMILES IDX 4 23 3 24 2 25 1 26
REMARK H PARENT
REMARK Flexibility Score: inf
ROOT
ATOM      1  C   UNL     1     -22.308 -61.309   0.060  1.00  0.00     0.000 C 
ENDROOT
BRANCH   1   2
ATOM      2  C   UNL     1     -22.367 -62.705   0.714  1.00  0.00     0.000 C 
BRANCH   2   3
ATOM      3  C   UNL     1     -22.734 -62.705   2.211  1.00  0.00     0.000 C 
BRANCH   3   4
ATOM      4  C   UNL     1     -23.868 -63.672   2.605  1.00  0.00     0.000 C 
BRANCH   4   5
ATOM      5  C   UNL     1     -25.104 -63.005   3.234  1.00  0.00     0.000 C 
BRANCH   5   6
ATOM      6  C   UNL     1     -25.272 -61.538   2.808  1.00  0.00     0.000 C 
BRANCH   6   7
ATOM      7  C   UNL     1     -25.759 -60.679   3.985  1.00  0.00     0.000 C 
BRANCH   7   8
ATOM      8  C   UNL     1     -24.699 -60.528   5.090  1.00  0.00     0.000 C 
BRANCH   8   9
ATOM      9  C   UNL     1     -23.348 -60.030   4.547  1.00  0.00     0.000 C 
BRANCH   9  10
ATOM     10  C   UNL     1     -22.726 -58.928   5.423  1.00  0.00     0.006 C 
BRANCH  10  11
ATOM     11  C   UNL     1     -23.580 -57.654   5.541  1.00  0.00     0.053 C 
BRANCH  11  12
ATOM     12  C   UNL     1     -23.012 -56.690   6.537  1.00  0.00     0.041 C 
ATOM     13  O   UNL     1     -23.529 -56.580   7.680  1.00  0.00    -0.550 OA
ATOM     14  O   UNL     1     -21.929 -55.890   6.192  1.00  0.00    -0.550 OA
ENDBRANCH  11  12
ENDBRANCH  10  11
ENDBRANCH   9  10
ENDBRANCH   8   9
ENDBRANCH   7   8
ENDBRANCH   6   7
ENDBRANCH   5   6
ENDBRANCH   4   5
ENDBRANCH   3   4
ENDBRANCH   2   3
ENDBRANCH   1   2
BRANCH   1  15
ATOM     15  C   UNL     1     -22.044 -60.142   1.033  1.00  0.00     0.000 C 
BRANCH  15  16
ATOM     16  C   UNL     1     -22.108 -58.740   0.400  1.00  0.00     0.000 C 
BRANCH  16  17
ATOM     17  C   UNL     1     -22.213 -57.620   1.445  1.00  0.00     0.000 C 
BRANCH  17  18
ATOM     18  C   UNL     1     -23.603 -56.972   1.416  1.00  0.00    -0.000 C 
BRANCH  18  19
ATOM     19  C   UNL     1     -24.654 -57.895   2.051  1.00  0.00    -0.000 C 
BRANCH  19  20
ATOM     20  C   UNL     1     -26.086 -57.583   1.580  1.00  0.00    -0.000 C 
BRANCH  20  21
ATOM     21  C   UNL     1     -26.435 -58.086   0.164  1.00  0.00    -0.000 C 
BRANCH  21  22
ATOM     22  C   UNL     1     -25.849 -59.461  -0.207  1.00  0.00    -0.000 C 
BRANCH  22  23
ATOM     23  C   UNL     1     -25.098 -59.446  -1.549  1.00  0.00    -0.000 C 
BRANCH  23  24
ATOM     24  C   UNL     1     -25.124 -58.065  -2.224  1.00  0.00    -0.000 C 
BRANCH  24  25
ATOM     25  C   UNL     1     -25.997 -58.037  -3.487  1.00  0.00    -0.003 C 
ATOM     26  C   UNL     1     -26.933 -56.831  -3.481  1.00  0.00     0.004 C 
ENDBRANCH  24  25
ENDBRANCH  23  24
ENDBRANCH  22  23
ENDBRANCH  21  22
ENDBRANCH  20  21
ENDBRANCH  19  20
ENDBRANCH  18  19
ENDBRANCH  17  18
ENDBRANCH  16  17
ENDBRANCH  15  16
ENDBRANCH   1  15
TORSDOF 22
ENDMDL
MODEL 2
REMARK VINA RESULT:    -4.644      3.304      6.931
REMARK INTER + INTRA:         -14.612
REMARK INTER:                 -10.873
REMARK INTRA:                  -3.739
REMARK UNBOUND:                -3.995
REMARK SMILES CCCCCCCCCCCCCCCCCCCCCCCC(=O)[O-]
REMARK SMILES IDX 13 1 14 2 15 3 16 4 17 5 18 6 19 7 20 8 21 9 22 10 23 11
REMARK SMILES IDX 24 12 25 13 26 14 12 15 11 16 10 17 9 18 8 19 7 20 6 21 5 22
REMARK SMILES IDX 4 23 3 24 2 25 1 26
REMARK H PARENT
REMARK Flexibility Score: inf
ROOT
ATOM      1  C   UNL     1     -24.800 -61.916   2.933  1.00  0.00     0.000 C 
ENDROOT
BRANCH   1   2
ATOM      2  C   UNL     1     -23.743 -62.714   2.142  1.00  0.00     0.000 C 
BRANCH   2   3
ATOM      3  C   UNL     1     -22.393 -61.993   1.951  1.00  0.00     0.000 C 
BRANCH   3   4
ATOM      4  C   UNL     1     -21.999 -61.722   0.486  1.00  0.00     0.000 C 
BRANCH   4   5
ATOM      5  C   UNL     1     -22.069 -60.247   0.055  1.00  0.00     0.000 C 
BRANCH   5   6
ATOM      6  C   UNL     1     -23.085 -60.001  -1.071  1.00  0.00     0.000 C 
BRANCH   6   7
ATOM      7  C   UNL     1     -24.479 -59.707  -0.495  1.00  0.00     0.000 C 
BRANCH   7   8
ATOM      8  C   UNL     1     -24.423 -58.945   0.840  1.00  0.00     0.000 C 
BRANCH   8   9
ATOM      9  C   UNL     1     -25.403 -57.760   0.885  1.00  0.00     0.000 C 
BRANCH   9  10
ATOM     10  C   UNL     1     -25.102 -56.699  -0.189  1.00  0.00     0.006 C 
BRANCH  10  11
ATOM     11  C   UNL     1     -26.271 -56.418  -1.148  1.00  0.00     0.053 C 
BRANCH  11  12
ATOM     12  C   UNL     1     -26.043 -57.022  -2.500  1.00  0.00     0.041 C 
ATOM     13  O   UNL     1     -26.911 -57.779  -3.012  1.00  0.00    -0.550 OA
ATOM     14  O   UNL     1     -24.858 -56.774  -3.182  1.00  0.00    -0.550 OA
ENDBRANCH  11  12
ENDBRANCH  10  11
ENDBRANCH   9  10
ENDBRANCH   8   9
ENDBRANCH   7   8
ENDBRANCH   6   7
ENDBRANCH   5   6
ENDBRANCH   4   5
ENDBRANCH   3   4
ENDBRANCH   2   3
ENDBRANCH   1   2
BRANCH   1  15
ATOM     15  C   UNL     1     -25.854 -62.773   3.662  1.00  0.00     0.000 C 
BRANCH  15  16
ATOM     16  C   UNL     1     -25.464 -64.247   3.872  1.00  0.00     0.000 C 
BRANCH  16  17
ATOM     17  C   UNL     1     -24.803 -64.500   5.235  1.00  0.00     0.000 C 
BRANCH  17  18
ATOM     18  C   UNL     1     -23.359 -64.987   5.061  1.00  0.00    -0.000 C 
BRANCH  18  19
ATOM     19  C   UNL     1     -22.361 -63.963   5.623  1.00  0.00    -0.000 C 
BRANCH  19  20
ATOM     20  C   UNL     1     -23.048 -62.714   6.203  1.00  0.00    -0.000 C 
BRANCH  20  21
ATOM     21  C   UNL     1     -22.399 -61.369   5.816  1.00  0.00    -0.000 C 
BRANCH  21  22
ATOM     22  C   UNL     1     -23.354 -60.161   5.793  1.00  0.00    -0.000 C 
BRANCH  22  23
ATOM     23  C   UNL     1     -23.070 -59.198   4.628  1.00  0.00    -0.000 C 
BRANCH  23  24
ATOM     24  C   UNL     1     -24.214 -58.198   4.399  1.00  0.00    -0.000 C 
BRANCH  24  25
ATOM     25  C   UNL     1     -23.814 -56.752   4.728  1.00  0.00    -0.003 C 
ATOM     26  C   UNL     1     -22.296 -56.591   4.741  1.00  0.00     0.004 C 
ENDBRANCH  24  25
ENDBRANCH  23  24
ENDBRANCH  22  23
ENDBRANCH  21  22
ENDBRANCH  20  21
ENDBRANCH  19  20
ENDBRANCH  18  19
ENDBRANCH  17  18
ENDBRANCH  16  17
ENDBRANCH  15  16
ENDBRANCH   1  15
TORSDOF 22
ENDMDL
MODEL 3
REMARK VINA RESULT:    -4.625      3.062      6.597
REMARK INTER + INTRA:         -14.569
REMARK INTER:                 -10.739
REMARK INTRA:                  -3.831
REMARK UNBOUND:                -3.995
REMARK SMILES CCCCCCCCCCCCCCCCCCCCCCCC(=O)[O-]
REMARK SMILES IDX 13 1 14 2 15 3 16 4 17 5 18 6 19 7 20 8 21 9 22 10 23 11
REMARK SMILES IDX 24 12 25 13 26 14 12 15 11 16 10 17 9 18 8 19 7 20 6 21 5 22
REMARK SMILES IDX 4 23 3 24 2 25 1 26
REMARK H PARENT
REMARK Flexibility Score: inf
ROOT
ATOM      1  C   UNL     1     -25.836 -63.769   5.913  1.00  0.00     0.000 C 
ENDROOT
BRANCH   1   2
ATOM      2  C   UNL     1     -26.422 -62.823   4.845  1.00  0.00     0.000 C 
BRANCH   2   3
ATOM      3  C   UNL     1     -25.622 -62.755   3.529  1.00  0.00     0.000 C 
BRANCH   3   4
ATOM      4  C   UNL     1     -24.712 -63.969   3.254  1.00  0.00     0.000 C 
BRANCH   4   5
ATOM      5  C   UNL     1     -23.424 -63.654   2.473  1.00  0.00     0.000 C 
BRANCH   5   6
ATOM      6  C   UNL     1     -23.391 -62.215   1.932  1.00  0.00     0.000 C 
BRANCH   6   7
ATOM      7  C   UNL     1     -22.195 -62.014   0.989  1.00  0.00     0.000 C 
BRANCH   7   8
ATOM      8  C   UNL     1     -21.947 -60.535   0.649  1.00  0.00     0.000 C 
BRANCH   8   9
ATOM      9  C   UNL     1     -22.164 -60.228  -0.843  1.00  0.00     0.000 C 
BRANCH   9  10
ATOM     10  C   UNL     1     -23.091 -59.021  -1.073  1.00  0.00     0.006 C 
BRANCH  10  11
ATOM     11  C   UNL     1     -24.560 -59.392  -1.338  1.00  0.00     0.053 C 
BRANCH  11  12
ATOM     12  C   UNL     1     -25.355 -58.217  -1.820  1.00  0.00     0.041 C 
ATOM     13  O   UNL     1     -26.542 -58.052  -1.432  1.00  0.00    -0.550 OA
ATOM     14  O   UNL     1     -24.795 -57.322  -2.723  1.00  0.00    -0.550 OA
ENDBRANCH  11  12
ENDBRANCH  10  11
ENDBRANCH   9  10
ENDBRANCH   8   9
ENDBRANCH   7   8
ENDBRANCH   6   7
ENDBRANCH   5   6
ENDBRANCH   4   5
ENDBRANCH   3   4
ENDBRANCH   2   3
ENDBRANCH   1   2
BRANCH   1  15
ATOM     15  C   UNL     1     -24.835 -63.116   6.887  1.00  0.00     0.000 C 
BRANCH  15  16
ATOM     16  C   UNL     1     -23.357 -63.461   6.629  1.00  0.00     0.000 C 
BRANCH  16  17
ATOM     17  C   UNL     1     -22.621 -62.373   5.833  1.00  0.00     0.000 C 
BRANCH  17  18
ATOM     18  C   UNL     1     -23.295 -61.008   6.020  1.00  0.00    -0.000 C 
BRANCH  18  19
ATOM     19  C   UNL     1     -23.138 -60.139   4.763  1.00  0.00    -0.000 C 
BRANCH  19  20
ATOM     20  C   UNL     1     -24.483 -59.629   4.217  1.00  0.00    -0.000 C 
BRANCH  20  21
ATOM     21  C   UNL     1     -24.379 -58.632   3.044  1.00  0.00    -0.000 C 
BRANCH  21  22
ATOM     22  C   UNL     1     -23.092 -57.787   3.012  1.00  0.00    -0.000 C 
BRANCH  22  23
ATOM     23  C   UNL     1     -23.170 -56.550   3.922  1.00  0.00    -0.000 C 
BRANCH  23  24
ATOM     24  C   UNL     1     -22.175 -56.616   5.093  1.00  0.00    -0.000 C 
BRANCH  24  25
ATOM     25  C   UNL     1     -22.799 -56.185   6.428  1.00  0.00    -0.003 C 
ATOM     26  C   UNL     1     -23.933 -57.122   6.833  1.00  0.00     0.004 C 
ENDBRANCH  24  25
ENDBRANCH  23  24
ENDBRANCH  22  23
ENDBRANCH  21  22
ENDBRANCH  20  21
ENDBRANCH  19  20
ENDBRANCH  18  19
ENDBRANCH  17  18
ENDBRANCH  16  17
ENDBRANCH  15  16
ENDBRANCH   1  15
TORSDOF 22
ENDMDL
MODEL 4
REMARK VINA RESULT:    -4.618      1.703      3.836
REMARK INTER + INTRA:         -14.552
REMARK INTER:                 -10.413
REMARK INTRA:                  -4.140
REMARK UNBOUND:                -3.995
REMARK SMILES CCCCCCCCCCCCCCCCCCCCCCCC(=O)[O-]
REMARK SMILES IDX 13 1 14 2 15 3 16 4 17 5 18 6 19 7 20 8 21 9 22 10 23 11
REMARK SMILES IDX 24 12 25 13 26 14 12 15 11 16 10 17 9 18 8 19 7 20 6 21 5 22
REMARK SMILES IDX 4 23 3 24 2 25 1 26
REMARK H PARENT
REMARK Flexibility Score: inf
ROOT
ATOM      1  C   UNL     1     -25.259 -62.750   3.240  1.00  0.00     0.000 C 
ENDROOT
BRANCH   1   2
ATOM      2  C   UNL     1     -25.087 -64.244   3.584  1.00  0.00     0.000 C 
BRANCH   2   3
ATOM      3  C   UNL     1     -24.925 -64.549   5.087  1.00  0.00     0.000 C 
BRANCH   3   4
ATOM      4  C   UNL     1     -23.517 -65.012   5.512  1.00  0.00     0.000 C 
BRANCH   4   5
ATOM      5  C   UNL     1     -22.669 -63.946   6.227  1.00  0.00     0.000 C 
BRANCH   5   6
ATOM      6  C   UNL     1     -21.883 -63.056   5.252  1.00  0.00     0.000 C 
BRANCH   6   7
ATOM      7  C   UNL     1     -22.248 -61.576   5.447  1.00  0.00     0.000 C 
BRANCH   7   8
ATOM      8  C   UNL     1     -23.551 -61.384   6.241  1.00  0.00     0.000 C 
BRANCH   8   9
ATOM      9  C   UNL     1     -24.383 -60.196   5.731  1.00  0.00     0.000 C 
BRANCH   9  10
ATOM     10  C   UNL     1     -24.074 -58.888   6.481  1.00  0.00     0.006 C 
BRANCH  10  11
ATOM     11  C   UNL     1     -22.842 -58.132   5.956  1.00  0.00     0.053 C 
BRANCH  11  12
ATOM     12  C   UNL     1     -23.001 -56.647   6.080  1.00  0.00     0.041 C 
ATOM     13  O   UNL     1     -24.096 -56.156   6.461  1.00  0.00    -0.550 OA
ATOM     14  O   UNL     1     -21.949 -55.804   5.742  1.00  0.00    -0.550 OA
ENDBRANCH  11  12
ENDBRANCH  10  11
ENDBRANCH   9  10
ENDBRANCH   8   9
ENDBRANCH   7   8
ENDBRANCH   6   7
ENDBRANCH   5   6
ENDBRANCH   4   5
ENDBRANCH   3   4
ENDBRANCH   2   3
ENDBRANCH   1   2
BRANCH   1  15
ATOM     15  C   UNL     1     -24.172 -62.163   2.316  1.00  0.00     0.000 C 
BRANCH  15  16
ATOM     16  C   UNL     1     -23.143 -63.182   1.794  1.00  0.00     0.000 C 
BRANCH  16  17
ATOM     17  C   UNL     1     -21.929 -62.514   1.130  1.00  0.00     0.000 C 
BRANCH  17  18
ATOM     18  C   UNL     1     -22.218 -61.041   0.816  1.00  0.00    -0.000 C 
BRANCH  18  19
ATOM     19  C   UNL     1     -21.880 -60.714  -0.646  1.00  0.00    -0.000 C 
BRANCH  19  20
ATOM     20  C   UNL     1     -22.715 -59.548  -1.206  1.00  0.00    -0.000 C 
BRANCH  20  21
ATOM     21  C   UNL     1     -24.206 -59.559  -0.809  1.00  0.00    -0.000 C 
BRANCH  21  22
ATOM     22  C   UNL     1     -24.696 -58.305  -0.063  1.00  0.00    -0.000 C 
BRANCH  22  23
ATOM     23  C   UNL     1     -23.576 -57.606   0.727  1.00  0.00    -0.000 C 
BRANCH  23  24
ATOM     24  C   UNL     1     -23.584 -57.982   2.218  1.00  0.00    -0.000 C 
BRANCH  24  25
ATOM     25  C   UNL     1     -24.930 -58.565   2.676  1.00  0.00    -0.003 C 
ATOM     26  C   UNL     1     -25.775 -57.507   3.379  1.00  0.00     0.004 C 
ENDBRANCH  24  25
ENDBRANCH  23  24
ENDBRANCH  22  23
ENDBRANCH  21  22
ENDBRANCH  20  21
ENDBRANCH  19  20
ENDBRANCH  18  19
ENDBRANCH  17  18
ENDBRANCH  16  17
ENDBRANCH  15  16
ENDBRANCH   1  15
TORSDOF 22
ENDMDL
MODEL 5
REMARK VINA RESULT:    -4.598      3.278      6.827
REMARK INTER + INTRA:         -14.506
REMARK INTER:                 -10.307
REMARK INTRA:                  -4.199
REMARK UNBOUND:                -3.995
REMARK SMILES CCCCCCCCCCCCCCCCCCCCCCCC(=O)[O-]
REMARK SMILES IDX 13 1 14 2 15 3 16 4 17 5 18 6 19 7 20 8 21 9 22 10 23 11
REMARK SMILES IDX 24 12 25 13 26 14 12 15 11 16 10 17 9 18 8 19 7 20 6 21 5 22
REMARK SMILES IDX 4 23 3 24 2 25 1 26
REMARK H PARENT
REMARK Flexibility Score: inf
ROOT
ATOM      1  C   UNL     1     -23.108 -57.094   1.928  1.00  0.00     0.000 C 
ENDROOT
BRANCH   1   2
ATOM      2  C   UNL     1     -21.875 -58.000   1.734  1.00  0.00     0.000 C 
BRANCH   2   3
ATOM      3  C   UNL     1     -21.946 -58.940   0.514  1.00  0.00     0.000 C 
BRANCH   3   4
ATOM      4  C   UNL     1     -22.330 -60.398   0.835  1.00  0.00     0.000 C 
BRANCH   4   5
ATOM      5  C   UNL     1     -22.962 -60.615   2.221  1.00  0.00     0.000 C 
BRANCH   5   6
ATOM      6  C   UNL     1     -24.409 -61.128   2.144  1.00  0.00     0.000 C 
BRANCH   6   7
ATOM      7  C   UNL     1     -25.379 -60.123   2.784  1.00  0.00     0.000 C 
BRANCH   7   8
ATOM      8  C   UNL     1     -25.968 -59.133   1.765  1.00  0.00     0.000 C 
BRANCH   8   9
ATOM      9  C   UNL     1     -25.929 -59.674   0.325  1.00  0.00     0.000 C 
BRANCH   9  10
ATOM     10  C   UNL     1     -25.393 -58.643  -0.683  1.00  0.00     0.006 C 
BRANCH  10  11
ATOM     11  C   UNL     1     -25.667 -58.993  -2.155  1.00  0.00     0.053 C 
BRANCH  11  12
ATOM     12  C   UNL     1     -25.820 -57.767  -3.003  1.00  0.00     0.041 C 
ATOM     13  O   UNL     1     -24.883 -56.930  -3.083  1.00  0.00    -0.550 OA
ATOM     14  O   UNL     1     -27.010 -57.535  -3.682  1.00  0.00    -0.550 OA
ENDBRANCH  11  12
ENDBRANCH  10  11
ENDBRANCH   9  10
ENDBRANCH   8   9
ENDBRANCH   7   8
ENDBRANCH   6   7
ENDBRANCH   5   6
ENDBRANCH   4   5
ENDBRANCH   3   4
ENDBRANCH   2   3
ENDBRANCH   1   2
BRANCH   1  15
ATOM     15  C   UNL     1     -23.455 -56.767   3.395  1.00  0.00     0.000 C 
BRANCH  15  16
ATOM     16  C   UNL     1     -22.345 -57.089   4.413  1.00  0.00     0.000 C 
BRANCH  16  17
ATOM     17  C   UNL     1     -22.885 -57.734   5.698  1.00  0.00     0.000 C 
BRANCH  17  18
ATOM     18  C   UNL     1     -22.949 -59.260   5.560  1.00  0.00    -0.000 C 
BRANCH  18  19
ATOM     19  C   UNL     1     -24.113 -59.839   6.377  1.00  0.00    -0.000 C 
BRANCH  19  20
ATOM     20  C   UNL     1     -24.154 -61.377   6.353  1.00  0.00    -0.000 C 
BRANCH  20  21
ATOM     21  C   UNL     1     -22.890 -62.058   5.789  1.00  0.00    -0.000 C 
BRANCH  21  22
ATOM     22  C   UNL     1     -22.998 -63.582   5.591  1.00  0.00    -0.000 C 
BRANCH  22  23
ATOM     23  C   UNL     1     -23.384 -63.970   4.154  1.00  0.00    -0.000 C 
BRANCH  23  24
ATOM     24  C   UNL     1     -24.736 -64.697   4.084  1.00  0.00    -0.000 C 
BRANCH  24  25
ATOM     25  C   UNL     1     -25.933 -63.742   4.202  1.00  0.00    -0.003 C 
ATOM     26  C   UNL     1     -26.693 -63.972   5.505  1.00  0.00     0.004 C 
ENDBRANCH  24  25
ENDBRANCH  23  24
ENDBRANCH  22  23
ENDBRANCH  21  22
ENDBRANCH  20  21
ENDBRANCH  19  20
ENDBRANCH  18  19
ENDBRANCH  17  18
ENDBRANCH  16  17
ENDBRANCH  15  16
ENDBRANCH   1  15
TORSDOF 22
ENDMDL
MODEL 6
REMARK VINA RESULT:    -4.595      1.750      5.287
REMARK INTER + INTRA:         -14.500
REMARK INTER:                 -10.071
REMARK INTRA:                  -4.429
REMARK UNBOUND:                -3.995
REMARK SMILES CCCCCCCCCCCCCCCCCCCCCCCC(=O)[O-]
REMARK SMILES IDX 13 1 14 2 15 3 16 4 17 5 18 6 19 7 20 8 21 9 22 10 23 11
REMARK SMILES IDX 24 12 25 13 26 14 12 15 11 16 10 17 9 18 8 19 7 20 6 21 5 22
REMARK SMILES IDX 4 23 3 24 2 25 1 26
REMARK H PARENT
REMARK Flexibility Score: inf
ROOT
ATOM      1  C   UNL     1     -23.552 -61.883   2.018  1.00  0.00     0.000 C 
ENDROOT
BRANCH   1   2
ATOM      2  C   UNL     1     -22.148 -61.618   1.437  1.00  0.00     0.000 C 
BRANCH   2   3
ATOM      3  C   UNL     1     -22.035 -61.784  -0.092  1.00  0.00     0.000 C 
BRANCH   3   4
ATOM      4  C   UNL     1     -22.167 -60.479  -0.902  1.00  0.00     0.000 C 
BRANCH   4   5
ATOM      5  C   UNL     1     -23.572 -59.851  -0.899  1.00  0.00     0.000 C 
BRANCH   5   6
ATOM      6  C   UNL     1     -23.542 -58.321  -1.044  1.00  0.00     0.000 C 
BRANCH   6   7
ATOM      7  C   UNL     1     -23.813 -57.639   0.306  1.00  0.00     0.000 C 
BRANCH   7   8
ATOM      8  C   UNL     1     -22.630 -57.761   1.282  1.00  0.00     0.000 C 
BRANCH   8   9
ATOM      9  C   UNL     1     -23.066 -58.227   2.682  1.00  0.00     0.000 C 
BRANCH   9  10
ATOM     10  C   UNL     1     -22.583 -57.285   3.799  1.00  0.00     0.006 C 
BRANCH  10  11
ATOM     11  C   UNL     1     -23.711 -56.693   4.662  1.00  0.00     0.053 C 
BRANCH  11  12
ATOM     12  C   UNL     1     -23.269 -56.457   6.074  1.00  0.00     0.041 C 
ATOM     13  O   UNL     1     -24.072 -56.636   7.028  1.00  0.00    -0.550 OA
ATOM     14  O   UNL     1     -21.980 -56.007   6.334  1.00  0.00    -0.550 OA
ENDBRANCH  11  12
ENDBRANCH  10  11
ENDBRANCH   9  10
ENDBRANCH   8   9
ENDBRANCH   7   8
ENDBRANCH   6   7
ENDBRANCH   5   6
ENDBRANCH   4   5
ENDBRANCH   3   4
ENDBRANCH   2   3
ENDBRANCH   1   2
BRANCH   1  15
ATOM     15  C   UNL     1     -23.822 -63.343   2.431  1.00  0.00     0.000 C 
BRANCH  15  16
ATOM     16  C   UNL     1     -25.034 -63.543   3.360  1.00  0.00     0.000 C 
BRANCH  16  17
ATOM     17  C   UNL     1     -24.701 -64.389   4.598  1.00  0.00     0.000 C 
BRANCH  17  18
ATOM     18  C   UNL     1     -23.233 -64.211   5.005  1.00  0.00    -0.000 C 
BRANCH  18  19
ATOM     19  C   UNL     1     -23.086 -63.116   6.073  1.00  0.00    -0.000 C 
BRANCH  19  20
ATOM     20  C   UNL     1     -22.293 -61.896   5.573  1.00  0.00    -0.000 C 
BRANCH  20  21
ATOM     21  C   UNL     1     -23.055 -60.554   5.620  1.00  0.00    -0.000 C 
BRANCH  21  22
ATOM     22  C   UNL     1     -24.398 -60.589   6.371  1.00  0.00    -0.000 C 
BRANCH  22  23
ATOM     23  C   UNL     1     -25.475 -59.715   5.707  1.00  0.00    -0.000 C 
BRANCH  23  24
ATOM     24  C   UNL     1     -25.968 -60.299   4.373  1.00  0.00    -0.000 C 
BRANCH  24  25
ATOM     25  C   UNL     1     -26.587 -59.238   3.451  1.00  0.00    -0.003 C 
ATOM     26  C   UNL     1     -26.428 -59.625   1.984  1.00  0.00     0.004 C 
ENDBRANCH  24  25
ENDBRANCH  23  24
ENDBRANCH  22  23
ENDBRANCH  21  22
ENDBRANCH  20  21
ENDBRANCH  19  20
ENDBRANCH  18  19
ENDBRANCH  17  18
ENDBRANCH  16  17
ENDBRANCH  15  16
ENDBRANCH   1  15
TORSDOF 22
ENDMDL
MODEL 7
REMARK VINA RESULT:    -4.581      2.775      6.306
REMARK INTER + INTRA:         -14.466
REMARK INTER:                  -9.963
REMARK INTRA:                  -4.504
REMARK UNBOUND:                -3.995
REMARK SMILES CCCCCCCCCCCCCCCCCCCCCCCC(=O)[O-]
REMARK SMILES IDX 13 1 14 2 15 3 16 4 17 5 18 6 19 7 20 8 21 9 22 10 23 11
REMARK SMILES IDX 24 12 25 13 26 14 12 15 11 16 10 17 9 18 8 19 7 20 6 21 5 22
REMARK SMILES IDX 4 23 3 24 2 25 1 26
REMARK H PARENT
REMARK Flexibility Score: inf
ROOT
ATOM      1  C   UNL     1     -23.437 -58.221   3.169  1.00  0.00     0.000 C 
ENDROOT
BRANCH   1   2
ATOM      2  C   UNL     1     -22.621 -57.509   2.071  1.00  0.00     0.000 C 
BRANCH   2   3
ATOM      3  C   UNL     1     -22.026 -58.441   0.997  1.00  0.00     0.000 C 
BRANCH   3   4
ATOM      4  C   UNL     1     -22.230 -59.948   1.253  1.00  0.00     0.000 C 
BRANCH   4   5
ATOM      5  C   UNL     1     -23.290 -60.621   0.363  1.00  0.00     0.000 C 
BRANCH   5   6
ATOM      6  C   UNL     1     -23.332 -60.040  -1.059  1.00  0.00     0.000 C 
BRANCH   6   7
ATOM      7  C   UNL     1     -24.726 -59.477  -1.377  1.00  0.00     0.000 C 
BRANCH   7   8
ATOM      8  C   UNL     1     -25.651 -59.448  -0.149  1.00  0.00     0.000 C 
BRANCH   8   9
ATOM      9  C   UNL     1     -26.041 -58.018   0.263  1.00  0.00     0.000 C 
BRANCH   9  10
ATOM     10  C   UNL     1     -25.249 -56.942  -0.503  1.00  0.00     0.006 C 
BRANCH  10  11
ATOM     11  C   UNL     1     -26.096 -56.101  -1.472  1.00  0.00     0.053 C 
BRANCH  11  12
ATOM     12  C   UNL     1     -26.339 -54.719  -0.949  1.00  0.00     0.041 C 
ATOM     13  O   UNL     1     -27.360 -54.474  -0.253  1.00  0.00    -0.550 OA
ATOM     14  O   UNL     1     -25.454 -53.693  -1.257  1.00  0.00    -0.550 OA
ENDBRANCH  11  12
ENDBRANCH  10  11
ENDBRANCH   9  10
ENDBRANCH   8   9
ENDBRANCH   7   8
ENDBRANCH   6   7
ENDBRANCH   5   6
ENDBRANCH   4   5
ENDBRANCH   3   4
ENDBRANCH   2   3
ENDBRANCH   1   2
BRANCH   1  15
ATOM     15  C   UNL     1     -23.035 -57.868   4.615  1.00  0.00     0.000 C 
BRANCH  15  16
ATOM     16  C   UNL     1     -22.949 -59.067   5.578  1.00  0.00     0.000 C 
BRANCH  16  17
ATOM     17  C   UNL     1     -22.868 -60.414   4.845  1.00  0.00     0.000 C 
BRANCH  17  18
ATOM     18  C   UNL     1     -22.781 -61.575   5.844  1.00  0.00    -0.000 C 
BRANCH  18  19
ATOM     19  C   UNL     1     -22.824 -62.929   5.119  1.00  0.00    -0.000 C 
BRANCH  19  20
ATOM     20  C   UNL     1     -22.795 -62.788   3.586  1.00  0.00    -0.000 C 
BRANCH  20  21
ATOM     21  C   UNL     1     -24.081 -63.236   2.862  1.00  0.00    -0.000 C 
BRANCH  21  22
ATOM     22  C   UNL     1     -25.244 -63.649   3.783  1.00  0.00    -0.000 C 
BRANCH  22  23
ATOM     23  C   UNL     1     -26.328 -62.564   3.898  1.00  0.00    -0.000 C 
BRANCH  23  24
ATOM     24  C   UNL     1     -25.982 -61.299   3.096  1.00  0.00    -0.000 C 
BRANCH  24  25
ATOM     25  C   UNL     1     -26.381 -60.007   3.824  1.00  0.00    -0.003 C 
ATOM     26  C   UNL     1     -26.548 -60.249   5.321  1.00  0.00     0.004 C 
ENDBRANCH  24  25
ENDBRANCH  23  24
ENDBRANCH  22  23
ENDBRANCH  21  22
ENDBRANCH  20  21
ENDBRANCH  19  20
ENDBRANCH  18  19
ENDBRANCH  17  18
ENDBRANCH  16  17
ENDBRANCH  15  16
ENDBRANCH   1  15
TORSDOF 22
ENDMDL
MODEL 8
REMARK VINA RESULT:    -4.563      3.332      6.930
REMARK INTER + INTRA:         -14.427
REMARK INTER:                 -10.081
REMARK INTRA:                  -4.346
REMARK UNBOUND:                -3.995
REMARK SMILES CCCCCCCCCCCCCCCCCCCCCCCC(=O)[O-]
REMARK SMILES IDX 13 1 14 2 15 3 16 4 17 5 18 6 19 7 20 8 21 9 22 10 23 11
REMARK SMILES IDX 24 12 25 13 26 14 12 15 11 16 10 17 9 18 8 19 7 20 6 21 5 22
REMARK SMILES IDX 4 23 3 24 2 25 1 26
REMARK H PARENT
REMARK Flexibility Score: inf
ROOT
ATOM      1  C   UNL     1     -22.742 -60.501   1.695  1.00  0.00     0.000 C 
ENDROOT
BRANCH   1   2
ATOM      2  C   UNL     1     -22.127 -59.415   0.790  1.00  0.00     0.000 C 
BRANCH   2   3
ATOM      3  C   UNL     1     -22.350 -57.967   1.269  1.00  0.00     0.000 C 
BRANCH   3   4
ATOM      4  C   UNL     1     -22.659 -57.817   2.772  1.00  0.00     0.000 C 
BRANCH   4   5
ATOM      5  C   UNL     1     -23.804 -56.844   3.107  1.00  0.00     0.000 C 
BRANCH   5   6
ATOM      6  C   UNL     1     -25.144 -57.260   2.481  1.00  0.00     0.000 C 
BRANCH   6   7
ATOM      7  C   UNL     1     -25.627 -58.597   3.063  1.00  0.00     0.000 C 
BRANCH   7   8
ATOM      8  C   UNL     1     -26.280 -59.504   2.008  1.00  0.00     0.000 C 
BRANCH   8   9
ATOM      9  C   UNL     1     -26.429 -58.810   0.643  1.00  0.00     0.000 C 
BRANCH   9  10
ATOM     10  C   UNL     1     -25.695 -59.555  -0.486  1.00  0.00     0.006 C 
BRANCH  10  11
ATOM     11  C   UNL     1     -24.983 -58.637  -1.494  1.00  0.00     0.053 C 
BRANCH  11  12
ATOM     12  C   UNL     1     -25.714 -58.564  -2.799  1.00  0.00     0.041 C 
ATOM     13  O   UNL     1     -26.108 -59.617  -3.366  1.00  0.00    -0.550 OA
ATOM     14  O   UNL     1     -25.934 -57.333  -3.405  1.00  0.00    -0.550 OA
ENDBRANCH  11  12
ENDBRANCH  10  11
ENDBRANCH   9  10
ENDBRANCH   8   9
ENDBRANCH   7   8
ENDBRANCH   6   7
ENDBRANCH   5   6
ENDBRANCH   4   5
ENDBRANCH   3   4
ENDBRANCH   2   3
ENDBRANCH   1   2
BRANCH   1  15
ATOM     15  C   UNL     1     -22.645 -61.940   1.148  1.00  0.00     0.000 C 
BRANCH  15  16
ATOM     16  C   UNL     1     -23.198 -63.030   2.083  1.00  0.00     0.000 C 
BRANCH  16  17
ATOM     17  C   UNL     1     -24.516 -62.622   2.760  1.00  0.00     0.000 C 
BRANCH  17  18
ATOM     18  C   UNL     1     -24.439 -62.831   4.278  1.00  0.00    -0.000 C 
BRANCH  18  19
ATOM     19  C   UNL     1     -22.979 -62.933   4.746  1.00  0.00    -0.000 C 
BRANCH  19  20
ATOM     20  C   UNL     1     -22.500 -61.672   5.488  1.00  0.00    -0.000 C 
BRANCH  20  21
ATOM     21  C   UNL     1     -23.337 -60.402   5.232  1.00  0.00    -0.000 C 
BRANCH  21  22
ATOM     22  C   UNL     1     -24.041 -59.819   6.471  1.00  0.00    -0.000 C 
BRANCH  22  23
ATOM     23  C   UNL     1     -23.862 -58.297   6.597  1.00  0.00    -0.000 C 
BRANCH  23  24
ATOM     24  C   UNL     1     -25.034 -57.624   7.329  1.00  0.00    -0.000 C 
BRANCH  24  25
ATOM     25  C   UNL     1     -25.247 -56.166   6.897  1.00  0.00    -0.003 C 
ATOM     26  C   UNL     1     -26.296 -56.067   5.793  1.00  0.00     0.004 C 
ENDBRANCH  24  25
ENDBRANCH  23  24
ENDBRANCH  22  23
ENDBRANCH  21  22
ENDBRANCH  20  21
ENDBRANCH  19  20
ENDBRANCH  18  19
ENDBRANCH  17  18
ENDBRANCH  16  17
ENDBRANCH  15  16
ENDBRANCH   1  15
TORSDOF 22
ENDMDL
MODEL 9
REMARK VINA RESULT:    -4.524      3.262      6.503
REMARK INTER + INTRA:         -14.338
REMARK INTER:                 -10.695
REMARK INTRA:                  -3.643
REMARK UNBOUND:                -3.995
REMARK SMILES CCCCCCCCCCCCCCCCCCCCCCCC(=O)[O-]
REMARK SMILES IDX 13 1 14 2 15 3 16 4 17 5 18 6 19 7 20 8 21 9 22 10 23 11
REMARK SMILES IDX 24 12 25 13 26 14 12 15 11 16 10 17 9 18 8 19 7 20 6 21 5 22
REMARK SMILES IDX 4 23 3 24 2 25 1 26
REMARK H PARENT
REMARK Flexibility Score: inf
ROOT
ATOM      1  C   UNL     1     -25.335 -62.605   3.268  1.00  0.00     0.000 C 
ENDROOT
BRANCH   1   2
ATOM      2  C   UNL     1     -24.302 -61.798   2.456  1.00  0.00     0.000 C 
BRANCH   2   3
ATOM      3  C   UNL     1     -23.073 -62.603   1.986  1.00  0.00     0.000 C 
BRANCH   3   4
ATOM      4  C   UNL     1     -21.937 -61.762   1.371  1.00  0.00     0.000 C 
BRANCH   4   5
ATOM      5  C   UNL     1     -22.027 -61.562  -0.152  1.00  0.00     0.000 C 
BRANCH   5   6
ATOM      6  C   UNL     1     -21.875 -60.092  -0.572  1.00  0.00     0.000 C 
BRANCH   6   7
ATOM      7  C   UNL     1     -21.893 -59.169   0.656  1.00  0.00     0.000 C 
BRANCH   7   8
ATOM      8  C   UNL     1     -23.042 -58.148   0.617  1.00  0.00     0.000 C 
BRANCH   8   9
ATOM      9  C   UNL     1     -24.417 -58.813   0.429  1.00  0.00     0.000 C 
BRANCH   9  10
ATOM     10  C   UNL     1     -25.325 -58.037  -0.541  1.00  0.00     0.006 C 
BRANCH  10  11
ATOM     11  C   UNL     1     -25.223 -58.491  -2.007  1.00  0.00     0.053 C 
BRANCH  11  12
ATOM     12  C   UNL     1     -25.581 -57.392  -2.960  1.00  0.00     0.041 C 
ATOM     13  O   UNL     1     -25.195 -56.213  -2.742  1.00  0.00    -0.550 OA
ATOM     14  O   UNL     1     -26.367 -57.665  -4.072  1.00  0.00    -0.550 OA
ENDBRANCH  11  12
ENDBRANCH  10  11
ENDBRANCH   9  10
ENDBRANCH   8   9
ENDBRANCH   7   8
ENDBRANCH   6   7
ENDBRANCH   5   6
ENDBRANCH   4   5
ENDBRANCH   3   4
ENDBRANCH   2   3
ENDBRANCH   1   2
BRANCH   1  15
ATOM     15  C   UNL     1     -24.912 -64.046   3.615  1.00  0.00     0.000 C 
BRANCH  15  16
ATOM     16  C   UNL     1     -24.529 -64.275   5.089  1.00  0.00     0.000 C 
BRANCH  16  17
ATOM     17  C   UNL     1     -23.094 -63.829   5.407  1.00  0.00     0.000 C 
BRANCH  17  18
ATOM     18  C   UNL     1     -23.094 -62.550   6.255  1.00  0.00    -0.000 C 
BRANCH  18  19
ATOM     19  C   UNL     1     -22.425 -61.391   5.502  1.00  0.00    -0.000 C 
BRANCH  19  20
ATOM     20  C   UNL     1     -23.098 -60.033   5.772  1.00  0.00    -0.000 C 
BRANCH  20  21
ATOM     21  C   UNL     1     -23.096 -59.051   4.582  1.00  0.00    -0.000 C 
BRANCH  21  22
ATOM     22  C   UNL     1     -22.616 -57.625   4.909  1.00  0.00    -0.000 C 
BRANCH  22  23
ATOM     23  C   UNL     1     -23.486 -56.539   4.254  1.00  0.00    -0.000 C 
BRANCH  23  24
ATOM     24  C   UNL     1     -24.834 -57.085   3.755  1.00  0.00    -0.000 C 
BRANCH  24  25
ATOM     25  C   UNL     1     -25.498 -56.169   2.717  1.00  0.00    -0.003 C 
ATOM     26  C   UNL     1     -27.010 -56.117   2.918  1.00  0.00     0.004 C 
ENDBRANCH  24  25
ENDBRANCH  23  24
ENDBRANCH  22  23
ENDBRANCH  21  22
ENDBRANCH  20  21
ENDBRANCH  19  20
ENDBRANCH  18  19
ENDBRANCH  17  18
ENDBRANCH  16  17
ENDBRANCH  15  16
ENDBRANCH   1  15
TORSDOF 22
ENDMDL
