MODEL 1
REMARK VINA RESULT:    -3.278      0.000      0.000
REMARK INTER + INTRA:         -10.898
REMARK INTER:                  -7.493
REMARK INTRA:                  -3.405
REMARK UNBOUND:                -3.405
REMARK SMILES CCCCCCCCCCCCCCCCCCCCCCCC(=O)[O-]
REMARK SMILES IDX 13 1 14 2 15 3 16 4 17 5 18 6 19 7 20 8 21 9 22 10 23 11
REMARK SMILES IDX 24 12 25 13 26 14 12 15 11 16 10 17 9 18 8 19 7 20 6 21 5 22
REMARK SMILES IDX 4 23 3 24 2 25 1 26
REMARK H PARENT
REMARK Flexibility Score: inf
ROOT
ATOM      1  C   UNL     1     144.981 141.328 146.717  1.00  0.00     0.000 C 
ENDROOT
BRANCH   1   2
ATOM      2  C   UNL     1     144.686 140.040 145.924  1.00  0.00     0.000 C 
BRANCH   2   3
ATOM      3  C   UNL     1     143.520 140.144 144.924  1.00  0.00     0.000 C 
BRANCH   3   4
ATOM      4  C   UNL     1     142.142 140.056 145.603  1.00  0.00     0.000 C 
BRANCH   4   5
ATOM      5  C   UNL     1     141.353 141.380 145.494  1.00  0.00     0.000 C 
BRANCH   5   6
ATOM      6  C   UNL     1     141.232 142.142 146.825  1.00  0.00     0.000 C 
BRANCH   6   7
ATOM      7  C   UNL     1     142.097 143.411 146.862  1.00  0.00     0.000 C 
BRANCH   7   8
ATOM      8  C   UNL     1     142.029 144.223 145.557  1.00  0.00     0.000 C 
BRANCH   8   9
ATOM      9  C   UNL     1     143.391 144.642 144.971  1.00  0.00     0.000 C 
BRANCH   9  10
ATOM     10  C   UNL     1     144.002 143.571 144.052  1.00  0.00     0.006 C 
BRANCH  10  11
ATOM     11  C   UNL     1     145.260 144.076 143.329  1.00  0.00     0.053 C 
BRANCH  11  12
ATOM     12  C   UNL     1     146.036 142.956 142.710  1.00  0.00     0.041 C 
ATOM     13  O   UNL     1     146.257 141.901 143.361  1.00  0.00    -0.550 OA
ATOM     14  O   UNL     1     146.491 143.063 141.401  1.00  0.00    -0.550 OA
ENDBRANCH  11  12
ENDBRANCH  10  11
ENDBRANCH   9  10
ENDBRANCH   8   9
ENDBRANCH   7   8
ENDBRANCH   6   7
ENDBRANCH   5   6
ENDBRANCH   4   5
ENDBRANCH   3   4
ENDBRANCH   2   3
ENDBRANCH   1   2
BRANCH   1  15
ATOM     15  C   UNL     1     145.056 141.157 148.248  1.00  0.00     0.000 C 
BRANCH  15  16
ATOM     16  C   UNL     1     144.391 139.880 148.792  1.00  0.00     0.000 C 
BRANCH  16  17
ATOM     17  C   UNL     1     142.907 140.078 149.133  1.00  0.00     0.000 C 
BRANCH  17  18
ATOM     18  C   UNL     1     142.746 140.901 150.420  1.00  0.00    -0.000 C 
BRANCH  18  19
ATOM     19  C   UNL     1     141.499 141.801 150.398  1.00  0.00    -0.000 C 
BRANCH  19  20
ATOM     20  C   UNL     1     141.685 143.091 151.215  1.00  0.00    -0.000 C 
BRANCH  20  21
ATOM     21  C   UNL     1     140.387 143.547 151.901  1.00  0.00    -0.000 C 
BRANCH  21  22
ATOM     22  C   UNL     1     139.875 142.526 152.934  1.00  0.00    -0.000 C 
BRANCH  22  23
ATOM     23  C   UNL     1     140.596 142.636 154.289  1.00  0.00    -0.000 C 
BRANCH  23  24
ATOM     24  C   UNL     1     140.933 144.072 154.739  1.00  0.00    -0.000 C 
BRANCH  24  25
ATOM     25  C   UNL     1     142.352 144.262 155.303  1.00  0.00    -0.003 C 
ATOM     26  C   UNL     1     143.434 143.668 154.401  1.00  0.00     0.004 C 
ENDBRANCH  24  25
ENDBRANCH  23  24
ENDBRANCH  22  23
ENDBRANCH  21  22
ENDBRANCH  20  21
ENDBRANCH  19  20
ENDBRANCH  18  19
ENDBRANCH  17  18
ENDBRANCH  16  17
ENDBRANCH  15  16
ENDBRANCH   1  15
TORSDOF 22
ENDMDL
MODEL 2
REMARK VINA RESULT:    -3.211      1.839      4.663
REMARK INTER + INTRA:         -10.745
REMARK INTER:                  -6.882
REMARK INTRA:                  -3.863
REMARK UNBOUND:                -3.405
REMARK SMILES CCCCCCCCCCCCCCCCCCCCCCCC(=O)[O-]
REMARK SMILES IDX 13 1 14 2 15 3 16 4 17 5 18 6 19 7 20 8 21 9 22 10 23 11
REMARK SMILES IDX 24 12 25 13 26 14 12 15 11 16 10 17 9 18 8 19 7 20 6 21 5 22
REMARK SMILES IDX 4 23 3 24 2 25 1 26
REMARK H PARENT
REMARK Flexibility Score: inf
ROOT
ATOM      1  C   UNL     1     141.365 143.255 147.281  1.00  0.00     0.000 C 
ENDROOT
BRANCH   1   2
ATOM      2  C   UNL     1     142.861 143.621 147.209  1.00  0.00     0.000 C 
BRANCH   2   3
ATOM      3  C   UNL     1     143.271 144.437 145.969  1.00  0.00     0.000 C 
BRANCH   3   4
ATOM      4  C   UNL     1     142.076 145.121 145.282  1.00  0.00     0.000 C 
BRANCH   4   5
ATOM      5  C   UNL     1     142.513 146.321 144.412  1.00  0.00     0.000 C 
BRANCH   5   6
ATOM      6  C   UNL     1     143.817 146.081 143.633  1.00  0.00     0.000 C 
BRANCH   6   7
ATOM      7  C   UNL     1     143.572 145.507 142.229  1.00  0.00     0.000 C 
BRANCH   7   8
ATOM      8  C   UNL     1     144.643 144.487 141.802  1.00  0.00     0.000 C 
BRANCH   8   9
ATOM      9  C   UNL     1     144.969 143.400 142.845  1.00  0.00     0.000 C 
BRANCH   9  10
ATOM     10  C   UNL     1     146.404 143.502 143.387  1.00  0.00     0.006 C 
BRANCH  10  11
ATOM     11  C   UNL     1     147.237 142.254 143.060  1.00  0.00     0.053 C 
BRANCH  11  12
ATOM     12  C   UNL     1     148.122 142.468 141.871  1.00  0.00     0.041 C 
ATOM     13  O   UNL     1     148.724 141.494 141.346  1.00  0.00    -0.550 OA
ATOM     14  O   UNL     1     148.257 143.737 141.322  1.00  0.00    -0.550 OA
ENDBRANCH  11  12
ENDBRANCH  10  11
ENDBRANCH   9  10
ENDBRANCH   8   9
ENDBRANCH   7   8
ENDBRANCH   6   7
ENDBRANCH   5   6
ENDBRANCH   4   5
ENDBRANCH   3   4
ENDBRANCH   2   3
ENDBRANCH   1   2
BRANCH   1  15
ATOM     15  C   UNL     1     141.031 141.784 146.960  1.00  0.00     0.000 C 
BRANCH  15  16
ATOM     16  C   UNL     1     141.260 141.371 145.495  1.00  0.00     0.000 C 
BRANCH  16  17
ATOM     17  C   UNL     1     142.243 140.200 145.350  1.00  0.00     0.000 C 
BRANCH  17  18
ATOM     18  C   UNL     1     143.560 140.667 144.711  1.00  0.00    -0.000 C 
BRANCH  18  19
ATOM     19  C   UNL     1     144.722 140.720 145.717  1.00  0.00    -0.000 C 
BRANCH  19  20
ATOM     20  C   UNL     1     144.373 140.060 147.062  1.00  0.00    -0.000 C 
BRANCH  20  21
ATOM     21  C   UNL     1     144.967 140.815 148.261  1.00  0.00    -0.000 C 
BRANCH  21  22
ATOM     22  C   UNL     1     144.428 140.302 149.609  1.00  0.00    -0.000 C 
BRANCH  22  23
ATOM     23  C   UNL     1     142.911 140.509 149.763  1.00  0.00    -0.000 C 
BRANCH  23  24
ATOM     24  C   UNL     1     142.498 141.722 150.621  1.00  0.00    -0.000 C 
BRANCH  24  25
ATOM     25  C   UNL     1     140.985 141.992 150.681  1.00  0.00    -0.003 C 
ATOM     26  C   UNL     1     140.642 143.305 151.385  1.00  0.00     0.004 C 
ENDBRANCH  24  25
ENDBRANCH  23  24
ENDBRANCH  22  23
ENDBRANCH  21  22
ENDBRANCH  20  21
ENDBRANCH  19  20
ENDBRANCH  18  19
ENDBRANCH  17  18
ENDBRANCH  16  17
ENDBRANCH  15  16
ENDBRANCH   1  15
TORSDOF 22
ENDMDL
MODEL 3
REMARK VINA RESULT:    -3.080      3.472      7.892
REMARK INTER + INTRA:         -10.446
REMARK INTER:                  -6.206
REMARK INTRA:                  -4.240
REMARK UNBOUND:                -3.405
REMARK SMILES CCCCCCCCCCCCCCCCCCCCCCCC(=O)[O-]
REMARK SMILES IDX 13 1 14 2 15 3 16 4 17 5 18 6 19 7 20 8 21 9 22 10 23 11
REMARK SMILES IDX 24 12 25 13 26 14 12 15 11 16 10 17 9 18 8 19 7 20 6 21 5 22
REMARK SMILES IDX 4 23 3 24 2 25 1 26
REMARK H PARENT
REMARK Flexibility Score: inf
ROOT
ATOM      1  C   UNL     1     144.076 144.352 147.364  1.00  0.00     0.000 C 
ENDROOT
BRANCH   1   2
ATOM      2  C   UNL     1     142.585 144.055 147.619  1.00  0.00     0.000 C 
BRANCH   2   3
ATOM      3  C   UNL     1     141.804 143.547 146.393  1.00  0.00     0.000 C 
BRANCH   3   4
ATOM      4  C   UNL     1     140.989 142.275 146.689  1.00  0.00     0.000 C 
BRANCH   4   5
ATOM      5  C   UNL     1     140.924 141.328 145.470  1.00  0.00     0.000 C 
BRANCH   5   6
ATOM      6  C   UNL     1     142.278 140.702 145.097  1.00  0.00     0.000 C 
BRANCH   6   7
ATOM      7  C   UNL     1     142.884 139.875 146.241  1.00  0.00     0.000 C 
BRANCH   7   8
ATOM      8  C   UNL     1     144.063 140.583 146.935  1.00  0.00     0.000 C 
BRANCH   8   9
ATOM      9  C   UNL     1     144.162 140.354 148.456  1.00  0.00     0.000 C 
BRANCH   9  10
ATOM     10  C   UNL     1     142.803 140.459 149.168  1.00  0.00     0.006 C 
BRANCH  10  11
ATOM     11  C   UNL     1     142.893 141.262 150.474  1.00  0.00     0.053 C 
BRANCH  11  12
ATOM     12  C   UNL     1     141.667 142.090 150.706  1.00  0.00     0.041 C 
ATOM     13  O   UNL     1     140.525 141.608 150.483  1.00  0.00    -0.550 OA
ATOM     14  O   UNL     1     141.783 143.383 151.200  1.00  0.00    -0.550 OA
ENDBRANCH  11  12
ENDBRANCH  10  11
ENDBRANCH   9  10
ENDBRANCH   8   9
ENDBRANCH   7   8
ENDBRANCH   6   7
ENDBRANCH   5   6
ENDBRANCH   4   5
ENDBRANCH   3   4
ENDBRANCH   2   3
ENDBRANCH   1   2
BRANCH   1  15
ATOM     15  C   UNL     1     144.484 144.444 145.880  1.00  0.00     0.000 C 
BRANCH  15  16
ATOM     16  C   UNL     1     145.574 143.450 145.442  1.00  0.00     0.000 C 
BRANCH  16  17
ATOM     17  C   UNL     1     145.304 142.835 144.061  1.00  0.00     0.000 C 
BRANCH  17  18
ATOM     18  C   UNL     1     144.356 143.724 143.242  1.00  0.00    -0.000 C 
BRANCH  18  19
ATOM     19  C   UNL     1     144.890 144.022 141.832  1.00  0.00    -0.000 C 
BRANCH  19  20
ATOM     20  C   UNL     1     145.504 145.428 141.716  1.00  0.00    -0.000 C 
BRANCH  20  21
ATOM     21  C   UNL     1     144.905 146.417 142.728  1.00  0.00    -0.000 C 
BRANCH  21  22
ATOM     22  C   UNL     1     144.024 147.488 142.058  1.00  0.00    -0.000 C 
BRANCH  22  23
ATOM     23  C   UNL     1     142.807 147.881 142.914  1.00  0.00    -0.000 C 
BRANCH  23  24
ATOM     24  C   UNL     1     142.755 147.239 144.316  1.00  0.00    -0.000 C 
BRANCH  24  25
ATOM     25  C   UNL     1     141.362 146.767 144.764  1.00  0.00    -0.003 C 
ATOM     26  C   UNL     1     141.030 147.173 146.200  1.00  0.00     0.004 C 
ENDBRANCH  24  25
ENDBRANCH  23  24
ENDBRANCH  22  23
ENDBRANCH  21  22
ENDBRANCH  20  21
ENDBRANCH  19  20
ENDBRANCH  18  19
ENDBRANCH  17  18
ENDBRANCH  16  17
ENDBRANCH  15  16
ENDBRANCH   1  15
TORSDOF 22
ENDMDL
MODEL 4
REMARK VINA RESULT:    -2.996      3.483      6.405
REMARK INTER + INTRA:         -10.254
REMARK INTER:                  -6.723
REMARK INTRA:                  -3.531
REMARK UNBOUND:                -3.405
REMARK SMILES CCCCCCCCCCCCCCCCCCCCCCCC(=O)[O-]
REMARK SMILES IDX 13 1 14 2 15 3 16 4 17 5 18 6 19 7 20 8 21 9 22 10 23 11
REMARK SMILES IDX 24 12 25 13 26 14 12 15 11 16 10 17 9 18 8 19 7 20 6 21 5 22
REMARK SMILES IDX 4 23 3 24 2 25 1 26
REMARK H PARENT
REMARK Flexibility Score: inf
ROOT
ATOM      1  C   UNL     1     142.421 146.353 146.417  1.00  0.00     0.000 C 
ENDROOT
BRANCH   1   2
ATOM      2  C   UNL     1     141.380 146.997 145.479  1.00  0.00     0.000 C 
BRANCH   2   3
ATOM      3  C   UNL     1     141.798 148.352 144.878  1.00  0.00     0.000 C 
BRANCH   3   4
ATOM      4  C   UNL     1     141.136 148.631 143.517  1.00  0.00     0.000 C 
BRANCH   4   5
ATOM      5  C   UNL     1     140.503 147.361 142.906  1.00  0.00     0.000 C 
BRANCH   5   6
ATOM      6  C   UNL     1     141.316 146.758 141.747  1.00  0.00     0.000 C 
BRANCH   6   7
ATOM      7  C   UNL     1     142.334 147.747 141.160  1.00  0.00     0.000 C 
BRANCH   7   8
ATOM      8  C   UNL     1     143.791 147.275 141.319  1.00  0.00     0.000 C 
BRANCH   8   9
ATOM      9  C   UNL     1     144.040 146.293 142.479  1.00  0.00     0.000 C 
BRANCH   9  10
ATOM     10  C   UNL     1     144.475 144.897 141.999  1.00  0.00     0.006 C 
BRANCH  10  11
ATOM     11  C   UNL     1     146.003 144.743 141.973  1.00  0.00     0.053 C 
BRANCH  11  12
ATOM     12  C   UNL     1     146.418 143.351 141.608  1.00  0.00     0.041 C 
ATOM     13  O   UNL     1     146.608 142.491 142.507  1.00  0.00    -0.550 OA
ATOM     14  O   UNL     1     146.563 142.995 140.273  1.00  0.00    -0.550 OA
ENDBRANCH  11  12
ENDBRANCH  10  11
ENDBRANCH   9  10
ENDBRANCH   8   9
ENDBRANCH   7   8
ENDBRANCH   6   7
ENDBRANCH   5   6
ENDBRANCH   4   5
ENDBRANCH   3   4
ENDBRANCH   2   3
ENDBRANCH   1   2
BRANCH   1  15
ATOM     15  C   UNL     1     143.106 145.085 145.868  1.00  0.00     0.000 C 
BRANCH  15  16
ATOM     16  C   UNL     1     144.644 145.103 145.920  1.00  0.00     0.000 C 
BRANCH  16  17
ATOM     17  C   UNL     1     145.198 144.879 147.335  1.00  0.00     0.000 C 
BRANCH  17  18
ATOM     18  C   UNL     1     144.762 143.512 147.883  1.00  0.00    -0.000 C 
BRANCH  18  19
ATOM     19  C   UNL     1     145.589 142.350 147.308  1.00  0.00    -0.000 C 
BRANCH  19  20
ATOM     20  C   UNL     1     144.710 141.239 146.707  1.00  0.00    -0.000 C 
BRANCH  20  21
ATOM     21  C   UNL     1     144.501 141.408 145.193  1.00  0.00    -0.000 C 
BRANCH  21  22
ATOM     22  C   UNL     1     143.368 140.518 144.651  1.00  0.00    -0.000 C 
BRANCH  22  23
ATOM     23  C   UNL     1     142.264 140.258 145.691  1.00  0.00    -0.000 C 
BRANCH  23  24
ATOM     24  C   UNL     1     140.986 141.104 145.517  1.00  0.00    -0.000 C 
BRANCH  24  25
ATOM     25  C   UNL     1     140.922 142.372 146.386  1.00  0.00    -0.003 C 
ATOM     26  C   UNL     1     141.314 142.116 147.841  1.00  0.00     0.004 C 
ENDBRANCH  24  25
ENDBRANCH  23  24
ENDBRANCH  22  23
ENDBRANCH  21  22
ENDBRANCH  20  21
ENDBRANCH  19  20
ENDBRANCH  18  19
ENDBRANCH  17  18
ENDBRANCH  16  17
ENDBRANCH  15  16
ENDBRANCH   1  15
TORSDOF 22
ENDMDL
MODEL 5
REMARK VINA RESULT:    -2.993      4.272      8.433
REMARK INTER + INTRA:         -10.247
REMARK INTER:                  -6.802
REMARK INTRA:                  -3.445
REMARK UNBOUND:                -3.405
REMARK SMILES CCCCCCCCCCCCCCCCCCCCCCCC(=O)[O-]
REMARK SMILES IDX 13 1 14 2 15 3 16 4 17 5 18 6 19 7 20 8 21 9 22 10 23 11
REMARK SMILES IDX 24 12 25 13 26 14 12 15 11 16 10 17 9 18 8 19 7 20 6 21 5 22
REMARK SMILES IDX 4 23 3 24 2 25 1 26
REMARK H PARENT
REMARK Flexibility Score: inf
ROOT
ATOM      1  C   UNL     1     145.136 143.418 150.278  1.00  0.00     0.000 C 
ENDROOT
BRANCH   1   2
ATOM      2  C   UNL     1     144.008 143.246 151.314  1.00  0.00     0.000 C 
BRANCH   2   3
ATOM      3  C   UNL     1     142.583 143.244 150.729  1.00  0.00     0.000 C 
BRANCH   3   4
ATOM      4  C   UNL     1     141.673 142.186 151.378  1.00  0.00     0.000 C 
BRANCH   4   5
ATOM      5  C   UNL     1     142.259 141.646 152.701  1.00  0.00     0.000 C 
BRANCH   5   6
ATOM      6  C   UNL     1     141.202 141.390 153.789  1.00  0.00     0.000 C 
BRANCH   6   7
ATOM      7  C   UNL     1     139.955 142.272 153.624  1.00  0.00     0.000 C 
BRANCH   7   8
ATOM      8  C   UNL     1     139.939 143.477 154.582  1.00  0.00     0.000 C 
BRANCH   8   9
ATOM      9  C   UNL     1     140.788 144.682 154.137  1.00  0.00     0.000 C 
BRANCH   9  10
ATOM     10  C   UNL     1     141.741 145.182 155.235  1.00  0.00     0.006 C 
BRANCH  10  11
ATOM     11  C   UNL     1     142.940 144.244 155.433  1.00  0.00     0.053 C 
BRANCH  11  12
ATOM     12  C   UNL     1     143.808 144.679 156.574  1.00  0.00     0.041 C 
ATOM     13  O   UNL     1     143.338 145.411 157.484  1.00  0.00    -0.550 OA
ATOM     14  O   UNL     1     145.127 144.250 156.649  1.00  0.00    -0.550 OA
ENDBRANCH  11  12
ENDBRANCH  10  11
ENDBRANCH   9  10
ENDBRANCH   8   9
ENDBRANCH   7   8
ENDBRANCH   6   7
ENDBRANCH   5   6
ENDBRANCH   4   5
ENDBRANCH   3   4
ENDBRANCH   2   3
ENDBRANCH   1   2
BRANCH   1  15
ATOM     15  C   UNL     1     145.574 142.126 149.560  1.00  0.00     0.000 C 
BRANCH  15  16
ATOM     16  C   UNL     1     145.130 140.820 150.242  1.00  0.00     0.000 C 
BRANCH  16  17
ATOM     17  C   UNL     1     144.154 139.999 149.386  1.00  0.00     0.000 C 
BRANCH  17  18
ATOM     18  C   UNL     1     144.087 140.549 147.954  1.00  0.00    -0.000 C 
BRANCH  18  19
ATOM     19  C   UNL     1     142.970 139.900 147.119  1.00  0.00    -0.000 C 
BRANCH  19  20
ATOM     20  C   UNL     1     142.745 140.613 145.775  1.00  0.00    -0.000 C 
BRANCH  20  21
ATOM     21  C   UNL     1     141.368 141.292 145.692  1.00  0.00    -0.000 C 
BRANCH  21  22
ATOM     22  C   UNL     1     140.976 141.996 147.004  1.00  0.00    -0.000 C 
BRANCH  22  23
ATOM     23  C   UNL     1     141.591 143.401 147.134  1.00  0.00    -0.000 C 
BRANCH  23  24
ATOM     24  C   UNL     1     141.979 144.074 145.801  1.00  0.00    -0.000 C 
BRANCH  24  25
ATOM     25  C   UNL     1     143.489 144.268 145.585  1.00  0.00    -0.003 C 
ATOM     26  C   UNL     1     144.248 144.526 146.886  1.00  0.00     0.004 C 
ENDBRANCH  24  25
ENDBRANCH  23  24
ENDBRANCH  22  23
ENDBRANCH  21  22
ENDBRANCH  20  21
ENDBRANCH  19  20
ENDBRANCH  18  19
ENDBRANCH  17  18
ENDBRANCH  16  17
ENDBRANCH  15  16
ENDBRANCH   1  15
TORSDOF 22
ENDMDL
MODEL 6
REMARK VINA RESULT:    -2.985      5.059      8.609
REMARK INTER + INTRA:         -10.230
REMARK INTER:                  -7.162
REMARK INTRA:                  -3.068
REMARK UNBOUND:                -3.405
REMARK SMILES CCCCCCCCCCCCCCCCCCCCCCCC(=O)[O-]
REMARK SMILES IDX 13 1 14 2 15 3 16 4 17 5 18 6 19 7 20 8 21 9 22 10 23 11
REMARK SMILES IDX 24 12 25 13 26 14 12 15 11 16 10 17 9 18 8 19 7 20 6 21 5 22
REMARK SMILES IDX 4 23 3 24 2 25 1 26
REMARK H PARENT
REMARK Flexibility Score: inf
ROOT
ATOM      1  C   UNL     1     141.755 144.220 145.871  1.00  0.00     0.000 C 
ENDROOT
BRANCH   1   2
ATOM      2  C   UNL     1     142.605 145.501 145.988  1.00  0.00     0.000 C 
BRANCH   2   3
ATOM      3  C   UNL     1     142.259 146.605 144.972  1.00  0.00     0.000 C 
BRANCH   3   4
ATOM      4  C   UNL     1     140.784 146.577 144.538  1.00  0.00     0.000 C 
BRANCH   4   5
ATOM      5  C   UNL     1     140.106 147.957 144.686  1.00  0.00     0.000 C 
BRANCH   5   6
ATOM      6  C   UNL     1     140.885 149.106 144.022  1.00  0.00     0.000 C 
BRANCH   6   7
ATOM      7  C   UNL     1     140.717 149.131 142.495  1.00  0.00     0.000 C 
BRANCH   7   8
ATOM      8  C   UNL     1     142.009 148.760 141.743  1.00  0.00     0.000 C 
BRANCH   8   9
ATOM      9  C   UNL     1     142.128 149.337 140.320  1.00  0.00     0.000 C 
BRANCH   9  10
ATOM     10  C   UNL     1     141.811 150.840 140.253  1.00  0.00     0.006 C 
BRANCH  10  11
ATOM     11  C   UNL     1     142.980 151.702 140.751  1.00  0.00     0.053 C 
BRANCH  11  12
ATOM     12  C   UNL     1     142.506 152.953 141.424  1.00  0.00     0.041 C 
ATOM     13  O   UNL     1     142.808 154.080 140.952  1.00  0.00    -0.550 OA
ATOM     14  O   UNL     1     141.703 152.874 142.556  1.00  0.00    -0.550 OA
ENDBRANCH  11  12
ENDBRANCH  10  11
ENDBRANCH   9  10
ENDBRANCH   8   9
ENDBRANCH   7   8
ENDBRANCH   6   7
ENDBRANCH   5   6
ENDBRANCH   4   5
ENDBRANCH   3   4
ENDBRANCH   2   3
ENDBRANCH   1   2
BRANCH   1  15
ATOM     15  C   UNL     1     141.771 143.303 147.111  1.00  0.00     0.000 C 
BRANCH  15  16
ATOM     16  C   UNL     1     141.067 141.947 146.926  1.00  0.00     0.000 C 
BRANCH  16  17
ATOM     17  C   UNL     1     141.238 141.372 145.512  1.00  0.00     0.000 C 
BRANCH  17  18
ATOM     18  C   UNL     1     142.143 140.131 145.531  1.00  0.00    -0.000 C 
BRANCH  18  19
ATOM     19  C   UNL     1     143.471 140.353 144.788  1.00  0.00    -0.000 C 
BRANCH  19  20
ATOM     20  C   UNL     1     144.531 141.043 145.664  1.00  0.00    -0.000 C 
BRANCH  20  21
ATOM     21  C   UNL     1     144.927 142.429 145.128  1.00  0.00    -0.000 C 
BRANCH  21  22
ATOM     22  C   UNL     1     144.412 142.680 143.699  1.00  0.00    -0.000 C 
BRANCH  22  23
ATOM     23  C   UNL     1     145.028 143.933 143.054  1.00  0.00    -0.000 C 
BRANCH  23  24
ATOM     24  C   UNL     1     144.019 144.895 142.393  1.00  0.00    -0.000 C 
BRANCH  24  25
ATOM     25  C   UNL     1     144.640 145.951 141.462  1.00  0.00    -0.003 C 
ATOM     26  C   UNL     1     145.193 147.159 142.218  1.00  0.00     0.004 C 
ENDBRANCH  24  25
ENDBRANCH  23  24
ENDBRANCH  22  23
ENDBRANCH  21  22
ENDBRANCH  20  21
ENDBRANCH  19  20
ENDBRANCH  18  19
ENDBRANCH  17  18
ENDBRANCH  16  17
ENDBRANCH  15  16
ENDBRANCH   1  15
TORSDOF 22
ENDMDL
MODEL 7
REMARK VINA RESULT:    -2.962      3.382      5.353
REMARK INTER + INTRA:         -10.177
REMARK INTER:                  -5.814
REMARK INTRA:                  -4.363
REMARK UNBOUND:                -3.405
REMARK SMILES CCCCCCCCCCCCCCCCCCCCCCCC(=O)[O-]
REMARK SMILES IDX 13 1 14 2 15 3 16 4 17 5 18 6 19 7 20 8 21 9 22 10 23 11
REMARK SMILES IDX 24 12 25 13 26 14 12 15 11 16 10 17 9 18 8 19 7 20 6 21 5 22
REMARK SMILES IDX 4 23 3 24 2 25 1 26
REMARK H PARENT
REMARK Flexibility Score: inf
ROOT
ATOM      1  C   UNL     1     144.833 143.854 145.354  1.00  0.00     0.000 C 
ENDROOT
BRANCH   1   2
ATOM      2  C   UNL     1     143.492 144.453 144.886  1.00  0.00     0.000 C 
BRANCH   2   3
ATOM      3  C   UNL     1     142.883 145.502 145.833  1.00  0.00     0.000 C 
BRANCH   3   4
ATOM      4  C   UNL     1     141.387 145.750 145.568  1.00  0.00     0.000 C 
BRANCH   4   5
ATOM      5  C   UNL     1     140.961 147.189 145.935  1.00  0.00     0.000 C 
BRANCH   5   6
ATOM      6  C   UNL     1     140.008 147.834 144.915  1.00  0.00     0.000 C 
BRANCH   6   7
ATOM      7  C   UNL     1     139.880 147.014 143.622  1.00  0.00     0.000 C 
BRANCH   7   8
ATOM      8  C   UNL     1     140.764 147.549 142.481  1.00  0.00     0.000 C 
BRANCH   8   9
ATOM      9  C   UNL     1     141.825 146.564 141.954  1.00  0.00     0.000 C 
BRANCH   9  10
ATOM     10  C   UNL     1     143.256 147.124 142.037  1.00  0.00     0.006 C 
BRANCH  10  11
ATOM     11  C   UNL     1     143.338 148.375 142.924  1.00  0.00     0.053 C 
BRANCH  11  12
ATOM     12  C   UNL     1     144.292 148.190 144.064  1.00  0.00     0.041 C 
ATOM     13  O   UNL     1     144.114 148.810 145.146  1.00  0.00    -0.550 OA
ATOM     14  O   UNL     1     145.360 147.310 143.943  1.00  0.00    -0.550 OA
ENDBRANCH  11  12
ENDBRANCH  10  11
ENDBRANCH   9  10
ENDBRANCH   8   9
ENDBRANCH   7   8
ENDBRANCH   6   7
ENDBRANCH   5   6
ENDBRANCH   4   5
ENDBRANCH   3   4
ENDBRANCH   2   3
ENDBRANCH   1   2
BRANCH   1  15
ATOM     15  C   UNL     1     145.041 142.363 145.019  1.00  0.00     0.000 C 
BRANCH  15  16
ATOM     16  C   UNL     1     143.846 141.678 144.332  1.00  0.00     0.000 C 
BRANCH  16  17
ATOM     17  C   UNL     1     143.600 140.251 144.845  1.00  0.00     0.000 C 
BRANCH  17  18
ATOM     18  C   UNL     1     142.457 140.227 145.871  1.00  0.00    -0.000 C 
BRANCH  18  19
ATOM     19  C   UNL     1     141.247 141.069 145.433  1.00  0.00    -0.000 C 
BRANCH  19  20
ATOM     20  C   UNL     1     140.967 142.244 146.386  1.00  0.00    -0.000 C 
BRANCH  20  21
ATOM     21  C   UNL     1     141.281 141.900 147.851  1.00  0.00    -0.000 C 
BRANCH  21  22
ATOM     22  C   UNL     1     141.864 143.096 148.627  1.00  0.00    -0.000 C 
BRANCH  22  23
ATOM     23  C   UNL     1     143.402 143.141 148.586  1.00  0.00    -0.000 C 
BRANCH  23  24
ATOM     24  C   UNL     1     144.099 141.765 148.584  1.00  0.00    -0.000 C 
BRANCH  24  25
ATOM     25  C   UNL     1     145.632 141.811 148.696  1.00  0.00    -0.003 C 
ATOM     26  C   UNL     1     146.193 140.744 149.635  1.00  0.00     0.004 C 
ENDBRANCH  24  25
ENDBRANCH  23  24
ENDBRANCH  22  23
ENDBRANCH  21  22
ENDBRANCH  20  21
ENDBRANCH  19  20
ENDBRANCH  18  19
ENDBRANCH  17  18
ENDBRANCH  16  17
ENDBRANCH  15  16
ENDBRANCH   1  15
TORSDOF 22
ENDMDL
MODEL 8
REMARK VINA RESULT:    -2.936      3.670      7.586
REMARK INTER + INTRA:         -10.117
REMARK INTER:                  -6.464
REMARK INTRA:                  -3.653
REMARK UNBOUND:                -3.405
REMARK SMILES CCCCCCCCCCCCCCCCCCCCCCCC(=O)[O-]
REMARK SMILES IDX 13 1 14 2 15 3 16 4 17 5 18 6 19 7 20 8 21 9 22 10 23 11
REMARK SMILES IDX 24 12 25 13 26 14 12 15 11 16 10 17 9 18 8 19 7 20 6 21 5 22
REMARK SMILES IDX 4 23 3 24 2 25 1 26
REMARK H PARENT
REMARK Flexibility Score: inf
ROOT
ATOM      1  C   UNL     1     146.681 143.049 144.780  1.00  0.00     0.000 C 
ENDROOT
BRANCH   1   2
ATOM      2  C   UNL     1     145.570 142.224 145.459  1.00  0.00     0.000 C 
BRANCH   2   3
ATOM      3  C   UNL     1     145.743 140.697 145.361  1.00  0.00     0.000 C 
BRANCH   3   4
ATOM      4  C   UNL     1     144.402 139.947 145.289  1.00  0.00     0.000 C 
BRANCH   4   5
ATOM      5  C   UNL     1     143.235 140.877 144.887  1.00  0.00     0.000 C 
BRANCH   5   6
ATOM      6  C   UNL     1     141.850 140.351 145.303  1.00  0.00     0.000 C 
BRANCH   6   7
ATOM      7  C   UNL     1     140.929 141.462 145.830  1.00  0.00     0.000 C 
BRANCH   7   8
ATOM      8  C   UNL     1     141.624 142.833 145.909  1.00  0.00     0.000 C 
BRANCH   8   9
ATOM      9  C   UNL     1     142.343 143.130 147.238  1.00  0.00     0.000 C 
BRANCH   9  10
ATOM     10  C   UNL     1     141.813 142.284 148.408  1.00  0.00     0.006 C 
BRANCH  10  11
ATOM     11  C   UNL     1     142.879 141.327 148.961  1.00  0.00     0.053 C 
BRANCH  11  12
ATOM     12  C   UNL     1     142.716 141.098 150.432  1.00  0.00     0.041 C 
ATOM     13  O   UNL     1     143.464 140.284 151.033  1.00  0.00    -0.550 OA
ATOM     14  O   UNL     1     141.758 141.808 151.145  1.00  0.00    -0.550 OA
ENDBRANCH  11  12
ENDBRANCH  10  11
ENDBRANCH   9  10
ENDBRANCH   8   9
ENDBRANCH   7   8
ENDBRANCH   6   7
ENDBRANCH   5   6
ENDBRANCH   4   5
ENDBRANCH   3   4
ENDBRANCH   2   3
ENDBRANCH   1   2
BRANCH   1  15
ATOM     15  C   UNL     1     146.423 143.413 143.304  1.00  0.00     0.000 C 
BRANCH  15  16
ATOM     16  C   UNL     1     144.939 143.479 142.900  1.00  0.00     0.000 C 
BRANCH  16  17
ATOM     17  C   UNL     1     144.400 144.916 142.836  1.00  0.00     0.000 C 
BRANCH  17  18
ATOM     18  C   UNL     1     143.325 145.146 143.908  1.00  0.00    -0.000 C 
BRANCH  18  19
ATOM     19  C   UNL     1     143.744 146.190 144.956  1.00  0.00    -0.000 C 
BRANCH  19  20
ATOM     20  C   UNL     1     142.581 146.609 145.872  1.00  0.00    -0.000 C 
BRANCH  20  21
ATOM     21  C   UNL     1     141.207 146.365 145.228  1.00  0.00    -0.000 C 
BRANCH  21  22
ATOM     22  C   UNL     1     140.399 147.663 145.049  1.00  0.00    -0.000 C 
BRANCH  22  23
ATOM     23  C   UNL     1     139.935 147.882 143.599  1.00  0.00    -0.000 C 
BRANCH  23  24
ATOM     24  C   UNL     1     140.807 147.205 142.521  1.00  0.00    -0.000 C 
BRANCH  24  25
ATOM     25  C   UNL     1     141.725 148.157 141.735  1.00  0.00    -0.003 C 
ATOM     26  C   UNL     1     142.709 148.909 142.630  1.00  0.00     0.004 C 
ENDBRANCH  24  25
ENDBRANCH  23  24
ENDBRANCH  22  23
ENDBRANCH  21  22
ENDBRANCH  20  21
ENDBRANCH  19  20
ENDBRANCH  18  19
ENDBRANCH  17  18
ENDBRANCH  16  17
ENDBRANCH  15  16
ENDBRANCH   1  15
TORSDOF 22
ENDMDL
MODEL 9
REMARK VINA RESULT:    -2.925      3.652      5.910
REMARK INTER + INTRA:         -10.092
REMARK INTER:                  -5.732
REMARK INTRA:                  -4.360
REMARK UNBOUND:                -3.405
REMARK SMILES CCCCCCCCCCCCCCCCCCCCCCCC(=O)[O-]
REMARK SMILES IDX 13 1 14 2 15 3 16 4 17 5 18 6 19 7 20 8 21 9 22 10 23 11
REMARK SMILES IDX 24 12 25 13 26 14 12 15 11 16 10 17 9 18 8 19 7 20 6 21 5 22
REMARK SMILES IDX 4 23 3 24 2 25 1 26
REMARK H PARENT
REMARK Flexibility Score: inf
ROOT
ATOM      1  C   UNL     1     145.126 144.382 142.913  1.00  0.00     0.000 C 
ENDROOT
BRANCH   1   2
ATOM      2  C   UNL     1     143.860 145.185 142.553  1.00  0.00     0.000 C 
BRANCH   2   3
ATOM      3  C   UNL     1     144.120 146.609 142.029  1.00  0.00     0.000 C 
BRANCH   3   4
ATOM      4  C   UNL     1     142.993 147.593 142.388  1.00  0.00     0.000 C 
BRANCH   4   5
ATOM      5  C   UNL     1     141.620 147.125 141.854  1.00  0.00     0.000 C 
BRANCH   5   6
ATOM      6  C   UNL     1     140.526 147.056 142.933  1.00  0.00     0.000 C 
BRANCH   6   7
ATOM      7  C   UNL     1     141.080 147.245 144.354  1.00  0.00     0.000 C 
BRANCH   7   8
ATOM      8  C   UNL     1     141.324 145.913 145.086  1.00  0.00     0.000 C 
BRANCH   8   9
ATOM      9  C   UNL     1     142.271 145.993 146.298  1.00  0.00     0.000 C 
BRANCH   9  10
ATOM     10  C   UNL     1     143.655 146.560 145.941  1.00  0.00     0.006 C 
BRANCH  10  11
ATOM     11  C   UNL     1     144.796 145.693 146.492  1.00  0.00     0.053 C 
BRANCH  11  12
ATOM     12  C   UNL     1     145.160 146.072 147.894  1.00  0.00     0.041 C 
ATOM     13  O   UNL     1     145.765 145.253 148.635  1.00  0.00    -0.550 OA
ATOM     14  O   UNL     1     144.861 147.342 148.373  1.00  0.00    -0.550 OA
ENDBRANCH  11  12
ENDBRANCH  10  11
ENDBRANCH   9  10
ENDBRANCH   8   9
ENDBRANCH   7   8
ENDBRANCH   6   7
ENDBRANCH   5   6
ENDBRANCH   4   5
ENDBRANCH   3   4
ENDBRANCH   2   3
ENDBRANCH   1   2
BRANCH   1  15
ATOM     15  C   UNL     1     144.890 142.896 143.252  1.00  0.00     0.000 C 
BRANCH  15  16
ATOM     16  C   UNL     1     145.110 142.523 144.729  1.00  0.00     0.000 C 
BRANCH  16  17
ATOM     17  C   UNL     1     145.057 141.009 144.978  1.00  0.00     0.000 C 
BRANCH  17  18
ATOM     18  C   UNL     1     143.777 140.401 144.383  1.00  0.00    -0.000 C 
BRANCH  18  19
ATOM     19  C   UNL     1     142.762 139.983 145.461  1.00  0.00    -0.000 C 
BRANCH  19  20
ATOM     20  C   UNL     1     141.476 140.827 145.421  1.00  0.00    -0.000 C 
BRANCH  20  21
ATOM     21  C   UNL     1     141.708 142.276 145.879  1.00  0.00    -0.000 C 
BRANCH  21  22
ATOM     22  C   UNL     1     140.998 142.597 147.207  1.00  0.00    -0.000 C 
BRANCH  22  23
ATOM     23  C   UNL     1     141.982 142.858 148.361  1.00  0.00    -0.000 C 
BRANCH  23  24
ATOM     24  C   UNL     1     143.468 142.623 148.023  1.00  0.00    -0.000 C 
BRANCH  24  25
ATOM     25  C   UNL     1     144.104 141.396 148.699  1.00  0.00    -0.003 C 
ATOM     26  C   UNL     1     143.076 140.336 149.094  1.00  0.00     0.004 C 
ENDBRANCH  24  25
ENDBRANCH  23  24
ENDBRANCH  22  23
ENDBRANCH  21  22
ENDBRANCH  20  21
ENDBRANCH  19  20
ENDBRANCH  18  19
ENDBRANCH  17  18
ENDBRANCH  16  17
ENDBRANCH  15  16
ENDBRANCH   1  15
TORSDOF 22
ENDMDL
