MODEL 1
REMARK VINA RESULT:    -4.068      0.000      0.000
REMARK INTER + INTRA:          -6.956
REMARK INTER:                  -6.447
REMARK INTRA:                  -0.510
REMARK UNBOUND:                -0.510
REMARK SMILES CCCCCCCCCCCC(=O)[O-]
REMARK SMILES IDX 7 1 8 2 9 3 10 4 11 5 12 6 13 7 14 8 6 9 5 10 4 11 3 12 2 13
REMARK SMILES IDX 1 14
REMARK H PARENT
REMARK Flexibility Score: inf
ROOT
ATOM      1  C   UNL     1       2.518  25.077  22.302  1.00  0.00     0.000 C 
ENDROOT
BRANCH   1   2
ATOM      2  C   UNL     1       2.156  23.648  21.882  1.00  0.00     0.000 C 
BRANCH   2   3
ATOM      3  C   UNL     1       1.661  22.830  23.084  1.00  0.00     0.000 C 
BRANCH   3   4
ATOM      4  C   UNL     1       1.600  23.656  24.383  1.00  0.00     0.006 C 
BRANCH   4   5
ATOM      5  C   UNL     1       0.903  22.943  25.553  1.00  0.00     0.053 C 
BRANCH   5   6
ATOM      6  C   UNL     1       0.117  23.895  26.402  1.00  0.00     0.041 C 
ATOM      7  O   UNL     1       0.630  24.981  26.778  1.00  0.00    -0.550 OA
ATOM      8  O   UNL     1      -1.195  23.595  26.749  1.00  0.00    -0.550 OA
ENDBRANCH   5   6
ENDBRANCH   4   5
ENDBRANCH   3   4
ENDBRANCH   2   3
ENDBRANCH   1   2
BRANCH   1   9
ATOM      9  C   UNL     1       1.656  26.105  21.559  1.00  0.00     0.000 C 
BRANCH   9  10
ATOM     10  C   UNL     1       1.088  27.150  22.526  1.00  0.00    -0.000 C 
BRANCH  10  11
ATOM     11  C   UNL     1       0.718  28.442  21.787  1.00  0.00    -0.000 C 
BRANCH  11  12
ATOM     12  C   UNL     1      -0.568  28.259  20.968  1.00  0.00    -0.000 C 
BRANCH  12  13
ATOM     13  C   UNL     1      -1.079  29.577  20.368  1.00  0.00    -0.003 C 
ATOM     14  C   UNL     1       0.052  30.538  20.003  1.00  0.00     0.004 C 
ENDBRANCH  12  13
ENDBRANCH  11  12
ENDBRANCH  10  11
ENDBRANCH   9  10
ENDBRANCH   1   9
TORSDOF 10
ENDMDL
MODEL 2
REMARK VINA RESULT:    -4.046      4.264      5.706
REMARK INTER + INTRA:          -6.920
REMARK INTER:                  -5.972
REMARK INTRA:                  -0.948
REMARK UNBOUND:                -0.510
REMARK SMILES CCCCCCCCCCCC(=O)[O-]
REMARK SMILES IDX 7 1 8 2 9 3 10 4 11 5 12 6 13 7 14 8 6 9 5 10 4 11 3 12 2 13
REMARK SMILES IDX 1 14
REMARK H PARENT
REMARK Flexibility Score: inf
ROOT
ATOM      1  C   UNL     1       1.560  22.469  22.790  1.00  0.00     0.000 C 
ENDROOT
BRANCH   1   2
ATOM      2  C   UNL     1       2.200  23.570  21.935  1.00  0.00     0.000 C 
BRANCH   2   3
ATOM      3  C   UNL     1       2.882  24.624  22.819  1.00  0.00     0.000 C 
BRANCH   3   4
ATOM      4  C   UNL     1       4.291  24.201  23.274  1.00  0.00     0.006 C 
BRANCH   4   5
ATOM      5  C   UNL     1       4.523  24.305  24.790  1.00  0.00     0.053 C 
BRANCH   5   6
ATOM      6  C   UNL     1       5.972  24.484  25.125  1.00  0.00     0.041 C 
ATOM      7  O   UNL     1       6.316  25.246  26.066  1.00  0.00    -0.550 OA
ATOM      8  O   UNL     1       6.941  23.782  24.418  1.00  0.00    -0.550 OA
ENDBRANCH   5   6
ENDBRANCH   4   5
ENDBRANCH   3   4
ENDBRANCH   2   3
ENDBRANCH   1   2
BRANCH   1   9
ATOM      9  C   UNL     1       1.046  23.032  24.120  1.00  0.00     0.000 C 
BRANCH   9  10
ATOM     10  C   UNL     1       1.609  22.241  25.307  1.00  0.00    -0.000 C 
BRANCH  10  11
ATOM     11  C   UNL     1       0.956  22.682  26.623  1.00  0.00    -0.000 C 
BRANCH  11  12
ATOM     12  C   UNL     1       1.273  24.154  26.928  1.00  0.00    -0.000 C 
BRANCH  12  13
ATOM     13  C   UNL     1       0.027  25.050  26.870  1.00  0.00    -0.003 C 
ATOM     14  C   UNL     1       0.155  26.176  25.844  1.00  0.00     0.004 C 
ENDBRANCH  12  13
ENDBRANCH  11  12
ENDBRANCH  10  11
ENDBRANCH   9  10
ENDBRANCH   1   9
TORSDOF 10
ENDMDL
MODEL 3
REMARK VINA RESULT:    -3.963      1.036      1.582
REMARK INTER + INTRA:          -6.790
REMARK INTER:                  -6.316
REMARK INTRA:                  -0.474
REMARK UNBOUND:                -0.510
REMARK SMILES CCCCCCCCCCCC(=O)[O-]
REMARK SMILES IDX 7 1 8 2 9 3 10 4 11 5 12 6 13 7 14 8 6 9 5 10 4 11 3 12 2 13
REMARK SMILES IDX 1 14
REMARK H PARENT
REMARK Flexibility Score: inf
ROOT
ATOM      1  C   UNL     1       1.703  26.005  21.578  1.00  0.00     0.000 C 
ENDROOT
BRANCH   1   2
ATOM      2  C   UNL     1       2.616  24.982  22.265  1.00  0.00     0.000 C 
BRANCH   2   3
ATOM      3  C   UNL     1       2.098  23.553  22.053  1.00  0.00     0.000 C 
BRANCH   3   4
ATOM      4  C   UNL     1       1.484  22.945  23.329  1.00  0.00     0.006 C 
BRANCH   4   5
ATOM      5  C   UNL     1       1.637  23.822  24.582  1.00  0.00     0.053 C 
BRANCH   5   6
ATOM      6  C   UNL     1       0.900  23.255  25.757  1.00  0.00     0.041 C 
ATOM      7  O   UNL     1      -0.131  23.828  26.197  1.00  0.00    -0.550 OA
ATOM      8  O   UNL     1       1.335  22.073  26.345  1.00  0.00    -0.550 OA
ENDBRANCH   5   6
ENDBRANCH   4   5
ENDBRANCH   3   4
ENDBRANCH   2   3
ENDBRANCH   1   2
BRANCH   1   9
ATOM      9  C   UNL     1       1.168  27.030  22.585  1.00  0.00     0.000 C 
BRANCH   9  10
ATOM     10  C   UNL     1       0.769  28.334  21.884  1.00  0.00    -0.000 C 
BRANCH  10  11
ATOM     11  C   UNL     1      -0.255  28.071  20.773  1.00  0.00    -0.000 C 
BRANCH  11  12
ATOM     12  C   UNL     1      -1.200  29.270  20.600  1.00  0.00    -0.000 C 
BRANCH  12  13
ATOM     13  C   UNL     1      -0.488  30.506  20.030  1.00  0.00    -0.003 C 
ATOM     14  C   UNL     1      -1.463  31.564  19.513  1.00  0.00     0.004 C 
ENDBRANCH  12  13
ENDBRANCH  11  12
ENDBRANCH  10  11
ENDBRANCH   9  10
ENDBRANCH   1   9
TORSDOF 10
ENDMDL
MODEL 4
REMARK VINA RESULT:    -3.956      3.518      5.299
REMARK INTER + INTRA:          -6.778
REMARK INTER:                  -5.939
REMARK INTRA:                  -0.839
REMARK UNBOUND:                -0.510
REMARK SMILES CCCCCCCCCCCC(=O)[O-]
REMARK SMILES IDX 7 1 8 2 9 3 10 4 11 5 12 6 13 7 14 8 6 9 5 10 4 11 3 12 2 13
REMARK SMILES IDX 1 14
REMARK H PARENT
REMARK Flexibility Score: inf
ROOT
ATOM      1  C   UNL     1       2.398  23.316  22.118  1.00  0.00     0.000 C 
ENDROOT
BRANCH   1   2
ATOM      2  C   UNL     1       1.477  22.538  23.065  1.00  0.00     0.000 C 
BRANCH   2   3
ATOM      3  C   UNL     1       1.007  23.425  24.226  1.00  0.00     0.000 C 
BRANCH   3   4
ATOM      4  C   UNL     1       1.121  22.727  25.595  1.00  0.00     0.006 C 
BRANCH   4   5
ATOM      5  C   UNL     1       1.006  23.675  26.799  1.00  0.00     0.053 C 
BRANCH   5   6
ATOM      6  C   UNL     1      -0.249  24.492  26.752  1.00  0.00     0.041 C 
ATOM      7  O   UNL     1      -1.373  23.936  26.866  1.00  0.00    -0.550 OA
ATOM      8  O   UNL     1      -0.175  25.873  26.615  1.00  0.00    -0.550 OA
ENDBRANCH   5   6
ENDBRANCH   4   5
ENDBRANCH   3   4
ENDBRANCH   2   3
ENDBRANCH   1   2
BRANCH   1   9
ATOM      9  C   UNL     1       3.013  24.532  22.822  1.00  0.00     0.000 C 
BRANCH   9  10
ATOM     10  C   UNL     1       4.408  24.205  23.369  1.00  0.00    -0.000 C 
BRANCH  10  11
ATOM     11  C   UNL     1       4.422  24.249  24.902  1.00  0.00    -0.000 C 
BRANCH  11  12
ATOM     12  C   UNL     1       5.739  23.683  25.455  1.00  0.00    -0.000 C 
BRANCH  12  13
ATOM     13  C   UNL     1       6.340  24.561  26.563  1.00  0.00    -0.003 C 
ATOM     14  C   UNL     1       6.651  25.981  26.089  1.00  0.00     0.004 C 
ENDBRANCH  12  13
ENDBRANCH  11  12
ENDBRANCH  10  11
ENDBRANCH   9  10
ENDBRANCH   1   9
TORSDOF 10
ENDMDL
MODEL 5
REMARK VINA RESULT:    -3.937      3.919      5.441
REMARK INTER + INTRA:          -6.749
REMARK INTER:                  -5.744
REMARK INTRA:                  -1.005
REMARK UNBOUND:                -0.510
REMARK SMILES CCCCCCCCCCCC(=O)[O-]
REMARK SMILES IDX 7 1 8 2 9 3 10 4 11 5 12 6 13 7 14 8 6 9 5 10 4 11 3 12 2 13
REMARK SMILES IDX 1 14
REMARK H PARENT
REMARK Flexibility Score: inf
ROOT
ATOM      1  C   UNL     1       1.185  22.797  25.663  1.00  0.00     0.000 C 
ENDROOT
BRANCH   1   2
ATOM      2  C   UNL     1       1.798  22.183  26.927  1.00  0.00     0.000 C 
BRANCH   2   3
ATOM      3  C   UNL     1       3.318  22.024  26.779  1.00  0.00     0.000 C 
BRANCH   3   4
ATOM      4  C   UNL     1       4.057  23.374  26.724  1.00  0.00     0.006 C 
BRANCH   4   5
ATOM      5  C   UNL     1       5.471  23.296  26.124  1.00  0.00     0.053 C 
BRANCH   5   6
ATOM      6  C   UNL     1       5.828  24.537  25.367  1.00  0.00     0.041 C 
ATOM      7  O   UNL     1       6.239  25.558  25.979  1.00  0.00    -0.550 OA
ATOM      8  O   UNL     1       5.739  24.555  23.980  1.00  0.00    -0.550 OA
ENDBRANCH   5   6
ENDBRANCH   4   5
ENDBRANCH   3   4
ENDBRANCH   2   3
ENDBRANCH   1   2
BRANCH   1   9
ATOM      9  C   UNL     1       0.517  24.143  25.970  1.00  0.00     0.000 C 
BRANCH   9  10
ATOM     10  C   UNL     1       0.926  25.207  24.945  1.00  0.00    -0.000 C 
BRANCH  10  11
ATOM     11  C   UNL     1       2.219  24.809  24.222  1.00  0.00    -0.000 C 
BRANCH  11  12
ATOM     12  C   UNL     1       2.084  25.006  22.705  1.00  0.00    -0.000 C 
BRANCH  12  13
ATOM     13  C   UNL     1       2.598  23.800  21.905  1.00  0.00    -0.003 C 
ATOM     14  C   UNL     1       1.672  22.588  22.002  1.00  0.00     0.004 C 
ENDBRANCH  12  13
ENDBRANCH  11  12
ENDBRANCH  10  11
ENDBRANCH   9  10
ENDBRANCH   1   9
TORSDOF 10
ENDMDL
MODEL 6
REMARK VINA RESULT:    -3.890      3.308      6.421
REMARK INTER + INTRA:          -6.673
REMARK INTER:                  -5.936
REMARK INTRA:                  -0.737
REMARK UNBOUND:                -0.510
REMARK SMILES CCCCCCCCCCCC(=O)[O-]
REMARK SMILES IDX 7 1 8 2 9 3 10 4 11 5 12 6 13 7 14 8 6 9 5 10 4 11 3 12 2 13
REMARK SMILES IDX 1 14
REMARK H PARENT
REMARK Flexibility Score: inf
ROOT
ATOM      1  C   UNL     1       2.530  24.770  22.362  1.00  0.00     0.000 C 
ENDROOT
BRANCH   1   2
ATOM      2  C   UNL     1       1.808  25.899  21.617  1.00  0.00     0.000 C 
BRANCH   2   3
ATOM      3  C   UNL     1       1.257  26.941  22.601  1.00  0.00     0.000 C 
BRANCH   3   4
ATOM      4  C   UNL     1       0.873  28.265  21.914  1.00  0.00     0.006 C 
BRANCH   4   5
ATOM      5  C   UNL     1      -0.269  28.139  20.894  1.00  0.00     0.053 C 
BRANCH   5   6
ATOM      6  C   UNL     1      -0.703  29.474  20.370  1.00  0.00     0.041 C 
ATOM      7  O   UNL     1      -1.918  29.805  20.405  1.00  0.00    -0.550 OA
ATOM      8  O   UNL     1       0.240  30.366  19.873  1.00  0.00    -0.550 OA
ENDBRANCH   5   6
ENDBRANCH   4   5
ENDBRANCH   3   4
ENDBRANCH   2   3
ENDBRANCH   1   2
BRANCH   1   9
ATOM      9  C   UNL     1       2.027  23.396  21.902  1.00  0.00     0.000 C 
BRANCH   9  10
ATOM     10  C   UNL     1       1.442  22.602  23.076  1.00  0.00    -0.000 C 
BRANCH  10  11
ATOM     11  C   UNL     1       1.940  23.153  24.417  1.00  0.00    -0.000 C 
BRANCH  11  12
ATOM     12  C   UNL     1       0.879  22.975  25.514  1.00  0.00    -0.000 C 
BRANCH  12  13
ATOM     13  C   UNL     1       0.754  24.207  26.421  1.00  0.00    -0.003 C 
ATOM     14  C   UNL     1       0.241  25.440  25.677  1.00  0.00     0.004 C 
ENDBRANCH  12  13
ENDBRANCH  11  12
ENDBRANCH  10  11
ENDBRANCH   9  10
ENDBRANCH   1   9
TORSDOF 10
ENDMDL
MODEL 7
REMARK VINA RESULT:    -3.790      3.938      5.900
REMARK INTER + INTRA:          -6.516
REMARK INTER:                  -5.834
REMARK INTRA:                  -0.682
REMARK UNBOUND:                -0.510
REMARK SMILES CCCCCCCCCCCC(=O)[O-]
REMARK SMILES IDX 7 1 8 2 9 3 10 4 11 5 12 6 13 7 14 8 6 9 5 10 4 11 3 12 2 13
REMARK SMILES IDX 1 14
REMARK H PARENT
REMARK Flexibility Score: inf
ROOT
ATOM      1  C   UNL     1       1.776  22.491  26.809  1.00  0.00     0.000 C 
ENDROOT
BRANCH   1   2
ATOM      2  C   UNL     1       2.847  23.588  26.813  1.00  0.00     0.000 C 
BRANCH   2   3
ATOM      3  C   UNL     1       4.238  22.999  26.532  1.00  0.00     0.000 C 
BRANCH   3   4
ATOM      4  C   UNL     1       5.169  23.989  25.807  1.00  0.00     0.006 C 
BRANCH   4   5
ATOM      5  C   UNL     1       5.937  24.935  26.743  1.00  0.00     0.053 C 
BRANCH   5   6
ATOM      6  C   UNL     1       6.673  25.998  25.986  1.00  0.00     0.041 C 
ATOM      7  O   UNL     1       7.012  27.066  26.559  1.00  0.00    -0.550 OA
ATOM      8  O   UNL     1       7.015  25.792  24.654  1.00  0.00    -0.550 OA
ENDBRANCH   5   6
ENDBRANCH   4   5
ENDBRANCH   3   4
ENDBRANCH   2   3
ENDBRANCH   1   2
BRANCH   1   9
ATOM      9  C   UNL     1       0.591  22.881  25.917  1.00  0.00     0.000 C 
BRANCH   9  10
ATOM     10  C   UNL     1       1.071  23.539  24.618  1.00  0.00    -0.000 C 
BRANCH  10  11
ATOM     11  C   UNL     1       1.623  22.493  23.642  1.00  0.00    -0.000 C 
BRANCH  11  12
ATOM     12  C   UNL     1       1.841  23.102  22.249  1.00  0.00    -0.000 C 
BRANCH  12  13
ATOM     13  C   UNL     1       2.840  24.268  22.263  1.00  0.00    -0.003 C 
ATOM     14  C   UNL     1       2.170  25.623  22.033  1.00  0.00     0.004 C 
ENDBRANCH  12  13
ENDBRANCH  11  12
ENDBRANCH  10  11
ENDBRANCH   9  10
ENDBRANCH   1   9
TORSDOF 10
ENDMDL
MODEL 8
REMARK VINA RESULT:    -3.628      3.338      4.694
REMARK INTER + INTRA:          -6.258
REMARK INTER:                  -5.313
REMARK INTRA:                  -0.945
REMARK UNBOUND:                -0.510
REMARK SMILES CCCCCCCCCCCC(=O)[O-]
REMARK SMILES IDX 7 1 8 2 9 3 10 4 11 5 12 6 13 7 14 8 6 9 5 10 4 11 3 12 2 13
REMARK SMILES IDX 1 14
REMARK H PARENT
REMARK Flexibility Score: inf
ROOT
ATOM      1  C   UNL     1       4.593  24.079  26.143  1.00  0.00     0.000 C 
ENDROOT
BRANCH   1   2
ATOM      2  C   UNL     1       4.320  22.695  26.743  1.00  0.00     0.000 C 
BRANCH   2   3
ATOM      3  C   UNL     1       2.840  22.542  27.121  1.00  0.00     0.000 C 
BRANCH   3   4
ATOM      4  C   UNL     1       1.908  22.544  25.894  1.00  0.00     0.006 C 
BRANCH   4   5
ATOM      5  C   UNL     1       0.481  23.037  26.186  1.00  0.00     0.053 C 
BRANCH   5   6
ATOM      6  C   UNL     1       0.386  24.531  26.153  1.00  0.00     0.041 C 
ATOM      7  O   UNL     1       0.966  25.185  25.247  1.00  0.00    -0.550 OA
ATOM      8  O   UNL     1      -0.372  25.200  27.107  1.00  0.00    -0.550 OA
ENDBRANCH   5   6
ENDBRANCH   4   5
ENDBRANCH   3   4
ENDBRANCH   2   3
ENDBRANCH   1   2
BRANCH   1   9
ATOM      9  C   UNL     1       5.753  24.027  25.141  1.00  0.00     0.000 C 
BRANCH   9  10
ATOM     10  C   UNL     1       5.290  24.447  23.741  1.00  0.00    -0.000 C 
BRANCH  10  11
ATOM     11  C   UNL     1       3.926  23.833  23.404  1.00  0.00    -0.000 C 
BRANCH  11  12
ATOM     12  C   UNL     1       3.044  24.836  22.643  1.00  0.00    -0.000 C 
BRANCH  12  13
ATOM     13  C   UNL     1       2.024  24.147  21.725  1.00  0.00    -0.003 C 
ATOM     14  C   UNL     1       1.607  22.767  22.233  1.00  0.00     0.004 C 
ENDBRANCH  12  13
ENDBRANCH  11  12
ENDBRANCH  10  11
ENDBRANCH   9  10
ENDBRANCH   1   9
TORSDOF 10
ENDMDL
MODEL 9
REMARK VINA RESULT:    -3.531      4.002      6.587
REMARK INTER + INTRA:          -6.104
REMARK INTER:                  -5.395
REMARK INTRA:                  -0.709
REMARK UNBOUND:                -0.510
REMARK SMILES CCCCCCCCCCCC(=O)[O-]
REMARK SMILES IDX 7 1 8 2 9 3 10 4 11 5 12 6 13 7 14 8 6 9 5 10 4 11 3 12 2 13
REMARK SMILES IDX 1 14
REMARK H PARENT
REMARK Flexibility Score: inf
ROOT
ATOM      1  C   UNL     1       1.721  23.050  27.122  1.00  0.00     0.000 C 
ENDROOT
BRANCH   1   2
ATOM      2  C   UNL     1       0.718  22.812  25.987  1.00  0.00     0.000 C 
BRANCH   2   3
ATOM      3  C   UNL     1       1.152  23.543  24.708  1.00  0.00     0.000 C 
BRANCH   3   4
ATOM      4  C   UNL     1       1.533  22.578  23.570  1.00  0.00     0.006 C 
BRANCH   4   5
ATOM      5  C   UNL     1       1.921  23.274  22.255  1.00  0.00     0.053 C 
BRANCH   5   6
ATOM      6  C   UNL     1       2.755  24.495  22.492  1.00  0.00     0.041 C 
ATOM      7  O   UNL     1       3.891  24.394  23.026  1.00  0.00    -0.550 OA
ATOM      8  O   UNL     1       2.291  25.742  22.091  1.00  0.00    -0.550 OA
ENDBRANCH   5   6
ENDBRANCH   4   5
ENDBRANCH   3   4
ENDBRANCH   2   3
ENDBRANCH   1   2
BRANCH   1   9
ATOM      9  C   UNL     1       3.014  23.681  26.592  1.00  0.00     0.000 C 
BRANCH   9  10
ATOM     10  C   UNL     1       4.188  22.699  26.692  1.00  0.00    -0.000 C 
BRANCH  10  11
ATOM     11  C   UNL     1       5.519  23.445  26.841  1.00  0.00    -0.000 C 
BRANCH  11  12
ATOM     12  C   UNL     1       6.344  23.361  25.547  1.00  0.00    -0.000 C 
BRANCH  12  13
ATOM     13  C   UNL     1       6.876  24.729  25.096  1.00  0.00    -0.003 C 
ATOM     14  C   UNL     1       6.546  25.848  26.084  1.00  0.00     0.004 C 
ENDBRANCH  12  13
ENDBRANCH  11  12
ENDBRANCH  10  11
ENDBRANCH   9  10
ENDBRANCH   1   9
TORSDOF 10
ENDMDL
