MODEL 1
REMARK VINA RESULT:     9.562      0.000      0.000
REMARK INTER + INTRA:          11.063
REMARK INTER:                  11.239
REMARK INTRA:                  -0.176
REMARK UNBOUND:                -0.176
REMARK SMILES O=c1c(O)c(-c2ccc(O)cc2)oc2cc(O)cc(O)c12
REMARK SMILES IDX 5 1 3 2 2 3 1 4 21 5 19 6 18 7 16 8 15 9 14 10 13 11 6 12
REMARK SMILES IDX 7 13 8 14 9 15 12 16 11 17 10 18 4 20 20 22 17 24
REMARK H PARENT 10 19 4 21 20 23 17 25
REMARK Flexibility Score: inf
ROOT
ATOM      1  C   UNL     1     142.013 173.951 174.182  1.00  0.00     0.180 A 
ATOM      2  C   UNL     1     142.048 174.740 175.345  1.00  0.00     0.208 A 
ATOM      3  C   UNL     1     141.851 174.123 176.592  1.00  0.00     0.238 A 
ATOM      4  O   UNL     1     141.938 174.824 177.633  1.00  0.00    -0.285 OA
ATOM      5  C   UNL     1     141.604 172.731 176.657  1.00  0.00     0.111 A 
ATOM      6  C   UNL     1     141.351 172.008 177.862  1.00  0.00     0.134 A 
ATOM      7  C   UNL     1     141.249 170.612 177.822  1.00  0.00     0.093 A 
ATOM      8  C   UNL     1     141.327 169.919 176.611  1.00  0.00     0.123 A 
ATOM      9  C   UNL     1     141.515 170.620 175.424  1.00  0.00     0.094 A 
ATOM     10  C   UNL     1     141.656 172.010 175.435  1.00  0.00     0.146 A 
ATOM     11  O   UNL     1     141.844 172.638 174.281  1.00  0.00    -0.452 OA
ENDROOT
BRANCH   1  12
ATOM     12  C   UNL     1     142.186 174.533 172.830  1.00  0.00     0.021 A 
ATOM     13  C   UNL     1     141.122 174.582 171.911  1.00  0.00     0.016 A 
ATOM     14  C   UNL     1     141.316 175.115 170.633  1.00  0.00     0.047 A 
ATOM     15  C   UNL     1     142.578 175.592 170.253  1.00  0.00     0.115 A 
ATOM     16  C   UNL     1     143.453 174.994 172.434  1.00  0.00     0.016 A 
ATOM     17  C   UNL     1     143.644 175.527 171.156  1.00  0.00     0.047 A 
BRANCH  15  18
ATOM     18  O   UNL     1     142.783 176.125 168.983  1.00  0.00    -0.508 OA
ATOM     19  H   UNL     1     142.880 175.530 168.168  1.00  0.00     0.293 HD
ENDBRANCH  15  18
ENDBRANCH   1  12
BRANCH   2  20
ATOM     20  O   UNL     1     142.316 176.109 175.259  1.00  0.00    -0.502 OA
ATOM     21  H   UNL     1     142.976 176.574 175.871  1.00  0.00     0.293 HD
ENDBRANCH   2  20
BRANCH   6  22
ATOM     22  O   UNL     1     141.164 172.612 179.109  1.00  0.00    -0.507 OA
ATOM     23  H   UNL     1     141.757 172.468 179.912  1.00  0.00     0.293 HD
ENDBRANCH   6  22
BRANCH   8  24
ATOM     24  O   UNL     1     141.209 168.531 176.579  1.00  0.00    -0.508 OA
ATOM     25  H   UNL     1     140.684 168.060 175.851  1.00  0.00     0.293 HD
ENDBRANCH   8  24
TORSDOF 5
ENDMDL
MODEL 2
REMARK VINA RESULT:    11.079      1.639      6.764
REMARK INTER + INTRA:          12.846
REMARK INTER:                  13.103
REMARK INTRA:                  -0.257
REMARK UNBOUND:                -0.176
REMARK SMILES O=c1c(O)c(-c2ccc(O)cc2)oc2cc(O)cc(O)c12
REMARK SMILES IDX 5 1 3 2 2 3 1 4 21 5 19 6 18 7 16 8 15 9 14 10 13 11 6 12
REMARK SMILES IDX 7 13 8 14 9 15 12 16 11 17 10 18 4 20 20 22 17 24
REMARK H PARENT 10 19 4 21 20 23 17 25
REMARK Flexibility Score: inf
ROOT
ATOM      1  C   UNL     1     142.035 174.114 173.952  1.00  0.00     0.180 A 
ATOM      2  C   UNL     1     143.187 174.826 173.575  1.00  0.00     0.208 A 
ATOM      3  C   UNL     1     143.274 175.338 172.269  1.00  0.00     0.238 A 
ATOM      4  O   UNL     1     144.283 176.021 171.955  1.00  0.00    -0.285 OA
ATOM      5  C   UNL     1     142.217 175.117 171.355  1.00  0.00     0.111 A 
ATOM      6  C   UNL     1     142.216 175.555 169.996  1.00  0.00     0.134 A 
ATOM      7  C   UNL     1     141.062 175.396 169.219  1.00  0.00     0.093 A 
ATOM      8  C   UNL     1     139.931 174.755 169.734  1.00  0.00     0.123 A 
ATOM      9  C   UNL     1     139.944 174.271 171.039  1.00  0.00     0.094 A 
ATOM     10  C   UNL     1     141.067 174.448 171.850  1.00  0.00     0.146 A 
ATOM     11  O   UNL     1     141.033 173.980 173.091  1.00  0.00    -0.452 OA
ENDROOT
BRANCH   1  12
ATOM     12  C   UNL     1     141.882 173.522 175.301  1.00  0.00     0.021 A 
ATOM     13  C   UNL     1     141.513 174.308 176.409  1.00  0.00     0.016 A 
ATOM     14  C   UNL     1     141.397 173.731 177.677  1.00  0.00     0.047 A 
ATOM     15  C   UNL     1     141.661 172.366 177.857  1.00  0.00     0.115 A 
ATOM     16  C   UNL     1     142.165 172.160 175.494  1.00  0.00     0.016 A 
ATOM     17  C   UNL     1     142.047 171.585 176.764  1.00  0.00     0.047 A 
BRANCH  15  18
ATOM     18  O   UNL     1     141.549 171.781 179.116  1.00  0.00    -0.508 OA
ATOM     19  H   UNL     1     142.367 171.510 179.649  1.00  0.00     0.293 HD
ENDBRANCH  15  18
ENDBRANCH   1  12
BRANCH   2  20
ATOM     20  O   UNL     1     144.210 175.052 174.501  1.00  0.00    -0.502 OA
ATOM     21  H   UNL     1     144.401 175.968 174.888  1.00  0.00     0.293 HD
ENDBRANCH   2  20
BRANCH   6  22
ATOM     22  O   UNL     1     143.323 176.124 169.359  1.00  0.00    -0.507 OA
ATOM     23  H   UNL     1     143.975 175.617 168.779  1.00  0.00     0.293 HD
ENDBRANCH   6  22
BRANCH   8  24
ATOM     24  O   UNL     1     138.792 174.586 168.949  1.00  0.00    -0.508 OA
ATOM     25  H   UNL     1     138.245 173.734 168.984  1.00  0.00     0.293 HD
ENDBRANCH   8  24
TORSDOF 5
ENDMDL
