MODEL 1
REMARK VINA RESULT:    -5.594      0.000      0.000
REMARK INTER + INTRA:         -15.831
REMARK INTER:                 -12.134
REMARK INTRA:                  -3.698
REMARK UNBOUND:                -3.698
REMARK SMILES CCCCCCCCCCCCCCCCCCCCCC(=O)[O-]
REMARK SMILES IDX 12 1 11 2 10 3 9 4 8 5 7 6 6 7 5 8 4 9 3 10 2 11 1 12 13 13
REMARK SMILES IDX 14 14 15 15 16 16 17 17 18 18 19 19 20 20 21 21 22 22 23 23
REMARK SMILES IDX 24 24
REMARK H PARENT
REMARK Flexibility Score: inf
ROOT
ATOM      1  C   UNL     1      10.278  71.094  -3.239  1.00  0.00     0.000 C 
ENDROOT
BRANCH   1   2
ATOM      2  C   UNL     1      11.351  71.401  -2.182  1.00  0.00     0.000 C 
BRANCH   2   3
ATOM      3  C   UNL     1      12.055  72.745  -2.430  1.00  0.00     0.000 C 
BRANCH   3   4
ATOM      4  C   UNL     1      13.572  72.588  -2.632  1.00  0.00    -0.000 C 
BRANCH   4   5
ATOM      5  C   UNL     1      14.068  73.204  -3.953  1.00  0.00    -0.000 C 
BRANCH   5   6
ATOM      6  C   UNL     1      13.230  74.381  -4.487  1.00  0.00    -0.000 C 
BRANCH   6   7
ATOM      7  C   UNL     1      14.046  75.672  -4.651  1.00  0.00    -0.000 C 
BRANCH   7   8
ATOM      8  C   UNL     1      13.736  76.714  -3.562  1.00  0.00    -0.000 C 
BRANCH   8   9
ATOM      9  C   UNL     1      12.429  76.432  -2.790  1.00  0.00    -0.000 C 
BRANCH   9  10
ATOM     10  C   UNL     1      12.131  77.518  -1.744  1.00  0.00    -0.000 C 
BRANCH  10  11
ATOM     11  C   UNL     1      12.395  77.004  -0.325  1.00  0.00    -0.003 C 
ATOM     12  C   UNL     1      12.919  75.571  -0.345  1.00  0.00     0.004 C 
ENDBRANCH  10  11
ENDBRANCH   9  10
ENDBRANCH   8   9
ENDBRANCH   7   8
ENDBRANCH   6   7
ENDBRANCH   5   6
ENDBRANCH   4   5
ENDBRANCH   3   4
ENDBRANCH   2   3
ENDBRANCH   1   2
BRANCH   1  13
ATOM     13  C   UNL     1      10.759  71.492  -4.643  1.00  0.00     0.000 C 
BRANCH  13  14
ATOM     14  C   UNL     1       9.662  71.354  -5.716  1.00  0.00     0.000 C 
BRANCH  14  15
ATOM     15  C   UNL     1       8.985  72.672  -6.133  1.00  0.00     0.000 C 
BRANCH  15  16
ATOM     16  C   UNL     1       9.579  73.902  -5.425  1.00  0.00     0.000 C 
BRANCH  16  17
ATOM     17  C   UNL     1       8.538  74.647  -4.562  1.00  0.00     0.000 C 
BRANCH  17  18
ATOM     18  C   UNL     1       9.104  75.197  -3.240  1.00  0.00     0.000 C 
BRANCH  18  19
ATOM     19  C   UNL     1       8.921  74.277  -2.018  1.00  0.00     0.000 C 
BRANCH  19  20
ATOM     20  C   UNL     1       9.229  74.928  -0.654  1.00  0.00     0.006 C 
BRANCH  20  21
ATOM     21  C   UNL     1       8.696  76.361  -0.496  1.00  0.00     0.053 C 
BRANCH  21  22
ATOM     22  C   UNL     1       7.571  76.438   0.490  1.00  0.00     0.041 C 
ATOM     23  O   UNL     1       6.690  75.539   0.516  1.00  0.00    -0.550 OA
ATOM     24  O   UNL     1       7.482  77.514   1.364  1.00  0.00    -0.550 OA
ENDBRANCH  21  22
ENDBRANCH  20  21
ENDBRANCH  19  20
ENDBRANCH  18  19
ENDBRANCH  17  18
ENDBRANCH  16  17
ENDBRANCH  15  16
ENDBRANCH  14  15
ENDBRANCH  13  14
ENDBRANCH   1  13
TORSDOF 20
ENDMDL
MODEL 2
REMARK VINA RESULT:    -5.583      2.606      6.526
REMARK INTER + INTRA:         -15.808
REMARK INTER:                 -13.260
REMARK INTRA:                  -2.548
REMARK UNBOUND:                -3.698
REMARK SMILES CCCCCCCCCCCCCCCCCCCCCC(=O)[O-]
REMARK SMILES IDX 12 1 11 2 10 3 9 4 8 5 7 6 6 7 5 8 4 9 3 10 2 11 1 12 13 13
REMARK SMILES IDX 14 14 15 15 16 16 17 17 18 18 19 19 20 20 21 21 22 22 23 23
REMARK SMILES IDX 24 24
REMARK H PARENT
REMARK Flexibility Score: inf
ROOT
ATOM      1  C   UNL     1       7.182  75.280  -0.195  1.00  0.00     0.000 C 
ENDROOT
BRANCH   1   2
ATOM      2  C   UNL     1       8.596  75.851  -0.389  1.00  0.00     0.000 C 
BRANCH   2   3
ATOM      3  C   UNL     1       9.502  74.916  -1.207  1.00  0.00     0.000 C 
BRANCH   3   4
ATOM      4  C   UNL     1       8.792  74.341  -2.444  1.00  0.00    -0.000 C 
BRANCH   4   5
ATOM      5  C   UNL     1       9.411  74.822  -3.769  1.00  0.00    -0.000 C 
BRANCH   5   6
ATOM      6  C   UNL     1       8.608  74.470  -5.036  1.00  0.00    -0.000 C 
BRANCH   6   7
ATOM      7  C   UNL     1       9.393  73.585  -6.017  1.00  0.00    -0.000 C 
BRANCH   7   8
ATOM      8  C   UNL     1      10.906  73.579  -5.734  1.00  0.00    -0.000 C 
BRANCH   8   9
ATOM      9  C   UNL     1      11.477  72.172  -5.455  1.00  0.00    -0.000 C 
BRANCH   9  10
ATOM     10  C   UNL     1      11.518  71.853  -3.952  1.00  0.00    -0.000 C 
BRANCH  10  11
ATOM     11  C   UNL     1      10.263  71.087  -3.517  1.00  0.00    -0.003 C 
ATOM     12  C   UNL     1      10.313  70.745  -2.031  1.00  0.00     0.004 C 
ENDBRANCH  10  11
ENDBRANCH   9  10
ENDBRANCH   8   9
ENDBRANCH   7   8
ENDBRANCH   6   7
ENDBRANCH   5   6
ENDBRANCH   4   5
ENDBRANCH   3   4
ENDBRANCH   2   3
ENDBRANCH   1   2
BRANCH   1  13
ATOM     13  C   UNL     1       6.392  76.103   0.834  1.00  0.00     0.000 C 
BRANCH  13  14
ATOM     14  C   UNL     1       7.016  77.486   1.105  1.00  0.00     0.000 C 
BRANCH  14  15
ATOM     15  C   UNL     1       6.439  78.237   2.319  1.00  0.00     0.000 C 
BRANCH  15  16
ATOM     16  C   UNL     1       7.527  78.814   3.240  1.00  0.00     0.000 C 
BRANCH  16  17
ATOM     17  C   UNL     1       8.952  78.454   2.769  1.00  0.00     0.000 C 
BRANCH  17  18
ATOM     18  C   UNL     1       9.956  79.617   2.876  1.00  0.00     0.000 C 
BRANCH  18  19
ATOM     19  C   UNL     1      10.821  79.850   1.622  1.00  0.00     0.000 C 
BRANCH  19  20
ATOM     20  C   UNL     1      10.265  79.241   0.318  1.00  0.00     0.006 C 
BRANCH  20  21
ATOM     21  C   UNL     1      11.250  78.330  -0.432  1.00  0.00     0.053 C 
BRANCH  21  22
ATOM     22  C   UNL     1      11.286  78.628  -1.899  1.00  0.00     0.041 C 
ATOM     23  O   UNL     1      11.077  77.711  -2.736  1.00  0.00    -0.550 OA
ATOM     24  O   UNL     1      11.575  79.912  -2.343  1.00  0.00    -0.550 OA
ENDBRANCH  21  22
ENDBRANCH  20  21
ENDBRANCH  19  20
ENDBRANCH  18  19
ENDBRANCH  17  18
ENDBRANCH  16  17
ENDBRANCH  15  16
ENDBRANCH  14  15
ENDBRANCH  13  14
ENDBRANCH   1  13
TORSDOF 20
ENDMDL
MODEL 3
REMARK VINA RESULT:    -5.576      1.279      4.610
REMARK INTER + INTRA:         -15.794
REMARK INTER:                 -12.308
REMARK INTRA:                  -3.486
REMARK UNBOUND:                -3.698
REMARK SMILES CCCCCCCCCCCCCCCCCCCCCC(=O)[O-]
REMARK SMILES IDX 12 1 11 2 10 3 9 4 8 5 7 6 6 7 5 8 4 9 3 10 2 11 1 12 13 13
REMARK SMILES IDX 14 14 15 15 16 16 17 17 18 18 19 19 20 20 21 21 22 22 23 23
REMARK SMILES IDX 24 24
REMARK H PARENT
REMARK Flexibility Score: inf
ROOT
ATOM      1  C   UNL     1      13.425  73.294  -4.118  1.00  0.00     0.000 C 
ENDROOT
BRANCH   1   2
ATOM      2  C   UNL     1      12.870  72.928  -5.504  1.00  0.00     0.000 C 
BRANCH   2   3
ATOM      3  C   UNL     1      11.644  73.770  -5.889  1.00  0.00     0.000 C 
BRANCH   3   4
ATOM      4  C   UNL     1      10.344  72.948  -5.899  1.00  0.00    -0.000 C 
BRANCH   4   5
ATOM      5  C   UNL     1      10.550  71.493  -5.438  1.00  0.00    -0.000 C 
BRANCH   5   6
ATOM      6  C   UNL     1       9.854  71.117  -4.116  1.00  0.00    -0.000 C 
BRANCH   6   7
ATOM      7  C   UNL     1      10.808  71.127  -2.912  1.00  0.00    -0.000 C 
BRANCH   7   8
ATOM      8  C   UNL     1      10.427  72.181  -1.858  1.00  0.00    -0.000 C 
BRANCH   8   9
ATOM      9  C   UNL     1       9.471  73.270  -2.391  1.00  0.00    -0.000 C 
BRANCH   9  10
ATOM     10  C   UNL     1      10.074  74.678  -2.268  1.00  0.00    -0.000 C 
BRANCH  10  11
ATOM     11  C   UNL     1       9.419  75.647  -3.258  1.00  0.00    -0.003 C 
ATOM     12  C   UNL     1       8.141  75.056  -3.845  1.00  0.00     0.004 C 
ENDBRANCH  10  11
ENDBRANCH   9  10
ENDBRANCH   8   9
ENDBRANCH   7   8
ENDBRANCH   6   7
ENDBRANCH   5   6
ENDBRANCH   4   5
ENDBRANCH   3   4
ENDBRANCH   2   3
ENDBRANCH   1   2
BRANCH   1  13
ATOM     13  C   UNL     1      14.067  74.690  -4.133  1.00  0.00     0.000 C 
BRANCH  13  14
ATOM     14  C   UNL     1      13.347  75.693  -3.210  1.00  0.00     0.000 C 
BRANCH  14  15
ATOM     15  C   UNL     1      13.338  77.150  -3.710  1.00  0.00     0.000 C 
BRANCH  15  16
ATOM     16  C   UNL     1      12.487  78.080  -2.829  1.00  0.00     0.000 C 
BRANCH  16  17
ATOM     17  C   UNL     1      12.268  77.513  -1.409  1.00  0.00     0.000 C 
BRANCH  17  18
ATOM     18  C   UNL     1      11.991  78.590  -0.344  1.00  0.00     0.000 C 
BRANCH  18  19
ATOM     19  C   UNL     1      10.749  78.337   0.533  1.00  0.00     0.000 C 
BRANCH  19  20
ATOM     20  C   UNL     1       9.441  78.077  -0.242  1.00  0.00     0.006 C 
BRANCH  20  21
ATOM     21  C   UNL     1       8.585  76.930   0.318  1.00  0.00     0.053 C 
BRANCH  21  22
ATOM     22  C   UNL     1       7.464  77.431   1.175  1.00  0.00     0.041 C 
ATOM     23  O   UNL     1       7.669  78.349   2.012  1.00  0.00    -0.550 OA
ATOM     24  O   UNL     1       6.199  76.868   1.067  1.00  0.00    -0.550 OA
ENDBRANCH  21  22
ENDBRANCH  20  21
ENDBRANCH  19  20
ENDBRANCH  18  19
ENDBRANCH  17  18
ENDBRANCH  16  17
ENDBRANCH  15  16
ENDBRANCH  14  15
ENDBRANCH  13  14
ENDBRANCH   1  13
TORSDOF 20
ENDMDL
MODEL 4
REMARK VINA RESULT:    -5.566      1.813      4.273
REMARK INTER + INTRA:         -15.771
REMARK INTER:                 -13.210
REMARK INTRA:                  -2.561
REMARK UNBOUND:                -3.698
REMARK SMILES CCCCCCCCCCCCCCCCCCCCCC(=O)[O-]
REMARK SMILES IDX 12 1 11 2 10 3 9 4 8 5 7 6 6 7 5 8 4 9 3 10 2 11 1 12 13 13
REMARK SMILES IDX 14 14 15 15 16 16 17 17 18 18 19 19 20 20 21 21 22 22 23 23
REMARK SMILES IDX 24 24
REMARK H PARENT
REMARK Flexibility Score: inf
ROOT
ATOM      1  C   UNL     1      10.152  73.601  -1.979  1.00  0.00     0.000 C 
ENDROOT
BRANCH   1   2
ATOM      2  C   UNL     1      10.041  72.070  -1.897  1.00  0.00     0.000 C 
BRANCH   2   3
ATOM      3  C   UNL     1      10.810  71.362  -3.024  1.00  0.00     0.000 C 
BRANCH   3   4
ATOM      4  C   UNL     1       9.880  70.834  -4.130  1.00  0.00    -0.000 C 
BRANCH   4   5
ATOM      5  C   UNL     1      10.094  71.537  -5.483  1.00  0.00    -0.000 C 
BRANCH   5   6
ATOM      6  C   UNL     1       9.298  72.841  -5.679  1.00  0.00    -0.000 C 
BRANCH   6   7
ATOM      7  C   UNL     1      10.193  74.046  -6.006  1.00  0.00    -0.000 C 
BRANCH   7   8
ATOM      8  C   UNL     1      11.678  73.667  -6.138  1.00  0.00    -0.000 C 
BRANCH   8   9
ATOM      9  C   UNL     1      12.508  73.966  -4.870  1.00  0.00    -0.000 C 
BRANCH   9  10
ATOM     10  C   UNL     1      13.581  72.896  -4.617  1.00  0.00    -0.000 C 
BRANCH  10  11
ATOM     11  C   UNL     1      14.464  73.273  -3.422  1.00  0.00    -0.003 C 
ATOM     12  C   UNL     1      13.630  73.475  -2.161  1.00  0.00     0.004 C 
ENDBRANCH  10  11
ENDBRANCH   9  10
ENDBRANCH   8   9
ENDBRANCH   7   8
ENDBRANCH   6   7
ENDBRANCH   5   6
ENDBRANCH   4   5
ENDBRANCH   3   4
ENDBRANCH   2   3
ENDBRANCH   1   2
BRANCH   1  13
ATOM     13  C   UNL     1       8.762  74.251  -2.040  1.00  0.00     0.000 C 
BRANCH  13  14
ATOM     14  C   UNL     1       8.710  75.475  -2.974  1.00  0.00     0.000 C 
BRANCH  14  15
ATOM     15  C   UNL     1       9.838  76.504  -2.767  1.00  0.00     0.000 C 
BRANCH  15  16
ATOM     16  C   UNL     1       9.473  77.598  -1.750  1.00  0.00     0.000 C 
BRANCH  16  17
ATOM     17  C   UNL     1       9.790  77.183  -0.297  1.00  0.00     0.000 C 
BRANCH  17  18
ATOM     18  C   UNL     1      10.244  78.351   0.599  1.00  0.00     0.000 C 
BRANCH  18  19
ATOM     19  C   UNL     1       9.102  79.184   1.213  1.00  0.00     0.000 C 
BRANCH  19  20
ATOM     20  C   UNL     1       8.779  78.867   2.688  1.00  0.00     0.006 C 
BRANCH  20  21
ATOM     21  C   UNL     1       7.285  78.667   2.986  1.00  0.00     0.053 C 
BRANCH  21  22
ATOM     22  C   UNL     1       6.493  78.405   1.742  1.00  0.00     0.041 C 
ATOM     23  O   UNL     1       6.488  77.257   1.225  1.00  0.00    -0.550 OA
ATOM     24  O   UNL     1       5.781  79.433   1.139  1.00  0.00    -0.550 OA
ENDBRANCH  21  22
ENDBRANCH  20  21
ENDBRANCH  19  20
ENDBRANCH  18  19
ENDBRANCH  17  18
ENDBRANCH  16  17
ENDBRANCH  15  16
ENDBRANCH  14  15
ENDBRANCH  13  14
ENDBRANCH   1  13
TORSDOF 20
ENDMDL
MODEL 5
REMARK VINA RESULT:    -5.562      1.857      3.846
REMARK INTER + INTRA:         -15.763
REMARK INTER:                 -12.037
REMARK INTRA:                  -3.726
REMARK UNBOUND:                -3.698
REMARK SMILES CCCCCCCCCCCCCCCCCCCCCC(=O)[O-]
REMARK SMILES IDX 12 1 11 2 10 3 9 4 8 5 7 6 6 7 5 8 4 9 3 10 2 11 1 12 13 13
REMARK SMILES IDX 14 14 15 15 16 16 17 17 18 18 19 19 20 20 21 21 22 22 23 23
REMARK SMILES IDX 24 24
REMARK H PARENT
REMARK Flexibility Score: inf
ROOT
ATOM      1  C   UNL     1      13.182  73.169  -4.928  1.00  0.00     0.000 C 
ENDROOT
BRANCH   1   2
ATOM      2  C   UNL     1      13.591  74.117  -3.789  1.00  0.00     0.000 C 
BRANCH   2   3
ATOM      3  C   UNL     1      14.332  75.365  -4.298  1.00  0.00     0.000 C 
BRANCH   3   4
ATOM      4  C   UNL     1      13.565  76.666  -4.003  1.00  0.00    -0.000 C 
BRANCH   4   5
ATOM      5  C   UNL     1      12.741  76.596  -2.704  1.00  0.00    -0.000 C 
BRANCH   5   6
ATOM      6  C   UNL     1      13.083  77.666  -1.650  1.00  0.00    -0.000 C 
BRANCH   6   7
ATOM      7  C   UNL     1      12.590  77.299  -0.242  1.00  0.00    -0.000 C 
BRANCH   7   8
ATOM      8  C   UNL     1      12.206  75.815  -0.113  1.00  0.00    -0.000 C 
BRANCH   8   9
ATOM      9  C   UNL     1      10.934  75.576   0.730  1.00  0.00    -0.000 C 
BRANCH   9  10
ATOM     10  C   UNL     1      10.185  76.884   1.026  1.00  0.00    -0.000 C 
BRANCH  10  11
ATOM     11  C   UNL     1       8.931  77.011   0.154  1.00  0.00    -0.003 C 
ATOM     12  C   UNL     1       8.005  75.812   0.341  1.00  0.00     0.004 C 
ENDBRANCH  10  11
ENDBRANCH   9  10
ENDBRANCH   8   9
ENDBRANCH   7   8
ENDBRANCH   6   7
ENDBRANCH   5   6
ENDBRANCH   4   5
ENDBRANCH   3   4
ENDBRANCH   2   3
ENDBRANCH   1   2
BRANCH   1  13
ATOM     13  C   UNL     1      12.141  73.829  -5.846  1.00  0.00     0.000 C 
BRANCH  13  14
ATOM     14  C   UNL     1      10.808  73.058  -5.896  1.00  0.00     0.000 C 
BRANCH  14  15
ATOM     15  C   UNL     1      10.891  71.581  -5.468  1.00  0.00     0.000 C 
BRANCH  15  16
ATOM     16  C   UNL     1       9.737  71.159  -4.542  1.00  0.00     0.000 C 
BRANCH  16  17
ATOM     17  C   UNL     1      10.224  70.773  -3.129  1.00  0.00     0.000 C 
BRANCH  17  18
ATOM     18  C   UNL     1      11.016  71.887  -2.417  1.00  0.00     0.000 C 
BRANCH  18  19
ATOM     19  C   UNL     1      10.155  72.985  -1.763  1.00  0.00     0.000 C 
BRANCH  19  20
ATOM     20  C   UNL     1      10.041  74.296  -2.568  1.00  0.00     0.006 C 
BRANCH  20  21
ATOM     21  C   UNL     1       8.653  74.551  -3.178  1.00  0.00     0.053 C 
BRANCH  21  22
ATOM     22  C   UNL     1       8.539  75.926  -3.760  1.00  0.00     0.041 C 
ATOM     23  O   UNL     1       7.859  76.117  -4.803  1.00  0.00    -0.550 OA
ATOM     24  O   UNL     1       9.202  76.992  -3.167  1.00  0.00    -0.550 OA
ENDBRANCH  21  22
ENDBRANCH  20  21
ENDBRANCH  19  20
ENDBRANCH  18  19
ENDBRANCH  17  18
ENDBRANCH  16  17
ENDBRANCH  15  16
ENDBRANCH  14  15
ENDBRANCH  13  14
ENDBRANCH   1  13
TORSDOF 20
ENDMDL
MODEL 6
REMARK VINA RESULT:    -5.488      2.337      4.948
REMARK INTER + INTRA:         -15.603
REMARK INTER:                 -13.226
REMARK INTRA:                  -2.377
REMARK UNBOUND:                -3.698
REMARK SMILES CCCCCCCCCCCCCCCCCCCCCC(=O)[O-]
REMARK SMILES IDX 12 1 11 2 10 3 9 4 8 5 7 6 6 7 5 8 4 9 3 10 2 11 1 12 13 13
REMARK SMILES IDX 14 14 15 15 16 16 17 17 18 18 19 19 20 20 21 21 22 22 23 23
REMARK SMILES IDX 24 24
REMARK H PARENT
REMARK Flexibility Score: inf
ROOT
ATOM      1  C   UNL     1      13.827  75.036  -4.100  1.00  0.00     0.000 C 
ENDROOT
BRANCH   1   2
ATOM      2  C   UNL     1      13.242  75.685  -2.835  1.00  0.00     0.000 C 
BRANCH   2   3
ATOM      3  C   UNL     1      12.715  77.106  -3.091  1.00  0.00     0.000 C 
BRANCH   3   4
ATOM      4  C   UNL     1      12.555  77.918  -1.794  1.00  0.00    -0.000 C 
BRANCH   4   5
ATOM      5  C   UNL     1      11.373  78.903  -1.845  1.00  0.00    -0.000 C 
BRANCH   5   6
ATOM      6  C   UNL     1       9.975  78.258  -1.803  1.00  0.00    -0.000 C 
BRANCH   6   7
ATOM      7  C   UNL     1       9.263  78.456  -0.456  1.00  0.00    -0.000 C 
BRANCH   7   8
ATOM      8  C   UNL     1       9.651  79.776   0.234  1.00  0.00    -0.000 C 
BRANCH   8   9
ATOM      9  C   UNL     1       9.672  79.685   1.776  1.00  0.00    -0.000 C 
BRANCH   9  10
ATOM     10  C   UNL     1       8.965  78.420   2.289  1.00  0.00    -0.000 C 
BRANCH  10  11
ATOM     11  C   UNL     1       7.727  78.779   3.117  1.00  0.00    -0.003 C 
ATOM     12  C   UNL     1       8.035  78.752   4.611  1.00  0.00     0.004 C 
ENDBRANCH  10  11
ENDBRANCH   9  10
ENDBRANCH   8   9
ENDBRANCH   7   8
ENDBRANCH   6   7
ENDBRANCH   5   6
ENDBRANCH   4   5
ENDBRANCH   3   4
ENDBRANCH   2   3
ENDBRANCH   1   2
BRANCH   1  13
ATOM     13  C   UNL     1      13.770  73.504  -4.009  1.00  0.00     0.000 C 
BRANCH  13  14
ATOM     14  C   UNL     1      13.074  72.855  -5.220  1.00  0.00     0.000 C 
BRANCH  14  15
ATOM     15  C   UNL     1      12.023  73.736  -5.920  1.00  0.00     0.000 C 
BRANCH  15  16
ATOM     16  C   UNL     1      10.609  73.132  -5.879  1.00  0.00     0.000 C 
BRANCH  16  17
ATOM     17  C   UNL     1      10.625  71.608  -5.631  1.00  0.00     0.000 C 
BRANCH  17  18
ATOM     18  C   UNL     1       9.826  71.170  -4.390  1.00  0.00     0.000 C 
BRANCH  18  19
ATOM     19  C   UNL     1      10.624  71.152  -3.072  1.00  0.00     0.000 C 
BRANCH  19  20
ATOM     20  C   UNL     1      10.103  72.104  -1.976  1.00  0.00     0.006 C 
BRANCH  20  21
ATOM     21  C   UNL     1      10.330  73.597  -2.267  1.00  0.00     0.053 C 
BRANCH  21  22
ATOM     22  C   UNL     1       9.042  74.358  -2.337  1.00  0.00     0.041 C 
ATOM     23  O   UNL     1       8.473  74.538  -3.446  1.00  0.00    -0.550 OA
ATOM     24  O   UNL     1       8.483  74.890  -1.183  1.00  0.00    -0.550 OA
ENDBRANCH  21  22
ENDBRANCH  20  21
ENDBRANCH  19  20
ENDBRANCH  18  19
ENDBRANCH  17  18
ENDBRANCH  16  17
ENDBRANCH  15  16
ENDBRANCH  14  15
ENDBRANCH  13  14
ENDBRANCH   1  13
TORSDOF 20
ENDMDL
MODEL 7
REMARK VINA RESULT:    -5.474      3.103      5.570
REMARK INTER + INTRA:         -15.571
REMARK INTER:                 -12.927
REMARK INTRA:                  -2.644
REMARK UNBOUND:                -3.698
REMARK SMILES CCCCCCCCCCCCCCCCCCCCCC(=O)[O-]
REMARK SMILES IDX 12 1 11 2 10 3 9 4 8 5 7 6 6 7 5 8 4 9 3 10 2 11 1 12 13 13
REMARK SMILES IDX 14 14 15 15 16 16 17 17 18 18 19 19 20 20 21 21 22 22 23 23
REMARK SMILES IDX 24 24
REMARK H PARENT
REMARK Flexibility Score: inf
ROOT
ATOM      1  C   UNL     1       9.450  73.056  -2.143  1.00  0.00     0.000 C 
ENDROOT
BRANCH   1   2
ATOM      2  C   UNL     1       9.854  74.518  -2.392  1.00  0.00     0.000 C 
BRANCH   2   3
ATOM      3  C   UNL     1       8.922  75.226  -3.388  1.00  0.00     0.000 C 
BRANCH   3   4
ATOM      4  C   UNL     1       8.942  76.756  -3.229  1.00  0.00    -0.000 C 
BRANCH   4   5
ATOM      5  C   UNL     1       9.574  77.214  -1.902  1.00  0.00    -0.000 C 
BRANCH   5   6
ATOM      6  C   UNL     1       9.358  78.697  -1.548  1.00  0.00    -0.000 C 
BRANCH   6   7
ATOM      7  C   UNL     1      10.365  79.219  -0.511  1.00  0.00    -0.000 C 
BRANCH   7   8
ATOM      8  C   UNL     1       9.686  79.778   0.751  1.00  0.00    -0.000 C 
BRANCH   8   9
ATOM      9  C   UNL     1       9.445  78.716   1.846  1.00  0.00    -0.000 C 
BRANCH   9  10
ATOM     10  C   UNL     1       8.014  78.158   1.805  1.00  0.00    -0.000 C 
BRANCH  10  11
ATOM     11  C   UNL     1       7.191  78.664   2.994  1.00  0.00    -0.003 C 
ATOM     12  C   UNL     1       8.083  78.969   4.194  1.00  0.00     0.004 C 
ENDBRANCH  10  11
ENDBRANCH   9  10
ENDBRANCH   8   9
ENDBRANCH   7   8
ENDBRANCH   6   7
ENDBRANCH   5   6
ENDBRANCH   4   5
ENDBRANCH   3   4
ENDBRANCH   2   3
ENDBRANCH   1   2
BRANCH   1  13
ATOM     13  C   UNL     1      10.687  72.178  -1.900  1.00  0.00     0.000 C 
BRANCH  13  14
ATOM     14  C   UNL     1      10.900  71.120  -3.000  1.00  0.00     0.000 C 
BRANCH  14  15
ATOM     15  C   UNL     1       9.881  71.162  -4.154  1.00  0.00     0.000 C 
BRANCH  15  16
ATOM     16  C   UNL     1      10.521  71.514  -5.507  1.00  0.00     0.000 C 
BRANCH  16  17
ATOM     17  C   UNL     1      10.374  73.010  -5.859  1.00  0.00     0.000 C 
BRANCH  17  18
ATOM     18  C   UNL     1      11.705  73.786  -5.844  1.00  0.00     0.000 C 
BRANCH  18  19
ATOM     19  C   UNL     1      12.938  72.960  -5.432  1.00  0.00     0.000 C 
BRANCH  19  20
ATOM     20  C   UNL     1      13.826  73.603  -4.346  1.00  0.00     0.006 C 
BRANCH  20  21
ATOM     21  C   UNL     1      13.075  74.523  -3.370  1.00  0.00     0.053 C 
BRANCH  21  22
ATOM     22  C   UNL     1      13.516  75.949  -3.488  1.00  0.00     0.041 C 
ATOM     23  O   UNL     1      13.307  76.757  -2.544  1.00  0.00    -0.550 OA
ATOM     24  O   UNL     1      14.137  76.394  -4.648  1.00  0.00    -0.550 OA
ENDBRANCH  21  22
ENDBRANCH  20  21
ENDBRANCH  19  20
ENDBRANCH  18  19
ENDBRANCH  17  18
ENDBRANCH  16  17
ENDBRANCH  15  16
ENDBRANCH  14  15
ENDBRANCH  13  14
ENDBRANCH   1  13
TORSDOF 20
ENDMDL
MODEL 8
REMARK VINA RESULT:    -5.456      3.002      6.111
REMARK INTER + INTRA:         -15.533
REMARK INTER:                 -12.832
REMARK INTRA:                  -2.701
REMARK UNBOUND:                -3.698
REMARK SMILES CCCCCCCCCCCCCCCCCCCCCC(=O)[O-]
REMARK SMILES IDX 12 1 11 2 10 3 9 4 8 5 7 6 6 7 5 8 4 9 3 10 2 11 1 12 13 13
REMARK SMILES IDX 14 14 15 15 16 16 17 17 18 18 19 19 20 20 21 21 22 22 23 23
REMARK SMILES IDX 24 24
REMARK H PARENT
REMARK Flexibility Score: inf
ROOT
ATOM      1  C   UNL     1       7.978  74.838  -1.365  1.00  0.00     0.000 C 
ENDROOT
BRANCH   1   2
ATOM      2  C   UNL     1       8.373  76.080  -0.549  1.00  0.00     0.000 C 
BRANCH   2   3
ATOM      3  C   UNL     1       9.588  76.813  -1.142  1.00  0.00     0.000 C 
BRANCH   3   4
ATOM      4  C   UNL     1       9.273  78.274  -1.508  1.00  0.00    -0.000 C 
BRANCH   4   5
ATOM      5  C   UNL     1      10.262  79.275  -0.884  1.00  0.00    -0.000 C 
BRANCH   5   6
ATOM      6  C   UNL     1       9.716  80.079   0.312  1.00  0.00    -0.000 C 
BRANCH   6   7
ATOM      7  C   UNL     1      10.297  79.620   1.658  1.00  0.00    -0.000 C 
BRANCH   7   8
ATOM      8  C   UNL     1       9.494  78.470   2.291  1.00  0.00    -0.000 C 
BRANCH   8   9
ATOM      9  C   UNL     1       8.673  78.896   3.528  1.00  0.00    -0.000 C 
BRANCH   9  10
ATOM     10  C   UNL     1       7.167  78.663   3.329  1.00  0.00    -0.000 C 
BRANCH  10  11
ATOM     11  C   UNL     1       6.864  78.216   1.895  1.00  0.00    -0.003 C 
ATOM     12  C   UNL     1       6.048  79.268   1.149  1.00  0.00     0.004 C 
ENDBRANCH  10  11
ENDBRANCH   9  10
ENDBRANCH   8   9
ENDBRANCH   7   8
ENDBRANCH   6   7
ENDBRANCH   5   6
ENDBRANCH   4   5
ENDBRANCH   3   4
ENDBRANCH   2   3
ENDBRANCH   1   2
BRANCH   1  13
ATOM     13  C   UNL     1       9.046  74.510  -2.420  1.00  0.00     0.000 C 
BRANCH  13  14
ATOM     14  C   UNL     1       8.486  74.482  -3.855  1.00  0.00     0.000 C 
BRANCH  14  15
ATOM     15  C   UNL     1       9.543  74.566  -4.971  1.00  0.00     0.000 C 
BRANCH  15  16
ATOM     16  C   UNL     1       9.187  73.713  -6.200  1.00  0.00     0.000 C 
BRANCH  16  17
ATOM     17  C   UNL     1       9.142  72.203  -5.879  1.00  0.00     0.000 C 
BRANCH  17  18
ATOM     18  C   UNL     1      10.441  71.661  -5.255  1.00  0.00     0.000 C 
BRANCH  18  19
ATOM     19  C   UNL     1      10.303  71.135  -3.813  1.00  0.00     0.000 C 
BRANCH  19  20
ATOM     20  C   UNL     1      11.382  71.629  -2.828  1.00  0.00     0.006 C 
BRANCH  20  21
ATOM     21  C   UNL     1      12.601  72.288  -3.494  1.00  0.00     0.053 C 
BRANCH  21  22
ATOM     22  C   UNL     1      12.837  73.677  -2.988  1.00  0.00     0.041 C 
ATOM     23  O   UNL     1      12.574  74.669  -3.717  1.00  0.00    -0.550 OA
ATOM     24  O   UNL     1      13.370  73.876  -1.721  1.00  0.00    -0.550 OA
ENDBRANCH  21  22
ENDBRANCH  20  21
ENDBRANCH  19  20
ENDBRANCH  18  19
ENDBRANCH  17  18
ENDBRANCH  16  17
ENDBRANCH  15  16
ENDBRANCH  14  15
ENDBRANCH  13  14
ENDBRANCH   1  13
TORSDOF 20
ENDMDL
MODEL 9
REMARK VINA RESULT:    -5.423      2.273      4.611
REMARK INTER + INTRA:         -15.461
REMARK INTER:                 -12.037
REMARK INTRA:                  -3.425
REMARK UNBOUND:                -3.698
REMARK SMILES CCCCCCCCCCCCCCCCCCCCCC(=O)[O-]
REMARK SMILES IDX 12 1 11 2 10 3 9 4 8 5 7 6 6 7 5 8 4 9 3 10 2 11 1 12 13 13
REMARK SMILES IDX 14 14 15 15 16 16 17 17 18 18 19 19 20 20 21 21 22 22 23 23
REMARK SMILES IDX 24 24
REMARK H PARENT
REMARK Flexibility Score: inf
ROOT
ATOM      1  C   UNL     1      10.614  71.502  -5.472  1.00  0.00     0.000 C 
ENDROOT
BRANCH   1   2
ATOM      2  C   UNL     1       9.868  71.179  -4.167  1.00  0.00     0.000 C 
BRANCH   2   3
ATOM      3  C   UNL     1      10.802  71.143  -2.947  1.00  0.00     0.000 C 
BRANCH   3   4
ATOM      4  C   UNL     1      10.766  72.452  -2.139  1.00  0.00    -0.000 C 
BRANCH   4   5
ATOM      5  C   UNL     1       9.401  73.161  -2.205  1.00  0.00    -0.000 C 
BRANCH   5   6
ATOM      6  C   UNL     1       9.459  74.677  -2.472  1.00  0.00    -0.000 C 
BRANCH   6   7
ATOM      7  C   UNL     1       8.931  75.514  -1.297  1.00  0.00    -0.000 C 
BRANCH   7   8
ATOM      8  C   UNL     1       9.814  75.403  -0.042  1.00  0.00    -0.000 C 
BRANCH   8   9
ATOM      9  C   UNL     1       9.832  76.687   0.816  1.00  0.00    -0.000 C 
BRANCH   9  10
ATOM     10  C   UNL     1       8.767  77.698   0.364  1.00  0.00    -0.000 C 
BRANCH  10  11
ATOM     11  C   UNL     1       7.679  77.866   1.431  1.00  0.00    -0.003 C 
ATOM     12  C   UNL     1       8.210  78.619   2.648  1.00  0.00     0.004 C 
ENDBRANCH  10  11
ENDBRANCH   9  10
ENDBRANCH   8   9
ENDBRANCH   7   8
ENDBRANCH   6   7
ENDBRANCH   5   6
ENDBRANCH   4   5
ENDBRANCH   3   4
ENDBRANCH   2   3
ENDBRANCH   1   2
BRANCH   1  13
ATOM     13  C   UNL     1      10.413  72.971  -5.872  1.00  0.00     0.000 C 
BRANCH  13  14
ATOM     14  C   UNL     1      11.708  73.801  -5.789  1.00  0.00     0.000 C 
BRANCH  14  15
ATOM     15  C   UNL     1      12.923  73.060  -5.200  1.00  0.00     0.000 C 
BRANCH  15  16
ATOM     16  C   UNL     1      13.807  73.960  -4.320  1.00  0.00     0.000 C 
BRANCH  16  17
ATOM     17  C   UNL     1      13.090  75.261  -3.899  1.00  0.00     0.000 C 
BRANCH  17  18
ATOM     18  C   UNL     1      12.882  75.394  -2.379  1.00  0.00     0.000 C 
BRANCH  18  19
ATOM     19  C   UNL     1      12.795  76.840  -1.855  1.00  0.00     0.000 C 
BRANCH  19  20
ATOM     20  C   UNL     1      11.744  77.729  -2.553  1.00  0.00     0.006 C 
BRANCH  20  21
ATOM     21  C   UNL     1      11.381  79.010  -1.786  1.00  0.00     0.053 C 
BRANCH  21  22
ATOM     22  C   UNL     1      12.477  79.445  -0.864  1.00  0.00     0.041 C 
ATOM     23  O   UNL     1      13.469  80.078  -1.313  1.00  0.00    -0.550 OA
ATOM     24  O   UNL     1      12.417  79.130   0.487  1.00  0.00    -0.550 OA
ENDBRANCH  21  22
ENDBRANCH  20  21
ENDBRANCH  19  20
ENDBRANCH  18  19
ENDBRANCH  17  18
ENDBRANCH  16  17
ENDBRANCH  15  16
ENDBRANCH  14  15
ENDBRANCH  13  14
ENDBRANCH   1  13
TORSDOF 20
ENDMDL
