MODEL 1
REMARK VINA RESULT:    -4.745      0.000      0.000
REMARK INTER + INTRA:          -8.913
REMARK INTER:                  -8.074
REMARK INTRA:                  -0.839
REMARK UNBOUND:                -0.839
REMARK SMILES CCCCCCCCCCCCCC(=O)[O-]
REMARK SMILES IDX 8 1 9 2 10 3 11 4 12 5 13 6 14 7 15 8 16 9 7 10 6 11 5 12
REMARK SMILES IDX 4 13 3 14 2 15 1 16
REMARK H PARENT
REMARK Flexibility Score: inf
ROOT
ATOM      1  C   UNL     1      -6.572  -7.222  -6.321  1.00  0.00     0.000 C 
ENDROOT
BRANCH   1   2
ATOM      2  C   UNL     1      -7.711  -6.353  -5.757  1.00  0.00     0.000 C 
BRANCH   2   3
ATOM      3  C   UNL     1      -8.524  -7.079  -4.672  1.00  0.00     0.000 C 
BRANCH   3   4
ATOM      4  C   UNL     1      -8.598  -8.598  -4.909  1.00  0.00     0.000 C 
BRANCH   4   5
ATOM      5  C   UNL     1      -8.504  -9.409  -3.603  1.00  0.00     0.006 C 
BRANCH   5   6
ATOM      6  C   UNL     1      -8.176  -8.570  -2.357  1.00  0.00     0.053 C 
BRANCH   6   7
ATOM      7  C   UNL     1      -6.724  -8.646  -1.995  1.00  0.00     0.041 C 
ATOM      8  O   UNL     1      -5.862  -8.060  -2.701  1.00  0.00    -0.550 OA
ATOM      9  O   UNL     1      -6.321  -9.393  -0.895  1.00  0.00    -0.550 OA
ENDBRANCH   6   7
ENDBRANCH   5   6
ENDBRANCH   4   5
ENDBRANCH   3   4
ENDBRANCH   2   3
ENDBRANCH   1   2
BRANCH   1  10
ATOM     10  C   UNL     1      -5.702  -6.468  -7.337  1.00  0.00     0.000 C 
BRANCH  10  11
ATOM     11  C   UNL     1      -6.352  -6.376  -8.729  1.00  0.00    -0.000 C 
BRANCH  11  12
ATOM     12  C   UNL     1      -6.634  -4.917  -9.146  1.00  0.00    -0.000 C 
BRANCH  12  13
ATOM     13  C   UNL     1      -6.278  -3.882  -8.061  1.00  0.00    -0.000 C 
BRANCH  13  14
ATOM     14  C   UNL     1      -6.669  -2.434  -8.399  1.00  0.00    -0.000 C 
BRANCH  14  15
ATOM     15  C   UNL     1      -5.525  -1.439  -8.155  1.00  0.00    -0.003 C 
ATOM     16  C   UNL     1      -4.941  -0.943  -9.474  1.00  0.00     0.004 C 
ENDBRANCH  14  15
ENDBRANCH  13  14
ENDBRANCH  12  13
ENDBRANCH  11  12
ENDBRANCH  10  11
ENDBRANCH   1  10
TORSDOF 12
ENDMDL
MODEL 2
REMARK VINA RESULT:    -4.560     15.820     17.662
REMARK INTER + INTRA:          -8.598
REMARK INTER:                  -7.409
REMARK INTRA:                  -1.189
REMARK UNBOUND:                -0.839
REMARK SMILES CCCCCCCCCCCCCC(=O)[O-]
REMARK SMILES IDX 8 1 9 2 10 3 11 4 12 5 13 6 14 7 15 8 16 9 7 10 6 11 5 12
REMARK SMILES IDX 4 13 3 14 2 15 1 16
REMARK H PARENT
REMARK Flexibility Score: inf
ROOT
ATOM      1  C   UNL     1      -2.404  -0.128   9.133  1.00  0.00     0.000 C 
ENDROOT
BRANCH   1   2
ATOM      2  C   UNL     1      -1.805  -0.214   7.718  1.00  0.00     0.000 C 
BRANCH   2   3
ATOM      3  C   UNL     1      -0.815  -1.381   7.568  1.00  0.00     0.000 C 
BRANCH   3   4
ATOM      4  C   UNL     1       0.446  -0.986   6.779  1.00  0.00     0.000 C 
BRANCH   4   5
ATOM      5  C   UNL     1       0.576   0.537   6.591  1.00  0.00     0.006 C 
BRANCH   5   6
ATOM      6  C   UNL     1       1.120   0.963   5.217  1.00  0.00     0.053 C 
BRANCH   6   7
ATOM      7  C   UNL     1       0.167   1.862   4.491  1.00  0.00     0.041 C 
ATOM      8  O   UNL     1       0.563   2.549   3.513  1.00  0.00    -0.550 OA
ATOM      9  O   UNL     1      -1.152   1.964   4.915  1.00  0.00    -0.550 OA
ENDBRANCH   6   7
ENDBRANCH   5   6
ENDBRANCH   4   5
ENDBRANCH   3   4
ENDBRANCH   2   3
ENDBRANCH   1   2
BRANCH   1  10
ATOM     10  C   UNL     1      -2.718   1.316   9.555  1.00  0.00     0.000 C 
BRANCH  10  11
ATOM     11  C   UNL     1      -1.824   2.352   8.850  1.00  0.00    -0.000 C 
BRANCH  11  12
ATOM     12  C   UNL     1      -0.759   2.944   9.797  1.00  0.00    -0.000 C 
BRANCH  12  13
ATOM     13  C   UNL     1       0.581   3.260   9.103  1.00  0.00    -0.000 C 
BRANCH  13  14
ATOM     14  C   UNL     1       1.400   4.381   9.763  1.00  0.00    -0.000 C 
BRANCH  14  15
ATOM     15  C   UNL     1       2.129   5.264   8.740  1.00  0.00    -0.003 C 
ATOM     16  C   UNL     1       2.470   4.474   7.480  1.00  0.00     0.004 C 
ENDBRANCH  14  15
ENDBRANCH  13  14
ENDBRANCH  12  13
ENDBRANCH  11  12
ENDBRANCH  10  11
ENDBRANCH   1  10
TORSDOF 12
ENDMDL
MODEL 3
REMARK VINA RESULT:    -4.531     14.400     16.695
REMARK INTER + INTRA:          -8.548
REMARK INTER:                  -7.143
REMARK INTRA:                  -1.405
REMARK UNBOUND:                -0.839
REMARK SMILES CCCCCCCCCCCCCC(=O)[O-]
REMARK SMILES IDX 8 1 9 2 10 3 11 4 12 5 13 6 14 7 15 8 16 9 7 10 6 11 5 12
REMARK SMILES IDX 4 13 3 14 2 15 1 16
REMARK H PARENT
REMARK Flexibility Score: inf
ROOT
ATOM      1  C   UNL     1      -2.489  -1.438   9.570  1.00  0.00     0.000 C 
ENDROOT
BRANCH   1   2
ATOM      2  C   UNL     1      -1.580  -2.227   8.611  1.00  0.00     0.000 C 
BRANCH   2   3
ATOM      3  C   UNL     1      -0.142  -1.682   8.581  1.00  0.00     0.000 C 
BRANCH   3   4
ATOM      4  C   UNL     1       0.373  -1.457   7.148  1.00  0.00     0.000 C 
BRANCH   4   5
ATOM      5  C   UNL     1       0.635   0.029   6.837  1.00  0.00     0.006 C 
BRANCH   5   6
ATOM      6  C   UNL     1       0.918   0.327   5.356  1.00  0.00     0.053 C 
BRANCH   6   7
ATOM      7  C   UNL     1       0.832   1.792   5.052  1.00  0.00     0.041 C 
ATOM      8  O   UNL     1       0.424   2.184   3.928  1.00  0.00    -0.550 OA
ATOM      9  O   UNL     1       1.234   2.723   6.002  1.00  0.00    -0.550 OA
ENDBRANCH   6   7
ENDBRANCH   5   6
ENDBRANCH   4   5
ENDBRANCH   3   4
ENDBRANCH   2   3
ENDBRANCH   1   2
BRANCH   1  10
ATOM     10  C   UNL     1      -1.869  -0.102  10.008  1.00  0.00     0.000 C 
BRANCH  10  11
ATOM     11  C   UNL     1      -2.906   1.031  10.118  1.00  0.00    -0.000 C 
BRANCH  11  12
ATOM     12  C   UNL     1      -2.558   2.230   9.209  1.00  0.00    -0.000 C 
BRANCH  12  13
ATOM     13  C   UNL     1      -1.682   1.856   7.998  1.00  0.00    -0.000 C 
BRANCH  13  14
ATOM     14  C   UNL     1      -2.431   1.796   6.656  1.00  0.00    -0.000 C 
BRANCH  14  15
ATOM     15  C   UNL     1      -2.592   0.362   6.130  1.00  0.00    -0.003 C 
ATOM     16  C   UNL     1      -3.594   0.310   4.982  1.00  0.00     0.004 C 
ENDBRANCH  14  15
ENDBRANCH  13  14
ENDBRANCH  12  13
ENDBRANCH  11  12
ENDBRANCH  10  11
ENDBRANCH   1  10
TORSDOF 12
ENDMDL
MODEL 4
REMARK VINA RESULT:    -4.471     15.609     17.647
REMARK INTER + INTRA:          -8.446
REMARK INTER:                  -6.808
REMARK INTRA:                  -1.638
REMARK UNBOUND:                -0.839
REMARK SMILES CCCCCCCCCCCCCC(=O)[O-]
REMARK SMILES IDX 8 1 9 2 10 3 11 4 12 5 13 6 14 7 15 8 16 9 7 10 6 11 5 12
REMARK SMILES IDX 4 13 3 14 2 15 1 16
REMARK H PARENT
REMARK Flexibility Score: inf
ROOT
ATOM      1  C   UNL     1      -2.712  -0.924   8.770  1.00  0.00     0.000 C 
ENDROOT
BRANCH   1   2
ATOM      2  C   UNL     1      -2.140   0.219   9.628  1.00  0.00     0.000 C 
BRANCH   2   3
ATOM      3  C   UNL     1      -2.177   1.575   8.903  1.00  0.00     0.000 C 
BRANCH   3   4
ATOM      4  C   UNL     1      -1.134   2.565   9.453  1.00  0.00     0.000 C 
BRANCH   4   5
ATOM      5  C   UNL     1       0.118   2.665   8.562  1.00  0.00     0.006 C 
BRANCH   5   6
ATOM      6  C   UNL     1       1.156   3.694   9.039  1.00  0.00     0.053 C 
BRANCH   6   7
ATOM      7  C   UNL     1       2.037   4.161   7.920  1.00  0.00     0.041 C 
ATOM      8  O   UNL     1       1.713   3.942   6.724  1.00  0.00    -0.550 OA
ATOM      9  O   UNL     1       3.232   4.811   8.203  1.00  0.00    -0.550 OA
ENDBRANCH   6   7
ENDBRANCH   5   6
ENDBRANCH   4   5
ENDBRANCH   3   4
ENDBRANCH   2   3
ENDBRANCH   1   2
BRANCH   1  10
ATOM     10  C   UNL     1      -1.667  -2.003   8.452  1.00  0.00     0.000 C 
BRANCH  10  11
ATOM     11  C   UNL     1      -0.245  -1.606   8.889  1.00  0.00    -0.000 C 
BRANCH  11  12
ATOM     12  C   UNL     1       0.619  -1.128   7.702  1.00  0.00    -0.000 C 
BRANCH  12  13
ATOM     13  C   UNL     1      -0.204  -0.665   6.484  1.00  0.00    -0.000 C 
BRANCH  13  14
ATOM     14  C   UNL     1       0.363   0.563   5.753  1.00  0.00    -0.000 C 
BRANCH  14  15
ATOM     15  C   UNL     1      -0.715   1.355   4.998  1.00  0.00    -0.003 C 
ATOM     16  C   UNL     1      -2.112   0.961   5.467  1.00  0.00     0.004 C 
ENDBRANCH  14  15
ENDBRANCH  13  14
ENDBRANCH  12  13
ENDBRANCH  11  12
ENDBRANCH  10  11
ENDBRANCH   1  10
TORSDOF 12
ENDMDL
MODEL 5
REMARK VINA RESULT:    -4.416      3.838      5.833
REMARK INTER + INTRA:          -8.354
REMARK INTER:                  -7.759
REMARK INTRA:                  -0.595
REMARK UNBOUND:                -0.839
REMARK SMILES CCCCCCCCCCCCCC(=O)[O-]
REMARK SMILES IDX 8 1 9 2 10 3 11 4 12 5 13 6 14 7 15 8 16 9 7 10 6 11 5 12
REMARK SMILES IDX 4 13 3 14 2 15 1 16
REMARK H PARENT
REMARK Flexibility Score: inf
ROOT
ATOM      1  C   UNL     1      -6.451  -2.342  -8.168  1.00  0.00     0.000 C 
ENDROOT
BRANCH   1   2
ATOM      2  C   UNL     1      -6.827  -3.165  -9.414  1.00  0.00     0.000 C 
BRANCH   2   3
ATOM      3  C   UNL     1      -6.657  -4.677  -9.194  1.00  0.00     0.000 C 
BRANCH   3   4
ATOM      4  C   UNL     1      -6.501  -5.042  -7.707  1.00  0.00     0.000 C 
BRANCH   4   5
ATOM      5  C   UNL     1      -6.694  -6.547  -7.440  1.00  0.00     0.006 C 
BRANCH   5   6
ATOM      6  C   UNL     1      -5.493  -7.421  -7.836  1.00  0.00     0.053 C 
BRANCH   6   7
ATOM      7  C   UNL     1      -5.903  -8.584  -8.687  1.00  0.00     0.041 C 
ATOM      8  O   UNL     1      -7.118  -8.779  -8.954  1.00  0.00    -0.550 OA
ATOM      9  O   UNL     1      -4.944  -9.473  -9.157  1.00  0.00    -0.550 OA
ENDBRANCH   6   7
ENDBRANCH   5   6
ENDBRANCH   4   5
ENDBRANCH   3   4
ENDBRANCH   2   3
ENDBRANCH   1   2
BRANCH   1  10
ATOM     10  C   UNL     1      -5.023  -1.779  -8.241  1.00  0.00     0.000 C 
BRANCH  10  11
ATOM     11  C   UNL     1      -4.868  -0.679  -9.306  1.00  0.00    -0.000 C 
BRANCH  11  12
ATOM     12  C   UNL     1      -3.421  -0.148  -9.390  1.00  0.00    -0.000 C 
BRANCH  12  13
ATOM     13  C   UNL     1      -3.298   1.201 -10.125  1.00  0.00    -0.000 C 
BRANCH  13  14
ATOM     14  C   UNL     1      -4.455   2.182  -9.869  1.00  0.00    -0.000 C 
BRANCH  14  15
ATOM     15  C   UNL     1      -3.980   3.635  -9.724  1.00  0.00    -0.003 C 
ATOM     16  C   UNL     1      -2.495   3.693  -9.377  1.00  0.00     0.004 C 
ENDBRANCH  14  15
ENDBRANCH  13  14
ENDBRANCH  12  13
ENDBRANCH  11  12
ENDBRANCH  10  11
ENDBRANCH   1  10
TORSDOF 12
ENDMDL
MODEL 6
REMARK VINA RESULT:    -4.350     15.908     17.655
REMARK INTER + INTRA:          -8.241
REMARK INTER:                  -6.793
REMARK INTRA:                  -1.447
REMARK UNBOUND:                -0.839
REMARK SMILES CCCCCCCCCCCCCC(=O)[O-]
REMARK SMILES IDX 8 1 9 2 10 3 11 4 12 5 13 6 14 7 15 8 16 9 7 10 6 11 5 12
REMARK SMILES IDX 4 13 3 14 2 15 1 16
REMARK H PARENT
REMARK Flexibility Score: inf
ROOT
ATOM      1  C   UNL     1      -2.229   2.052   7.662  1.00  0.00     0.000 C 
ENDROOT
BRANCH   1   2
ATOM      2  C   UNL     1      -2.134   1.187   6.392  1.00  0.00     0.000 C 
BRANCH   2   3
ATOM      3  C   UNL     1      -0.873   1.492   5.566  1.00  0.00     0.000 C 
BRANCH   3   4
ATOM      4  C   UNL     1       0.126   0.321   5.562  1.00  0.00     0.000 C 
BRANCH   4   5
ATOM      5  C   UNL     1       0.583  -0.076   6.978  1.00  0.00     0.006 C 
BRANCH   5   6
ATOM      6  C   UNL     1       0.122  -1.472   7.426  1.00  0.00     0.053 C 
BRANCH   6   7
ATOM      7  C   UNL     1       0.542  -1.778   8.831  1.00  0.00     0.041 C 
ATOM      8  O   UNL     1      -0.217  -1.498   9.796  1.00  0.00    -0.550 OA
ATOM      9  O   UNL     1       1.787  -2.343   9.076  1.00  0.00    -0.550 OA
ENDBRANCH   6   7
ENDBRANCH   5   6
ENDBRANCH   4   5
ENDBRANCH   3   4
ENDBRANCH   2   3
ENDBRANCH   1   2
BRANCH   1  10
ATOM     10  C   UNL     1      -2.172   1.218   8.951  1.00  0.00     0.000 C 
BRANCH  10  11
ATOM     11  C   UNL     1      -1.267   1.843  10.028  1.00  0.00    -0.000 C 
BRANCH  11  12
ATOM     12  C   UNL     1      -0.943   3.323   9.732  1.00  0.00    -0.000 C 
BRANCH  12  13
ATOM     13  C   UNL     1       0.562   3.605   9.557  1.00  0.00    -0.000 C 
BRANCH  13  14
ATOM     14  C   UNL     1       1.127   3.253   8.171  1.00  0.00    -0.000 C 
BRANCH  14  15
ATOM     15  C   UNL     1       2.148   4.283   7.668  1.00  0.00    -0.003 C 
ATOM     16  C   UNL     1       2.556   5.240   8.784  1.00  0.00     0.004 C 
ENDBRANCH  14  15
ENDBRANCH  13  14
ENDBRANCH  12  13
ENDBRANCH  11  12
ENDBRANCH  10  11
ENDBRANCH   1  10
TORSDOF 12
ENDMDL
MODEL 7
REMARK VINA RESULT:    -4.348     16.204     17.562
REMARK INTER + INTRA:          -8.238
REMARK INTER:                  -7.062
REMARK INTRA:                  -1.175
REMARK UNBOUND:                -0.839
REMARK SMILES CCCCCCCCCCCCCC(=O)[O-]
REMARK SMILES IDX 8 1 9 2 10 3 11 4 12 5 13 6 14 7 15 8 16 9 7 10 6 11 5 12
REMARK SMILES IDX 4 13 3 14 2 15 1 16
REMARK H PARENT
REMARK Flexibility Score: inf
ROOT
ATOM      1  C   UNL     1       0.701   1.167   5.529  1.00  0.00     0.000 C 
ENDROOT
BRANCH   1   2
ATOM      2  C   UNL     1      -0.629   1.498   4.829  1.00  0.00     0.000 C 
BRANCH   2   3
ATOM      3  C   UNL     1      -1.817   0.724   5.425  1.00  0.00     0.000 C 
BRANCH   3   4
ATOM      4  C   UNL     1      -2.324   1.344   6.739  1.00  0.00     0.000 C 
BRANCH   4   5
ATOM      5  C   UNL     1      -2.174   0.395   7.942  1.00  0.00     0.006 C 
BRANCH   5   6
ATOM      6  C   UNL     1      -1.335  -0.862   7.658  1.00  0.00     0.053 C 
BRANCH   6   7
ATOM      7  C   UNL     1      -0.182  -0.992   8.605  1.00  0.00     0.041 C 
ATOM      8  O   UNL     1       0.996  -1.061   8.166  1.00  0.00    -0.550 OA
ATOM      9  O   UNL     1      -0.412  -1.070   9.973  1.00  0.00    -0.550 OA
ENDBRANCH   6   7
ENDBRANCH   5   6
ENDBRANCH   4   5
ENDBRANCH   3   4
ENDBRANCH   2   3
ENDBRANCH   1   2
BRANCH   1  10
ATOM     10  C   UNL     1       1.317   2.385   6.234  1.00  0.00     0.000 C 
BRANCH  10  11
ATOM     11  C   UNL     1       0.855   2.527   7.696  1.00  0.00    -0.000 C 
BRANCH  11  12
ATOM     12  C   UNL     1       1.512   3.733   8.401  1.00  0.00    -0.000 C 
BRANCH  12  13
ATOM     13  C   UNL     1       2.510   4.502   7.513  1.00  0.00    -0.000 C 
BRANCH  13  14
ATOM     14  C   UNL     1       2.859   5.914   8.011  1.00  0.00    -0.000 C 
BRANCH  14  15
ATOM     15  C   UNL     1       1.821   6.469   8.996  1.00  0.00    -0.003 C 
ATOM     16  C   UNL     1       1.438   7.902   8.639  1.00  0.00     0.004 C 
ENDBRANCH  14  15
ENDBRANCH  13  14
ENDBRANCH  12  13
ENDBRANCH  11  12
ENDBRANCH  10  11
ENDBRANCH   1  10
TORSDOF 12
ENDMDL
MODEL 8
REMARK VINA RESULT:    -4.340      1.708      2.523
REMARK INTER + INTRA:          -8.223
REMARK INTER:                  -7.224
REMARK INTRA:                  -0.999
REMARK UNBOUND:                -0.839
REMARK SMILES CCCCCCCCCCCCCC(=O)[O-]
REMARK SMILES IDX 8 1 9 2 10 3 11 4 12 5 13 6 14 7 15 8 16 9 7 10 6 11 5 12
REMARK SMILES IDX 4 13 3 14 2 15 1 16
REMARK H PARENT
REMARK Flexibility Score: inf
ROOT
ATOM      1  C   UNL     1      -5.413  -6.388  -7.442  1.00  0.00     0.000 C 
ENDROOT
BRANCH   1   2
ATOM      2  C   UNL     1      -5.553  -7.853  -7.892  1.00  0.00     0.000 C 
BRANCH   2   3
ATOM      3  C   UNL     1      -7.017  -8.322  -7.925  1.00  0.00     0.000 C 
BRANCH   3   4
ATOM      4  C   UNL     1      -7.259  -9.558  -7.040  1.00  0.00     0.000 C 
BRANCH   4   5
ATOM      5  C   UNL     1      -7.631  -9.189  -5.592  1.00  0.00     0.006 C 
BRANCH   5   6
ATOM      6  C   UNL     1      -8.531  -7.950  -5.463  1.00  0.00     0.053 C 
BRANCH   6   7
ATOM      7  C   UNL     1      -7.981  -6.957  -4.485  1.00  0.00     0.041 C 
ATOM      8  O   UNL     1      -8.252  -5.733  -4.602  1.00  0.00    -0.550 OA
ATOM      9  O   UNL     1      -7.144  -7.381  -3.461  1.00  0.00    -0.550 OA
ENDBRANCH   6   7
ENDBRANCH   5   6
ENDBRANCH   4   5
ENDBRANCH   3   4
ENDBRANCH   2   3
ENDBRANCH   1   2
BRANCH   1  10
ATOM     10  C   UNL     1      -6.658  -5.549  -7.768  1.00  0.00     0.000 C 
BRANCH  10  11
ATOM     11  C   UNL     1      -6.691  -5.072  -9.231  1.00  0.00    -0.000 C 
BRANCH  11  12
ATOM     12  C   UNL     1      -6.680  -3.532  -9.343  1.00  0.00    -0.000 C 
BRANCH  12  13
ATOM     13  C   UNL     1      -6.135  -2.823  -8.088  1.00  0.00    -0.000 C 
BRANCH  13  14
ATOM     14  C   UNL     1      -5.621  -1.394  -8.328  1.00  0.00    -0.000 C 
BRANCH  14  15
ATOM     15  C   UNL     1      -5.036  -1.203  -9.734  1.00  0.00    -0.003 C 
ATOM     16  C   UNL     1      -3.979  -0.102  -9.743  1.00  0.00     0.004 C 
ENDBRANCH  14  15
ENDBRANCH  13  14
ENDBRANCH  12  13
ENDBRANCH  11  12
ENDBRANCH  10  11
ENDBRANCH   1  10
TORSDOF 12
ENDMDL
MODEL 9
REMARK VINA RESULT:    -4.298     16.129     17.804
REMARK INTER + INTRA:          -8.151
REMARK INTER:                  -6.993
REMARK INTRA:                  -1.159
REMARK UNBOUND:                -0.839
REMARK SMILES CCCCCCCCCCCCCC(=O)[O-]
REMARK SMILES IDX 8 1 9 2 10 3 11 4 12 5 13 6 14 7 15 8 16 9 7 10 6 11 5 12
REMARK SMILES IDX 4 13 3 14 2 15 1 16
REMARK H PARENT
REMARK Flexibility Score: inf
ROOT
ATOM      1  C   UNL     1      -1.780   1.494   7.815  1.00  0.00     0.000 C 
ENDROOT
BRANCH   1   2
ATOM      2  C   UNL     1      -1.889   0.014   8.225  1.00  0.00     0.000 C 
BRANCH   2   3
ATOM      3  C   UNL     1      -0.964  -0.895   7.398  1.00  0.00     0.000 C 
BRANCH   3   4
ATOM      4  C   UNL     1       0.358  -0.204   7.021  1.00  0.00     0.000 C 
BRANCH   4   5
ATOM      5  C   UNL     1       0.625  -0.218   5.504  1.00  0.00     0.006 C 
BRANCH   5   6
ATOM      6  C   UNL     1       1.269   1.067   4.960  1.00  0.00     0.053 C 
BRANCH   6   7
ATOM      7  C   UNL     1       0.269   1.952   4.281  1.00  0.00     0.041 C 
ATOM      8  O   UNL     1      -0.935   1.950   4.650  1.00  0.00    -0.550 OA
ATOM      9  O   UNL     1       0.661   2.755   3.217  1.00  0.00    -0.550 OA
ENDBRANCH   6   7
ENDBRANCH   5   6
ENDBRANCH   4   5
ENDBRANCH   3   4
ENDBRANCH   2   3
ENDBRANCH   1   2
BRANCH   1  10
ATOM     10  C   UNL     1      -1.617   2.431   9.021  1.00  0.00     0.000 C 
BRANCH  10  11
ATOM     11  C   UNL     1      -0.146   2.774   9.318  1.00  0.00    -0.000 C 
BRANCH  11  12
ATOM     12  C   UNL     1       0.663   3.039   8.031  1.00  0.00    -0.000 C 
BRANCH  12  13
ATOM     13  C   UNL     1       1.771   4.096   8.202  1.00  0.00    -0.000 C 
BRANCH  13  14
ATOM     14  C   UNL     1       1.711   4.884   9.521  1.00  0.00    -0.000 C 
BRANCH  14  15
ATOM     15  C   UNL     1       1.861   6.398   9.316  1.00  0.00    -0.003 C 
ATOM     16  C   UNL     1       2.092   6.731   7.845  1.00  0.00     0.004 C 
ENDBRANCH  14  15
ENDBRANCH  13  14
ENDBRANCH  12  13
ENDBRANCH  11  12
ENDBRANCH  10  11
ENDBRANCH   1  10
TORSDOF 12
ENDMDL
