MODEL 1
REMARK VINA RESULT:    13.379      0.000      0.000
REMARK INTER + INTRA:          15.772
REMARK INTER:                  15.726
REMARK INTRA:                   0.046
REMARK UNBOUND:                 0.046
REMARK SMILES O=c1c(O)c(-c2ccc(O)cc2)oc2cc(O)cc(O)c12
REMARK SMILES IDX 5 1 3 2 2 3 1 4 21 5 19 6 18 7 16 8 15 9 14 10 13 11 6 12
REMARK SMILES IDX 7 13 8 14 9 15 12 16 11 17 10 18 4 20 20 22 17 24
REMARK H PARENT 10 19 4 21 20 23 17 25
REMARK Flexibility Score: inf
ROOT
ATOM      1  C   UNL     1      28.587  59.257   4.303  1.00  0.00     0.180 A 
ATOM      2  C   UNL     1      27.200  59.474   4.419  1.00  0.00     0.208 A 
ATOM      3  C   UNL     1      26.734  60.783   4.622  1.00  0.00     0.238 A 
ATOM      4  O   UNL     1      25.495  60.988   4.738  1.00  0.00    -0.285 OA
ATOM      5  C   UNL     1      27.653  61.849   4.685  1.00  0.00     0.111 A 
ATOM      6  C   UNL     1      27.265  63.197   4.882  1.00  0.00     0.134 A 
ATOM      7  C   UNL     1      28.241  64.203   4.924  1.00  0.00     0.093 A 
ATOM      8  C   UNL     1      29.593  63.890   4.771  1.00  0.00     0.123 A 
ATOM      9  C   UNL     1      29.984  62.561   4.577  1.00  0.00     0.094 A 
ATOM     10  C   UNL     1      29.026  61.543   4.534  1.00  0.00     0.146 A 
ATOM     11  O   UNL     1      29.423  60.290   4.352  1.00  0.00    -0.452 OA
ENDROOT
BRANCH   1  12
ATOM     12  C   UNL     1      29.158  57.905   4.107  1.00  0.00     0.021 A 
ATOM     13  C   UNL     1      28.663  57.037   3.117  1.00  0.00     0.016 A 
ATOM     14  C   UNL     1      29.203  55.756   2.966  1.00  0.00     0.047 A 
ATOM     15  C   UNL     1      30.230  55.320   3.809  1.00  0.00     0.115 A 
ATOM     16  C   UNL     1      30.175  57.454   4.964  1.00  0.00     0.016 A 
ATOM     17  C   UNL     1      30.713  56.172   4.811  1.00  0.00     0.047 A 
BRANCH  15  18
ATOM     18  O   UNL     1      30.759  54.042   3.646  1.00  0.00    -0.508 OA
ATOM     19  H   UNL     1      31.642  53.890   3.174  1.00  0.00     0.293 HD
ENDBRANCH  15  18
ENDBRANCH   1  12
BRANCH   2  20
ATOM     20  O   UNL     1      26.306  58.407   4.304  1.00  0.00    -0.502 OA
ATOM     21  H   UNL     1      26.109  57.778   5.073  1.00  0.00     0.293 HD
ENDBRANCH   2  20
BRANCH   6  22
ATOM     22  O   UNL     1      25.922  63.541   5.037  1.00  0.00    -0.507 OA
ATOM     23  H   UNL     1      25.637  64.484   5.273  1.00  0.00     0.293 HD
ENDBRANCH   6  22
BRANCH   8  24
ATOM     24  O   UNL     1      30.543  64.909   4.816  1.00  0.00    -0.508 OA
ATOM     25  H   UNL     1      30.646  65.571   4.055  1.00  0.00     0.293 HD
ENDBRANCH   8  24
TORSDOF 5
ENDMDL
MODEL 2
REMARK VINA RESULT:    13.836      3.194      8.809
REMARK INTER + INTRA:          16.309
REMARK INTER:                  16.246
REMARK INTRA:                   0.062
REMARK UNBOUND:                 0.046
REMARK SMILES O=c1c(O)c(-c2ccc(O)cc2)oc2cc(O)cc(O)c12
REMARK SMILES IDX 5 1 3 2 2 3 1 4 21 5 19 6 18 7 16 8 15 9 14 10 13 11 6 12
REMARK SMILES IDX 7 13 8 14 9 15 12 16 11 17 10 18 4 20 20 22 17 24
REMARK H PARENT 10 19 4 21 20 23 17 25
REMARK Flexibility Score: inf
ROOT
ATOM      1  C   UNL     1      27.582  65.712   5.100  1.00  0.00     0.180 A 
ATOM      2  C   UNL     1      28.951  65.436   4.915  1.00  0.00     0.208 A 
ATOM      3  C   UNL     1      29.354  64.105   4.721  1.00  0.00     0.238 A 
ATOM      4  O   UNL     1      30.578  63.844   4.566  1.00  0.00    -0.285 OA
ATOM      5  C   UNL     1      28.387  63.080   4.696  1.00  0.00     0.111 A 
ATOM      6  C   UNL     1      28.710  61.715   4.503  1.00  0.00     0.134 A 
ATOM      7  C   UNL     1      27.688  60.755   4.480  1.00  0.00     0.093 A 
ATOM      8  C   UNL     1      26.353  61.131   4.646  1.00  0.00     0.123 A 
ATOM      9  C   UNL     1      26.027  62.478   4.838  1.00  0.00     0.094 A 
ATOM     10  C   UNL     1      27.032  63.450   4.865  1.00  0.00     0.146 A 
ATOM     11  O   UNL     1      26.697  64.720   5.054  1.00  0.00    -0.452 OA
ENDROOT
BRANCH   1  12
ATOM     12  C   UNL     1      27.080  67.086   5.328  1.00  0.00     0.021 A 
ATOM     13  C   UNL     1      27.483  68.159   4.511  1.00  0.00     0.016 A 
ATOM     14  C   UNL     1      27.014  69.452   4.761  1.00  0.00     0.047 A 
ATOM     15  C   UNL     1      26.151  69.693   5.834  1.00  0.00     0.115 A 
ATOM     16  C   UNL     1      26.230  67.339   6.417  1.00  0.00     0.016 A 
ATOM     17  C   UNL     1      25.762  68.634   6.663  1.00  0.00     0.047 A 
BRANCH  15  18
ATOM     18  O   UNL     1      25.690  70.987   6.070  1.00  0.00    -0.508 OA
ATOM     19  H   UNL     1      24.749  71.267   5.822  1.00  0.00     0.293 HD
ENDBRANCH  15  18
ENDBRANCH   1  12
BRANCH   2  20
ATOM     20  O   UNL     1      29.885  66.475   4.896  1.00  0.00    -0.502 OA
ATOM     21  H   UNL     1      30.771  66.399   4.412  1.00  0.00     0.293 HD
ENDBRANCH   2  20
BRANCH   6  22
ATOM     22  O   UNL     1      30.033  61.308   4.333  1.00  0.00    -0.507 OA
ATOM     23  H   UNL     1      30.810  61.873   4.656  1.00  0.00     0.293 HD
ENDBRANCH   6  22
BRANCH   8  24
ATOM     24  O   UNL     1      25.357  60.157   4.619  1.00  0.00    -0.508 OA
ATOM     25  H   UNL     1      25.420  59.319   5.184  1.00  0.00     0.293 HD
ENDBRANCH   8  24
TORSDOF 5
ENDMDL
MODEL 3
REMARK VINA RESULT:    15.670      4.606      7.479
REMARK INTER + INTRA:          18.464
REMARK INTER:                  18.753
REMARK INTRA:                  -0.290
REMARK UNBOUND:                 0.046
REMARK SMILES O=c1c(O)c(-c2ccc(O)cc2)oc2cc(O)cc(O)c12
REMARK SMILES IDX 5 1 3 2 2 3 1 4 21 5 19 6 18 7 16 8 15 9 14 10 13 11 6 12
REMARK SMILES IDX 7 13 8 14 9 15 12 16 11 17 10 18 4 20 20 22 17 24
REMARK H PARENT 10 19 4 21 20 23 17 25
REMARK Flexibility Score: inf
ROOT
ATOM      1  C   UNL     1      27.035  66.398   5.283  1.00  0.00     0.180 A 
ATOM      2  C   UNL     1      26.301  66.798   6.416  1.00  0.00     0.208 A 
ATOM      3  C   UNL     1      26.135  68.169   6.667  1.00  0.00     0.238 A 
ATOM      4  O   UNL     1      25.489  68.539   7.685  1.00  0.00    -0.285 OA
ATOM      5  C   UNL     1      26.684  69.112   5.776  1.00  0.00     0.111 A 
ATOM      6  C   UNL     1      26.558  70.512   5.954  1.00  0.00     0.134 A 
ATOM      7  C   UNL     1      27.126  71.387   5.017  1.00  0.00     0.093 A 
ATOM      8  C   UNL     1      27.814  70.892   3.907  1.00  0.00     0.123 A 
ATOM      9  C   UNL     1      27.943  69.511   3.725  1.00  0.00     0.094 A 
ATOM     10  C   UNL     1      27.385  68.623   4.649  1.00  0.00     0.146 A 
ATOM     11  O   UNL     1      27.526  67.317   4.456  1.00  0.00    -0.452 OA
ENDROOT
BRANCH   1  12
ATOM     12  C   UNL     1      27.270  64.972   4.960  1.00  0.00     0.021 A 
ATOM     13  C   UNL     1      26.347  64.231   4.200  1.00  0.00     0.016 A 
ATOM     14  C   UNL     1      26.580  62.879   3.928  1.00  0.00     0.047 A 
ATOM     15  C   UNL     1      27.725  62.248   4.422  1.00  0.00     0.115 A 
ATOM     16  C   UNL     1      28.408  64.326   5.472  1.00  0.00     0.016 A 
ATOM     17  C   UNL     1      28.638  62.974   5.198  1.00  0.00     0.047 A 
BRANCH  15  18
ATOM     18  O   UNL     1      27.944  60.901   4.142  1.00  0.00    -0.508 OA
ATOM     19  H   UNL     1      27.627  60.171   4.770  1.00  0.00     0.293 HD
ENDBRANCH  15  18
ENDBRANCH   1  12
BRANCH   2  20
ATOM     20  O   UNL     1      25.725  65.843   7.258  1.00  0.00    -0.502 OA
ATOM     21  H   UNL     1      24.791  65.946   7.637  1.00  0.00     0.293 HD
ENDBRANCH   2  20
BRANCH   6  22
ATOM     22  O   UNL     1      25.876  71.036   7.052  1.00  0.00    -0.507 OA
ATOM     23  H   UNL     1      24.982  71.503   6.950  1.00  0.00     0.293 HD
ENDBRANCH   6  22
BRANCH   8  24
ATOM     24  O   UNL     1      28.368  71.783   2.989  1.00  0.00    -0.508 OA
ATOM     25  H   UNL     1      29.070  72.460   3.266  1.00  0.00     0.293 HD
ENDBRANCH   8  24
TORSDOF 5
ENDMDL
