MODEL 1
REMARK VINA RESULT:    -3.810      0.000      0.000
REMARK INTER + INTRA:          -9.129
REMARK INTER:                  -6.929
REMARK INTRA:                  -2.200
REMARK UNBOUND:                -2.200
REMARK SMILES CCCCCCCCCCCCCCCC(=O)[O-]
REMARK SMILES IDX 9 1 10 2 11 3 12 4 13 5 14 6 15 7 16 8 17 9 18 10 8 11 7 12
REMARK SMILES IDX 6 13 5 14 4 15 3 16 2 17 1 18
REMARK H PARENT
REMARK Flexibility Score: inf
ROOT
ATOM      1  C   UNL     1      22.595  34.869  12.596  1.00  0.00     0.000 C 
ENDROOT
BRANCH   1   2
ATOM      2  C   UNL     1      22.762  33.707  13.588  1.00  0.00     0.000 C 
BRANCH   2   3
ATOM      3  C   UNL     1      22.229  34.043  14.989  1.00  0.00     0.000 C 
BRANCH   3   4
ATOM      4  C   UNL     1      21.520  35.403  14.996  1.00  0.00     0.000 C 
BRANCH   4   5
ATOM      5  C   UNL     1      22.079  36.308  16.104  1.00  0.00     0.000 C 
BRANCH   5   6
ATOM      6  C   UNL     1      22.563  37.666  15.570  1.00  0.00     0.006 C 
BRANCH   6   7
ATOM      7  C   UNL     1      23.848  37.549  14.740  1.00  0.00     0.053 C 
BRANCH   7   8
ATOM      8  C   UNL     1      24.278  38.896  14.251  1.00  0.00     0.041 C 
ATOM      9  O   UNL     1      24.153  39.199  13.035  1.00  0.00    -0.550 OA
ATOM     10  O   UNL     1      24.865  39.800  15.128  1.00  0.00    -0.550 OA
ENDBRANCH   7   8
ENDBRANCH   6   7
ENDBRANCH   5   6
ENDBRANCH   4   5
ENDBRANCH   3   4
ENDBRANCH   2   3
ENDBRANCH   1   2
BRANCH   1  11
ATOM     11  C   UNL     1      23.134  34.532  11.194  1.00  0.00     0.000 C 
BRANCH  11  12
ATOM     12  C   UNL     1      23.555  33.060  11.061  1.00  0.00    -0.000 C 
BRANCH  12  13
ATOM     13  C   UNL     1      25.065  32.897  10.810  1.00  0.00    -0.000 C 
BRANCH  13  14
ATOM     14  C   UNL     1      25.710  31.887  11.783  1.00  0.00    -0.000 C 
BRANCH  14  15
ATOM     15  C   UNL     1      26.461  32.554  12.949  1.00  0.00    -0.000 C 
BRANCH  15  16
ATOM     16  C   UNL     1      26.800  34.028  12.676  1.00  0.00    -0.000 C 
BRANCH  16  17
ATOM     17  C   UNL     1      26.122  34.983  13.671  1.00  0.00    -0.003 C 
ATOM     18  C   UNL     1      26.140  34.453  15.104  1.00  0.00     0.004 C 
ENDBRANCH  16  17
ENDBRANCH  15  16
ENDBRANCH  14  15
ENDBRANCH  13  14
ENDBRANCH  12  13
ENDBRANCH  11  12
ENDBRANCH   1  11
TORSDOF 14
ENDMDL
MODEL 2
REMARK VINA RESULT:    -3.578      0.955      2.869
REMARK INTER + INTRA:          -8.707
REMARK INTER:                  -6.584
REMARK INTRA:                  -2.123
REMARK UNBOUND:                -2.200
REMARK SMILES CCCCCCCCCCCCCCCC(=O)[O-]
REMARK SMILES IDX 9 1 10 2 11 3 12 4 13 5 14 6 15 7 16 8 17 9 18 10 8 11 7 12
REMARK SMILES IDX 6 13 5 14 4 15 3 16 2 17 1 18
REMARK H PARENT
REMARK Flexibility Score: inf
ROOT
ATOM      1  C   UNL     1      24.098  32.840  15.622  1.00  0.00     0.000 C 
ENDROOT
BRANCH   1   2
ATOM      2  C   UNL     1      22.821  33.286  14.892  1.00  0.00     0.000 C 
BRANCH   2   3
ATOM      3  C   UNL     1      21.877  34.096  15.793  1.00  0.00     0.000 C 
BRANCH   3   4
ATOM      4  C   UNL     1      21.381  35.358  15.076  1.00  0.00     0.000 C 
BRANCH   4   5
ATOM      5  C   UNL     1      22.560  36.221  14.604  1.00  0.00     0.000 C 
BRANCH   5   6
ATOM      6  C   UNL     1      22.649  37.562  15.351  1.00  0.00     0.006 C 
BRANCH   6   7
ATOM      7  C   UNL     1      24.097  37.991  15.622  1.00  0.00     0.053 C 
BRANCH   7   8
ATOM      8  C   UNL     1      24.426  39.232  14.853  1.00  0.00     0.041 C 
ATOM      9  O   UNL     1      25.212  40.088  15.339  1.00  0.00    -0.550 OA
ATOM     10  O   UNL     1      23.825  39.469  13.624  1.00  0.00    -0.550 OA
ENDBRANCH   7   8
ENDBRANCH   6   7
ENDBRANCH   5   6
ENDBRANCH   4   5
ENDBRANCH   3   4
ENDBRANCH   2   3
ENDBRANCH   1   2
BRANCH   1  11
ATOM     11  C   UNL     1      25.035  34.017  15.949  1.00  0.00     0.000 C 
BRANCH  11  12
ATOM     12  C   UNL     1      26.272  34.056  15.038  1.00  0.00    -0.000 C 
BRANCH  12  13
ATOM     13  C   UNL     1      26.027  34.844  13.738  1.00  0.00    -0.000 C 
BRANCH  13  14
ATOM     14  C   UNL     1      26.654  34.150  12.511  1.00  0.00    -0.000 C 
BRANCH  14  15
ATOM     15  C   UNL     1      26.222  32.682  12.349  1.00  0.00    -0.000 C 
BRANCH  15  16
ATOM     16  C   UNL     1      24.737  32.533  11.982  1.00  0.00    -0.000 C 
BRANCH  16  17
ATOM     17  C   UNL     1      24.302  33.509  10.879  1.00  0.00    -0.003 C 
ATOM     18  C   UNL     1      23.083  34.343  11.274  1.00  0.00     0.004 C 
ENDBRANCH  16  17
ENDBRANCH  15  16
ENDBRANCH  14  15
ENDBRANCH  13  14
ENDBRANCH  12  13
ENDBRANCH  11  12
ENDBRANCH   1  11
TORSDOF 14
ENDMDL
MODEL 3
REMARK VINA RESULT:    -3.553      1.927      5.155
REMARK INTER + INTRA:          -8.662
REMARK INTER:                  -6.772
REMARK INTRA:                  -1.890
REMARK UNBOUND:                -2.200
REMARK SMILES CCCCCCCCCCCCCCCC(=O)[O-]
REMARK SMILES IDX 9 1 10 2 11 3 12 4 13 5 14 6 15 7 16 8 17 9 18 10 8 11 7 12
REMARK SMILES IDX 6 13 5 14 4 15 3 16 2 17 1 18
REMARK H PARENT
REMARK Flexibility Score: inf
ROOT
ATOM      1  C   UNL     1      23.037  34.212  10.853  1.00  0.00     0.000 C 
ENDROOT
BRANCH   1   2
ATOM      2  C   UNL     1      24.425  33.556  10.805  1.00  0.00     0.000 C 
BRANCH   2   3
ATOM      3  C   UNL     1      24.363  32.064  10.443  1.00  0.00     0.000 C 
BRANCH   3   4
ATOM      4  C   UNL     1      25.303  31.242  11.334  1.00  0.00     0.000 C 
BRANCH   4   5
ATOM      5  C   UNL     1      25.062  31.551  12.819  1.00  0.00     0.000 C 
BRANCH   5   6
ATOM      6  C   UNL     1      26.357  31.903  13.568  1.00  0.00     0.006 C 
BRANCH   6   7
ATOM      7  C   UNL     1      26.226  33.182  14.404  1.00  0.00     0.053 C 
BRANCH   7   8
ATOM      8  C   UNL     1      26.460  34.389  13.551  1.00  0.00     0.041 C 
ATOM      9  O   UNL     1      25.872  35.472  13.809  1.00  0.00    -0.550 OA
ATOM     10  O   UNL     1      27.289  34.304  12.439  1.00  0.00    -0.550 OA
ENDBRANCH   7   8
ENDBRANCH   6   7
ENDBRANCH   5   6
ENDBRANCH   4   5
ENDBRANCH   3   4
ENDBRANCH   2   3
ENDBRANCH   1   2
BRANCH   1  11
ATOM     11  C   UNL     1      22.843  35.097  12.097  1.00  0.00     0.000 C 
BRANCH  11  12
ATOM     12  C   UNL     1      22.506  34.281  13.355  1.00  0.00    -0.000 C 
BRANCH  12  13
ATOM     13  C   UNL     1      21.975  35.157  14.505  1.00  0.00    -0.000 C 
BRANCH  13  14
ATOM     14  C   UNL     1      22.896  35.115  15.742  1.00  0.00    -0.000 C 
BRANCH  14  15
ATOM     15  C   UNL     1      23.503  36.483  16.101  1.00  0.00    -0.000 C 
BRANCH  15  16
ATOM     16  C   UNL     1      22.935  37.630  15.251  1.00  0.00    -0.000 C 
BRANCH  16  17
ATOM     17  C   UNL     1      23.995  38.688  14.905  1.00  0.00    -0.003 C 
ATOM     18  C   UNL     1      24.267  38.782  13.404  1.00  0.00     0.004 C 
ENDBRANCH  16  17
ENDBRANCH  15  16
ENDBRANCH  14  15
ENDBRANCH  13  14
ENDBRANCH  12  13
ENDBRANCH  11  12
ENDBRANCH   1  11
TORSDOF 14
ENDMDL
MODEL 4
REMARK VINA RESULT:    -3.463      1.013      3.490
REMARK INTER + INTRA:          -8.498
REMARK INTER:                  -6.339
REMARK INTRA:                  -2.159
REMARK UNBOUND:                -2.200
REMARK SMILES CCCCCCCCCCCCCCCC(=O)[O-]
REMARK SMILES IDX 9 1 10 2 11 3 12 4 13 5 14 6 15 7 16 8 17 9 18 10 8 11 7 12
REMARK SMILES IDX 6 13 5 14 4 15 3 16 2 17 1 18
REMARK H PARENT
REMARK Flexibility Score: inf
ROOT
ATOM      1  C   UNL     1      26.412  33.849  12.013  1.00  0.00     0.000 C 
ENDROOT
BRANCH   1   2
ATOM      2  C   UNL     1      26.834  34.387  13.389  1.00  0.00     0.000 C 
BRANCH   2   3
ATOM      3  C   UNL     1      26.042  33.753  14.542  1.00  0.00     0.000 C 
BRANCH   3   4
ATOM      4  C   UNL     1      25.661  34.804  15.592  1.00  0.00     0.000 C 
BRANCH   4   5
ATOM      5  C   UNL     1      25.197  36.107  14.922  1.00  0.00     0.000 C 
BRANCH   5   6
ATOM      6  C   UNL     1      24.267  36.936  15.822  1.00  0.00     0.006 C 
BRANCH   6   7
ATOM      7  C   UNL     1      23.340  37.859  15.021  1.00  0.00     0.053 C 
BRANCH   7   8
ATOM      8  C   UNL     1      24.122  38.971  14.397  1.00  0.00     0.041 C 
ATOM      9  O   UNL     1      24.096  39.143  13.149  1.00  0.00    -0.550 OA
ATOM     10  O   UNL     1      24.923  39.786  15.187  1.00  0.00    -0.550 OA
ENDBRANCH   7   8
ENDBRANCH   6   7
ENDBRANCH   5   6
ENDBRANCH   4   5
ENDBRANCH   3   4
ENDBRANCH   2   3
ENDBRANCH   1   2
BRANCH   1  11
ATOM     11  C   UNL     1      25.034  33.165  12.043  1.00  0.00     0.000 C 
BRANCH  11  12
ATOM     12  C   UNL     1      24.172  33.518  10.821  1.00  0.00    -0.000 C 
BRANCH  12  13
ATOM     13  C   UNL     1      22.930  34.349  11.192  1.00  0.00    -0.000 C 
BRANCH  13  14
ATOM     14  C   UNL     1      23.103  35.085  12.537  1.00  0.00    -0.000 C 
BRANCH  14  15
ATOM     15  C   UNL     1      22.002  34.759  13.561  1.00  0.00    -0.000 C 
BRANCH  15  16
ATOM     16  C   UNL     1      22.390  33.617  14.513  1.00  0.00    -0.000 C 
BRANCH  16  17
ATOM     17  C   UNL     1      21.370  33.421  15.645  1.00  0.00    -0.003 C 
ATOM     18  C   UNL     1      20.759  34.737  16.124  1.00  0.00     0.004 C 
ENDBRANCH  16  17
ENDBRANCH  15  16
ENDBRANCH  14  15
ENDBRANCH  13  14
ENDBRANCH  12  13
ENDBRANCH  11  12
ENDBRANCH   1  11
TORSDOF 14
ENDMDL
MODEL 5
REMARK VINA RESULT:    -3.449      2.668      5.338
REMARK INTER + INTRA:          -8.472
REMARK INTER:                  -6.407
REMARK INTRA:                  -2.065
REMARK UNBOUND:                -2.200
REMARK SMILES CCCCCCCCCCCCCCCC(=O)[O-]
REMARK SMILES IDX 9 1 10 2 11 3 12 4 13 5 14 6 15 7 16 8 17 9 18 10 8 11 7 12
REMARK SMILES IDX 6 13 5 14 4 15 3 16 2 17 1 18
REMARK H PARENT
REMARK Flexibility Score: inf
ROOT
ATOM      1  C   UNL     1      22.590  35.011  12.308  1.00  0.00     0.000 C 
ENDROOT
BRANCH   1   2
ATOM      2  C   UNL     1      23.272  34.067  11.305  1.00  0.00     0.000 C 
BRANCH   2   3
ATOM      3  C   UNL     1      24.300  33.139  11.969  1.00  0.00     0.000 C 
BRANCH   3   4
ATOM      4  C   UNL     1      25.697  33.346  11.371  1.00  0.00     0.000 C 
BRANCH   4   5
ATOM      5  C   UNL     1      26.724  33.660  12.469  1.00  0.00     0.000 C 
BRANCH   5   6
ATOM      6  C   UNL     1      26.181  34.635  13.527  1.00  0.00     0.006 C 
BRANCH   6   7
ATOM      7  C   UNL     1      26.671  34.303  14.942  1.00  0.00     0.053 C 
BRANCH   7   8
ATOM      8  C   UNL     1      26.170  32.958  15.365  1.00  0.00     0.041 C 
ATOM      9  O   UNL     1      24.932  32.737  15.435  1.00  0.00    -0.550 OA
ATOM     10  O   UNL     1      27.068  31.965  15.734  1.00  0.00    -0.550 OA
ENDBRANCH   7   8
ENDBRANCH   6   7
ENDBRANCH   5   6
ENDBRANCH   4   5
ENDBRANCH   3   4
ENDBRANCH   2   3
ENDBRANCH   1   2
BRANCH   1  11
ATOM     11  C   UNL     1      22.532  34.422  13.729  1.00  0.00     0.000 C 
BRANCH  11  12
ATOM     12  C   UNL     1      21.466  35.099  14.605  1.00  0.00    -0.000 C 
BRANCH  12  13
ATOM     13  C   UNL     1      22.017  36.309  15.380  1.00  0.00    -0.000 C 
BRANCH  13  14
ATOM     14  C   UNL     1      23.464  36.079  15.864  1.00  0.00    -0.000 C 
BRANCH  14  15
ATOM     15  C   UNL     1      24.428  37.215  15.479  1.00  0.00    -0.000 C 
BRANCH  15  16
ATOM     16  C   UNL     1      24.134  37.803  14.090  1.00  0.00    -0.000 C 
BRANCH  16  17
ATOM     17  C   UNL     1      24.516  39.287  13.985  1.00  0.00    -0.003 C 
ATOM     18  C   UNL     1      24.984  39.873  15.317  1.00  0.00     0.004 C 
ENDBRANCH  16  17
ENDBRANCH  15  16
ENDBRANCH  14  15
ENDBRANCH  13  14
ENDBRANCH  12  13
ENDBRANCH  11  12
ENDBRANCH   1  11
TORSDOF 14
ENDMDL
MODEL 6
REMARK VINA RESULT:    -3.408      2.549      5.791
REMARK INTER + INTRA:          -8.398
REMARK INTER:                  -6.337
REMARK INTRA:                  -2.061
REMARK UNBOUND:                -2.200
REMARK SMILES CCCCCCCCCCCCCCCC(=O)[O-]
REMARK SMILES IDX 9 1 10 2 11 3 12 4 13 5 14 6 15 7 16 8 17 9 18 10 8 11 7 12
REMARK SMILES IDX 6 13 5 14 4 15 3 16 2 17 1 18
REMARK H PARENT
REMARK Flexibility Score: inf
ROOT
ATOM      1  C   UNL     1      24.336  33.006  15.498  1.00  0.00     0.000 C 
ENDROOT
BRANCH   1   2
ATOM      2  C   UNL     1      25.325  34.027  16.082  1.00  0.00     0.000 C 
BRANCH   2   3
ATOM      3  C   UNL     1      26.171  34.718  15.001  1.00  0.00     0.000 C 
BRANCH   3   4
ATOM      4  C   UNL     1      25.619  34.426  13.601  1.00  0.00     0.000 C 
BRANCH   4   5
ATOM      5  C   UNL     1      26.671  33.720  12.732  1.00  0.00     0.000 C 
BRANCH   5   6
ATOM      6  C   UNL     1      26.225  32.319  12.284  1.00  0.00     0.006 C 
BRANCH   6   7
ATOM      7  C   UNL     1      24.717  32.239  12.010  1.00  0.00     0.053 C 
BRANCH   7   8
ATOM      8  C   UNL     1      24.423  32.615  10.592  1.00  0.00     0.041 C 
ATOM      9  O   UNL     1      24.746  31.841   9.652  1.00  0.00    -0.550 OA
ATOM     10  O   UNL     1      23.840  33.842  10.304  1.00  0.00    -0.550 OA
ENDBRANCH   7   8
ENDBRANCH   6   7
ENDBRANCH   5   6
ENDBRANCH   4   5
ENDBRANCH   3   4
ENDBRANCH   2   3
ENDBRANCH   1   2
BRANCH   1  11
ATOM     11  C   UNL     1      22.868  33.413  15.716  1.00  0.00     0.000 C 
BRANCH  11  12
ATOM     12  C   UNL     1      22.166  33.816  14.409  1.00  0.00    -0.000 C 
BRANCH  12  13
ATOM     13  C   UNL     1      21.963  35.337  14.289  1.00  0.00    -0.000 C 
BRANCH  13  14
ATOM     14  C   UNL     1      21.725  36.001  15.662  1.00  0.00    -0.000 C 
BRANCH  14  15
ATOM     15  C   UNL     1      22.487  37.326  15.842  1.00  0.00    -0.000 C 
BRANCH  15  16
ATOM     16  C   UNL     1      23.806  37.368  15.054  1.00  0.00    -0.000 C 
BRANCH  16  17
ATOM     17  C   UNL     1      24.281  38.803  14.776  1.00  0.00    -0.003 C 
ATOM     18  C   UNL     1      24.081  39.219  13.319  1.00  0.00     0.004 C 
ENDBRANCH  16  17
ENDBRANCH  15  16
ENDBRANCH  14  15
ENDBRANCH  13  14
ENDBRANCH  12  13
ENDBRANCH  11  12
ENDBRANCH   1  11
TORSDOF 14
ENDMDL
MODEL 7
REMARK VINA RESULT:    -3.311      1.622      3.833
REMARK INTER + INTRA:          -8.222
REMARK INTER:                  -5.705
REMARK INTRA:                  -2.517
REMARK UNBOUND:                -2.200
REMARK SMILES CCCCCCCCCCCCCCCC(=O)[O-]
REMARK SMILES IDX 9 1 10 2 11 3 12 4 13 5 14 6 15 7 16 8 17 9 18 10 8 11 7 12
REMARK SMILES IDX 6 13 5 14 4 15 3 16 2 17 1 18
REMARK H PARENT
REMARK Flexibility Score: inf
ROOT
ATOM      1  C   UNL     1      26.084  33.736  11.844  1.00  0.00     0.000 C 
ENDROOT
BRANCH   1   2
ATOM      2  C   UNL     1      25.050  33.059  10.930  1.00  0.00     0.000 C 
BRANCH   2   3
ATOM      3  C   UNL     1      23.716  33.818  10.880  1.00  0.00     0.000 C 
BRANCH   3   4
ATOM      4  C   UNL     1      23.083  33.912  12.274  1.00  0.00     0.000 C 
BRANCH   4   5
ATOM      5  C   UNL     1      22.901  35.377  12.698  1.00  0.00     0.000 C 
BRANCH   5   6
ATOM      6  C   UNL     1      23.467  35.663  14.098  1.00  0.00     0.006 C 
BRANCH   6   7
ATOM      7  C   UNL     1      24.499  36.798  14.096  1.00  0.00     0.053 C 
BRANCH   7   8
ATOM      8  C   UNL     1      23.869  38.078  14.547  1.00  0.00     0.041 C 
ATOM      9  O   UNL     1      24.429  39.180  14.307  1.00  0.00    -0.550 OA
ATOM     10  O   UNL     1      22.688  38.052  15.278  1.00  0.00    -0.550 OA
ENDBRANCH   7   8
ENDBRANCH   6   7
ENDBRANCH   5   6
ENDBRANCH   4   5
ENDBRANCH   3   4
ENDBRANCH   2   3
ENDBRANCH   1   2
BRANCH   1  11
ATOM     11  C   UNL     1      26.553  32.819  12.988  1.00  0.00     0.000 C 
BRANCH  11  12
ATOM     12  C   UNL     1      26.370  33.462  14.372  1.00  0.00    -0.000 C 
BRANCH  12  13
ATOM     13  C   UNL     1      25.358  32.703  15.249  1.00  0.00    -0.000 C 
BRANCH  13  14
ATOM     14  C   UNL     1      24.685  31.542  14.487  1.00  0.00    -0.000 C 
BRANCH  14  15
ATOM     15  C   UNL     1      23.202  31.349  14.850  1.00  0.00    -0.000 C 
BRANCH  15  16
ATOM     16  C   UNL     1      22.665  32.451  15.777  1.00  0.00    -0.000 C 
BRANCH  16  17
ATOM     17  C   UNL     1      21.147  32.646  15.643  1.00  0.00    -0.003 C 
ATOM     18  C   UNL     1      20.708  34.082  15.930  1.00  0.00     0.004 C 
ENDBRANCH  16  17
ENDBRANCH  15  16
ENDBRANCH  14  15
ENDBRANCH  13  14
ENDBRANCH  12  13
ENDBRANCH  11  12
ENDBRANCH   1  11
TORSDOF 14
ENDMDL
MODEL 8
REMARK VINA RESULT:    -3.277      2.801      6.062
REMARK INTER + INTRA:          -8.159
REMARK INTER:                  -6.234
REMARK INTRA:                  -1.926
REMARK UNBOUND:                -2.200
REMARK SMILES CCCCCCCCCCCCCCCC(=O)[O-]
REMARK SMILES IDX 9 1 10 2 11 3 12 4 13 5 14 6 15 7 16 8 17 9 18 10 8 11 7 12
REMARK SMILES IDX 6 13 5 14 4 15 3 16 2 17 1 18
REMARK H PARENT
REMARK Flexibility Score: inf
ROOT
ATOM      1  C   UNL     1      25.510  35.291  13.931  1.00  0.00     0.000 C 
ENDROOT
BRANCH   1   2
ATOM      2  C   UNL     1      26.204  34.302  14.881  1.00  0.00     0.000 C 
BRANCH   2   3
ATOM      3  C   UNL     1      25.295  33.131  15.284  1.00  0.00     0.000 C 
BRANCH   3   4
ATOM      4  C   UNL     1      26.009  31.788  15.088  1.00  0.00     0.000 C 
BRANCH   4   5
ATOM      5  C   UNL     1      26.614  31.687  13.680  1.00  0.00     0.000 C 
BRANCH   5   6
ATOM      6  C   UNL     1      25.545  31.527  12.587  1.00  0.00     0.006 C 
BRANCH   6   7
ATOM      7  C   UNL     1      25.955  32.182  11.261  1.00  0.00     0.053 C 
BRANCH   7   8
ATOM      8  C   UNL     1      24.791  32.233  10.323  1.00  0.00     0.041 C 
ATOM      9  O   UNL     1      23.824  33.007  10.553  1.00  0.00    -0.550 OA
ATOM     10  O   UNL     1      24.749  31.389   9.220  1.00  0.00    -0.550 OA
ENDBRANCH   7   8
ENDBRANCH   6   7
ENDBRANCH   5   6
ENDBRANCH   4   5
ENDBRANCH   3   4
ENDBRANCH   2   3
ENDBRANCH   1   2
BRANCH   1  11
ATOM     11  C   UNL     1      24.194  34.735  13.357  1.00  0.00     0.000 C 
BRANCH  11  12
ATOM     12  C   UNL     1      23.026  35.724  13.493  1.00  0.00    -0.000 C 
BRANCH  12  13
ATOM     13  C   UNL     1      22.115  35.405  14.692  1.00  0.00    -0.000 C 
BRANCH  13  14
ATOM     14  C   UNL     1      22.337  36.380  15.867  1.00  0.00    -0.000 C 
BRANCH  14  15
ATOM     15  C   UNL     1      22.633  37.822  15.420  1.00  0.00    -0.000 C 
BRANCH  15  16
ATOM     16  C   UNL     1      23.996  38.333  15.912  1.00  0.00    -0.000 C 
BRANCH  16  17
ATOM     17  C   UNL     1      24.714  39.199  14.865  1.00  0.00    -0.003 C 
ATOM     18  C   UNL     1      23.944  39.294  13.549  1.00  0.00     0.004 C 
ENDBRANCH  16  17
ENDBRANCH  15  16
ENDBRANCH  14  15
ENDBRANCH  13  14
ENDBRANCH  12  13
ENDBRANCH  11  12
ENDBRANCH   1  11
TORSDOF 14
ENDMDL
MODEL 9
REMARK VINA RESULT:    -3.256      1.135      2.963
REMARK INTER + INTRA:          -8.121
REMARK INTER:                  -6.092
REMARK INTRA:                  -2.029
REMARK UNBOUND:                -2.200
REMARK SMILES CCCCCCCCCCCCCCCC(=O)[O-]
REMARK SMILES IDX 9 1 10 2 11 3 12 4 13 5 14 6 15 7 16 8 17 9 18 10 8 11 7 12
REMARK SMILES IDX 6 13 5 14 4 15 3 16 2 17 1 18
REMARK H PARENT
REMARK Flexibility Score: inf
ROOT
ATOM      1  C   UNL     1      25.399  35.139  13.842  1.00  0.00     0.000 C 
ENDROOT
BRANCH   1   2
ATOM      2  C   UNL     1      24.024  34.476  14.021  1.00  0.00     0.000 C 
BRANCH   2   3
ATOM      3  C   UNL     1      22.868  35.372  13.551  1.00  0.00     0.000 C 
BRANCH   3   4
ATOM      4  C   UNL     1      21.742  35.410  14.591  1.00  0.00     0.000 C 
BRANCH   4   5
ATOM      5  C   UNL     1      22.207  36.106  15.879  1.00  0.00     0.000 C 
BRANCH   5   6
ATOM      6  C   UNL     1      22.557  37.586  15.658  1.00  0.00     0.006 C 
BRANCH   6   7
ATOM      7  C   UNL     1      24.046  37.880  15.886  1.00  0.00     0.053 C 
BRANCH   7   8
ATOM      8  C   UNL     1      24.532  38.902  14.907  1.00  0.00     0.041 C 
ATOM      9  O   UNL     1      24.508  38.658  13.672  1.00  0.00    -0.550 OA
ATOM     10  O   UNL     1      25.059  40.105  15.361  1.00  0.00    -0.550 OA
ENDBRANCH   7   8
ENDBRANCH   6   7
ENDBRANCH   5   6
ENDBRANCH   4   5
ENDBRANCH   3   4
ENDBRANCH   2   3
ENDBRANCH   1   2
BRANCH   1  11
ATOM     11  C   UNL     1      26.453  34.587  14.818  1.00  0.00     0.000 C 
BRANCH  11  12
ATOM     12  C   UNL     1      25.877  33.531  15.775  1.00  0.00    -0.000 C 
BRANCH  12  13
ATOM     13  C   UNL     1      26.514  32.144  15.579  1.00  0.00    -0.000 C 
BRANCH  13  14
ATOM     14  C   UNL     1      25.714  31.271  14.589  1.00  0.00    -0.000 C 
BRANCH  14  15
ATOM     15  C   UNL     1      26.200  31.390  13.134  1.00  0.00    -0.000 C 
BRANCH  15  16
ATOM     16  C   UNL     1      25.050  31.355  12.115  1.00  0.00    -0.000 C 
BRANCH  16  17
ATOM     17  C   UNL     1      25.335  32.217  10.875  1.00  0.00    -0.003 C 
ATOM     18  C   UNL     1      24.261  33.277  10.634  1.00  0.00     0.004 C 
ENDBRANCH  16  17
ENDBRANCH  15  16
ENDBRANCH  14  15
ENDBRANCH  13  14
ENDBRANCH  12  13
ENDBRANCH  11  12
ENDBRANCH   1  11
TORSDOF 14
ENDMDL
