MODEL 1
REMARK VINA RESULT:    -6.271      0.000      0.000
REMARK INTER + INTRA:          -6.638
REMARK INTER:                  -6.638
REMARK INTRA:                   0.000
REMARK UNBOUND:                 0.000
REMARK SMILES O=c1ccc2cc(O)c(O)cc2o1
REMARK SMILES IDX 4 1 3 2 2 3 1 4 13 5 12 6 11 7 9 8 7 9 6 10 5 11 8 12 10 14
REMARK H PARENT 8 13 10 15
REMARK Flexibility Score: inf
ROOT
ATOM      1  C   UNL     1       5.404 -45.727  -9.293  1.00  0.00     0.019 A 
ATOM      2  C   UNL     1       6.170 -44.563  -9.249  1.00  0.00     0.094 A 
ATOM      3  C   UNL     1       7.019 -44.353  -8.156  1.00  0.00     0.336 A 
ATOM      4  O   UNL     1       7.719 -43.309  -8.097  1.00  0.00    -0.246 OA
ATOM      5  O   UNL     1       7.092 -45.251  -7.177  1.00  0.00    -0.423 OA
ATOM      6  C   UNL     1       6.378 -46.375  -7.182  1.00  0.00     0.142 A 
ATOM      7  C   UNL     1       6.497 -47.282  -6.125  1.00  0.00     0.098 A 
ATOM      8  C   UNL     1       5.747 -48.468  -6.125  1.00  0.00     0.161 A 
ATOM      9  C   UNL     1       4.874 -48.746  -7.187  1.00  0.00     0.158 A 
ATOM     10  C   UNL     1       4.752 -47.838  -8.250  1.00  0.00     0.062 A 
ATOM     11  C   UNL     1       5.500 -46.654  -8.251  1.00  0.00     0.022 A 
ENDROOT
BRANCH   9  12
ATOM     12  O   UNL     1       4.133 -49.925  -7.179  1.00  0.00    -0.504 OA
ATOM     13  H   UNL     1       3.166 -49.943  -6.872  1.00  0.00     0.293 HD
ENDBRANCH   9  12
BRANCH   8  14
ATOM     14  O   UNL     1       5.863 -49.375  -5.073  1.00  0.00    -0.504 OA
ATOM     15  H   UNL     1       5.321 -49.273  -4.223  1.00  0.00     0.293 HD
ENDBRANCH   8  14
TORSDOF 2
ENDMDL
MODEL 2
REMARK VINA RESULT:    -6.072      1.172      4.755
REMARK INTER + INTRA:          -6.426
REMARK INTER:                  -6.426
REMARK INTRA:                   0.000
REMARK UNBOUND:                 0.000
REMARK SMILES O=c1ccc2cc(O)c(O)cc2o1
REMARK SMILES IDX 4 1 3 2 2 3 1 4 13 5 12 6 11 7 9 8 7 9 6 10 5 11 8 12 10 14
REMARK H PARENT 8 13 10 15
REMARK Flexibility Score: inf
ROOT
ATOM      1  C   UNL     1       5.089 -46.913  -8.763  1.00  0.00     0.019 A 
ATOM      2  C   UNL     1       5.100 -47.911  -7.790  1.00  0.00     0.094 A 
ATOM      3  C   UNL     1       5.877 -47.728  -6.641  1.00  0.00     0.336 A 
ATOM      4  O   UNL     1       5.901 -48.618  -5.751  1.00  0.00    -0.246 OA
ATOM      5  O   UNL     1       6.593 -46.618  -6.481  1.00  0.00    -0.423 OA
ATOM      6  C   UNL     1       6.610 -45.641  -7.385  1.00  0.00     0.142 A 
ATOM      7  C   UNL     1       7.381 -44.496  -7.163  1.00  0.00     0.098 A 
ATOM      8  C   UNL     1       7.402 -43.464  -8.112  1.00  0.00     0.161 A 
ATOM      9  C   UNL     1       6.648 -43.577  -9.289  1.00  0.00     0.158 A 
ATOM     10  C   UNL     1       5.872 -44.724  -9.517  1.00  0.00     0.062 A 
ATOM     11  C   UNL     1       5.850 -45.756  -8.570  1.00  0.00     0.022 A 
ENDROOT
BRANCH   9  12
ATOM     12  O   UNL     1       6.675 -42.547 -10.227  1.00  0.00    -0.504 OA
ATOM     13  H   UNL     1       5.847 -42.284 -10.750  1.00  0.00     0.293 HD
ENDBRANCH   9  12
BRANCH   8  14
ATOM     14  O   UNL     1       8.170 -42.321  -7.894  1.00  0.00    -0.504 OA
ATOM     15  H   UNL     1       7.788 -41.392  -8.030  1.00  0.00     0.293 HD
ENDBRANCH   8  14
TORSDOF 2
ENDMDL
MODEL 3
REMARK VINA RESULT:    -6.069      1.084      2.234
REMARK INTER + INTRA:          -6.424
REMARK INTER:                  -6.424
REMARK INTRA:                   0.000
REMARK UNBOUND:                 0.000
REMARK SMILES O=c1ccc2cc(O)c(O)cc2o1
REMARK SMILES IDX 4 1 3 2 2 3 1 4 13 5 12 6 11 7 9 8 7 9 6 10 5 11 8 12 10 14
REMARK H PARENT 8 13 10 15
REMARK Flexibility Score: inf
ROOT
ATOM      1  C   UNL     1       7.152 -45.125  -6.996  1.00  0.00     0.019 A 
ATOM      2  C   UNL     1       7.085 -44.229  -8.061  1.00  0.00     0.094 A 
ATOM      3  C   UNL     1       6.287 -44.549  -9.166  1.00  0.00     0.336 A 
ATOM      4  O   UNL     1       6.213 -43.753 -10.138  1.00  0.00    -0.246 OA
ATOM      5  O   UNL     1       5.604 -45.690  -9.196  1.00  0.00    -0.423 OA
ATOM      6  C   UNL     1       5.640 -46.572  -8.200  1.00  0.00     0.142 A 
ATOM      7  C   UNL     1       4.901 -47.755  -8.287  1.00  0.00     0.098 A 
ATOM      8  C   UNL     1       4.936 -48.688  -7.240  1.00  0.00     0.161 A 
ATOM      9  C   UNL     1       5.714 -48.436  -6.100  1.00  0.00     0.158 A 
ATOM     10  C   UNL     1       6.458 -47.249  -6.008  1.00  0.00     0.062 A 
ATOM     11  C   UNL     1       6.424 -46.317  -7.053  1.00  0.00     0.022 A 
ENDROOT
BRANCH   9  12
ATOM     12  O   UNL     1       5.743 -49.368  -5.065  1.00  0.00    -0.504 OA
ATOM     13  H   UNL     1       5.671 -49.085  -4.094  1.00  0.00     0.293 HD
ENDBRANCH   9  12
BRANCH   8  14
ATOM     14  O   UNL     1       4.199 -49.869  -7.323  1.00  0.00    -0.504 OA
ATOM     15  H   UNL     1       3.196 -49.879  -7.179  1.00  0.00     0.293 HD
ENDBRANCH   8  14
TORSDOF 2
ENDMDL
MODEL 4
REMARK VINA RESULT:    -5.944      1.495      5.242
REMARK INTER + INTRA:          -6.291
REMARK INTER:                  -6.291
REMARK INTRA:                   0.000
REMARK UNBOUND:                 0.000
REMARK SMILES O=c1ccc2cc(O)c(O)cc2o1
REMARK SMILES IDX 4 1 3 2 2 3 1 4 13 5 12 6 11 7 9 8 7 9 6 10 5 11 8 12 10 14
REMARK H PARENT 8 13 10 15
REMARK Flexibility Score: inf
ROOT
ATOM      1  C   UNL     1       6.582 -46.557  -6.309  1.00  0.00     0.019 A 
ATOM      2  C   UNL     1       5.811 -47.697  -6.529  1.00  0.00     0.094 A 
ATOM      3  C   UNL     1       5.115 -47.822  -7.736  1.00  0.00     0.336 A 
ATOM      4  O   UNL     1       4.413 -48.844  -7.954  1.00  0.00    -0.246 OA
ATOM      5  O   UNL     1       5.189 -46.866  -8.659  1.00  0.00    -0.423 OA
ATOM      6  C   UNL     1       5.914 -45.762  -8.489  1.00  0.00     0.142 A 
ATOM      7  C   UNL     1       5.954 -44.791  -9.494  1.00  0.00     0.098 A 
ATOM      8  C   UNL     1       6.716 -43.626  -9.320  1.00  0.00     0.161 A 
ATOM      9  C   UNL     1       7.441 -43.432  -8.135  1.00  0.00     0.158 A 
ATOM     10  C   UNL     1       7.404 -44.404  -7.123  1.00  0.00     0.062 A 
ATOM     11  C   UNL     1       6.643 -45.568  -7.296  1.00  0.00     0.022 A 
ENDROOT
BRANCH   9  12
ATOM     12  O   UNL     1       8.195 -42.272  -7.970  1.00  0.00    -0.504 OA
ATOM     13  H   UNL     1       9.119 -42.178  -8.376  1.00  0.00     0.293 HD
ENDBRANCH   9  12
BRANCH   8  14
ATOM     14  O   UNL     1       6.759 -42.656 -10.320  1.00  0.00    -0.504 OA
ATOM     15  H   UNL     1       5.917 -42.336 -10.784  1.00  0.00     0.293 HD
ENDBRANCH   8  14
TORSDOF 2
ENDMDL
MODEL 5
REMARK VINA RESULT:    -5.885      2.040      4.872
REMARK INTER + INTRA:          -6.229
REMARK INTER:                  -6.229
REMARK INTRA:                   0.000
REMARK UNBOUND:                 0.000
REMARK SMILES O=c1ccc2cc(O)c(O)cc2o1
REMARK SMILES IDX 4 1 3 2 2 3 1 4 13 5 12 6 11 7 9 8 7 9 6 10 5 11 8 12 10 14
REMARK H PARENT 8 13 10 15
REMARK Flexibility Score: inf
ROOT
ATOM      1  C   UNL     1       5.681 -47.241  -6.679  1.00  0.00     0.019 A 
ATOM      2  C   UNL     1       4.832 -47.889  -7.575  1.00  0.00     0.094 A 
ATOM      3  C   UNL     1       4.648 -47.343  -8.850  1.00  0.00     0.336 A 
ATOM      4  O   UNL     1       3.885 -47.914  -9.673  1.00  0.00    -0.246 OA
ATOM      5  O   UNL     1       5.275 -46.224  -9.201  1.00  0.00    -0.423 OA
ATOM      6  C   UNL     1       6.094 -45.574  -8.377  1.00  0.00     0.142 A 
ATOM      7  C   UNL     1       6.726 -44.401  -8.801  1.00  0.00     0.098 A 
ATOM      8  C   UNL     1       7.590 -43.713  -7.937  1.00  0.00     0.161 A 
ATOM      9  C   UNL     1       7.823 -44.200  -6.642  1.00  0.00     0.158 A 
ATOM     10  C   UNL     1       7.191 -45.377  -6.212  1.00  0.00     0.062 A 
ATOM     11  C   UNL     1       6.328 -46.065  -7.074  1.00  0.00     0.022 A 
ENDROOT
BRANCH   9  12
ATOM     12  O   UNL     1       8.683 -43.510  -5.790  1.00  0.00    -0.504 OA
ATOM     13  H   UNL     1       8.352 -43.091  -4.928  1.00  0.00     0.293 HD
ENDBRANCH   9  12
BRANCH   8  14
ATOM     14  O   UNL     1       8.222 -42.544  -8.356  1.00  0.00    -0.504 OA
ATOM     15  H   UNL     1       8.570 -42.440  -9.303  1.00  0.00     0.293 HD
ENDBRANCH   8  14
TORSDOF 2
ENDMDL
MODEL 6
REMARK VINA RESULT:    -5.550      2.049      4.269
REMARK INTER + INTRA:          -5.874
REMARK INTER:                  -5.874
REMARK INTRA:                   0.000
REMARK UNBOUND:                 0.000
REMARK SMILES O=c1ccc2cc(O)c(O)cc2o1
REMARK SMILES IDX 4 1 3 2 2 3 1 4 13 5 12 6 11 7 9 8 7 9 6 10 5 11 8 12 10 14
REMARK H PARENT 8 13 10 15
REMARK Flexibility Score: inf
ROOT
ATOM      1  C   UNL     1       3.604 -46.747  -9.516  1.00  0.00     0.019 A 
ATOM      2  C   UNL     1       2.700 -47.456 -10.305  1.00  0.00     0.094 A 
ATOM      3  C   UNL     1       2.410 -48.784  -9.975  1.00  0.00     0.336 A 
ATOM      4  O   UNL     1       1.596 -49.442 -10.675  1.00  0.00    -0.246 OA
ATOM      5  O   UNL     1       2.988 -49.359  -8.923  1.00  0.00    -0.423 OA
ATOM      6  C   UNL     1       3.856 -48.717  -8.144  1.00  0.00     0.142 A 
ATOM      7  C   UNL     1       4.432 -49.373  -7.052  1.00  0.00     0.098 A 
ATOM      8  C   UNL     1       5.347 -48.701  -6.228  1.00  0.00     0.161 A 
ATOM      9  C   UNL     1       5.687 -47.367  -6.498  1.00  0.00     0.158 A 
ATOM     10  C   UNL     1       5.111 -46.705  -7.593  1.00  0.00     0.062 A 
ATOM     11  C   UNL     1       4.197 -47.375  -8.417  1.00  0.00     0.022 A 
ENDROOT
BRANCH   9  12
ATOM     12  O   UNL     1       6.597 -46.707  -5.675  1.00  0.00    -0.504 OA
ATOM     13  H   UNL     1       6.289 -46.083  -4.937  1.00  0.00     0.293 HD
ENDBRANCH   9  12
BRANCH   8  14
ATOM     14  O   UNL     1       5.923 -49.351  -5.138  1.00  0.00    -0.504 OA
ATOM     15  H   UNL     1       6.444 -50.214  -5.251  1.00  0.00     0.293 HD
ENDBRANCH   8  14
TORSDOF 2
ENDMDL
MODEL 7
REMARK VINA RESULT:    -5.308      2.481      3.963
REMARK INTER + INTRA:          -5.618
REMARK INTER:                  -5.618
REMARK INTRA:                   0.000
REMARK UNBOUND:                 0.000
REMARK SMILES O=c1ccc2cc(O)c(O)cc2o1
REMARK SMILES IDX 4 1 3 2 2 3 1 4 13 5 12 6 11 7 9 8 7 9 6 10 5 11 8 12 10 14
REMARK H PARENT 8 13 10 15
REMARK Flexibility Score: inf
ROOT
ATOM      1  C   UNL     1       2.762 -49.363  -8.800  1.00  0.00     0.019 A 
ATOM      2  C   UNL     1       2.134 -48.675  -9.837  1.00  0.00     0.094 A 
ATOM      3  C   UNL     1       2.481 -47.339 -10.070  1.00  0.00     0.336 A 
ATOM      4  O   UNL     1       1.926 -46.700 -11.001  1.00  0.00    -0.246 OA
ATOM      5  O   UNL     1       3.396 -46.739  -9.314  1.00  0.00    -0.423 OA
ATOM      6  C   UNL     1       4.020 -47.360  -8.315  1.00  0.00     0.142 A 
ATOM      7  C   UNL     1       4.973 -46.678  -7.555  1.00  0.00     0.098 A 
ATOM      8  C   UNL     1       5.633 -47.328  -6.501  1.00  0.00     0.161 A 
ATOM      9  C   UNL     1       5.336 -48.668  -6.207  1.00  0.00     0.158 A 
ATOM     10  C   UNL     1       4.380 -49.357  -6.969  1.00  0.00     0.062 A 
ATOM     11  C   UNL     1       3.720 -48.708  -8.021  1.00  0.00     0.022 A 
ENDROOT
BRANCH   9  12
ATOM     12  O   UNL     1       5.996 -49.306  -5.159  1.00  0.00    -0.504 OA
ATOM     13  H   UNL     1       6.812 -49.886  -5.321  1.00  0.00     0.293 HD
ENDBRANCH   9  12
BRANCH   8  14
ATOM     14  O   UNL     1       6.585 -46.651  -5.740  1.00  0.00    -0.504 OA
ATOM     15  H   UNL     1       6.381 -46.328  -4.802  1.00  0.00     0.293 HD
ENDBRANCH   8  14
TORSDOF 2
ENDMDL
MODEL 8
REMARK VINA RESULT:    -5.057      3.586      5.353
REMARK INTER + INTRA:          -5.353
REMARK INTER:                  -5.353
REMARK INTRA:                   0.000
REMARK UNBOUND:                 0.000
REMARK SMILES O=c1ccc2cc(O)c(O)cc2o1
REMARK SMILES IDX 4 1 3 2 2 3 1 4 13 5 12 6 11 7 9 8 7 9 6 10 5 11 8 12 10 14
REMARK H PARENT 8 13 10 15
REMARK Flexibility Score: inf
ROOT
ATOM      1  C   UNL     1       2.960 -50.125 -10.500  1.00  0.00     0.019 A 
ATOM      2  C   UNL     1       1.818 -49.825 -11.241  1.00  0.00     0.094 A 
ATOM      3  C   UNL     1       0.910 -48.887 -10.736  1.00  0.00     0.336 A 
ATOM      4  O   UNL     1      -0.127 -48.603 -11.390  1.00  0.00    -0.246 OA
ATOM      5  O   UNL     1       1.136 -48.292  -9.568  1.00  0.00    -0.423 OA
ATOM      6  C   UNL     1       2.213 -48.550  -8.829  1.00  0.00     0.142 A 
ATOM      7  C   UNL     1       2.397 -47.893  -7.609  1.00  0.00     0.098 A 
ATOM      8  C   UNL     1       3.531 -48.161  -6.828  1.00  0.00     0.161 A 
ATOM      9  C   UNL     1       4.485 -49.090  -7.269  1.00  0.00     0.158 A 
ATOM     10  C   UNL     1       4.304 -49.751  -8.494  1.00  0.00     0.062 A 
ATOM     11  C   UNL     1       3.172 -49.485  -9.275  1.00  0.00     0.022 A 
ENDROOT
BRANCH   9  12
ATOM     12  O   UNL     1       5.607 -49.350  -6.487  1.00  0.00    -0.504 OA
ATOM     13  H   UNL     1       5.530 -49.537  -5.493  1.00  0.00     0.293 HD
ENDBRANCH   9  12
BRANCH   8  14
ATOM     14  O   UNL     1       3.718 -47.508  -5.610  1.00  0.00    -0.504 OA
ATOM     15  H   UNL     1       4.004 -48.011  -4.778  1.00  0.00     0.293 HD
ENDBRANCH   8  14
TORSDOF 2
ENDMDL
MODEL 9
REMARK VINA RESULT:    -4.963      6.014      7.908
REMARK INTER + INTRA:          -5.254
REMARK INTER:                  -5.254
REMARK INTRA:                   0.000
REMARK UNBOUND:                 0.000
REMARK SMILES O=c1ccc2cc(O)c(O)cc2o1
REMARK SMILES IDX 4 1 3 2 2 3 1 4 13 5 12 6 11 7 9 8 7 9 6 10 5 11 8 12 10 14
REMARK H PARENT 8 13 10 15
REMARK Flexibility Score: inf
ROOT
ATOM      1  C   UNL     1      12.311 -44.907 -11.016  1.00  0.00     0.019 A 
ATOM      2  C   UNL     1      12.947 -45.310 -12.189  1.00  0.00     0.094 A 
ATOM      3  C   UNL     1      12.375 -44.968 -13.420  1.00  0.00     0.336 A 
ATOM      4  O   UNL     1      12.933 -45.323 -14.491  1.00  0.00    -0.246 OA
ATOM      5  O   UNL     1      11.244 -44.269 -13.467  1.00  0.00    -0.423 OA
ATOM      6  C   UNL     1      10.606 -43.865 -12.371  1.00  0.00     0.142 A 
ATOM      7  C   UNL     1       9.421 -43.133 -12.483  1.00  0.00     0.098 A 
ATOM      8  C   UNL     1       8.745 -42.704 -11.330  1.00  0.00     0.161 A 
ATOM      9  C   UNL     1       9.258 -43.010 -10.061  1.00  0.00     0.158 A 
ATOM     10  C   UNL     1      10.448 -43.745  -9.944  1.00  0.00     0.062 A 
ATOM     11  C   UNL     1      11.124 -44.174 -11.094  1.00  0.00     0.022 A 
ENDROOT
BRANCH   9  12
ATOM     12  O   UNL     1       8.580 -42.581  -8.922  1.00  0.00    -0.504 OA
ATOM     13  H   UNL     1       9.077 -42.275  -8.093  1.00  0.00     0.293 HD
ENDBRANCH   9  12
BRANCH   8  14
ATOM     14  O   UNL     1       7.563 -41.974 -11.438  1.00  0.00    -0.504 OA
ATOM     15  H   UNL     1       7.568 -40.961 -11.486  1.00  0.00     0.293 HD
ENDBRANCH   8  14
TORSDOF 2
ENDMDL
