MODEL 1
REMARK VINA RESULT:    67.204      0.000      0.000
REMARK INTER + INTRA:          87.702
REMARK INTER:                  88.812
REMARK INTRA:                  -1.110
REMARK UNBOUND:                -1.110
REMARK SMILES CC[C@H](C=C[C@@H](C)[C@@H]1CC[C@@H]2[C@@H]3CC=C4C[C@@H](O)CC[C@@]4(C)[C@H]3CC[C@]21C)C(C)C
REMARK SMILES IDX 6 1 7 2 5 3 4 4 3 5 2 6 1 7 28 8 29 9 30 10 8 11 9 12 26 13
REMARK SMILES IDX 10 14 11 15 25 16 27 17 12 18 24 19 23 20 13 21 21 22 14 23
REMARK SMILES IDX 15 24 20 25 22 26 16 27 19 28 17 29 18 30
REMARK H PARENT 18 31
REMARK Flexibility Score: inf
ROOT
ATOM      1  C   UNL     1     -14.652  -2.468  12.788  1.00  0.00     0.012 C 
ATOM      2  C   UNL     1     -15.376  -2.444  11.431  1.00  0.00     0.012 C 
ENDROOT
BRANCH   1   3
ATOM      3  C   UNL     1     -15.683  -2.495  13.896  1.00  0.00    -0.028 C 
ATOM      4  C   UNL     1     -15.639  -3.431  14.857  1.00  0.00    -0.027 C 
BRANCH   4   5
ATOM      5  C   UNL     1     -16.552  -3.369  16.065  1.00  0.00     0.014 C 
BRANCH   5   6
ATOM      6  C   UNL     1     -15.834  -2.827  17.332  1.00  0.00     0.004 C 
ATOM      7  C   UNL     1     -15.053  -3.873  18.140  1.00  0.00     0.004 C 
ENDBRANCH   5   6
BRANCH   5   8
ATOM      8  C   UNL     1     -17.912  -2.665  15.766  1.00  0.00    -0.011 C 
ATOM      9  C   UNL     1     -17.857  -1.167  16.114  1.00  0.00     0.008 C 
ATOM     10  C   UNL     1     -19.125  -3.322  16.442  1.00  0.00     0.008 C 
ENDBRANCH   5   8
ENDBRANCH   4   5
ENDBRANCH   1   3
BRANCH   1  11
ATOM     11  C   UNL     1     -13.636  -1.297  13.038  1.00  0.00     0.002 C 
ATOM     12  C   UNL     1     -13.144  -0.500  11.801  1.00  0.00     0.005 C 
ATOM     13  C   UNL     1     -12.338  -1.644  13.821  1.00  0.00    -0.026 C 
ATOM     14  C   UNL     1     -11.757   0.065  12.173  1.00  0.00     0.005 C 
ATOM     15  C   UNL     1     -11.577  -0.320  13.637  1.00  0.00    -0.001 C 
ATOM     16  C   UNL     1     -12.562  -1.905  15.350  1.00  0.00     0.007 C 
ATOM     17  C   UNL     1     -11.620  -2.856  13.151  1.00  0.00     0.012 C 
ATOM     18  C   UNL     1     -10.188  -0.228  14.325  1.00  0.00     0.000 C 
ATOM     19  C   UNL     1     -11.498  -1.239  16.275  1.00  0.00     0.005 C 
ATOM     20  C   UNL     1     -10.109  -1.126  15.590  1.00  0.00     0.003 C 
ATOM     21  C   UNL     1      -8.958  -0.515  13.463  1.00  0.00     0.031 C 
ATOM     22  C   UNL     1      -8.901  -0.701  16.502  1.00  0.00    -0.008 C 
ATOM     23  C   UNL     1      -7.713  -0.254  14.278  1.00  0.00    -0.027 C 
ATOM     24  C   UNL     1      -7.679  -0.312  15.638  1.00  0.00    -0.065 C 
ATOM     25  C   UNL     1      -9.267   0.517  17.404  1.00  0.00     0.014 C 
ATOM     26  C   UNL     1      -8.509  -1.910  17.395  1.00  0.00     0.016 C 
ATOM     27  C   UNL     1      -6.464   0.232  16.356  1.00  0.00     0.063 C 
ATOM     28  C   UNL     1      -8.058   1.123  18.150  1.00  0.00     0.033 C 
ATOM     29  C   UNL     1      -6.861   1.439  17.226  1.00  0.00     0.118 C 
BRANCH  29  30
ATOM     30  O   UNL     1      -7.112   2.580  16.440  1.00  0.00    -0.393 OA
ATOM     31  H   UNL     1      -8.088   2.744  16.439  1.00  0.00     0.210 HD
ENDBRANCH  29  30
ENDBRANCH   1  11
TORSDOF 6
ENDMDL
