MODEL 1
REMARK VINA RESULT:    -2.925      0.000      0.000
REMARK INTER + INTRA:          -5.698
REMARK INTER:                  -4.634
REMARK INTRA:                  -1.064
REMARK UNBOUND:                -1.064
REMARK SMILES CCCCCCCCCCCC(=O)[O-]
REMARK SMILES IDX 7 1 8 2 9 3 10 4 11 5 12 6 13 7 14 8 6 9 5 10 4 11 3 12 2 13
REMARK SMILES IDX 1 14
REMARK H PARENT
REMARK Flexibility Score: inf
ROOT
ATOM      1  C   UNL     1      23.270  28.264  48.705  1.00  0.00     0.000 C 
ENDROOT
BRANCH   1   2
ATOM      2  C   UNL     1      23.732  29.632  48.167  1.00  0.00     0.000 C 
BRANCH   2   3
ATOM      3  C   UNL     1      22.676  30.410  47.363  1.00  0.00     0.000 C 
BRANCH   3   4
ATOM      4  C   UNL     1      23.188  31.771  46.858  1.00  0.00     0.006 C 
BRANCH   4   5
ATOM      5  C   UNL     1      24.647  31.703  46.388  1.00  0.00     0.053 C 
BRANCH   5   6
ATOM      6  C   UNL     1      24.765  31.936  44.913  1.00  0.00     0.041 C 
ATOM      7  O   UNL     1      23.738  32.173  44.224  1.00  0.00    -0.550 OA
ATOM      8  O   UNL     1      26.015  31.926  44.306  1.00  0.00    -0.550 OA
ENDBRANCH   5   6
ENDBRANCH   4   5
ENDBRANCH   3   4
ENDBRANCH   2   3
ENDBRANCH   1   2
BRANCH   1   9
ATOM      9  C   UNL     1      22.006  28.357  49.575  1.00  0.00     0.000 C 
BRANCH   9  10
ATOM     10  C   UNL     1      22.197  29.246  50.817  1.00  0.00    -0.000 C 
BRANCH  10  11
ATOM     11  C   UNL     1      21.048  30.233  51.102  1.00  0.00    -0.000 C 
BRANCH  11  12
ATOM     12  C   UNL     1      21.322  31.695  50.697  1.00  0.00    -0.000 C 
BRANCH  12  13
ATOM     13  C   UNL     1      20.315  32.286  49.695  1.00  0.00    -0.003 C 
ATOM     14  C   UNL     1      20.694  33.692  49.228  1.00  0.00     0.004 C 
ENDBRANCH  12  13
ENDBRANCH  11  12
ENDBRANCH  10  11
ENDBRANCH   9  10
ENDBRANCH   1   9
TORSDOF 10
ENDMDL
MODEL 2
REMARK VINA RESULT:    -2.818      2.352      3.866
REMARK INTER + INTRA:          -5.529
REMARK INTER:                  -4.247
REMARK INTRA:                  -1.283
REMARK UNBOUND:                -1.064
REMARK SMILES CCCCCCCCCCCC(=O)[O-]
REMARK SMILES IDX 7 1 8 2 9 3 10 4 11 5 12 6 13 7 14 8 6 9 5 10 4 11 3 12 2 13
REMARK SMILES IDX 1 14
REMARK H PARENT
REMARK Flexibility Score: inf
ROOT
ATOM      1  C   UNL     1      20.793  31.921  47.241  1.00  0.00     0.000 C 
ENDROOT
BRANCH   1   2
ATOM      2  C   UNL     1      21.888  31.616  46.202  1.00  0.00     0.000 C 
BRANCH   2   3
ATOM      3  C   UNL     1      23.331  31.850  46.683  1.00  0.00     0.000 C 
BRANCH   3   4
ATOM      4  C   UNL     1      24.188  30.572  46.656  1.00  0.00     0.006 C 
BRANCH   4   5
ATOM      5  C   UNL     1      23.845  29.621  47.810  1.00  0.00     0.053 C 
BRANCH   5   6
ATOM      6  C   UNL     1      23.539  28.240  47.317  1.00  0.00     0.041 C 
ATOM      7  O   UNL     1      23.740  27.242  48.058  1.00  0.00    -0.550 OA
ATOM      8  O   UNL     1      22.998  28.059  46.050  1.00  0.00    -0.550 OA
ENDBRANCH   5   6
ENDBRANCH   4   5
ENDBRANCH   3   4
ENDBRANCH   2   3
ENDBRANCH   1   2
BRANCH   1   9
ATOM      9  C   UNL     1      21.344  32.570  48.521  1.00  0.00     0.000 C 
BRANCH   9  10
ATOM     10  C   UNL     1      20.322  32.586  49.672  1.00  0.00    -0.000 C 
BRANCH  10  11
ATOM     11  C   UNL     1      20.692  31.720  50.893  1.00  0.00    -0.000 C 
BRANCH  11  12
ATOM     12  C   UNL     1      21.876  30.757  50.680  1.00  0.00    -0.000 C 
BRANCH  12  13
ATOM     13  C   UNL     1      21.552  29.272  50.924  1.00  0.00    -0.003 C 
ATOM     14  C   UNL     1      20.777  28.635  49.772  1.00  0.00     0.004 C 
ENDBRANCH  12  13
ENDBRANCH  11  12
ENDBRANCH  10  11
ENDBRANCH   9  10
ENDBRANCH   1   9
TORSDOF 10
ENDMDL
MODEL 3
REMARK VINA RESULT:    -2.814      1.160      1.630
REMARK INTER + INTRA:          -5.524
REMARK INTER:                  -4.213
REMARK INTRA:                  -1.311
REMARK UNBOUND:                -1.064
REMARK SMILES CCCCCCCCCCCC(=O)[O-]
REMARK SMILES IDX 7 1 8 2 9 3 10 4 11 5 12 6 13 7 14 8 6 9 5 10 4 11 3 12 2 13
REMARK SMILES IDX 1 14
REMARK H PARENT
REMARK Flexibility Score: inf
ROOT
ATOM      1  C   UNL     1      21.751  28.747  47.054  1.00  0.00     0.000 C 
ENDROOT
BRANCH   1   2
ATOM      2  C   UNL     1      23.219  28.550  47.479  1.00  0.00     0.000 C 
BRANCH   2   3
ATOM      3  C   UNL     1      24.006  29.846  47.739  1.00  0.00     0.000 C 
BRANCH   3   4
ATOM      4  C   UNL     1      23.603  30.993  46.796  1.00  0.00     0.006 C 
BRANCH   4   5
ATOM      5  C   UNL     1      24.821  31.758  46.262  1.00  0.00     0.053 C 
BRANCH   5   6
ATOM      6  C   UNL     1      25.216  31.284  44.897  1.00  0.00     0.041 C 
ATOM      7  O   UNL     1      24.630  30.302  44.371  1.00  0.00    -0.550 OA
ATOM      8  O   UNL     1      26.210  31.951  44.191  1.00  0.00    -0.550 OA
ENDBRANCH   5   6
ENDBRANCH   4   5
ENDBRANCH   3   4
ENDBRANCH   2   3
ENDBRANCH   1   2
BRANCH   1   9
ATOM      9  C   UNL     1      20.749  28.283  48.123  1.00  0.00     0.000 C 
BRANCH   9  10
ATOM     10  C   UNL     1      21.431  27.813  49.420  1.00  0.00    -0.000 C 
BRANCH  10  11
ATOM     11  C   UNL     1      21.136  28.671  50.667  1.00  0.00    -0.000 C 
BRANCH  11  12
ATOM     12  C   UNL     1      22.056  29.893  50.855  1.00  0.00    -0.000 C 
BRANCH  12  13
ATOM     13  C   UNL     1      21.333  31.252  50.843  1.00  0.00    -0.003 C 
ATOM     14  C   UNL     1      21.101  31.790  49.431  1.00  0.00     0.004 C 
ENDBRANCH  12  13
ENDBRANCH  11  12
ENDBRANCH  10  11
ENDBRANCH   9  10
ENDBRANCH   1   9
TORSDOF 10
ENDMDL
MODEL 4
REMARK VINA RESULT:    -2.806      1.110      2.970
REMARK INTER + INTRA:          -5.510
REMARK INTER:                  -4.431
REMARK INTRA:                  -1.080
REMARK UNBOUND:                -1.064
REMARK SMILES CCCCCCCCCCCC(=O)[O-]
REMARK SMILES IDX 7 1 8 2 9 3 10 4 11 5 12 6 13 7 14 8 6 9 5 10 4 11 3 12 2 13
REMARK SMILES IDX 1 14
REMARK H PARENT
REMARK Flexibility Score: inf
ROOT
ATOM      1  C   UNL     1      20.839  31.197  48.649  1.00  0.00     0.000 C 
ENDROOT
BRANCH   1   2
ATOM      2  C   UNL     1      21.843  31.462  47.511  1.00  0.00     0.000 C 
BRANCH   2   3
ATOM      3  C   UNL     1      22.572  30.216  46.977  1.00  0.00     0.000 C 
BRANCH   3   4
ATOM      4  C   UNL     1      24.101  30.384  46.940  1.00  0.00     0.006 C 
BRANCH   4   5
ATOM      5  C   UNL     1      24.525  31.674  46.225  1.00  0.00     0.053 C 
BRANCH   5   6
ATOM      6  C   UNL     1      24.422  31.540  44.737  1.00  0.00     0.041 C 
ATOM      7  O   UNL     1      23.764  32.379  44.068  1.00  0.00    -0.550 OA
ATOM      8  O   UNL     1      25.085  30.507  44.085  1.00  0.00    -0.550 OA
ENDBRANCH   5   6
ENDBRANCH   4   5
ENDBRANCH   3   4
ENDBRANCH   2   3
ENDBRANCH   1   2
BRANCH   1   9
ATOM      9  C   UNL     1      21.040  32.127  49.857  1.00  0.00     0.000 C 
BRANCH   9  10
ATOM     10  C   UNL     1      21.480  31.374  51.125  1.00  0.00    -0.000 C 
BRANCH  10  11
ATOM     11  C   UNL     1      21.334  29.840  51.063  1.00  0.00    -0.000 C 
BRANCH  11  12
ATOM     12  C   UNL     1      22.624  29.071  50.717  1.00  0.00    -0.000 C 
BRANCH  12  13
ATOM     13  C   UNL     1      22.408  27.604  50.301  1.00  0.00    -0.003 C 
ATOM     14  C   UNL     1      21.403  27.451  49.160  1.00  0.00     0.004 C 
ENDBRANCH  12  13
ENDBRANCH  11  12
ENDBRANCH  10  11
ENDBRANCH   9  10
ENDBRANCH   1   9
TORSDOF 10
ENDMDL
MODEL 5
REMARK VINA RESULT:    -2.804      1.552      3.770
REMARK INTER + INTRA:          -5.507
REMARK INTER:                  -4.384
REMARK INTRA:                  -1.123
REMARK UNBOUND:                -1.064
REMARK SMILES CCCCCCCCCCCC(=O)[O-]
REMARK SMILES IDX 7 1 8 2 9 3 10 4 11 5 12 6 13 7 14 8 6 9 5 10 4 11 3 12 2 13
REMARK SMILES IDX 1 14
REMARK H PARENT
REMARK Flexibility Score: inf
ROOT
ATOM      1  C   UNL     1      20.762  30.938  49.625  1.00  0.00     0.000 C 
ENDROOT
BRANCH   1   2
ATOM      2  C   UNL     1      21.053  32.241  48.858  1.00  0.00     0.000 C 
BRANCH   2   3
ATOM      3  C   UNL     1      22.080  32.116  47.718  1.00  0.00     0.000 C 
BRANCH   3   4
ATOM      4  C   UNL     1      22.298  30.662  47.263  1.00  0.00     0.006 C 
BRANCH   4   5
ATOM      5  C   UNL     1      23.780  30.269  47.271  1.00  0.00     0.053 C 
BRANCH   5   6
ATOM      6  C   UNL     1      24.478  30.716  46.023  1.00  0.00     0.041 C 
ATOM      7  O   UNL     1      24.365  30.052  44.960  1.00  0.00    -0.550 OA
ATOM      8  O   UNL     1      25.225  31.889  46.027  1.00  0.00    -0.550 OA
ENDBRANCH   5   6
ENDBRANCH   4   5
ENDBRANCH   3   4
ENDBRANCH   2   3
ENDBRANCH   1   2
BRANCH   1   9
ATOM      9  C   UNL     1      21.705  30.721  50.821  1.00  0.00     0.000 C 
BRANCH   9  10
ATOM     10  C   UNL     1      22.400  29.348  50.796  1.00  0.00    -0.000 C 
BRANCH  10  11
ATOM     11  C   UNL     1      21.522  28.176  50.312  1.00  0.00    -0.000 C 
BRANCH  11  12
ATOM     12  C   UNL     1      22.229  27.163  49.391  1.00  0.00    -0.000 C 
BRANCH  12  13
ATOM     13  C   UNL     1      23.709  26.909  49.726  1.00  0.00    -0.003 C 
ATOM     14  C   UNL     1      23.899  25.924  50.879  1.00  0.00     0.004 C 
ENDBRANCH  12  13
ENDBRANCH  11  12
ENDBRANCH  10  11
ENDBRANCH   9  10
ENDBRANCH   1   9
TORSDOF 10
ENDMDL
MODEL 6
REMARK VINA RESULT:    -2.787      1.753      2.216
REMARK INTER + INTRA:          -5.480
REMARK INTER:                  -3.930
REMARK INTRA:                  -1.549
REMARK UNBOUND:                -1.064
REMARK SMILES CCCCCCCCCCCC(=O)[O-]
REMARK SMILES IDX 7 1 8 2 9 3 10 4 11 5 12 6 13 7 14 8 6 9 5 10 4 11 3 12 2 13
REMARK SMILES IDX 1 14
REMARK H PARENT
REMARK Flexibility Score: inf
ROOT
ATOM      1  C   UNL     1      22.595  27.106  49.020  1.00  0.00     0.000 C 
ENDROOT
BRANCH   1   2
ATOM      2  C   UNL     1      23.670  27.503  47.991  1.00  0.00     0.000 C 
BRANCH   2   3
ATOM      3  C   UNL     1      23.157  27.707  46.554  1.00  0.00     0.000 C 
BRANCH   3   4
ATOM      4  C   UNL     1      23.397  29.133  46.028  1.00  0.00     0.006 C 
BRANCH   4   5
ATOM      5  C   UNL     1      23.982  30.057  47.104  1.00  0.00     0.053 C 
BRANCH   5   6
ATOM      6  C   UNL     1      24.092  31.470  46.620  1.00  0.00     0.041 C 
ATOM      7  O   UNL     1      23.139  32.276  46.790  1.00  0.00    -0.550 OA
ATOM      8  O   UNL     1      25.263  31.907  46.011  1.00  0.00    -0.550 OA
ENDBRANCH   5   6
ENDBRANCH   4   5
ENDBRANCH   3   4
ENDBRANCH   2   3
ENDBRANCH   1   2
BRANCH   1   9
ATOM      9  C   UNL     1      22.796  27.780  50.388  1.00  0.00     0.000 C 
BRANCH   9  10
ATOM     10  C   UNL     1      21.720  28.835  50.700  1.00  0.00    -0.000 C 
BRANCH  10  11
ATOM     11  C   UNL     1      22.082  30.280  50.303  1.00  0.00    -0.000 C 
BRANCH  11  12
ATOM     12  C   UNL     1      21.081  30.971  49.356  1.00  0.00    -0.000 C 
BRANCH  12  13
ATOM     13  C   UNL     1      20.202  30.011  48.535  1.00  0.00    -0.003 C 
ATOM     14  C   UNL     1      20.154  30.371  47.050  1.00  0.00     0.004 C 
ENDBRANCH  12  13
ENDBRANCH  11  12
ENDBRANCH  10  11
ENDBRANCH   9  10
ENDBRANCH   1   9
TORSDOF 10
ENDMDL
MODEL 7
REMARK VINA RESULT:    -2.782      2.962      5.984
REMARK INTER + INTRA:          -5.472
REMARK INTER:                  -4.493
REMARK INTRA:                  -0.979
REMARK UNBOUND:                -1.064
REMARK SMILES CCCCCCCCCCCC(=O)[O-]
REMARK SMILES IDX 7 1 8 2 9 3 10 4 11 5 12 6 13 7 14 8 6 9 5 10 4 11 3 12 2 13
REMARK SMILES IDX 1 14
REMARK H PARENT
REMARK Flexibility Score: inf
ROOT
ATOM      1  C   UNL     1      21.897  31.689  46.204  1.00  0.00     0.000 C 
ENDROOT
BRANCH   1   2
ATOM      2  C   UNL     1      20.785  32.197  47.141  1.00  0.00     0.000 C 
BRANCH   2   3
ATOM      3  C   UNL     1      21.270  32.762  48.487  1.00  0.00     0.000 C 
BRANCH   3   4
ATOM      4  C   UNL     1      20.482  32.212  49.689  1.00  0.00     0.006 C 
BRANCH   4   5
ATOM      5  C   UNL     1      21.383  31.466  50.680  1.00  0.00     0.053 C 
BRANCH   5   6
ATOM      6  C   UNL     1      21.648  30.060  50.237  1.00  0.00     0.041 C 
ATOM      7  O   UNL     1      22.768  29.527  50.450  1.00  0.00    -0.550 OA
ATOM      8  O   UNL     1      20.642  29.325  49.620  1.00  0.00    -0.550 OA
ENDBRANCH   5   6
ENDBRANCH   4   5
ENDBRANCH   3   4
ENDBRANCH   2   3
ENDBRANCH   1   2
BRANCH   1   9
ATOM      9  C   UNL     1      22.535  30.375  46.686  1.00  0.00     0.000 C 
BRANCH   9  10
ATOM     10  C   UNL     1      24.072  30.442  46.745  1.00  0.00    -0.000 C 
BRANCH  10  11
ATOM     11  C   UNL     1      24.685  31.812  46.393  1.00  0.00    -0.000 C 
BRANCH  11  12
ATOM     12  C   UNL     1      25.589  31.826  45.145  1.00  0.00    -0.000 C 
BRANCH  12  13
ATOM     13  C   UNL     1      25.259  30.748  44.098  1.00  0.00    -0.003 C 
ATOM     14  C   UNL     1      26.424  30.462  43.150  1.00  0.00     0.004 C 
ENDBRANCH  12  13
ENDBRANCH  11  12
ENDBRANCH  10  11
ENDBRANCH   9  10
ENDBRANCH   1   9
TORSDOF 10
ENDMDL
MODEL 8
REMARK VINA RESULT:    -2.753     15.298     17.440
REMARK INTER + INTRA:          -5.426
REMARK INTER:                  -3.931
REMARK INTRA:                  -1.495
REMARK UNBOUND:                -1.064
REMARK SMILES CCCCCCCCCCCC(=O)[O-]
REMARK SMILES IDX 7 1 8 2 9 3 10 4 11 5 12 6 13 7 14 8 6 9 5 10 4 11 3 12 2 13
REMARK SMILES IDX 1 14
REMARK H PARENT
REMARK Flexibility Score: inf
ROOT
ATOM      1  C   UNL     1      18.774  29.438  31.094  1.00  0.00     0.000 C 
ENDROOT
BRANCH   1   2
ATOM      2  C   UNL     1      18.173  28.048  31.374  1.00  0.00     0.000 C 
BRANCH   2   3
ATOM      3  C   UNL     1      16.651  27.940  31.175  1.00  0.00     0.000 C 
BRANCH   3   4
ATOM      4  C   UNL     1      16.103  26.536  31.485  1.00  0.00     0.006 C 
BRANCH   4   5
ATOM      5  C   UNL     1      14.671  26.582  32.035  1.00  0.00     0.053 C 
BRANCH   5   6
ATOM      6  C   UNL     1      14.436  25.511  33.056  1.00  0.00     0.041 C 
ATOM      7  O   UNL     1      14.910  25.626  34.217  1.00  0.00    -0.550 OA
ATOM      8  O   UNL     1      13.663  24.403  32.735  1.00  0.00    -0.550 OA
ENDBRANCH   5   6
ENDBRANCH   4   5
ENDBRANCH   3   4
ENDBRANCH   2   3
ENDBRANCH   1   2
BRANCH   1   9
ATOM      9  C   UNL     1      17.814  30.588  31.442  1.00  0.00     0.000 C 
BRANCH   9  10
ATOM     10  C   UNL     1      18.241  31.364  32.701  1.00  0.00    -0.000 C 
BRANCH  10  11
ATOM     11  C   UNL     1      17.716  30.793  34.034  1.00  0.00    -0.000 C 
BRANCH  11  12
ATOM     12  C   UNL     1      16.241  30.345  34.022  1.00  0.00    -0.000 C 
BRANCH  12  13
ATOM     13  C   UNL     1      15.978  28.972  34.664  1.00  0.00    -0.003 C 
ATOM     14  C   UNL     1      17.263  28.208  34.982  1.00  0.00     0.004 C 
ENDBRANCH  12  13
ENDBRANCH  11  12
ENDBRANCH  10  11
ENDBRANCH   9  10
ENDBRANCH   1   9
TORSDOF 10
ENDMDL
MODEL 9
REMARK VINA RESULT:    -2.752      2.423      4.616
REMARK INTER + INTRA:          -5.425
REMARK INTER:                  -3.837
REMARK INTRA:                  -1.588
REMARK UNBOUND:                -1.064
REMARK SMILES CCCCCCCCCCCC(=O)[O-]
REMARK SMILES IDX 7 1 8 2 9 3 10 4 11 5 12 6 13 7 14 8 6 9 5 10 4 11 3 12 2 13
REMARK SMILES IDX 1 14
REMARK H PARENT
REMARK Flexibility Score: inf
ROOT
ATOM      1  C   UNL     1      21.259  27.315  49.757  1.00  0.00     0.000 C 
ENDROOT
BRANCH   1   2
ATOM      2  C   UNL     1      20.738  28.564  50.494  1.00  0.00     0.000 C 
BRANCH   2   3
ATOM      3  C   UNL     1      21.824  29.453  51.125  1.00  0.00     0.000 C 
BRANCH   3   4
ATOM      4  C   UNL     1      21.841  30.880  50.550  1.00  0.00     0.006 C 
BRANCH   4   5
ATOM      5  C   UNL     1      20.597  31.178  49.703  1.00  0.00     0.053 C 
BRANCH   5   6
ATOM      6  C   UNL     1      20.640  32.559  49.124  1.00  0.00     0.041 C 
ATOM      7  O   UNL     1      19.861  33.451  49.550  1.00  0.00    -0.550 OA
ATOM      8  O   UNL     1      21.567  32.869  48.136  1.00  0.00    -0.550 OA
ENDBRANCH   5   6
ENDBRANCH   4   5
ENDBRANCH   3   4
ENDBRANCH   2   3
ENDBRANCH   1   2
BRANCH   1   9
ATOM      9  C   UNL     1      22.557  26.757  50.364  1.00  0.00     0.000 C 
BRANCH   9  10
ATOM     10  C   UNL     1      23.770  26.911  49.429  1.00  0.00    -0.000 C 
BRANCH  10  11
ATOM     11  C   UNL     1      23.502  27.693  48.128  1.00  0.00    -0.000 C 
BRANCH  11  12
ATOM     12  C   UNL     1      24.096  29.115  48.082  1.00  0.00    -0.000 C 
BRANCH  12  13
ATOM     13  C   UNL     1      23.370  30.086  47.134  1.00  0.00    -0.003 C 
ATOM     14  C   UNL     1      21.991  29.585  46.709  1.00  0.00     0.004 C 
ENDBRANCH  12  13
ENDBRANCH  11  12
ENDBRANCH  10  11
ENDBRANCH   9  10
ENDBRANCH   1   9
TORSDOF 10
ENDMDL
