MODEL 1
REMARK VINA RESULT:    -5.888      0.000      0.000
REMARK INTER + INTRA:          -9.881
REMARK INTER:                  -8.126
REMARK INTRA:                  -1.756
REMARK UNBOUND:                -1.756
REMARK SMILES CC[C@H](CC[C@@H](C)[C@@H]1CC[C@H]2[C@H]3CC=C4C[C@H](O)CC[C@]4(C)[C@H]3CC[C@]21C)C(C)C
REMARK SMILES IDX 5 1 4 2 3 3 2 4 1 5 28 6 29 7 30 8 6 9 7 10 8 11 9 12 26 13
REMARK SMILES IDX 10 14 11 15 25 16 27 17 12 18 24 19 23 20 13 21 21 22 14 23
REMARK SMILES IDX 15 24 20 25 22 26 16 27 19 28 17 29 18 30
REMARK H PARENT 18 31
REMARK Flexibility Score: inf
ROOT
ATOM      1  C   UNL     1      23.243 -14.072  47.046  1.00  0.00     0.004 C 
ENDROOT
BRANCH   1   2
ATOM      2  C   UNL     1      24.690 -14.263  46.533  1.00  0.00     0.004 C 
BRANCH   2   3
ATOM      3  C   UNL     1      25.007 -15.635  45.856  1.00  0.00    -0.009 C 
BRANCH   3   4
ATOM      4  C   UNL     1      24.363 -16.861  46.560  1.00  0.00     0.000 C 
ATOM      5  C   UNL     1      25.087 -17.245  47.856  1.00  0.00     0.004 C 
ENDBRANCH   3   4
BRANCH   3   6
ATOM      6  C   UNL     1      24.799 -15.608  44.304  1.00  0.00    -0.014 C 
ATOM      7  C   UNL     1      25.083 -14.248  43.645  1.00  0.00     0.007 C 
ATOM      8  C   UNL     1      23.399 -16.102  43.895  1.00  0.00     0.007 C 
ENDBRANCH   3   6
ENDBRANCH   2   3
ENDBRANCH   1   2
BRANCH   1   9
ATOM      9  C   UNL     1      22.544 -12.759  46.591  1.00  0.00    -0.011 C 
ATOM     10  C   UNL     1      23.335 -11.514  47.040  1.00  0.00     0.008 C 
BRANCH   9  11
ATOM     11  C   UNL     1      22.104 -12.786  45.070  1.00  0.00    -0.002 C 
ATOM     12  C   UNL     1      22.414 -11.480  44.316  1.00  0.00     0.005 C 
ATOM     13  C   UNL     1      20.586 -13.055  44.748  1.00  0.00    -0.026 C 
ATOM     14  C   UNL     1      21.112 -10.691  44.222  1.00  0.00     0.005 C 
ATOM     15  C   UNL     1      19.972 -11.628  44.665  1.00  0.00    -0.001 C 
ATOM     16  C   UNL     1      20.458 -13.838  43.381  1.00  0.00     0.007 C 
ATOM     17  C   UNL     1      19.851 -13.884  45.832  1.00  0.00     0.012 C 
ATOM     18  C   UNL     1      18.658 -11.537  43.832  1.00  0.00     0.000 C 
ATOM     19  C   UNL     1      20.042 -12.973  42.187  1.00  0.00     0.005 C 
ATOM     20  C   UNL     1      18.683 -12.292  42.456  1.00  0.00     0.003 C 
ATOM     21  C   UNL     1      18.131 -10.095  43.750  1.00  0.00     0.031 C 
ATOM     22  C   UNL     1      18.101 -11.498  41.212  1.00  0.00    -0.008 C 
ATOM     23  C   UNL     1      16.940 -10.006  42.849  1.00  0.00    -0.027 C 
ATOM     24  C   UNL     1      16.914 -10.629  41.657  1.00  0.00    -0.065 C 
ATOM     25  C   UNL     1      17.635 -12.542  40.139  1.00  0.00     0.014 C 
ATOM     26  C   UNL     1      19.163 -10.570  40.568  1.00  0.00     0.016 C 
ATOM     27  C   UNL     1      15.836 -10.214  40.673  1.00  0.00     0.063 C 
ATOM     28  C   UNL     1      16.692 -11.975  39.073  1.00  0.00     0.033 C 
ATOM     29  C   UNL     1      15.447 -11.337  39.702  1.00  0.00     0.118 C 
BRANCH  29  30
ATOM     30  O   UNL     1      14.627 -12.305  40.315  1.00  0.00    -0.393 OA
ATOM     31  H   UNL     1      13.744 -11.894  40.507  1.00  0.00     0.210 HD
ENDBRANCH  29  30
ENDBRANCH   9  11
ENDBRANCH   1   9
TORSDOF 7
ENDMDL
MODEL 2
REMARK VINA RESULT:    -5.628      2.844      8.478
REMARK INTER + INTRA:          -9.522
REMARK INTER:                  -7.675
REMARK INTRA:                  -1.847
REMARK UNBOUND:                -1.756
REMARK SMILES CC[C@H](CC[C@@H](C)[C@@H]1CC[C@H]2[C@H]3CC=C4C[C@H](O)CC[C@]4(C)[C@H]3CC[C@]21C)C(C)C
REMARK SMILES IDX 5 1 4 2 3 3 2 4 1 5 28 6 29 7 30 8 6 9 7 10 8 11 9 12 26 13
REMARK SMILES IDX 10 14 11 15 25 16 27 17 12 18 24 19 23 20 13 21 21 22 14 23
REMARK SMILES IDX 15 24 20 25 22 26 16 27 19 28 17 29 18 30
REMARK H PARENT 18 31
REMARK Flexibility Score: inf
ROOT
ATOM      1  C   UNL     1      16.310 -10.629  39.964  1.00  0.00     0.004 C 
ENDROOT
BRANCH   1   2
ATOM      2  C   UNL     1      17.437  -9.776  39.336  1.00  0.00     0.004 C 
BRANCH   2   3
ATOM      3  C   UNL     1      17.447  -8.259  39.712  1.00  0.00    -0.009 C 
BRANCH   3   4
ATOM      4  C   UNL     1      16.187  -7.783  40.487  1.00  0.00     0.000 C 
ATOM      5  C   UNL     1      16.458  -7.568  41.980  1.00  0.00     0.004 C 
ENDBRANCH   3   4
BRANCH   3   6
ATOM      6  C   UNL     1      18.800  -7.801  40.352  1.00  0.00    -0.014 C 
ATOM      7  C   UNL     1      19.098  -6.300  40.211  1.00  0.00     0.007 C 
ATOM      8  C   UNL     1      19.997  -8.620  39.833  1.00  0.00     0.007 C 
ENDBRANCH   3   6
ENDBRANCH   2   3
ENDBRANCH   1   2
BRANCH   1   9
ATOM      9  C   UNL     1      16.730 -11.485  41.193  1.00  0.00    -0.011 C 
ATOM     10  C   UNL     1      15.973 -12.828  41.230  1.00  0.00     0.008 C 
BRANCH   9  11
ATOM     11  C   UNL     1      18.300 -11.572  41.381  1.00  0.00    -0.002 C 
ATOM     12  C   UNL     1      18.882 -12.962  41.066  1.00  0.00     0.005 C 
ATOM     13  C   UNL     1      18.890 -11.230  42.800  1.00  0.00    -0.026 C 
ATOM     14  C   UNL     1      19.126 -13.664  42.399  1.00  0.00     0.005 C 
ATOM     15  C   UNL     1      18.957 -12.612  43.511  1.00  0.00    -0.001 C 
ATOM     16  C   UNL     1      20.319 -10.573  42.643  1.00  0.00     0.007 C 
ATOM     17  C   UNL     1      18.015 -10.252  43.627  1.00  0.00     0.012 C 
ATOM     18  C   UNL     1      19.986 -12.690  44.679  1.00  0.00     0.000 C 
ATOM     19  C   UNL     1      21.491 -11.515  42.935  1.00  0.00     0.005 C 
ATOM     20  C   UNL     1      21.396 -12.072  44.372  1.00  0.00     0.003 C 
ATOM     21  C   UNL     1      20.036 -14.093  45.306  1.00  0.00     0.031 C 
ATOM     22  C   UNL     1      22.650 -12.938  44.813  1.00  0.00    -0.008 C 
ATOM     23  C   UNL     1      21.111 -14.183  46.342  1.00  0.00    -0.027 C 
ATOM     24  C   UNL     1      22.338 -13.676  46.125  1.00  0.00    -0.065 C 
ATOM     25  C   UNL     1      23.868 -11.970  45.014  1.00  0.00     0.014 C 
ATOM     26  C   UNL     1      23.031 -13.994  43.744  1.00  0.00     0.016 C 
ATOM     27  C   UNL     1      23.451 -14.107  47.064  1.00  0.00     0.063 C 
ATOM     28  C   UNL     1      25.025 -12.568  45.819  1.00  0.00     0.033 C 
ATOM     29  C   UNL     1      24.561 -13.056  47.197  1.00  0.00     0.118 C 
BRANCH  29  30
ATOM     30  O   UNL     1      24.174 -11.979  48.020  1.00  0.00    -0.393 OA
ATOM     31  H   UNL     1      23.639 -12.337  48.775  1.00  0.00     0.210 HD
ENDBRANCH  29  30
ENDBRANCH   9  11
ENDBRANCH   1   9
TORSDOF 7
ENDMDL
MODEL 3
REMARK VINA RESULT:    -5.597      1.881      3.680
REMARK INTER + INTRA:          -9.479
REMARK INTER:                  -7.837
REMARK INTRA:                  -1.642
REMARK UNBOUND:                -1.756
REMARK SMILES CC[C@H](CC[C@@H](C)[C@@H]1CC[C@H]2[C@H]3CC=C4C[C@H](O)CC[C@]4(C)[C@H]3CC[C@]21C)C(C)C
REMARK SMILES IDX 5 1 4 2 3 3 2 4 1 5 28 6 29 7 30 8 6 9 7 10 8 11 9 12 26 13
REMARK SMILES IDX 10 14 11 15 25 16 27 17 12 18 24 19 23 20 13 21 21 22 14 23
REMARK SMILES IDX 15 24 20 25 22 26 16 27 19 28 17 29 18 30
REMARK H PARENT 18 31
REMARK Flexibility Score: inf
ROOT
ATOM      1  C   UNL     1      22.366 -15.337  45.617  1.00  0.00     0.004 C 
ENDROOT
BRANCH   1   2
ATOM      2  C   UNL     1      22.541 -14.325  46.774  1.00  0.00     0.004 C 
BRANCH   2   3
ATOM      3  C   UNL     1      23.927 -13.610  46.863  1.00  0.00    -0.009 C 
BRANCH   3   4
ATOM      4  C   UNL     1      25.039 -14.257  45.991  1.00  0.00     0.000 C 
ATOM      5  C   UNL     1      25.123 -13.643  44.589  1.00  0.00     0.004 C 
ENDBRANCH   3   4
BRANCH   3   6
ATOM      6  C   UNL     1      23.819 -12.055  46.708  1.00  0.00    -0.014 C 
ATOM      7  C   UNL     1      24.827 -11.258  47.552  1.00  0.00     0.007 C 
ATOM      8  C   UNL     1      22.392 -11.541  46.977  1.00  0.00     0.007 C 
ENDBRANCH   3   6
ENDBRANCH   2   3
ENDBRANCH   1   2
BRANCH   1   9
ATOM      9  C   UNL     1      21.979 -14.717  44.244  1.00  0.00    -0.011 C 
ATOM     10  C   UNL     1      21.903 -15.793  43.142  1.00  0.00     0.008 C 
BRANCH   9  11
ATOM     11  C   UNL     1      20.744 -13.732  44.335  1.00  0.00    -0.002 C 
ATOM     12  C   UNL     1      19.413 -14.370  43.894  1.00  0.00     0.005 C 
ATOM     13  C   UNL     1      20.809 -12.392  43.509  1.00  0.00    -0.026 C 
ATOM     14  C   UNL     1      19.129 -13.891  42.473  1.00  0.00     0.005 C 
ATOM     15  C   UNL     1      20.127 -12.760  42.160  1.00  0.00    -0.001 C 
ATOM     16  C   UNL     1      20.031 -11.251  44.277  1.00  0.00     0.007 C 
ATOM     17  C   UNL     1      22.251 -11.883  43.251  1.00  0.00     0.012 C 
ATOM     18  C   UNL     1      19.549 -11.545  41.375  1.00  0.00     0.000 C 
ATOM     19  C   UNL     1      18.638 -10.941  43.718  1.00  0.00     0.005 C 
ATOM     20  C   UNL     1      18.728 -10.521  42.235  1.00  0.00     0.003 C 
ATOM     21  C   UNL     1      18.848 -11.982  40.078  1.00  0.00     0.031 C 
ATOM     22  C   UNL     1      17.350 -10.034  41.618  1.00  0.00    -0.008 C 
ATOM     23  C   UNL     1      18.196 -10.820  39.399  1.00  0.00    -0.027 C 
ATOM     24  C   UNL     1      17.476  -9.918  40.090  1.00  0.00    -0.065 C 
ATOM     25  C   UNL     1      16.999  -8.638  42.239  1.00  0.00     0.014 C 
ATOM     26  C   UNL     1      16.193 -11.018  41.933  1.00  0.00     0.016 C 
ATOM     27  C   UNL     1      16.576  -8.986  39.300  1.00  0.00     0.063 C 
ATOM     28  C   UNL     1      15.936  -7.851  41.467  1.00  0.00     0.033 C 
ATOM     29  C   UNL     1      16.341  -7.642  40.003  1.00  0.00     0.118 C 
BRANCH  29  30
ATOM     30  O   UNL     1      17.457  -6.786  39.895  1.00  0.00    -0.393 OA
ATOM     31  H   UNL     1      18.050  -7.134  39.180  1.00  0.00     0.210 HD
ENDBRANCH  29  30
ENDBRANCH   9  11
ENDBRANCH   1   9
TORSDOF 7
ENDMDL
MODEL 4
REMARK VINA RESULT:    -5.596      1.468      2.306
REMARK INTER + INTRA:          -9.478
REMARK INTER:                  -7.607
REMARK INTRA:                  -1.872
REMARK UNBOUND:                -1.756
REMARK SMILES CC[C@H](CC[C@@H](C)[C@@H]1CC[C@H]2[C@H]3CC=C4C[C@H](O)CC[C@]4(C)[C@H]3CC[C@]21C)C(C)C
REMARK SMILES IDX 5 1 4 2 3 3 2 4 1 5 28 6 29 7 30 8 6 9 7 10 8 11 9 12 26 13
REMARK SMILES IDX 10 14 11 15 25 16 27 17 12 18 24 19 23 20 13 21 21 22 14 23
REMARK SMILES IDX 15 24 20 25 22 26 16 27 19 28 17 29 18 30
REMARK H PARENT 18 31
REMARK Flexibility Score: inf
ROOT
ATOM      1  C   UNL     1      24.897 -11.778  44.243  1.00  0.00     0.004 C 
ENDROOT
BRANCH   1   2
ATOM      2  C   UNL     1      24.969 -13.318  44.364  1.00  0.00     0.004 C 
BRANCH   2   3
ATOM      3  C   UNL     1      24.928 -13.901  45.812  1.00  0.00    -0.009 C 
BRANCH   3   4
ATOM      4  C   UNL     1      25.077 -12.838  46.935  1.00  0.00     0.000 C 
ATOM      5  C   UNL     1      23.749 -12.531  47.638  1.00  0.00     0.004 C 
ENDBRANCH   3   4
BRANCH   3   6
ATOM      6  C   UNL     1      23.742 -14.900  46.032  1.00  0.00    -0.014 C 
ATOM      7  C   UNL     1      24.103 -16.150  46.851  1.00  0.00     0.007 C 
ATOM      8  C   UNL     1      23.081 -15.319  44.706  1.00  0.00     0.007 C 
ENDBRANCH   3   6
ENDBRANCH   2   3
ENDBRANCH   1   2
BRANCH   1   9
ATOM      9  C   UNL     1      23.468 -11.170  44.322  1.00  0.00    -0.011 C 
ATOM     10  C   UNL     1      23.512  -9.629  44.344  1.00  0.00     0.008 C 
BRANCH   9  11
ATOM     11  C   UNL     1      22.461 -11.818  43.287  1.00  0.00    -0.002 C 
ATOM     12  C   UNL     1      22.260 -10.977  42.014  1.00  0.00     0.005 C 
ATOM     13  C   UNL     1      20.993 -12.114  43.776  1.00  0.00    -0.026 C 
ATOM     14  C   UNL     1      20.936 -10.233  42.165  1.00  0.00     0.005 C 
ATOM     15  C   UNL     1      20.211 -10.828  43.386  1.00  0.00    -0.001 C 
ATOM     16  C   UNL     1      20.432 -13.397  43.043  1.00  0.00     0.007 C 
ATOM     17  C   UNL     1      20.877 -12.361  45.303  1.00  0.00     0.012 C 
ATOM     18  C   UNL     1      18.673 -11.028  43.229  1.00  0.00     0.000 C 
ATOM     19  C   UNL     1      19.456 -13.102  41.899  1.00  0.00     0.005 C 
ATOM     20  C   UNL     1      18.243 -12.298  42.412  1.00  0.00     0.003 C 
ATOM     21  C   UNL     1      17.968  -9.732  42.797  1.00  0.00     0.031 C 
ATOM     22  C   UNL     1      17.107 -12.079  41.327  1.00  0.00    -0.008 C 
ATOM     23  C   UNL     1      16.515  -9.970  42.535  1.00  0.00    -0.027 C 
ATOM     24  C   UNL     1      16.095 -11.039  41.834  1.00  0.00    -0.065 C 
ATOM     25  C   UNL     1      16.393 -13.453  41.080  1.00  0.00     0.014 C 
ATOM     26  C   UNL     1      17.683 -11.573  39.978  1.00  0.00     0.016 C 
ATOM     27  C   UNL     1      14.666 -11.024  41.322  1.00  0.00     0.063 C 
ATOM     28  C   UNL     1      15.034 -13.344  40.383  1.00  0.00     0.033 C 
ATOM     29  C   UNL     1      14.075 -12.431  41.158  1.00  0.00     0.118 C 
BRANCH  29  30
ATOM     30  O   UNL     1      13.710 -12.999  42.396  1.00  0.00    -0.393 OA
ATOM     31  H   UNL     1      13.508 -13.960  42.253  1.00  0.00     0.210 HD
ENDBRANCH  29  30
ENDBRANCH   9  11
ENDBRANCH   1   9
TORSDOF 7
ENDMDL
MODEL 5
REMARK VINA RESULT:    -5.539      2.623      8.606
REMARK INTER + INTRA:          -9.400
REMARK INTER:                  -7.521
REMARK INTRA:                  -1.879
REMARK UNBOUND:                -1.756
REMARK SMILES CC[C@H](CC[C@@H](C)[C@@H]1CC[C@H]2[C@H]3CC=C4C[C@H](O)CC[C@]4(C)[C@H]3CC[C@]21C)C(C)C
REMARK SMILES IDX 5 1 4 2 3 3 2 4 1 5 28 6 29 7 30 8 6 9 7 10 8 11 9 12 26 13
REMARK SMILES IDX 10 14 11 15 25 16 27 17 12 18 24 19 23 20 13 21 21 22 14 23
REMARK SMILES IDX 15 24 20 25 22 26 16 27 19 28 17 29 18 30
REMARK H PARENT 18 31
REMARK Flexibility Score: inf
ROOT
ATOM      1  C   UNL     1      17.156  -9.082  39.618  1.00  0.00     0.004 C 
ENDROOT
BRANCH   1   2
ATOM      2  C   UNL     1      16.460 -10.403  39.212  1.00  0.00     0.004 C 
BRANCH   2   3
ATOM      3  C   UNL     1      15.051 -10.661  39.835  1.00  0.00    -0.009 C 
BRANCH   3   4
ATOM      4  C   UNL     1      13.874 -10.030  39.042  1.00  0.00     0.000 C 
ATOM      5  C   UNL     1      13.269  -8.813  39.751  1.00  0.00     0.004 C 
ENDBRANCH   3   4
BRANCH   3   6
ATOM      6  C   UNL     1      14.827 -12.161  40.226  1.00  0.00    -0.014 C 
ATOM      7  C   UNL     1      14.266 -12.375  41.641  1.00  0.00     0.007 C 
ATOM      8  C   UNL     1      16.098 -13.010  40.035  1.00  0.00     0.007 C 
ENDBRANCH   3   6
ENDBRANCH   2   3
ENDBRANCH   1   2
BRANCH   1   9
ATOM      9  C   UNL     1      17.714  -9.042  41.069  1.00  0.00    -0.011 C 
ATOM     10  C   UNL     1      16.813  -8.203  41.997  1.00  0.00     0.008 C 
BRANCH   9  11
ATOM     11  C   UNL     1      18.126 -10.471  41.614  1.00  0.00    -0.002 C 
ATOM     12  C   UNL     1      17.407 -10.865  42.917  1.00  0.00     0.005 C 
ATOM     13  C   UNL     1      19.647 -10.725  41.933  1.00  0.00    -0.026 C 
ATOM     14  C   UNL     1      18.386 -10.631  44.064  1.00  0.00     0.005 C 
ATOM     15  C   UNL     1      19.769 -10.365  43.442  1.00  0.00    -0.001 C 
ATOM     16  C   UNL     1      20.009 -12.238  41.651  1.00  0.00     0.007 C 
ATOM     17  C   UNL     1      20.620  -9.849  41.101  1.00  0.00     0.012 C 
ATOM     18  C   UNL     1      20.978 -11.029  44.169  1.00  0.00     0.000 C 
ATOM     19  C   UNL     1      20.116 -13.113  42.904  1.00  0.00     0.005 C 
ATOM     20  C   UNL     1      21.185 -12.555  43.868  1.00  0.00     0.003 C 
ATOM     21  C   UNL     1      21.012 -10.671  45.664  1.00  0.00     0.031 C 
ATOM     22  C   UNL     1      21.471 -13.483  45.122  1.00  0.00    -0.008 C 
ATOM     23  C   UNL     1      22.104 -11.410  46.370  1.00  0.00    -0.027 C 
ATOM     24  C   UNL     1      22.319 -12.720  46.153  1.00  0.00    -0.065 C 
ATOM     25  C   UNL     1      22.239 -14.757  44.626  1.00  0.00     0.014 C 
ATOM     26  C   UNL     1      20.161 -13.938  45.818  1.00  0.00     0.016 C 
ATOM     27  C   UNL     1      23.198 -13.461  47.144  1.00  0.00     0.063 C 
ATOM     28  C   UNL     1      22.941 -15.545  45.736  1.00  0.00     0.033 C 
ATOM     29  C   UNL     1      23.920 -14.664  46.522  1.00  0.00     0.118 C 
BRANCH  29  30
ATOM     30  O   UNL     1      25.013 -14.270  45.724  1.00  0.00    -0.393 OA
ATOM     31  H   UNL     1      25.696 -14.990  45.748  1.00  0.00     0.210 HD
ENDBRANCH  29  30
ENDBRANCH   9  11
ENDBRANCH   1   9
TORSDOF 7
ENDMDL
MODEL 6
REMARK VINA RESULT:    -5.488      2.252      4.239
REMARK INTER + INTRA:          -9.329
REMARK INTER:                  -7.205
REMARK INTRA:                  -2.125
REMARK UNBOUND:                -1.756
REMARK SMILES CC[C@H](CC[C@@H](C)[C@@H]1CC[C@H]2[C@H]3CC=C4C[C@H](O)CC[C@]4(C)[C@H]3CC[C@]21C)C(C)C
REMARK SMILES IDX 5 1 4 2 3 3 2 4 1 5 28 6 29 7 30 8 6 9 7 10 8 11 9 12 26 13
REMARK SMILES IDX 10 14 11 15 25 16 27 17 12 18 24 19 23 20 13 21 21 22 14 23
REMARK SMILES IDX 15 24 20 25 22 26 16 27 19 28 17 29 18 30
REMARK H PARENT 18 31
REMARK Flexibility Score: inf
ROOT
ATOM      1  C   UNL     1      22.053 -13.662  44.156  1.00  0.00     0.004 C 
ENDROOT
BRANCH   1   2
ATOM      2  C   UNL     1      23.054 -12.568  43.716  1.00  0.00     0.004 C 
BRANCH   2   3
ATOM      3  C   UNL     1      23.621 -11.654  44.849  1.00  0.00    -0.009 C 
BRANCH   3   4
ATOM      4  C   UNL     1      23.317 -10.141  44.665  1.00  0.00     0.000 C 
ATOM      5  C   UNL     1      23.233  -9.731  43.190  1.00  0.00     0.004 C 
ENDBRANCH   3   4
BRANCH   3   6
ATOM      6  C   UNL     1      23.304 -12.198  46.283  1.00  0.00    -0.014 C 
ATOM      7  C   UNL     1      22.291 -11.356  47.077  1.00  0.00     0.007 C 
ATOM      8  C   UNL     1      24.578 -12.407  47.122  1.00  0.00     0.007 C 
ENDBRANCH   3   6
ENDBRANCH   2   3
ENDBRANCH   1   2
BRANCH   1   9
ATOM      9  C   UNL     1      20.553 -13.262  44.077  1.00  0.00    -0.011 C 
ATOM     10  C   UNL     1      19.848 -13.443  45.436  1.00  0.00     0.008 C 
BRANCH   9  11
ATOM     11  C   UNL     1      20.319 -11.870  43.359  1.00  0.00    -0.002 C 
ATOM     12  C   UNL     1      19.667 -10.811  44.265  1.00  0.00     0.005 C 
ATOM     13  C   UNL     1      19.428 -11.853  42.060  1.00  0.00    -0.026 C 
ATOM     14  C   UNL     1      18.187 -10.749  43.899  1.00  0.00     0.005 C 
ATOM     15  C   UNL     1      18.000 -11.556  42.601  1.00  0.00    -0.001 C 
ATOM     16  C   UNL     1      19.937 -10.727  41.075  1.00  0.00     0.007 C 
ATOM     17  C   UNL     1      19.429 -13.193  41.279  1.00  0.00     0.012 C 
ATOM     18  C   UNL     1      17.027 -10.937  41.552  1.00  0.00     0.000 C 
ATOM     19  C   UNL     1      19.088  -9.451  41.070  1.00  0.00     0.005 C 
ATOM     20  C   UNL     1      17.627  -9.772  40.688  1.00  0.00     0.003 C 
ATOM     21  C   UNL     1      15.651 -10.624  42.163  1.00  0.00     0.031 C 
ATOM     22  C   UNL     1      16.710  -8.490  40.509  1.00  0.00    -0.008 C 
ATOM     23  C   UNL     1      14.771  -9.921  41.178  1.00  0.00    -0.027 C 
ATOM     24  C   UNL     1      15.235  -8.913  40.419  1.00  0.00    -0.065 C 
ATOM     25  C   UNL     1      17.144  -7.756  39.194  1.00  0.00     0.014 C 
ATOM     26  C   UNL     1      16.856  -7.502  41.696  1.00  0.00     0.016 C 
ATOM     27  C   UNL     1      14.213  -8.040  39.713  1.00  0.00     0.063 C 
ATOM     28  C   UNL     1      16.118  -6.751  38.662  1.00  0.00     0.033 C 
ATOM     29  C   UNL     1      14.754  -7.410  38.422  1.00  0.00     0.118 C 
BRANCH  29  30
ATOM     30  O   UNL     1      14.811  -8.339  37.363  1.00  0.00    -0.393 OA
ATOM     31  H   UNL     1      15.745  -8.383  37.033  1.00  0.00     0.210 HD
ENDBRANCH  29  30
ENDBRANCH   9  11
ENDBRANCH   1   9
TORSDOF 7
ENDMDL
MODEL 7
REMARK VINA RESULT:    -5.459      1.761      3.384
REMARK INTER + INTRA:          -9.289
REMARK INTER:                  -7.219
REMARK INTRA:                  -2.070
REMARK UNBOUND:                -1.756
REMARK SMILES CC[C@H](CC[C@@H](C)[C@@H]1CC[C@H]2[C@H]3CC=C4C[C@H](O)CC[C@]4(C)[C@H]3CC[C@]21C)C(C)C
REMARK SMILES IDX 5 1 4 2 3 3 2 4 1 5 28 6 29 7 30 8 6 9 7 10 8 11 9 12 26 13
REMARK SMILES IDX 10 14 11 15 25 16 27 17 12 18 24 19 23 20 13 21 21 22 14 23
REMARK SMILES IDX 15 24 20 25 22 26 16 27 19 28 17 29 18 30
REMARK H PARENT 18 31
REMARK Flexibility Score: inf
ROOT
ATOM      1  C   UNL     1      25.124 -13.290  44.409  1.00  0.00     0.004 C 
ENDROOT
BRANCH   1   2
ATOM      2  C   UNL     1      24.819 -12.915  45.878  1.00  0.00     0.004 C 
BRANCH   2   3
ATOM      3  C   UNL     1      23.835 -13.858  46.642  1.00  0.00    -0.009 C 
BRANCH   3   4
ATOM      4  C   UNL     1      22.468 -13.208  46.994  1.00  0.00     0.000 C 
ATOM      5  C   UNL     1      22.571 -11.692  47.200  1.00  0.00     0.004 C 
ENDBRANCH   3   4
BRANCH   3   6
ATOM      6  C   UNL     1      23.717 -15.274  45.983  1.00  0.00    -0.014 C 
ATOM      7  C   UNL     1      22.363 -15.555  45.311  1.00  0.00     0.007 C 
ATOM      8  C   UNL     1      24.052 -16.406  46.972  1.00  0.00     0.007 C 
ENDBRANCH   3   6
ENDBRANCH   2   3
ENDBRANCH   1   2
BRANCH   1   9
ATOM      9  C   UNL     1      24.429 -12.403  43.337  1.00  0.00    -0.011 C 
ATOM     10  C   UNL     1      25.108 -12.547  41.960  1.00  0.00     0.008 C 
BRANCH   9  11
ATOM     11  C   UNL     1      22.852 -12.539  43.348  1.00  0.00    -0.002 C 
ATOM     12  C   UNL     1      22.295 -13.342  42.158  1.00  0.00     0.005 C 
ATOM     13  C   UNL     1      22.000 -11.215  43.339  1.00  0.00    -0.026 C 
ATOM     14  C   UNL     1      21.761 -12.337  41.142  1.00  0.00     0.005 C 
ATOM     15  C   UNL     1      21.740 -10.957  41.827  1.00  0.00    -0.001 C 
ATOM     16  C   UNL     1      20.657 -11.435  44.143  1.00  0.00     0.007 C 
ATOM     17  C   UNL     1      22.725  -9.995  43.966  1.00  0.00     0.012 C 
ATOM     18  C   UNL     1      20.494 -10.070  41.526  1.00  0.00     0.000 C 
ATOM     19  C   UNL     1      19.417 -11.646  43.269  1.00  0.00     0.005 C 
ATOM     20  C   UNL     1      19.199 -10.439  42.332  1.00  0.00     0.003 C 
ATOM     21  C   UNL     1      20.268  -9.895  40.015  1.00  0.00     0.031 C 
ATOM     22  C   UNL     1      17.851 -10.504  41.498  1.00  0.00    -0.008 C 
ATOM     23  C   UNL     1      19.003  -9.144  39.743  1.00  0.00    -0.027 C 
ATOM     24  C   UNL     1      17.864  -9.427  40.402  1.00  0.00    -0.065 C 
ATOM     25  C   UNL     1      16.654 -10.260  42.481  1.00  0.00     0.014 C 
ATOM     26  C   UNL     1      17.656 -11.883  40.817  1.00  0.00     0.016 C 
ATOM     27  C   UNL     1      16.570  -8.872  39.834  1.00  0.00     0.063 C 
ATOM     28  C   UNL     1      15.337  -9.887  41.794  1.00  0.00     0.033 C 
ATOM     29  C   UNL     1      15.494  -8.648  40.906  1.00  0.00     0.118 C 
BRANCH  29  30
ATOM     30  O   UNL     1      15.746  -7.493  41.673  1.00  0.00    -0.393 OA
ATOM     31  H   UNL     1      16.025  -6.763  41.062  1.00  0.00     0.210 HD
ENDBRANCH  29  30
ENDBRANCH   9  11
ENDBRANCH   1   9
TORSDOF 7
ENDMDL
MODEL 8
REMARK VINA RESULT:    -5.429     10.610     13.454
REMARK INTER + INTRA:          -9.247
REMARK INTER:                  -7.721
REMARK INTRA:                  -1.526
REMARK UNBOUND:                -1.756
REMARK SMILES CC[C@H](CC[C@@H](C)[C@@H]1CC[C@H]2[C@H]3CC=C4C[C@H](O)CC[C@]4(C)[C@H]3CC[C@]21C)C(C)C
REMARK SMILES IDX 5 1 4 2 3 3 2 4 1 5 28 6 29 7 30 8 6 9 7 10 8 11 9 12 26 13
REMARK SMILES IDX 10 14 11 15 25 16 27 17 12 18 24 19 23 20 13 21 21 22 14 23
REMARK SMILES IDX 15 24 20 25 22 26 16 27 19 28 17 29 18 30
REMARK H PARENT 18 31
REMARK Flexibility Score: inf
ROOT
ATOM      1  C   UNL     1      12.789 -17.006  34.468  1.00  0.00     0.004 C 
ENDROOT
BRANCH   1   2
ATOM      2  C   UNL     1      13.422 -15.807  33.724  1.00  0.00     0.004 C 
BRANCH   2   3
ATOM      3  C   UNL     1      12.435 -14.871  32.957  1.00  0.00    -0.009 C 
BRANCH   3   4
ATOM      4  C   UNL     1      10.933 -15.166  33.224  1.00  0.00     0.000 C 
ATOM      5  C   UNL     1      10.236 -15.816  32.023  1.00  0.00     0.004 C 
ENDBRANCH   3   4
BRANCH   3   6
ATOM      6  C   UNL     1      12.818 -13.357  33.075  1.00  0.00    -0.014 C 
ATOM      7  C   UNL     1      12.908 -12.832  34.517  1.00  0.00     0.007 C 
ATOM      8  C   UNL     1      11.884 -12.453  32.249  1.00  0.00     0.007 C 
ENDBRANCH   3   6
ENDBRANCH   2   3
ENDBRANCH   1   2
BRANCH   1   9
ATOM      9  C   UNL     1      12.848 -16.933  36.020  1.00  0.00    -0.011 C 
ATOM     10  C   UNL     1      14.086 -16.149  36.501  1.00  0.00     0.008 C 
BRANCH   9  11
ATOM     11  C   UNL     1      11.469 -16.513  36.674  1.00  0.00    -0.002 C 
ATOM     12  C   UNL     1      11.367 -15.009  36.986  1.00  0.00     0.005 C 
ATOM     13  C   UNL     1      11.055 -17.205  38.027  1.00  0.00    -0.026 C 
ATOM     14  C   UNL     1      11.624 -14.837  38.480  1.00  0.00     0.005 C 
ATOM     15  C   UNL     1      11.605 -16.240  39.115  1.00  0.00    -0.001 C 
ATOM     16  C   UNL     1       9.482 -17.348  38.097  1.00  0.00     0.007 C 
ATOM     17  C   UNL     1      11.661 -18.620  38.220  1.00  0.00     0.012 C 
ATOM     18  C   UNL     1      10.891 -16.349  40.497  1.00  0.00     0.000 C 
ATOM     19  C   UNL     1       8.788 -16.317  38.993  1.00  0.00     0.005 C 
ATOM     20  C   UNL     1       9.324 -16.403  40.438  1.00  0.00     0.003 C 
ATOM     21  C   UNL     1      11.449 -15.336  41.510  1.00  0.00     0.031 C 
ATOM     22  C   UNL     1       8.553 -15.476  41.469  1.00  0.00    -0.008 C 
ATOM     23  C   UNL     1      10.675 -15.371  42.789  1.00  0.00    -0.027 C 
ATOM     24  C   UNL     1       9.330 -15.411  42.794  1.00  0.00    -0.065 C 
ATOM     25  C   UNL     1       7.128 -16.086  41.708  1.00  0.00     0.014 C 
ATOM     26  C   UNL     1       8.387 -14.029  40.937  1.00  0.00     0.016 C 
ATOM     27  C   UNL     1       8.624 -15.098  44.101  1.00  0.00     0.063 C 
ATOM     28  C   UNL     1       6.416 -15.561  42.958  1.00  0.00     0.033 C 
ATOM     29  C   UNL     1       7.256 -15.784  44.221  1.00  0.00     0.118 C 
BRANCH  29  30
ATOM     30  O   UNL     1       7.378 -17.156  44.523  1.00  0.00    -0.393 OA
ATOM     31  H   UNL     1       8.285 -17.317  44.892  1.00  0.00     0.210 HD
ENDBRANCH  29  30
ENDBRANCH   9  11
ENDBRANCH   1   9
TORSDOF 7
ENDMDL
MODEL 9
REMARK VINA RESULT:    -5.333      2.207      3.685
REMARK INTER + INTRA:          -9.115
REMARK INTER:                  -7.595
REMARK INTRA:                  -1.520
REMARK UNBOUND:                -1.756
REMARK SMILES CC[C@H](CC[C@@H](C)[C@@H]1CC[C@H]2[C@H]3CC=C4C[C@H](O)CC[C@]4(C)[C@H]3CC[C@]21C)C(C)C
REMARK SMILES IDX 5 1 4 2 3 3 2 4 1 5 28 6 29 7 30 8 6 9 7 10 8 11 9 12 26 13
REMARK SMILES IDX 10 14 11 15 25 16 27 17 12 18 24 19 23 20 13 21 21 22 14 23
REMARK SMILES IDX 15 24 20 25 22 26 16 27 19 28 17 29 18 30
REMARK H PARENT 18 31
REMARK Flexibility Score: inf
ROOT
ATOM      1  C   UNL     1      21.466 -14.234  46.540  1.00  0.00     0.004 C 
ENDROOT
BRANCH   1   2
ATOM      2  C   UNL     1      22.933 -14.154  47.024  1.00  0.00     0.004 C 
BRANCH   2   3
ATOM      3  C   UNL     1      24.019 -13.991  45.913  1.00  0.00    -0.009 C 
BRANCH   3   4
ATOM      4  C   UNL     1      24.738 -12.614  45.917  1.00  0.00     0.000 C 
ATOM      5  C   UNL     1      24.582 -11.870  47.248  1.00  0.00     0.004 C 
ENDBRANCH   3   4
BRANCH   3   6
ATOM      6  C   UNL     1      24.990 -15.217  45.829  1.00  0.00    -0.014 C 
ATOM      7  C   UNL     1      24.983 -15.945  44.475  1.00  0.00     0.007 C 
ATOM      8  C   UNL     1      24.751 -16.229  46.966  1.00  0.00     0.007 C 
ENDBRANCH   3   6
ENDBRANCH   2   3
ENDBRANCH   1   2
BRANCH   1   9
ATOM      9  C   UNL     1      21.278 -14.340  45.000  1.00  0.00    -0.011 C 
ATOM     10  C   UNL     1      21.319 -15.807  44.527  1.00  0.00     0.008 C 
BRANCH   9  11
ATOM     11  C   UNL     1      20.067 -13.474  44.462  1.00  0.00    -0.002 C 
ATOM     12  C   UNL     1      19.412 -14.052  43.193  1.00  0.00     0.005 C 
ATOM     13  C   UNL     1      20.346 -11.970  44.088  1.00  0.00    -0.026 C 
ATOM     14  C   UNL     1      19.938 -13.250  42.006  1.00  0.00     0.005 C 
ATOM     15  C   UNL     1      20.684 -12.027  42.571  1.00  0.00    -0.001 C 
ATOM     16  C   UNL     1      19.061 -11.097  44.379  1.00  0.00     0.007 C 
ATOM     17  C   UNL     1      21.527 -11.337  44.869  1.00  0.00     0.012 C 
ATOM     18  C   UNL     1      20.460 -10.686  41.808  1.00  0.00     0.000 C 
ATOM     19  C   UNL     1      18.242 -10.732  43.137  1.00  0.00     0.005 C 
ATOM     20  C   UNL     1      19.109  -9.952  42.125  1.00  0.00     0.003 C 
ATOM     21  C   UNL     1      20.766 -10.824  40.307  1.00  0.00     0.031 C 
ATOM     22  C   UNL     1      18.303  -9.401  40.874  1.00  0.00    -0.008 C 
ATOM     23  C   UNL     1      20.431  -9.565  39.571  1.00  0.00    -0.027 C 
ATOM     24  C   UNL     1      19.283  -8.902  39.801  1.00  0.00    -0.065 C 
ATOM     25  C   UNL     1      17.389  -8.223  41.361  1.00  0.00     0.014 C 
ATOM     26  C   UNL     1      17.404 -10.492  40.237  1.00  0.00     0.016 C 
ATOM     27  C   UNL     1      18.866  -7.851  38.788  1.00  0.00     0.063 C 
ATOM     28  C   UNL     1      16.861  -7.326  40.237  1.00  0.00     0.033 C 
ATOM     29  C   UNL     1      18.005  -6.739  39.401  1.00  0.00     0.118 C 
BRANCH  29  30
ATOM     30  O   UNL     1      18.775  -5.826  40.150  1.00  0.00    -0.393 OA
ATOM     31  H   UNL     1      18.158  -5.236  40.656  1.00  0.00     0.210 HD
ENDBRANCH  29  30
ENDBRANCH   9  11
ENDBRANCH   1   9
TORSDOF 7
ENDMDL
