MODEL 1
REMARK VINA RESULT:    -4.162      0.000      0.000
REMARK INTER + INTRA:         -15.105
REMARK INTER:                 -10.488
REMARK INTRA:                  -4.617
REMARK UNBOUND:                -4.617
REMARK SMILES CCCCCCCCCCCCCCCCCCCCCCCCCCCC(=O)[O-]
REMARK SMILES IDX 15 1 16 2 17 3 18 4 19 5 20 6 21 7 22 8 23 9 24 10 25 11
REMARK SMILES IDX 26 12 27 13 28 14 29 15 30 16 14 17 13 18 12 19 11 20 10 21
REMARK SMILES IDX 9 22 8 23 7 24 6 25 5 26 4 27 3 28 2 29 1 30
REMARK H PARENT
REMARK Flexibility Score: inf
ROOT
ATOM      1  C   UNL     1       2.124   0.002   6.383  1.00  0.00     0.000 C 
ENDROOT
BRANCH   1   2
ATOM      2  C   UNL     1       1.433   1.377   6.388  1.00  0.00     0.000 C 
BRANCH   2   3
ATOM      3  C   UNL     1       1.312   2.044   7.773  1.00  0.00     0.000 C 
BRANCH   3   4
ATOM      4  C   UNL     1       1.335   3.583   7.767  1.00  0.00     0.000 C 
BRANCH   4   5
ATOM      5  C   UNL     1       1.488   4.176   6.355  1.00  0.00     0.000 C 
BRANCH   5   6
ATOM      6  C   UNL     1       0.666   5.460   6.165  1.00  0.00     0.000 C 
BRANCH   6   7
ATOM      7  C   UNL     1      -0.760   5.183   5.655  1.00  0.00     0.000 C 
BRANCH   7   8
ATOM      8  C   UNL     1      -0.797   4.020   4.640  1.00  0.00     0.000 C 
BRANCH   8   9
ATOM      9  C   UNL     1      -1.610   2.804   5.122  1.00  0.00     0.000 C 
BRANCH   9  10
ATOM     10  C   UNL     1      -2.520   3.131   6.317  1.00  0.00     0.000 C 
BRANCH  10  11
ATOM     11  C   UNL     1      -4.015   2.921   6.012  1.00  0.00     0.000 C 
BRANCH  11  12
ATOM     12  C   UNL     1      -4.937   4.103   6.376  1.00  0.00     0.006 C 
BRANCH  12  13
ATOM     13  C   UNL     1      -4.203   5.354   6.884  1.00  0.00     0.053 C 
BRANCH  13  14
ATOM     14  C   UNL     1      -4.280   6.487   5.908  1.00  0.00     0.041 C 
ATOM     15  O   UNL     1      -3.784   7.607   6.199  1.00  0.00    -0.550 OA
ATOM     16  O   UNL     1      -4.918   6.312   4.687  1.00  0.00    -0.550 OA
ENDBRANCH  13  14
ENDBRANCH  12  13
ENDBRANCH  11  12
ENDBRANCH  10  11
ENDBRANCH   9  10
ENDBRANCH   8   9
ENDBRANCH   7   8
ENDBRANCH   6   7
ENDBRANCH   5   6
ENDBRANCH   4   5
ENDBRANCH   3   4
ENDBRANCH   2   3
ENDBRANCH   1   2
BRANCH   1  17
ATOM     17  C   UNL     1       2.378  -0.547   7.794  1.00  0.00     0.000 C 
BRANCH  17  18
ATOM     18  C   UNL     1       3.705  -1.316   7.850  1.00  0.00     0.000 C 
BRANCH  18  19
ATOM     19  C   UNL     1       3.987  -1.944   9.229  1.00  0.00     0.000 C 
BRANCH  19  20
ATOM     20  C   UNL     1       5.386  -2.574   9.391  1.00  0.00     0.000 C 
BRANCH  20  21
ATOM     21  C   UNL     1       6.014  -3.107   8.085  1.00  0.00     0.000 C 
BRANCH  21  22
ATOM     22  C   UNL     1       7.484  -2.694   7.873  1.00  0.00    -0.000 C 
BRANCH  22  23
ATOM     23  C   UNL     1       7.667  -1.239   7.395  1.00  0.00    -0.000 C 
BRANCH  23  24
ATOM     24  C   UNL     1       8.307  -0.321   8.461  1.00  0.00    -0.000 C 
BRANCH  24  25
ATOM     25  C   UNL     1       7.627   1.054   8.574  1.00  0.00    -0.000 C 
BRANCH  25  26
ATOM     26  C   UNL     1       6.271   0.990   9.293  1.00  0.00    -0.000 C 
BRANCH  26  27
ATOM     27  C   UNL     1       5.228   1.943   8.685  1.00  0.00    -0.000 C 
BRANCH  27  28
ATOM     28  C   UNL     1       5.170   1.895   7.143  1.00  0.00    -0.000 C 
BRANCH  28  29
ATOM     29  C   UNL     1       4.923   3.281   6.529  1.00  0.00    -0.003 C 
ATOM     30  C   UNL     1       5.061   4.381   7.578  1.00  0.00     0.004 C 
ENDBRANCH  28  29
ENDBRANCH  27  28
ENDBRANCH  26  27
ENDBRANCH  25  26
ENDBRANCH  24  25
ENDBRANCH  23  24
ENDBRANCH  22  23
ENDBRANCH  21  22
ENDBRANCH  20  21
ENDBRANCH  19  20
ENDBRANCH  18  19
ENDBRANCH  17  18
ENDBRANCH   1  17
TORSDOF 26
ENDMDL
MODEL 2
REMARK VINA RESULT:    -4.104     13.192     14.541
REMARK INTER + INTRA:         -14.958
REMARK INTER:                 -11.098
REMARK INTRA:                  -3.861
REMARK UNBOUND:                -4.617
REMARK SMILES CCCCCCCCCCCCCCCCCCCCCCCCCCCC(=O)[O-]
REMARK SMILES IDX 15 1 16 2 17 3 18 4 19 5 20 6 21 7 22 8 23 9 24 10 25 11
REMARK SMILES IDX 26 12 27 13 28 14 29 15 30 16 14 17 13 18 12 19 11 20 10 21
REMARK SMILES IDX 9 22 8 23 7 24 6 25 5 26 4 27 3 28 2 29 1 30
REMARK H PARENT
REMARK Flexibility Score: inf
ROOT
ATOM      1  C   UNL     1       2.955   2.935  -5.907  1.00  0.00     0.000 C 
ENDROOT
BRANCH   1   2
ATOM      2  C   UNL     1       2.557   2.336  -7.268  1.00  0.00     0.000 C 
BRANCH   2   3
ATOM      3  C   UNL     1       1.390   1.330  -7.224  1.00  0.00     0.000 C 
BRANCH   3   4
ATOM      4  C   UNL     1       1.354   0.311  -8.378  1.00  0.00     0.000 C 
BRANCH   4   5
ATOM      5  C   UNL     1       0.930  -1.096  -7.923  1.00  0.00     0.000 C 
BRANCH   5   6
ATOM      6  C   UNL     1       0.771  -1.198  -6.399  1.00  0.00     0.000 C 
BRANCH   6   7
ATOM      7  C   UNL     1      -0.052  -2.426  -5.968  1.00  0.00     0.000 C 
BRANCH   7   8
ATOM      8  C   UNL     1      -1.441  -2.031  -5.421  1.00  0.00     0.000 C 
BRANCH   8   9
ATOM      9  C   UNL     1      -2.297  -1.234  -6.422  1.00  0.00     0.000 C 
BRANCH   9  10
ATOM     10  C   UNL     1      -3.758  -1.080  -5.968  1.00  0.00     0.000 C 
BRANCH  10  11
ATOM     11  C   UNL     1      -4.612  -2.331  -6.249  1.00  0.00     0.000 C 
BRANCH  11  12
ATOM     12  C   UNL     1      -4.910  -3.219  -5.025  1.00  0.00     0.006 C 
BRANCH  12  13
ATOM     13  C   UNL     1      -4.480  -4.686  -5.179  1.00  0.00     0.053 C 
BRANCH  13  14
ATOM     14  C   UNL     1      -3.837  -5.218  -3.936  1.00  0.00     0.041 C 
ATOM     15  O   UNL     1      -2.592  -5.399  -3.894  1.00  0.00    -0.550 OA
ATOM     16  O   UNL     1      -4.616  -5.534  -2.830  1.00  0.00    -0.550 OA
ENDBRANCH  13  14
ENDBRANCH  12  13
ENDBRANCH  11  12
ENDBRANCH  10  11
ENDBRANCH   9  10
ENDBRANCH   8   9
ENDBRANCH   7   8
ENDBRANCH   6   7
ENDBRANCH   5   6
ENDBRANCH   4   5
ENDBRANCH   3   4
ENDBRANCH   2   3
ENDBRANCH   1   2
BRANCH   1  17
ATOM     17  C   UNL     1       4.463   2.844  -5.630  1.00  0.00     0.000 C 
BRANCH  17  18
ATOM     18  C   UNL     1       5.271   3.152  -6.899  1.00  0.00     0.000 C 
BRANCH  18  19
ATOM     19  C   UNL     1       6.257   4.323  -6.724  1.00  0.00     0.000 C 
BRANCH  19  20
ATOM     20  C   UNL     1       6.612   4.670  -5.263  1.00  0.00     0.000 C 
BRANCH  20  21
ATOM     21  C   UNL     1       8.117   4.889  -4.994  1.00  0.00     0.000 C 
BRANCH  21  22
ATOM     22  C   UNL     1       8.665   4.111  -3.782  1.00  0.00    -0.000 C 
BRANCH  22  23
ATOM     23  C   UNL     1       9.259   2.731  -4.136  1.00  0.00    -0.000 C 
BRANCH  23  24
ATOM     24  C   UNL     1       9.698   2.615  -5.612  1.00  0.00    -0.000 C 
BRANCH  24  25
ATOM     25  C   UNL     1       8.890   1.579  -6.412  1.00  0.00    -0.000 C 
BRANCH  25  26
ATOM     26  C   UNL     1       7.847   0.847  -5.555  1.00  0.00    -0.000 C 
BRANCH  26  27
ATOM     27  C   UNL     1       7.066  -0.216  -6.345  1.00  0.00    -0.000 C 
BRANCH  27  28
ATOM     28  C   UNL     1       5.746  -0.643  -5.668  1.00  0.00    -0.000 C 
BRANCH  28  29
ATOM     29  C   UNL     1       4.593  -0.773  -6.675  1.00  0.00    -0.003 C 
ATOM     30  C   UNL     1       5.043  -0.381  -8.080  1.00  0.00     0.004 C 
ENDBRANCH  28  29
ENDBRANCH  27  28
ENDBRANCH  26  27
ENDBRANCH  25  26
ENDBRANCH  24  25
ENDBRANCH  23  24
ENDBRANCH  22  23
ENDBRANCH  21  22
ENDBRANCH  20  21
ENDBRANCH  19  20
ENDBRANCH  18  19
ENDBRANCH  17  18
ENDBRANCH   1  17
TORSDOF 26
ENDMDL
MODEL 3
REMARK VINA RESULT:    -3.949     13.737     15.271
REMARK INTER + INTRA:         -14.569
REMARK INTER:                  -9.934
REMARK INTRA:                  -4.636
REMARK UNBOUND:                -4.617
REMARK SMILES CCCCCCCCCCCCCCCCCCCCCCCCCCCC(=O)[O-]
REMARK SMILES IDX 15 1 16 2 17 3 18 4 19 5 20 6 21 7 22 8 23 9 24 10 25 11
REMARK SMILES IDX 26 12 27 13 28 14 29 15 30 16 14 17 13 18 12 19 11 20 10 21
REMARK SMILES IDX 9 22 8 23 7 24 6 25 5 26 4 27 3 28 2 29 1 30
REMARK H PARENT
REMARK Flexibility Score: inf
ROOT
ATOM      1  C   UNL     1       0.176  -4.067  -4.497  1.00  0.00     0.000 C 
ENDROOT
BRANCH   1   2
ATOM      2  C   UNL     1      -1.327  -3.739  -4.450  1.00  0.00     0.000 C 
BRANCH   2   3
ATOM      3  C   UNL     1      -1.758  -2.525  -5.297  1.00  0.00     0.000 C 
BRANCH   3   4
ATOM      4  C   UNL     1      -1.850  -2.779  -6.812  1.00  0.00     0.000 C 
BRANCH   4   5
ATOM      5  C   UNL     1      -2.293  -1.536  -7.604  1.00  0.00     0.000 C 
BRANCH   5   6
ATOM      6  C   UNL     1      -2.579  -0.331  -6.693  1.00  0.00     0.000 C 
BRANCH   6   7
ATOM      7  C   UNL     1      -4.074   0.034  -6.645  1.00  0.00     0.000 C 
BRANCH   7   8
ATOM      8  C   UNL     1      -4.899  -0.761  -7.681  1.00  0.00     0.000 C 
BRANCH   8   9
ATOM      9  C   UNL     1      -6.054  -1.570  -7.063  1.00  0.00     0.000 C 
BRANCH   9  10
ATOM     10  C   UNL     1      -5.573  -2.606  -6.034  1.00  0.00     0.000 C 
BRANCH  10  11
ATOM     11  C   UNL     1      -5.587  -4.047  -6.577  1.00  0.00     0.000 C 
BRANCH  11  12
ATOM     12  C   UNL     1      -4.555  -5.003  -5.945  1.00  0.00     0.006 C 
BRANCH  12  13
ATOM     13  C   UNL     1      -4.842  -5.375  -4.481  1.00  0.00     0.053 C 
BRANCH  13  14
ATOM     14  C   UNL     1      -5.653  -6.629  -4.368  1.00  0.00     0.041 C 
ATOM     15  O   UNL     1      -5.997  -7.256  -5.405  1.00  0.00    -0.550 OA
ATOM     16  O   UNL     1      -6.046  -7.093  -3.120  1.00  0.00    -0.550 OA
ENDBRANCH  13  14
ENDBRANCH  12  13
ENDBRANCH  11  12
ENDBRANCH  10  11
ENDBRANCH   9  10
ENDBRANCH   8   9
ENDBRANCH   7   8
ENDBRANCH   6   7
ENDBRANCH   5   6
ENDBRANCH   4   5
ENDBRANCH   3   4
ENDBRANCH   2   3
ENDBRANCH   1   2
BRANCH   1  17
ATOM     17  C   UNL     1       0.495  -5.292  -5.367  1.00  0.00     0.000 C 
BRANCH  17  18
ATOM     18  C   UNL     1       1.337  -4.891  -6.586  1.00  0.00     0.000 C 
BRANCH  18  19
ATOM     19  C   UNL     1       1.825  -3.430  -6.534  1.00  0.00     0.000 C 
BRANCH  19  20
ATOM     20  C   UNL     1       2.121  -2.786  -7.905  1.00  0.00     0.000 C 
BRANCH  20  21
ATOM     21  C   UNL     1       1.653  -1.322  -8.049  1.00  0.00     0.000 C 
BRANCH  21  22
ATOM     22  C   UNL     1       1.212  -0.664  -6.727  1.00  0.00    -0.000 C 
BRANCH  22  23
ATOM     23  C   UNL     1       1.985   0.625  -6.376  1.00  0.00    -0.000 C 
BRANCH  23  24
ATOM     24  C   UNL     1       3.284   0.800  -7.194  1.00  0.00    -0.000 C 
BRANCH  24  25
ATOM     25  C   UNL     1       4.441   1.408  -6.382  1.00  0.00    -0.000 C 
BRANCH  25  26
ATOM     26  C   UNL     1       5.726   0.570  -6.458  1.00  0.00    -0.000 C 
BRANCH  26  27
ATOM     27  C   UNL     1       5.680  -0.677  -5.559  1.00  0.00    -0.000 C 
BRANCH  27  28
ATOM     28  C   UNL     1       5.320  -1.973  -6.318  1.00  0.00    -0.000 C 
BRANCH  28  29
ATOM     29  C   UNL     1       6.338  -2.300  -7.421  1.00  0.00    -0.003 C 
ATOM     30  C   UNL     1       5.677  -2.310  -8.796  1.00  0.00     0.004 C 
ENDBRANCH  28  29
ENDBRANCH  27  28
ENDBRANCH  26  27
ENDBRANCH  25  26
ENDBRANCH  24  25
ENDBRANCH  23  24
ENDBRANCH  22  23
ENDBRANCH  21  22
ENDBRANCH  20  21
ENDBRANCH  19  20
ENDBRANCH  18  19
ENDBRANCH  17  18
ENDBRANCH   1  17
TORSDOF 26
ENDMDL
MODEL 4
REMARK VINA RESULT:    -3.912      2.968      9.112
REMARK INTER + INTRA:         -14.475
REMARK INTER:                  -9.178
REMARK INTRA:                  -5.297
REMARK UNBOUND:                -4.617
REMARK SMILES CCCCCCCCCCCCCCCCCCCCCCCCCCCC(=O)[O-]
REMARK SMILES IDX 15 1 16 2 17 3 18 4 19 5 20 6 21 7 22 8 23 9 24 10 25 11
REMARK SMILES IDX 26 12 27 13 28 14 29 15 30 16 14 17 13 18 12 19 11 20 10 21
REMARK SMILES IDX 9 22 8 23 7 24 6 25 5 26 4 27 3 28 2 29 1 30
REMARK H PARENT
REMARK Flexibility Score: inf
ROOT
ATOM      1  C   UNL     1      -0.369   2.207   7.831  1.00  0.00     0.000 C 
ENDROOT
BRANCH   1   2
ATOM      2  C   UNL     1       0.587   3.002   8.740  1.00  0.00     0.000 C 
BRANCH   2   3
ATOM      3  C   UNL     1       2.085   2.844   8.409  1.00  0.00     0.000 C 
BRANCH   3   4
ATOM      4  C   UNL     1       2.743   4.065   7.740  1.00  0.00     0.000 C 
BRANCH   4   5
ATOM      5  C   UNL     1       3.356   3.739   6.367  1.00  0.00     0.000 C 
BRANCH   5   6
ATOM      6  C   UNL     1       4.851   3.397   6.458  1.00  0.00     0.000 C 
BRANCH   6   7
ATOM      7  C   UNL     1       5.591   4.243   7.510  1.00  0.00     0.000 C 
BRANCH   7   8
ATOM      8  C   UNL     1       6.618   3.410   8.307  1.00  0.00     0.000 C 
BRANCH   8   9
ATOM      9  C   UNL     1       6.039   2.112   8.896  1.00  0.00     0.000 C 
BRANCH   9  10
ATOM     10  C   UNL     1       6.827   0.861   8.474  1.00  0.00     0.000 C 
BRANCH  10  11
ATOM     11  C   UNL     1       5.931  -0.376   8.270  1.00  0.00     0.000 C 
BRANCH  11  12
ATOM     12  C   UNL     1       4.416  -0.096   8.225  1.00  0.00     0.006 C 
BRANCH  12  13
ATOM     13  C   UNL     1       3.814  -0.059   6.811  1.00  0.00     0.053 C 
BRANCH  13  14
ATOM     14  C   UNL     1       2.405  -0.565   6.786  1.00  0.00     0.041 C 
ATOM     15  O   UNL     1       1.779  -0.644   5.696  1.00  0.00    -0.550 OA
ATOM     16  O   UNL     1       1.775  -0.931   7.969  1.00  0.00    -0.550 OA
ENDBRANCH  13  14
ENDBRANCH  12  13
ENDBRANCH  11  12
ENDBRANCH  10  11
ENDBRANCH   9  10
ENDBRANCH   8   9
ENDBRANCH   7   8
ENDBRANCH   6   7
ENDBRANCH   5   6
ENDBRANCH   4   5
ENDBRANCH   3   4
ENDBRANCH   2   3
ENDBRANCH   1   2
BRANCH   1  17
ATOM     17  C   UNL     1       0.011   2.288   6.345  1.00  0.00     0.000 C 
BRANCH  17  18
ATOM     18  C   UNL     1      -1.199   2.704   5.496  1.00  0.00     0.000 C 
BRANCH  18  19
ATOM     19  C   UNL     1      -1.313   4.230   5.308  1.00  0.00     0.000 C 
BRANCH  19  20
ATOM     20  C   UNL     1       0.029   4.988   5.251  1.00  0.00     0.000 C 
BRANCH  20  21
ATOM     21  C   UNL     1       0.067   6.303   6.059  1.00  0.00     0.000 C 
BRANCH  21  22
ATOM     22  C   UNL     1      -0.559   6.203   7.464  1.00  0.00    -0.000 C 
BRANCH  22  23
ATOM     23  C   UNL     1      -1.845   7.039   7.640  1.00  0.00    -0.000 C 
BRANCH  23  24
ATOM     24  C   UNL     1      -2.871   6.388   8.595  1.00  0.00    -0.000 C 
BRANCH  24  25
ATOM     25  C   UNL     1      -2.705   4.864   8.725  1.00  0.00    -0.000 C 
BRANCH  25  26
ATOM     26  C   UNL     1      -3.835   4.082   8.039  1.00  0.00    -0.000 C 
BRANCH  26  27
ATOM     27  C   UNL     1      -5.089   4.937   7.793  1.00  0.00    -0.000 C 
BRANCH  27  28
ATOM     28  C   UNL     1      -5.599   4.882   6.337  1.00  0.00    -0.000 C 
BRANCH  28  29
ATOM     29  C   UNL     1      -4.724   5.711   5.384  1.00  0.00    -0.003 C 
ATOM     30  C   UNL     1      -4.955   7.206   5.584  1.00  0.00     0.004 C 
ENDBRANCH  28  29
ENDBRANCH  27  28
ENDBRANCH  26  27
ENDBRANCH  25  26
ENDBRANCH  24  25
ENDBRANCH  23  24
ENDBRANCH  22  23
ENDBRANCH  21  22
ENDBRANCH  20  21
ENDBRANCH  19  20
ENDBRANCH  18  19
ENDBRANCH  17  18
ENDBRANCH   1  17
TORSDOF 26
ENDMDL
MODEL 5
REMARK VINA RESULT:    -3.879     13.719     16.903
REMARK INTER + INTRA:         -14.393
REMARK INTER:                  -9.785
REMARK INTRA:                  -4.609
REMARK UNBOUND:                -4.617
REMARK SMILES CCCCCCCCCCCCCCCCCCCCCCCCCCCC(=O)[O-]
REMARK SMILES IDX 15 1 16 2 17 3 18 4 19 5 20 6 21 7 22 8 23 9 24 10 25 11
REMARK SMILES IDX 26 12 27 13 28 14 29 15 30 16 14 17 13 18 12 19 11 20 10 21
REMARK SMILES IDX 9 22 8 23 7 24 6 25 5 26 4 27 3 28 2 29 1 30
REMARK H PARENT
REMARK Flexibility Score: inf
ROOT
ATOM      1  C   UNL     1      -3.032  -0.877  -5.863  1.00  0.00     0.000 C 
ENDROOT
BRANCH   1   2
ATOM      2  C   UNL     1      -2.052  -1.508  -6.868  1.00  0.00     0.000 C 
BRANCH   2   3
ATOM      3  C   UNL     1      -1.357  -2.796  -6.383  1.00  0.00     0.000 C 
BRANCH   3   4
ATOM      4  C   UNL     1      -1.333  -2.996  -4.857  1.00  0.00     0.000 C 
BRANCH   4   5
ATOM      5  C   UNL     1      -0.334  -4.077  -4.409  1.00  0.00     0.000 C 
BRANCH   5   6
ATOM      6  C   UNL     1       0.265  -4.851  -5.593  1.00  0.00     0.000 C 
BRANCH   6   7
ATOM      7  C   UNL     1       1.744  -4.504  -5.842  1.00  0.00     0.000 C 
BRANCH   7   8
ATOM      8  C   UNL     1       2.032  -4.224  -7.332  1.00  0.00     0.000 C 
BRANCH   8   9
ATOM      9  C   UNL     1       2.492  -2.782  -7.614  1.00  0.00     0.000 C 
BRANCH   9  10
ATOM     10  C   UNL     1       1.842  -1.754  -6.673  1.00  0.00     0.000 C 
BRANCH  10  11
ATOM     11  C   UNL     1       1.646  -0.375  -7.330  1.00  0.00     0.000 C 
BRANCH  11  12
ATOM     12  C   UNL     1       2.879   0.192  -8.061  1.00  0.00     0.006 C 
BRANCH  12  13
ATOM     13  C   UNL     1       3.251   1.631  -7.668  1.00  0.00     0.053 C 
BRANCH  13  14
ATOM     14  C   UNL     1       3.618   1.741  -6.220  1.00  0.00     0.041 C 
ATOM     15  O   UNL     1       4.447   0.939  -5.714  1.00  0.00    -0.550 OA
ATOM     16  O   UNL     1       3.030   2.716  -5.425  1.00  0.00    -0.550 OA
ENDBRANCH  13  14
ENDBRANCH  12  13
ENDBRANCH  11  12
ENDBRANCH  10  11
ENDBRANCH   9  10
ENDBRANCH   8   9
ENDBRANCH   7   8
ENDBRANCH   6   7
ENDBRANCH   5   6
ENDBRANCH   4   5
ENDBRANCH   3   4
ENDBRANCH   2   3
ENDBRANCH   1   2
BRANCH   1  17
ATOM     17  C   UNL     1      -4.103  -0.005  -6.535  1.00  0.00     0.000 C 
BRANCH  17  18
ATOM     18  C   UNL     1      -4.873  -0.807  -7.594  1.00  0.00     0.000 C 
BRANCH  18  19
ATOM     19  C   UNL     1      -6.246  -1.304  -7.100  1.00  0.00     0.000 C 
BRANCH  19  20
ATOM     20  C   UNL     1      -6.382  -2.836  -6.968  1.00  0.00     0.000 C 
BRANCH  20  21
ATOM     21  C   UNL     1      -5.132  -3.638  -7.389  1.00  0.00     0.000 C 
BRANCH  21  22
ATOM     22  C   UNL     1      -4.479  -4.441  -6.248  1.00  0.00    -0.000 C 
BRANCH  22  23
ATOM     23  C   UNL     1      -4.875  -3.964  -4.835  1.00  0.00    -0.000 C 
BRANCH  23  24
ATOM     24  C   UNL     1      -4.463  -4.948  -3.718  1.00  0.00    -0.000 C 
BRANCH  24  25
ATOM     25  C   UNL     1      -3.549  -6.084  -4.210  1.00  0.00    -0.000 C 
BRANCH  25  26
ATOM     26  C   UNL     1      -4.050  -7.475  -3.790  1.00  0.00    -0.000 C 
BRANCH  26  27
ATOM     27  C   UNL     1      -5.573  -7.524  -3.585  1.00  0.00    -0.000 C 
BRANCH  27  28
ATOM     28  C   UNL     1      -6.335  -8.173  -4.760  1.00  0.00    -0.000 C 
BRANCH  28  29
ATOM     29  C   UNL     1      -7.073  -7.134  -5.618  1.00  0.00    -0.003 C 
ATOM     30  C   UNL     1      -6.609  -7.190  -7.071  1.00  0.00     0.004 C 
ENDBRANCH  28  29
ENDBRANCH  27  28
ENDBRANCH  26  27
ENDBRANCH  25  26
ENDBRANCH  24  25
ENDBRANCH  23  24
ENDBRANCH  22  23
ENDBRANCH  21  22
ENDBRANCH  20  21
ENDBRANCH  19  20
ENDBRANCH  18  19
ENDBRANCH  17  18
ENDBRANCH   1  17
TORSDOF 26
ENDMDL
MODEL 6
REMARK VINA RESULT:    -3.868      3.015      9.570
REMARK INTER + INTRA:         -14.365
REMARK INTER:                  -9.995
REMARK INTRA:                  -4.370
REMARK UNBOUND:                -4.617
REMARK SMILES CCCCCCCCCCCCCCCCCCCCCCCCCCCC(=O)[O-]
REMARK SMILES IDX 15 1 16 2 17 3 18 4 19 5 20 6 21 7 22 8 23 9 24 10 25 11
REMARK SMILES IDX 26 12 27 13 28 14 29 15 30 16 14 17 13 18 12 19 11 20 10 21
REMARK SMILES IDX 9 22 8 23 7 24 6 25 5 26 4 27 3 28 2 29 1 30
REMARK H PARENT
REMARK Flexibility Score: inf
ROOT
ATOM      1  C   UNL     1       1.894   0.379   6.372  1.00  0.00     0.000 C 
ENDROOT
BRANCH   1   2
ATOM      2  C   UNL     1       2.443  -1.042   6.594  1.00  0.00     0.000 C 
BRANCH   2   3
ATOM      3  C   UNL     1       3.743  -1.119   7.420  1.00  0.00     0.000 C 
BRANCH   3   4
ATOM      4  C   UNL     1       3.554  -1.405   8.920  1.00  0.00     0.000 C 
BRANCH   4   5
ATOM      5  C   UNL     1       4.831  -1.933   9.597  1.00  0.00     0.000 C 
BRANCH   5   6
ATOM      6  C   UNL     1       5.331  -3.243   8.967  1.00  0.00     0.000 C 
BRANCH   6   7
ATOM      7  C   UNL     1       6.862  -3.283   8.819  1.00  0.00     0.000 C 
BRANCH   7   8
ATOM      8  C   UNL     1       7.315  -2.938   7.383  1.00  0.00     0.000 C 
BRANCH   8   9
ATOM      9  C   UNL     1       7.853  -1.504   7.232  1.00  0.00     0.000 C 
BRANCH   9  10
ATOM     10  C   UNL     1       8.503  -0.971   8.519  1.00  0.00     0.000 C 
BRANCH  10  11
ATOM     11  C   UNL     1       7.891   0.359   8.997  1.00  0.00     0.000 C 
BRANCH  11  12
ATOM     12  C   UNL     1       6.723   0.895   8.145  1.00  0.00     0.006 C 
BRANCH  12  13
ATOM     13  C   UNL     1       5.793   1.875   8.879  1.00  0.00     0.053 C 
BRANCH  13  14
ATOM     14  C   UNL     1       5.955   3.280   8.385  1.00  0.00     0.041 C 
ATOM     15  O   UNL     1       5.838   3.537   7.158  1.00  0.00    -0.550 OA
ATOM     16  O   UNL     1       6.254   4.301   9.277  1.00  0.00    -0.550 OA
ENDBRANCH  13  14
ENDBRANCH  12  13
ENDBRANCH  11  12
ENDBRANCH  10  11
ENDBRANCH   9  10
ENDBRANCH   8   9
ENDBRANCH   7   8
ENDBRANCH   6   7
ENDBRANCH   5   6
ENDBRANCH   4   5
ENDBRANCH   3   4
ENDBRANCH   2   3
ENDBRANCH   1   2
BRANCH   1  17
ATOM     17  C   UNL     1       2.964   1.468   6.536  1.00  0.00     0.000 C 
BRANCH  17  18
ATOM     18  C   UNL     1       2.410   2.664   7.323  1.00  0.00     0.000 C 
BRANCH  18  19
ATOM     19  C   UNL     1       2.016   3.853   6.426  1.00  0.00     0.000 C 
BRANCH  19  20
ATOM     20  C   UNL     1       0.593   4.406   6.654  1.00  0.00     0.000 C 
BRANCH  20  21
ATOM     21  C   UNL     1      -0.139   4.864   5.374  1.00  0.00     0.000 C 
BRANCH  21  22
ATOM     22  C   UNL     1      -1.005   3.774   4.714  1.00  0.00    -0.000 C 
BRANCH  22  23
ATOM     23  C   UNL     1      -1.310   2.571   5.631  1.00  0.00    -0.000 C 
BRANCH  23  24
ATOM     24  C   UNL     1      -2.802   2.171   5.641  1.00  0.00    -0.000 C 
BRANCH  24  25
ATOM     25  C   UNL     1      -3.446   2.243   7.036  1.00  0.00    -0.000 C 
BRANCH  25  26
ATOM     26  C   UNL     1      -2.837   3.344   7.917  1.00  0.00    -0.000 C 
BRANCH  26  27
ATOM     27  C   UNL     1      -3.752   4.573   8.054  1.00  0.00    -0.000 C 
BRANCH  27  28
ATOM     28  C   UNL     1      -3.332   5.760   7.162  1.00  0.00    -0.000 C 
BRANCH  28  29
ATOM     29  C   UNL     1      -3.976   5.694   5.768  1.00  0.00    -0.003 C 
ATOM     30  C   UNL     1      -5.416   5.194   5.850  1.00  0.00     0.004 C 
ENDBRANCH  28  29
ENDBRANCH  27  28
ENDBRANCH  26  27
ENDBRANCH  25  26
ENDBRANCH  24  25
ENDBRANCH  23  24
ENDBRANCH  22  23
ENDBRANCH  21  22
ENDBRANCH  20  21
ENDBRANCH  19  20
ENDBRANCH  18  19
ENDBRANCH  17  18
ENDBRANCH   1  17
TORSDOF 26
ENDMDL
MODEL 7
REMARK VINA RESULT:    -3.852     13.441     16.696
REMARK INTER + INTRA:         -14.325
REMARK INTER:                  -9.537
REMARK INTRA:                  -4.788
REMARK UNBOUND:                -4.617
REMARK SMILES CCCCCCCCCCCCCCCCCCCCCCCCCCCC(=O)[O-]
REMARK SMILES IDX 15 1 16 2 17 3 18 4 19 5 20 6 21 7 22 8 23 9 24 10 25 11
REMARK SMILES IDX 26 12 27 13 28 14 29 15 30 16 14 17 13 18 12 19 11 20 10 21
REMARK SMILES IDX 9 22 8 23 7 24 6 25 5 26 4 27 3 28 2 29 1 30
REMARK H PARENT
REMARK Flexibility Score: inf
ROOT
ATOM      1  C   UNL     1       1.193   1.219  -8.171  1.00  0.00     0.000 C 
ENDROOT
BRANCH   1   2
ATOM      2  C   UNL     1       1.472   0.610  -6.784  1.00  0.00     0.000 C 
BRANCH   2   3
ATOM      3  C   UNL     1       1.550  -0.930  -6.751  1.00  0.00     0.000 C 
BRANCH   3   4
ATOM      4  C   UNL     1       1.824  -1.604  -8.107  1.00  0.00     0.000 C 
BRANCH   4   5
ATOM      5  C   UNL     1       2.033  -3.124  -7.990  1.00  0.00     0.000 C 
BRANCH   5   6
ATOM      6  C   UNL     1       2.443  -3.554  -6.573  1.00  0.00     0.000 C 
BRANCH   6   7
ATOM      7  C   UNL     1       3.828  -4.225  -6.534  1.00  0.00     0.000 C 
BRANCH   7   8
ATOM      8  C   UNL     1       4.939  -3.238  -6.115  1.00  0.00     0.000 C 
BRANCH   8   9
ATOM      9  C   UNL     1       5.852  -2.806  -7.276  1.00  0.00     0.000 C 
BRANCH   9  10
ATOM     10  C   UNL     1       6.355  -1.360  -7.132  1.00  0.00     0.000 C 
BRANCH  10  11
ATOM     11  C   UNL     1       5.227  -0.316  -7.226  1.00  0.00     0.000 C 
BRANCH  11  12
ATOM     12  C   UNL     1       4.990   0.520  -5.952  1.00  0.00     0.006 C 
BRANCH  12  13
ATOM     13  C   UNL     1       5.415   1.992  -6.066  1.00  0.00     0.053 C 
BRANCH  13  14
ATOM     14  C   UNL     1       4.238   2.918  -6.078  1.00  0.00     0.041 C 
ATOM     15  O   UNL     1       3.887   3.482  -7.148  1.00  0.00    -0.550 OA
ATOM     16  O   UNL     1       3.541   3.174  -4.904  1.00  0.00    -0.550 OA
ENDBRANCH  13  14
ENDBRANCH  12  13
ENDBRANCH  11  12
ENDBRANCH  10  11
ENDBRANCH   9  10
ENDBRANCH   8   9
ENDBRANCH   7   8
ENDBRANCH   6   7
ENDBRANCH   5   6
ENDBRANCH   4   5
ENDBRANCH   3   4
ENDBRANCH   2   3
ENDBRANCH   1   2
BRANCH   1  17
ATOM     17  C   UNL     1      -0.264   1.672  -8.345  1.00  0.00     0.000 C 
BRANCH  17  18
ATOM     18  C   UNL     1      -1.099   0.576  -9.022  1.00  0.00     0.000 C 
BRANCH  18  19
ATOM     19  C   UNL     1      -1.961  -0.231  -8.032  1.00  0.00     0.000 C 
BRANCH  19  20
ATOM     20  C   UNL     1      -2.342   0.512  -6.734  1.00  0.00     0.000 C 
BRANCH  20  21
ATOM     21  C   UNL     1      -3.666   0.053  -6.088  1.00  0.00     0.000 C 
BRANCH  21  22
ATOM     22  C   UNL     1      -4.827  -0.136  -7.084  1.00  0.00    -0.000 C 
BRANCH  22  23
ATOM     23  C   UNL     1      -5.452  -1.547  -7.062  1.00  0.00    -0.000 C 
BRANCH  23  24
ATOM     24  C   UNL     1      -4.928  -2.466  -8.187  1.00  0.00    -0.000 C 
BRANCH  24  25
ATOM     25  C   UNL     1      -4.183  -3.707  -7.668  1.00  0.00    -0.000 C 
BRANCH  25  26
ATOM     26  C   UNL     1      -3.512  -3.472  -6.306  1.00  0.00    -0.000 C 
BRANCH  26  27
ATOM     27  C   UNL     1      -1.977  -3.543  -6.377  1.00  0.00    -0.000 C 
BRANCH  27  28
ATOM     28  C   UNL     1      -1.269  -2.702  -5.294  1.00  0.00    -0.000 C 
BRANCH  28  29
ATOM     29  C   UNL     1      -0.474  -3.575  -4.310  1.00  0.00    -0.003 C 
ATOM     30  C   UNL     1      -1.366  -4.636  -3.671  1.00  0.00     0.004 C 
ENDBRANCH  28  29
ENDBRANCH  27  28
ENDBRANCH  26  27
ENDBRANCH  25  26
ENDBRANCH  24  25
ENDBRANCH  23  24
ENDBRANCH  22  23
ENDBRANCH  21  22
ENDBRANCH  20  21
ENDBRANCH  19  20
ENDBRANCH  18  19
ENDBRANCH  17  18
ENDBRANCH   1  17
TORSDOF 26
ENDMDL
MODEL 8
REMARK VINA RESULT:    -3.793     13.783     16.716
REMARK INTER + INTRA:         -14.176
REMARK INTER:                  -9.115
REMARK INTRA:                  -5.062
REMARK UNBOUND:                -4.617
REMARK SMILES CCCCCCCCCCCCCCCCCCCCCCCCCCCC(=O)[O-]
REMARK SMILES IDX 15 1 16 2 17 3 18 4 19 5 20 6 21 7 22 8 23 9 24 10 25 11
REMARK SMILES IDX 26 12 27 13 28 14 29 15 30 16 14 17 13 18 12 19 11 20 10 21
REMARK SMILES IDX 9 22 8 23 7 24 6 25 5 26 4 27 3 28 2 29 1 30
REMARK H PARENT
REMARK Flexibility Score: inf
ROOT
ATOM      1  C   UNL     1      -3.440  -0.224  -5.999  1.00  0.00     0.000 C 
ENDROOT
BRANCH   1   2
ATOM      2  C   UNL     1      -4.662  -0.757  -6.769  1.00  0.00     0.000 C 
BRANCH   2   3
ATOM      3  C   UNL     1      -4.909  -0.099  -8.141  1.00  0.00     0.000 C 
BRANCH   3   4
ATOM      4  C   UNL     1      -4.922  -1.063  -9.341  1.00  0.00     0.000 C 
BRANCH   4   5
ATOM      5  C   UNL     1      -3.529  -1.268  -9.962  1.00  0.00     0.000 C 
BRANCH   5   6
ATOM      6  C   UNL     1      -2.757   0.051 -10.119  1.00  0.00     0.000 C 
BRANCH   6   7
ATOM      7  C   UNL     1      -1.329  -0.025  -9.551  1.00  0.00     0.000 C 
BRANCH   7   8
ATOM      8  C   UNL     1      -1.092   1.016  -8.436  1.00  0.00     0.000 C 
BRANCH   8   9
ATOM      9  C   UNL     1       0.088   0.672  -7.509  1.00  0.00     0.000 C 
BRANCH   9  10
ATOM     10  C   UNL     1       1.015  -0.404  -8.097  1.00  0.00     0.000 C 
BRANCH  10  11
ATOM     11  C   UNL     1       2.358  -0.518  -7.350  1.00  0.00     0.000 C 
BRANCH  11  12
ATOM     12  C   UNL     1       2.730   0.692  -6.470  1.00  0.00     0.006 C 
BRANCH  12  13
ATOM     13  C   UNL     1       3.923   1.514  -6.984  1.00  0.00     0.053 C 
BRANCH  13  14
ATOM     14  C   UNL     1       5.163   1.269  -6.180  1.00  0.00     0.041 C 
ATOM     15  O   UNL     1       6.001   2.194  -6.013  1.00  0.00    -0.550 OA
ATOM     16  O   UNL     1       5.401   0.016  -5.632  1.00  0.00    -0.550 OA
ENDBRANCH  13  14
ENDBRANCH  12  13
ENDBRANCH  11  12
ENDBRANCH  10  11
ENDBRANCH   9  10
ENDBRANCH   8   9
ENDBRANCH   7   8
ENDBRANCH   6   7
ENDBRANCH   5   6
ENDBRANCH   4   5
ENDBRANCH   3   4
ENDBRANCH   2   3
ENDBRANCH   1   2
BRANCH   1  17
ATOM     17  C   UNL     1      -2.447  -1.330  -5.612  1.00  0.00     0.000 C 
BRANCH  17  18
ATOM     18  C   UNL     1      -2.244  -2.313  -6.774  1.00  0.00     0.000 C 
BRANCH  18  19
ATOM     19  C   UNL     1      -0.903  -3.068  -6.705  1.00  0.00     0.000 C 
BRANCH  19  20
ATOM     20  C   UNL     1      -0.167  -2.979  -5.352  1.00  0.00     0.000 C 
BRANCH  20  21
ATOM     21  C   UNL     1      -0.189  -4.275  -4.514  1.00  0.00     0.000 C 
BRANCH  21  22
ATOM     22  C   UNL     1      -1.495  -4.498  -3.725  1.00  0.00    -0.000 C 
BRANCH  22  23
ATOM     23  C   UNL     1      -2.481  -5.473  -4.403  1.00  0.00    -0.000 C 
BRANCH  23  24
ATOM     24  C   UNL     1      -3.900  -5.429  -3.793  1.00  0.00    -0.000 C 
BRANCH  24  25
ATOM     25  C   UNL     1      -4.691  -4.167  -4.175  1.00  0.00    -0.000 C 
BRANCH  25  26
ATOM     26  C   UNL     1      -5.156  -4.175  -5.639  1.00  0.00    -0.000 C 
BRANCH  26  27
ATOM     27  C   UNL     1      -5.535  -5.579  -6.137  1.00  0.00    -0.000 C 
BRANCH  27  28
ATOM     28  C   UNL     1      -4.874  -5.958  -7.480  1.00  0.00    -0.000 C 
BRANCH  28  29
ATOM     29  C   UNL     1      -4.690  -4.742  -8.399  1.00  0.00    -0.003 C 
ATOM     30  C   UNL     1      -5.881  -4.577  -9.340  1.00  0.00     0.004 C 
ENDBRANCH  28  29
ENDBRANCH  27  28
ENDBRANCH  26  27
ENDBRANCH  25  26
ENDBRANCH  24  25
ENDBRANCH  23  24
ENDBRANCH  22  23
ENDBRANCH  21  22
ENDBRANCH  20  21
ENDBRANCH  19  20
ENDBRANCH  18  19
ENDBRANCH  17  18
ENDBRANCH   1  17
TORSDOF 26
ENDMDL
MODEL 9
REMARK VINA RESULT:    -3.784     13.807     16.742
REMARK INTER + INTRA:         -14.154
REMARK INTER:                  -9.362
REMARK INTRA:                  -4.792
REMARK UNBOUND:                -4.617
REMARK SMILES CCCCCCCCCCCCCCCCCCCCCCCCCCCC(=O)[O-]
REMARK SMILES IDX 15 1 16 2 17 3 18 4 19 5 20 6 21 7 22 8 23 9 24 10 25 11
REMARK SMILES IDX 26 12 27 13 28 14 29 15 30 16 14 17 13 18 12 19 11 20 10 21
REMARK SMILES IDX 9 22 8 23 7 24 6 25 5 26 4 27 3 28 2 29 1 30
REMARK H PARENT
REMARK Flexibility Score: inf
ROOT
ATOM      1  C   UNL     1      -0.641  -3.474  -4.475  1.00  0.00     0.000 C 
ENDROOT
BRANCH   1   2
ATOM      2  C   UNL     1       0.277  -4.604  -4.977  1.00  0.00     0.000 C 
BRANCH   2   3
ATOM      3  C   UNL     1       1.377  -4.162  -5.963  1.00  0.00     0.000 C 
BRANCH   3   4
ATOM      4  C   UNL     1       0.958  -4.127  -7.444  1.00  0.00     0.000 C 
BRANCH   4   5
ATOM      5  C   UNL     1       0.976  -2.709  -8.040  1.00  0.00     0.000 C 
BRANCH   5   6
ATOM      6  C   UNL     1       1.880  -1.751  -7.248  1.00  0.00     0.000 C 
BRANCH   6   7
ATOM      7  C   UNL     1       1.086  -0.643  -6.531  1.00  0.00     0.000 C 
BRANCH   7   8
ATOM      8  C   UNL     1       0.552   0.418  -7.517  1.00  0.00     0.000 C 
BRANCH   8   9
ATOM      9  C   UNL     1       1.398   1.703  -7.562  1.00  0.00     0.000 C 
BRANCH   9  10
ATOM     10  C   UNL     1       2.330   1.846  -6.348  1.00  0.00     0.000 C 
BRANCH  10  11
ATOM     11  C   UNL     1       3.790   2.144  -6.740  1.00  0.00     0.000 C 
BRANCH  11  12
ATOM     12  C   UNL     1       4.861   1.408  -5.910  1.00  0.00     0.006 C 
BRANCH  12  13
ATOM     13  C   UNL     1       5.047  -0.073  -6.275  1.00  0.00     0.053 C 
BRANCH  13  14
ATOM     14  C   UNL     1       6.490  -0.473  -6.288  1.00  0.00     0.041 C 
ATOM     15  O   UNL     1       6.868  -1.456  -6.978  1.00  0.00    -0.550 OA
ATOM     16  O   UNL     1       7.413   0.228  -5.523  1.00  0.00    -0.550 OA
ENDBRANCH  13  14
ENDBRANCH  12  13
ENDBRANCH  11  12
ENDBRANCH  10  11
ENDBRANCH   9  10
ENDBRANCH   8   9
ENDBRANCH   7   8
ENDBRANCH   6   7
ENDBRANCH   5   6
ENDBRANCH   4   5
ENDBRANCH   3   4
ENDBRANCH   2   3
ENDBRANCH   1   2
BRANCH   1  17
ATOM     17  C   UNL     1      -1.752  -3.116  -5.474  1.00  0.00     0.000 C 
BRANCH  17  18
ATOM     18  C   UNL     1      -2.203  -1.660  -5.288  1.00  0.00     0.000 C 
BRANCH  18  19
ATOM     19  C   UNL     1      -2.697  -1.005  -6.592  1.00  0.00     0.000 C 
BRANCH  19  20
ATOM     20  C   UNL     1      -2.760  -1.943  -7.816  1.00  0.00     0.000 C 
BRANCH  20  21
ATOM     21  C   UNL     1      -4.183  -2.226  -8.345  1.00  0.00     0.000 C 
BRANCH  21  22
ATOM     22  C   UNL     1      -5.287  -1.380  -7.681  1.00  0.00    -0.000 C 
BRANCH  22  23
ATOM     23  C   UNL     1      -6.156  -2.159  -6.672  1.00  0.00    -0.000 C 
BRANCH  23  24
ATOM     24  C   UNL     1      -5.596  -3.559  -6.336  1.00  0.00    -0.000 C 
BRANCH  24  25
ATOM     25  C   UNL     1      -5.176  -3.715  -4.864  1.00  0.00    -0.000 C 
BRANCH  25  26
ATOM     26  C   UNL     1      -5.107  -5.182  -4.416  1.00  0.00    -0.000 C 
BRANCH  26  27
ATOM     27  C   UNL     1      -3.782  -5.532  -3.719  1.00  0.00    -0.000 C 
BRANCH  27  28
ATOM     28  C   UNL     1      -2.892  -6.497  -4.531  1.00  0.00    -0.000 C 
BRANCH  28  29
ATOM     29  C   UNL     1      -3.364  -6.635  -5.987  1.00  0.00    -0.003 C 
ATOM     30  C   UNL     1      -2.196  -6.499  -6.960  1.00  0.00     0.004 C 
ENDBRANCH  28  29
ENDBRANCH  27  28
ENDBRANCH  26  27
ENDBRANCH  25  26
ENDBRANCH  24  25
ENDBRANCH  23  24
ENDBRANCH  22  23
ENDBRANCH  21  22
ENDBRANCH  20  21
ENDBRANCH  19  20
ENDBRANCH  18  19
ENDBRANCH  17  18
ENDBRANCH   1  17
TORSDOF 26
ENDMDL
