MODEL 1
REMARK VINA RESULT:    -7.300      0.000      0.000
REMARK INTER + INTRA:          -9.117
REMARK INTER:                  -8.794
REMARK INTRA:                  -0.323
REMARK UNBOUND:                -0.323
REMARK SMILES O=c1c(O)c(-c2ccc(O)c(O)c2)oc2cc(O)cc(O)c12
REMARK SMILES IDX 5 1 3 2 2 3 1 4 22 5 20 6 19 7 17 8 16 9 15 10 14 11 6 12
REMARK SMILES IDX 7 13 8 14 9 15 13 16 11 17 10 18 12 20 4 22 21 24 18 26
REMARK H PARENT 10 19 12 21 4 23 21 25 18 27
REMARK Flexibility Score: inf
ROOT
ATOM      1  C   UNL     1     115.314 -49.235  30.439  1.00  0.00     0.180 A 
ATOM      2  C   UNL     1     114.035 -49.152  29.862  1.00  0.00     0.208 A 
ATOM      3  C   UNL     1     112.912 -49.460  30.647  1.00  0.00     0.238 A 
ATOM      4  O   UNL     1     111.767 -49.332  30.139  1.00  0.00    -0.285 OA
ATOM      5  C   UNL     1     113.083 -49.863  31.993  1.00  0.00     0.111 A 
ATOM      6  C   UNL     1     112.019 -50.237  32.867  1.00  0.00     0.134 A 
ATOM      7  C   UNL     1     112.291 -50.491  34.218  1.00  0.00     0.093 A 
ATOM      8  C   UNL     1     113.596 -50.449  34.709  1.00  0.00     0.123 A 
ATOM      9  C   UNL     1     114.651 -50.142  33.849  1.00  0.00     0.094 A 
ATOM     10  C   UNL     1     114.406 -49.849  32.506  1.00  0.00     0.146 A 
ATOM     11  O   UNL     1     115.437 -49.551  31.724  1.00  0.00    -0.452 OA
ENDROOT
BRANCH   1  12
ATOM     12  C   UNL     1     116.547 -48.950  29.669  1.00  0.00     0.025 A 
ATOM     13  C   UNL     1     117.161 -49.981  28.943  1.00  0.00     0.016 A 
ATOM     14  C   UNL     1     118.314 -49.731  28.193  1.00  0.00     0.051 A 
ATOM     15  C   UNL     1     118.860 -48.444  28.146  1.00  0.00     0.157 A 
ATOM     16  C   UNL     1     117.086 -47.653  29.605  1.00  0.00     0.062 A 
ATOM     17  C   UNL     1     118.242 -47.397  28.852  1.00  0.00     0.158 A 
BRANCH  15  18
ATOM     18  O   UNL     1     120.012 -48.225  27.392  1.00  0.00    -0.504 OA
ATOM     19  H   UNL     1     120.279 -47.300  27.075  1.00  0.00     0.293 HD
ENDBRANCH  15  18
BRANCH  17  20
ATOM     20  O   UNL     1     118.773 -46.111  28.797  1.00  0.00    -0.504 OA
ATOM     21  H   UNL     1     118.965 -45.652  27.914  1.00  0.00     0.293 HD
ENDBRANCH  17  20
ENDBRANCH   1  12
BRANCH   2  22
ATOM     22  O   UNL     1     113.889 -48.732  28.537  1.00  0.00    -0.502 OA
ATOM     23  H   UNL     1     114.322 -47.887  28.184  1.00  0.00     0.293 HD
ENDBRANCH   2  22
BRANCH   6  24
ATOM     24  O   UNL     1     110.692 -50.398  32.458  1.00  0.00    -0.507 OA
ATOM     25  H   UNL     1     110.400 -50.927  31.650  1.00  0.00     0.293 HD
ENDBRANCH   6  24
BRANCH   8  26
ATOM     26  O   UNL     1     113.832 -50.723  36.055  1.00  0.00    -0.508 OA
ATOM     27  H   UNL     1     114.580 -50.268  36.565  1.00  0.00     0.293 HD
ENDBRANCH   8  26
TORSDOF 6
ENDMDL
MODEL 2
REMARK VINA RESULT:    -7.297      1.392      2.986
REMARK INTER + INTRA:          -9.113
REMARK INTER:                  -8.889
REMARK INTRA:                  -0.224
REMARK UNBOUND:                -0.323
REMARK SMILES O=c1c(O)c(-c2ccc(O)c(O)c2)oc2cc(O)cc(O)c12
REMARK SMILES IDX 5 1 3 2 2 3 1 4 22 5 20 6 19 7 17 8 16 9 15 10 14 11 6 12
REMARK SMILES IDX 7 13 8 14 9 15 13 16 11 17 10 18 12 20 4 22 21 24 18 26
REMARK H PARENT 10 19 12 21 4 23 21 25 18 27
REMARK Flexibility Score: inf
ROOT
ATOM      1  C   UNL     1     115.299 -48.974  30.461  1.00  0.00     0.180 A 
ATOM      2  C   UNL     1     115.294 -49.783  31.610  1.00  0.00     0.208 A 
ATOM      3  C   UNL     1     114.101 -49.927  32.337  1.00  0.00     0.238 A 
ATOM      4  O   UNL     1     114.090 -50.695  33.334  1.00  0.00    -0.285 OA
ATOM      5  C   UNL     1     112.933 -49.246  31.916  1.00  0.00     0.111 A 
ATOM      6  C   UNL     1     111.681 -49.288  32.599  1.00  0.00     0.134 A 
ATOM      7  C   UNL     1     110.558 -48.682  32.020  1.00  0.00     0.093 A 
ATOM      8  C   UNL     1     110.657 -47.983  30.818  1.00  0.00     0.123 A 
ATOM      9  C   UNL     1     111.889 -47.886  30.172  1.00  0.00     0.094 A 
ATOM     10  C   UNL     1     113.019 -48.510  30.706  1.00  0.00     0.146 A 
ATOM     11  O   UNL     1     114.171 -48.402  30.053  1.00  0.00    -0.452 OA
ENDROOT
BRANCH   1  12
ATOM     12  C   UNL     1     116.523 -48.754  29.656  1.00  0.00     0.025 A 
ATOM     13  C   UNL     1     117.013 -49.790  28.847  1.00  0.00     0.016 A 
ATOM     14  C   UNL     1     118.155 -49.598  28.064  1.00  0.00     0.051 A 
ATOM     15  C   UNL     1     118.813 -48.364  28.067  1.00  0.00     0.157 A 
ATOM     16  C   UNL     1     117.175 -47.508  29.642  1.00  0.00     0.062 A 
ATOM     17  C   UNL     1     118.320 -47.311  28.856  1.00  0.00     0.158 A 
BRANCH  15  18
ATOM     18  O   UNL     1     119.951 -48.203  27.278  1.00  0.00    -0.504 OA
ATOM     19  H   UNL     1     120.064 -47.415  26.651  1.00  0.00     0.293 HD
ENDBRANCH  15  18
BRANCH  17  20
ATOM     20  O   UNL     1     118.963 -46.076  28.852  1.00  0.00    -0.504 OA
ATOM     21  H   UNL     1     119.495 -45.751  29.651  1.00  0.00     0.293 HD
ENDBRANCH  17  20
ENDBRANCH   1  12
BRANCH   2  22
ATOM     22  O   UNL     1     116.452 -50.462  31.996  1.00  0.00    -0.502 OA
ATOM     23  H   UNL     1     116.798 -51.275  31.498  1.00  0.00     0.293 HD
ENDBRANCH   2  22
BRANCH   6  24
ATOM     24  O   UNL     1     111.494 -49.882  33.851  1.00  0.00    -0.507 OA
ATOM     25  H   UNL     1     111.859 -50.783  34.119  1.00  0.00     0.293 HD
ENDBRANCH   6  24
BRANCH   8  26
ATOM     26  O   UNL     1     109.522 -47.380  30.279  1.00  0.00    -0.508 OA
ATOM     27  H   UNL     1     108.727 -47.928  29.971  1.00  0.00     0.293 HD
ENDBRANCH   8  26
TORSDOF 6
ENDMDL
MODEL 3
REMARK VINA RESULT:    -7.210      2.352      6.767
REMARK INTER + INTRA:          -9.008
REMARK INTER:                  -8.954
REMARK INTRA:                  -0.054
REMARK UNBOUND:                -0.323
REMARK SMILES O=c1c(O)c(-c2ccc(O)c(O)c2)oc2cc(O)cc(O)c12
REMARK SMILES IDX 5 1 3 2 2 3 1 4 22 5 20 6 19 7 17 8 16 9 15 10 14 11 6 12
REMARK SMILES IDX 7 13 8 14 9 15 13 16 11 17 10 18 12 20 4 22 21 24 18 26
REMARK H PARENT 10 19 12 21 4 23 21 25 18 27
REMARK Flexibility Score: inf
ROOT
ATOM      1  C   UNL     1     113.789 -48.501  30.283  1.00  0.00     0.180 A 
ATOM      2  C   UNL     1     113.946 -49.652  29.492  1.00  0.00     0.208 A 
ATOM      3  C   UNL     1     115.206 -49.934  28.941  1.00  0.00     0.238 A 
ATOM      4  O   UNL     1     115.352 -50.994  28.278  1.00  0.00    -0.285 OA
ATOM      5  C   UNL     1     116.289 -49.052  29.173  1.00  0.00     0.111 A 
ATOM      6  C   UNL     1     117.599 -49.218  28.631  1.00  0.00     0.134 A 
ATOM      7  C   UNL     1     118.627 -48.356  29.033  1.00  0.00     0.093 A 
ATOM      8  C   UNL     1     118.379 -47.297  29.906  1.00  0.00     0.123 A 
ATOM      9  C   UNL     1     117.089 -47.091  30.396  1.00  0.00     0.094 A 
ATOM     10  C   UNL     1     116.051 -47.955  30.040  1.00  0.00     0.146 A 
ATOM     11  O   UNL     1     114.840 -47.729  30.537  1.00  0.00    -0.452 OA
ENDROOT
BRANCH   1  12
ATOM     12  C   UNL     1     112.486 -48.124  30.878  1.00  0.00     0.025 A 
ATOM     13  C   UNL     1     111.363 -47.985  30.049  1.00  0.00     0.016 A 
ATOM     14  C   UNL     1     110.119 -47.649  30.591  1.00  0.00     0.051 A 
ATOM     15  C   UNL     1     109.977 -47.463  31.970  1.00  0.00     0.157 A 
ATOM     16  C   UNL     1     112.336 -47.956  32.266  1.00  0.00     0.062 A 
ATOM     17  C   UNL     1     111.089 -47.622  32.814  1.00  0.00     0.158 A 
BRANCH  15  18
ATOM     18  O   UNL     1     108.724 -47.126  32.482  1.00  0.00    -0.504 OA
ATOM     19  H   UNL     1     108.606 -46.400  33.178  1.00  0.00     0.293 HD
ENDBRANCH  15  18
BRANCH  17  20
ATOM     20  O   UNL     1     110.951 -47.452  34.189  1.00  0.00    -0.504 OA
ATOM     21  H   UNL     1     110.199 -46.897  34.583  1.00  0.00     0.293 HD
ENDBRANCH  17  20
ENDBRANCH   1  12
BRANCH   2  22
ATOM     22  O   UNL     1     112.868 -50.519  29.293  1.00  0.00    -0.502 OA
ATOM     23  H   UNL     1     112.236 -50.430  28.506  1.00  0.00     0.293 HD
ENDBRANCH   2  22
BRANCH   6  24
ATOM     24  O   UNL     1     117.933 -50.188  27.681  1.00  0.00    -0.507 OA
ATOM     25  H   UNL     1     117.690 -51.164  27.747  1.00  0.00     0.293 HD
ENDBRANCH   6  24
BRANCH   8  26
ATOM     26  O   UNL     1     119.423 -46.451  30.273  1.00  0.00    -0.508 OA
ATOM     27  H   UNL     1     119.820 -46.473  31.205  1.00  0.00     0.293 HD
ENDBRANCH   8  26
TORSDOF 6
ENDMDL
MODEL 4
REMARK VINA RESULT:    -7.013      1.994      2.611
REMARK INTER + INTRA:          -8.771
REMARK INTER:                  -8.446
REMARK INTRA:                  -0.325
REMARK UNBOUND:                -0.323
REMARK SMILES O=c1c(O)c(-c2ccc(O)c(O)c2)oc2cc(O)cc(O)c12
REMARK SMILES IDX 5 1 3 2 2 3 1 4 22 5 20 6 19 7 17 8 16 9 15 10 14 11 6 12
REMARK SMILES IDX 7 13 8 14 9 15 13 16 11 17 10 18 12 20 4 22 21 24 18 26
REMARK H PARENT 10 19 12 21 4 23 21 25 18 27
REMARK Flexibility Score: inf
ROOT
ATOM      1  C   UNL     1     113.889 -49.169  30.783  1.00  0.00     0.180 A 
ATOM      2  C   UNL     1     113.068 -48.061  30.512  1.00  0.00     0.208 A 
ATOM      3  C   UNL     1     111.887 -47.891  31.250  1.00  0.00     0.238 A 
ATOM      4  O   UNL     1     111.184 -46.869  31.040  1.00  0.00    -0.285 OA
ATOM      5  C   UNL     1     111.532 -48.841  32.239  1.00  0.00     0.111 A 
ATOM      6  C   UNL     1     110.337 -48.790  33.018  1.00  0.00     0.134 A 
ATOM      7  C   UNL     1     110.152 -49.710  34.059  1.00  0.00     0.093 A 
ATOM      8  C   UNL     1     111.085 -50.716  34.305  1.00  0.00     0.123 A 
ATOM      9  C   UNL     1     112.228 -50.811  33.510  1.00  0.00     0.094 A 
ATOM     10  C   UNL     1     112.458 -49.886  32.488  1.00  0.00     0.146 A 
ATOM     11  O   UNL     1     113.563 -50.006  31.762  1.00  0.00    -0.452 OA
ENDROOT
BRANCH   1  12
ATOM     12  C   UNL     1     115.138 -49.429  30.030  1.00  0.00     0.025 A 
ATOM     13  C   UNL     1     116.370 -49.054  30.586  1.00  0.00     0.016 A 
ATOM     14  C   UNL     1     117.563 -49.308  29.901  1.00  0.00     0.051 A 
ATOM     15  C   UNL     1     117.541 -49.953  28.661  1.00  0.00     0.157 A 
ATOM     16  C   UNL     1     115.120 -50.096  28.792  1.00  0.00     0.062 A 
ATOM     17  C   UNL     1     116.315 -50.354  28.104  1.00  0.00     0.158 A 
BRANCH  15  18
ATOM     18  O   UNL     1     118.746 -50.191  28.001  1.00  0.00    -0.504 OA
ATOM     19  H   UNL     1     119.642 -49.988  28.428  1.00  0.00     0.293 HD
ENDBRANCH  15  18
BRANCH  17  20
ATOM     20  O   UNL     1     116.289 -51.010  26.875  1.00  0.00    -0.504 OA
ATOM     21  H   UNL     1     115.415 -51.238  26.414  1.00  0.00     0.293 HD
ENDBRANCH  17  20
ENDBRANCH   1  12
BRANCH   2  22
ATOM     22  O   UNL     1     113.449 -47.125  29.546  1.00  0.00    -0.502 OA
ATOM     23  H   UNL     1     114.206 -46.468  29.694  1.00  0.00     0.293 HD
ENDBRANCH   2  22
BRANCH   6  24
ATOM     24  O   UNL     1     109.298 -47.882  32.797  1.00  0.00    -0.507 OA
ATOM     25  H   UNL     1     109.105 -47.078  33.376  1.00  0.00     0.293 HD
ENDBRANCH   6  24
BRANCH   8  26
ATOM     26  O   UNL     1     110.861 -51.623  35.338  1.00  0.00    -0.508 OA
ATOM     27  H   UNL     1     110.672 -51.312  36.284  1.00  0.00     0.293 HD
ENDBRANCH   8  26
TORSDOF 6
ENDMDL
MODEL 5
REMARK VINA RESULT:    -6.896      2.387      3.573
REMARK INTER + INTRA:          -8.629
REMARK INTER:                  -8.372
REMARK INTRA:                  -0.258
REMARK UNBOUND:                -0.323
REMARK SMILES O=c1c(O)c(-c2ccc(O)c(O)c2)oc2cc(O)cc(O)c12
REMARK SMILES IDX 5 1 3 2 2 3 1 4 22 5 20 6 19 7 17 8 16 9 15 10 14 11 6 12
REMARK SMILES IDX 7 13 8 14 9 15 13 16 11 17 10 18 12 20 4 22 21 24 18 26
REMARK H PARENT 10 19 12 21 4 23 21 25 18 27
REMARK Flexibility Score: inf
ROOT
ATOM      1  C   UNL     1     115.715 -47.662  30.944  1.00  0.00     0.180 A 
ATOM      2  C   UNL     1     115.824 -47.441  32.327  1.00  0.00     0.208 A 
ATOM      3  C   UNL     1     114.657 -47.227  33.077  1.00  0.00     0.238 A 
ATOM      4  O   UNL     1     114.757 -47.083  34.324  1.00  0.00    -0.285 OA
ATOM      5  C   UNL     1     113.396 -47.220  32.432  1.00  0.00     0.111 A 
ATOM      6  C   UNL     1     112.153 -46.973  33.088  1.00  0.00     0.134 A 
ATOM      7  C   UNL     1     110.956 -47.120  32.375  1.00  0.00     0.093 A 
ATOM      8  C   UNL     1     110.960 -47.440  31.018  1.00  0.00     0.123 A 
ATOM      9  C   UNL     1     112.173 -47.626  30.354  1.00  0.00     0.094 A 
ATOM     10  C   UNL     1     113.382 -47.521  31.046  1.00  0.00     0.146 A 
ATOM     11  O   UNL     1     114.513 -47.715  30.378  1.00  0.00    -0.452 OA
ENDROOT
BRANCH   1  12
ATOM     12  C   UNL     1     116.901 -47.871  30.082  1.00  0.00     0.025 A 
ATOM     13  C   UNL     1     117.129 -49.134  29.515  1.00  0.00     0.016 A 
ATOM     14  C   UNL     1     118.232 -49.348  28.682  1.00  0.00     0.051 A 
ATOM     15  C   UNL     1     119.111 -48.300  28.392  1.00  0.00     0.157 A 
ATOM     16  C   UNL     1     117.775 -46.814  29.772  1.00  0.00     0.062 A 
ATOM     17  C   UNL     1     118.881 -47.025  28.935  1.00  0.00     0.158 A 
BRANCH  15  18
ATOM     18  O   UNL     1     120.203 -48.544  27.560  1.00  0.00    -0.504 OA
ATOM     19  H   UNL     1     120.147 -48.440  26.554  1.00  0.00     0.293 HD
ENDBRANCH  15  18
BRANCH  17  20
ATOM     20  O   UNL     1     119.745 -45.974  28.637  1.00  0.00    -0.504 OA
ATOM     21  H   UNL     1     120.260 -45.940  27.764  1.00  0.00     0.293 HD
ENDBRANCH  17  20
ENDBRANCH   1  12
BRANCH   2  22
ATOM     22  O   UNL     1     117.076 -47.474  32.946  1.00  0.00    -0.502 OA
ATOM     23  H   UNL     1     117.829 -48.068  32.620  1.00  0.00     0.293 HD
ENDBRANCH   2  22
BRANCH   6  24
ATOM     24  O   UNL     1     112.040 -46.558  34.418  1.00  0.00    -0.507 OA
ATOM     25  H   UNL     1     112.733 -46.016  34.911  1.00  0.00     0.293 HD
ENDBRANCH   6  24
BRANCH   8  26
ATOM     26  O   UNL     1     109.751 -47.563  30.337  1.00  0.00    -0.508 OA
ATOM     27  H   UNL     1     109.493 -48.423  29.866  1.00  0.00     0.293 HD
ENDBRANCH   8  26
TORSDOF 6
ENDMDL
MODEL 6
REMARK VINA RESULT:    -6.874      1.268      3.031
REMARK INTER + INTRA:          -8.603
REMARK INTER:                  -8.279
REMARK INTRA:                  -0.325
REMARK UNBOUND:                -0.323
REMARK SMILES O=c1c(O)c(-c2ccc(O)c(O)c2)oc2cc(O)cc(O)c12
REMARK SMILES IDX 5 1 3 2 2 3 1 4 22 5 20 6 19 7 17 8 16 9 15 10 14 11 6 12
REMARK SMILES IDX 7 13 8 14 9 15 13 16 11 17 10 18 12 20 4 22 21 24 18 26
REMARK H PARENT 10 19 12 21 4 23 21 25 18 27
REMARK Flexibility Score: inf
ROOT
ATOM      1  C   UNL     1     116.519 -49.391  31.471  1.00  0.00     0.180 A 
ATOM      2  C   UNL     1     117.035 -49.733  32.732  1.00  0.00     0.208 A 
ATOM      3  C   UNL     1     116.145 -50.054  33.769  1.00  0.00     0.238 A 
ATOM      4  O   UNL     1     116.615 -50.411  34.881  1.00  0.00    -0.285 OA
ATOM      5  C   UNL     1     114.749 -50.013  33.536  1.00  0.00     0.111 A 
ATOM      6  C   UNL     1     113.755 -50.280  34.525  1.00  0.00     0.134 A 
ATOM      7  C   UNL     1     112.406 -50.338  34.151  1.00  0.00     0.093 A 
ATOM      8  C   UNL     1     112.011 -50.076  32.839  1.00  0.00     0.123 A 
ATOM      9  C   UNL     1     112.970 -49.756  31.878  1.00  0.00     0.094 A 
ATOM     10  C   UNL     1     114.326 -49.725  32.213  1.00  0.00     0.146 A 
ATOM     11  O   UNL     1     115.206 -49.426  31.265  1.00  0.00    -0.452 OA
ENDROOT
BRANCH   1  12
ATOM     12  C   UNL     1     117.393 -49.016  30.335  1.00  0.00     0.025 A 
ATOM     13  C   UNL     1     117.871 -50.015  29.473  1.00  0.00     0.016 A 
ATOM     14  C   UNL     1     118.681 -49.681  28.383  1.00  0.00     0.051 A 
ATOM     15  C   UNL     1     119.011 -48.346  28.131  1.00  0.00     0.157 A 
ATOM     16  C   UNL     1     117.710 -47.672  30.068  1.00  0.00     0.062 A 
ATOM     17  C   UNL     1     118.520 -47.335  28.974  1.00  0.00     0.158 A 
BRANCH  15  18
ATOM     18  O   UNL     1     119.823 -48.045  27.038  1.00  0.00    -0.504 OA
ATOM     19  H   UNL     1     119.871 -48.644  26.223  1.00  0.00     0.293 HD
ENDBRANCH  15  18
BRANCH  17  20
ATOM     20  O   UNL     1     118.834 -46.002  28.720  1.00  0.00    -0.504 OA
ATOM     21  H   UNL     1     119.794 -45.675  28.705  1.00  0.00     0.293 HD
ENDBRANCH  17  20
ENDBRANCH   1  12
BRANCH   2  22
ATOM     22  O   UNL     1     118.417 -49.787  32.933  1.00  0.00    -0.502 OA
ATOM     23  H   UNL     1     119.057 -50.120  32.222  1.00  0.00     0.293 HD
ENDBRANCH   2  22
BRANCH   6  24
ATOM     24  O   UNL     1     114.034 -50.466  35.882  1.00  0.00    -0.507 OA
ATOM     25  H   UNL     1     113.348 -50.710  36.581  1.00  0.00     0.293 HD
ENDBRANCH   6  24
BRANCH   8  26
ATOM     26  O   UNL     1     110.659 -50.128  32.506  1.00  0.00    -0.508 OA
ATOM     27  H   UNL     1     110.191 -51.010  32.329  1.00  0.00     0.293 HD
ENDBRANCH   8  26
TORSDOF 6
ENDMDL
MODEL 7
REMARK VINA RESULT:    -6.852      4.129      8.090
REMARK INTER + INTRA:          -8.577
REMARK INTER:                  -8.376
REMARK INTRA:                  -0.201
REMARK UNBOUND:                -0.323
REMARK SMILES O=c1c(O)c(-c2ccc(O)c(O)c2)oc2cc(O)cc(O)c12
REMARK SMILES IDX 5 1 3 2 2 3 1 4 22 5 20 6 19 7 17 8 16 9 15 10 14 11 6 12
REMARK SMILES IDX 7 13 8 14 9 15 13 16 11 17 10 18 12 20 4 22 21 24 18 26
REMARK H PARENT 10 19 12 21 4 23 21 25 18 27
REMARK Flexibility Score: inf
ROOT
ATOM      1  C   UNL     1     110.531 -47.416  31.347  1.00  0.00     0.180 A 
ATOM      2  C   UNL     1     111.282 -47.637  32.515  1.00  0.00     0.208 A 
ATOM      3  C   UNL     1     112.482 -48.360  32.427  1.00  0.00     0.238 A 
ATOM      4  O   UNL     1     113.176 -48.509  33.467  1.00  0.00    -0.285 OA
ATOM      5  C   UNL     1     112.908 -48.868  31.176  1.00  0.00     0.111 A 
ATOM      6  C   UNL     1     114.086 -49.649  30.978  1.00  0.00     0.134 A 
ATOM      7  C   UNL     1     114.480 -49.987  29.677  1.00  0.00     0.093 A 
ATOM      8  C   UNL     1     113.705 -49.629  28.574  1.00  0.00     0.123 A 
ATOM      9  C   UNL     1     112.520 -48.917  28.762  1.00  0.00     0.094 A 
ATOM     10  C   UNL     1     112.120 -48.534  30.044  1.00  0.00     0.146 A 
ATOM     11  O   UNL     1     110.991 -47.848  30.178  1.00  0.00    -0.452 OA
ENDROOT
BRANCH   1  12
ATOM     12  C   UNL     1     109.244 -46.684  31.364  1.00  0.00     0.025 A 
ATOM     13  C   UNL     1     109.127 -45.477  30.659  1.00  0.00     0.016 A 
ATOM     14  C   UNL     1     107.915 -44.780  30.644  1.00  0.00     0.051 A 
ATOM     15  C   UNL     1     106.800 -45.287  31.319  1.00  0.00     0.157 A 
ATOM     16  C   UNL     1     108.116 -47.203  32.025  1.00  0.00     0.062 A 
ATOM     17  C   UNL     1     106.898 -46.507  32.010  1.00  0.00     0.158 A 
BRANCH  15  18
ATOM     18  O   UNL     1     105.606 -44.568  31.289  1.00  0.00    -0.504 OA
ATOM     19  H   UNL     1     105.445 -43.767  31.888  1.00  0.00     0.293 HD
ENDBRANCH  15  18
BRANCH  17  20
ATOM     20  O   UNL     1     105.787 -47.024  32.672  1.00  0.00    -0.504 OA
ATOM     21  H   UNL     1     105.389 -46.562  33.482  1.00  0.00     0.293 HD
ENDBRANCH  17  20
ENDBRANCH   1  12
BRANCH   2  22
ATOM     22  O   UNL     1     110.853 -47.109  33.735  1.00  0.00    -0.502 OA
ATOM     23  H   UNL     1     109.912 -46.762  33.877  1.00  0.00     0.293 HD
ENDBRANCH   2  22
BRANCH   6  24
ATOM     24  O   UNL     1     114.884 -50.137  32.017  1.00  0.00    -0.507 OA
ATOM     25  H   UNL     1     115.179 -49.597  32.816  1.00  0.00     0.293 HD
ENDBRANCH   6  24
BRANCH   8  26
ATOM     26  O   UNL     1     114.119 -49.996  27.295  1.00  0.00    -0.508 OA
ATOM     27  H   UNL     1     113.484 -50.438  26.639  1.00  0.00     0.293 HD
ENDBRANCH   8  26
TORSDOF 6
ENDMDL
MODEL 8
REMARK VINA RESULT:    -6.780      3.266      4.317
REMARK INTER + INTRA:          -8.489
REMARK INTER:                  -8.190
REMARK INTRA:                  -0.300
REMARK UNBOUND:                -0.323
REMARK SMILES O=c1c(O)c(-c2ccc(O)c(O)c2)oc2cc(O)cc(O)c12
REMARK SMILES IDX 5 1 3 2 2 3 1 4 22 5 20 6 19 7 17 8 16 9 15 10 14 11 6 12
REMARK SMILES IDX 7 13 8 14 9 15 13 16 11 17 10 18 12 20 4 22 21 24 18 26
REMARK H PARENT 10 19 12 21 4 23 21 25 18 27
REMARK Flexibility Score: inf
ROOT
ATOM      1  C   UNL     1     116.638 -47.139  31.903  1.00  0.00     0.180 A 
ATOM      2  C   UNL     1     117.124 -47.092  33.220  1.00  0.00     0.208 A 
ATOM      3  C   UNL     1     116.252 -46.718  34.255  1.00  0.00     0.238 A 
ATOM      4  O   UNL     1     116.679 -46.730  35.439  1.00  0.00    -0.285 OA
ATOM      5  C   UNL     1     114.910 -46.378  33.958  1.00  0.00     0.111 A 
ATOM      6  C   UNL     1     113.951 -45.946  34.923  1.00  0.00     0.134 A 
ATOM      7  C   UNL     1     112.617 -45.763  34.536  1.00  0.00     0.093 A 
ATOM      8  C   UNL     1     112.222 -45.933  33.210  1.00  0.00     0.123 A 
ATOM      9  C   UNL     1     113.164 -46.298  32.247  1.00  0.00     0.094 A 
ATOM     10  C   UNL     1     114.494 -46.522  32.609  1.00  0.00     0.146 A 
ATOM     11  O   UNL     1     115.356 -46.879  31.664  1.00  0.00    -0.452 OA
ENDROOT
BRANCH   1  12
ATOM     12  C   UNL     1     117.502 -47.500  30.755  1.00  0.00     0.025 A 
ATOM     13  C   UNL     1     117.388 -48.775  30.180  1.00  0.00     0.016 A 
ATOM     14  C   UNL     1     118.180 -49.130  29.083  1.00  0.00     0.051 A 
ATOM     15  C   UNL     1     119.082 -48.212  28.537  1.00  0.00     0.157 A 
ATOM     16  C   UNL     1     118.396 -46.572  30.191  1.00  0.00     0.062 A 
ATOM     17  C   UNL     1     119.189 -46.925  29.090  1.00  0.00     0.158 A 
BRANCH  15  18
ATOM     18  O   UNL     1     119.860 -48.596  27.446  1.00  0.00    -0.504 OA
ATOM     19  H   UNL     1     119.482 -49.146  26.683  1.00  0.00     0.293 HD
ENDBRANCH  15  18
BRANCH  17  20
ATOM     20  O   UNL     1     120.076 -46.002  28.541  1.00  0.00    -0.504 OA
ATOM     21  H   UNL     1     120.212 -45.086  28.954  1.00  0.00     0.293 HD
ENDBRANCH  17  20
ENDBRANCH   1  12
BRANCH   2  22
ATOM     22  O   UNL     1     118.446 -47.452  33.494  1.00  0.00    -0.502 OA
ATOM     23  H   UNL     1     118.922 -48.193  32.993  1.00  0.00     0.293 HD
ENDBRANCH   2  22
BRANCH   6  24
ATOM     24  O   UNL     1     114.260 -45.659  36.255  1.00  0.00    -0.507 OA
ATOM     25  H   UNL     1     113.646 -45.832  37.037  1.00  0.00     0.293 HD
ENDBRANCH   6  24
BRANCH   8  26
ATOM     26  O   UNL     1     110.890 -45.726  32.859  1.00  0.00    -0.508 OA
ATOM     27  H   UNL     1     110.543 -45.962  31.935  1.00  0.00     0.293 HD
ENDBRANCH   8  26
TORSDOF 6
ENDMDL
MODEL 9
REMARK VINA RESULT:    -6.729      2.356      2.721
REMARK INTER + INTRA:          -8.428
REMARK INTER:                  -8.415
REMARK INTRA:                  -0.013
REMARK UNBOUND:                -0.323
REMARK SMILES O=c1c(O)c(-c2ccc(O)c(O)c2)oc2cc(O)cc(O)c12
REMARK SMILES IDX 5 1 3 2 2 3 1 4 22 5 20 6 19 7 17 8 16 9 15 10 14 11 6 12
REMARK SMILES IDX 7 13 8 14 9 15 13 16 11 17 10 18 12 20 4 22 21 24 18 26
REMARK H PARENT 10 19 12 21 4 23 21 25 18 27
REMARK Flexibility Score: inf
ROOT
ATOM      1  C   UNL     1     114.955 -48.015  30.169  1.00  0.00     0.180 A 
ATOM      2  C   UNL     1     113.787 -48.449  29.519  1.00  0.00     0.208 A 
ATOM      3  C   UNL     1     112.548 -48.276  30.157  1.00  0.00     0.238 A 
ATOM      4  O   UNL     1     111.501 -48.618  29.546  1.00  0.00    -0.285 OA
ATOM      5  C   UNL     1     112.495 -47.689  31.444  1.00  0.00     0.111 A 
ATOM      6  C   UNL     1     111.299 -47.504  32.200  1.00  0.00     0.134 A 
ATOM      7  C   UNL     1     111.347 -46.793  33.406  1.00  0.00     0.093 A 
ATOM      8  C   UNL     1     112.556 -46.319  33.914  1.00  0.00     0.123 A 
ATOM      9  C   UNL     1     113.740 -46.547  33.212  1.00  0.00     0.094 A 
ATOM     10  C   UNL     1     113.718 -47.221  31.989  1.00  0.00     0.146 A 
ATOM     11  O   UNL     1     114.866 -47.408  31.347  1.00  0.00    -0.452 OA
ENDROOT
BRANCH   1  12
ATOM     12  C   UNL     1     116.300 -48.185  29.571  1.00  0.00     0.025 A 
ATOM     13  C   UNL     1     117.194 -47.104  29.567  1.00  0.00     0.016 A 
ATOM     14  C   UNL     1     118.476 -47.247  29.026  1.00  0.00     0.051 A 
ATOM     15  C   UNL     1     118.886 -48.475  28.498  1.00  0.00     0.157 A 
ATOM     16  C   UNL     1     116.722 -49.424  29.058  1.00  0.00     0.062 A 
ATOM     17  C   UNL     1     118.007 -49.572  28.516  1.00  0.00     0.158 A 
BRANCH  15  18
ATOM     18  O   UNL     1     120.169 -48.587  27.963  1.00  0.00    -0.504 OA
ATOM     19  H   UNL     1     120.922 -49.044  28.463  1.00  0.00     0.293 HD
ENDBRANCH  15  18
BRANCH  17  20
ATOM     20  O   UNL     1     118.415 -50.801  28.005  1.00  0.00    -0.504 OA
ATOM     21  H   UNL     1     119.035 -51.413  28.523  1.00  0.00     0.293 HD
ENDBRANCH  17  20
ENDBRANCH   1  12
BRANCH   2  22
ATOM     22  O   UNL     1     113.861 -49.006  28.240  1.00  0.00    -0.502 OA
ATOM     23  H   UNL     1     113.146 -49.622  27.872  1.00  0.00     0.293 HD
ENDBRANCH   2  22
BRANCH   6  24
ATOM     24  O   UNL     1     110.052 -48.016  31.828  1.00  0.00    -0.507 OA
ATOM     25  H   UNL     1     109.387 -47.537  31.240  1.00  0.00     0.293 HD
ENDBRANCH   6  24
BRANCH   8  26
ATOM     26  O   UNL     1     112.569 -45.629  35.125  1.00  0.00    -0.508 OA
ATOM     27  H   UNL     1     113.275 -44.931  35.329  1.00  0.00     0.293 HD
ENDBRANCH   8  26
TORSDOF 6
ENDMDL
