MODEL 1
REMARK VINA RESULT:    -5.024      0.000      0.000
REMARK INTER + INTRA:          -9.359
REMARK INTER:                  -8.548
REMARK INTRA:                  -0.811
REMARK UNBOUND:                -0.811
REMARK SMILES CCCCCCCCCCCCCC(=O)[O-]
REMARK SMILES IDX 8 1 9 2 10 3 11 4 12 5 13 6 14 7 15 8 16 9 7 10 6 11 5 12
REMARK SMILES IDX 4 13 3 14 2 15 1 16
REMARK H PARENT
REMARK Flexibility Score: inf
ROOT
ATOM      1  C   UNL     1     -51.152 -50.463  18.251  1.00  0.00     0.000 C 
ENDROOT
BRANCH   1   2
ATOM      2  C   UNL     1     -49.921 -50.514  19.168  1.00  0.00     0.000 C 
BRANCH   2   3
ATOM      3  C   UNL     1     -48.693 -51.150  18.490  1.00  0.00     0.000 C 
BRANCH   3   4
ATOM      4  C   UNL     1     -47.649 -50.151  17.961  1.00  0.00     0.000 C 
BRANCH   4   5
ATOM      5  C   UNL     1     -47.743 -49.936  16.440  1.00  0.00     0.006 C 
BRANCH   5   6
ATOM      6  C   UNL     1     -48.414 -51.117  15.728  1.00  0.00     0.053 C 
BRANCH   6   7
ATOM      7  C   UNL     1     -49.476 -50.660  14.774  1.00  0.00     0.041 C 
ATOM      8  O   UNL     1     -50.470 -51.393  14.532  1.00  0.00    -0.550 OA
ATOM      9  O   UNL     1     -49.352 -49.434  14.132  1.00  0.00    -0.550 OA
ENDBRANCH   6   7
ENDBRANCH   5   6
ENDBRANCH   4   5
ENDBRANCH   3   4
ENDBRANCH   2   3
ENDBRANCH   1   2
BRANCH   1  10
ATOM     10  C   UNL     1     -52.312 -49.725  18.930  1.00  0.00     0.000 C 
BRANCH  10  11
ATOM     11  C   UNL     1     -52.234 -49.865  20.458  1.00  0.00    -0.000 C 
BRANCH  11  12
ATOM     12  C   UNL     1     -52.141 -48.507  21.172  1.00  0.00    -0.000 C 
BRANCH  12  13
ATOM     13  C   UNL     1     -53.334 -48.249  22.110  1.00  0.00    -0.000 C 
BRANCH  13  14
ATOM     14  C   UNL     1     -54.659 -48.777  21.539  1.00  0.00    -0.000 C 
BRANCH  14  15
ATOM     15  C   UNL     1     -55.471 -47.686  20.826  1.00  0.00    -0.003 C 
ATOM     16  C   UNL     1     -56.937 -47.727  21.249  1.00  0.00     0.004 C 
ENDBRANCH  14  15
ENDBRANCH  13  14
ENDBRANCH  12  13
ENDBRANCH  11  12
ENDBRANCH  10  11
ENDBRANCH   1  10
TORSDOF 12
ENDMDL
MODEL 2
REMARK VINA RESULT:    -4.981     14.333     15.492
REMARK INTER + INTRA:          -9.287
REMARK INTER:                  -8.331
REMARK INTRA:                  -0.955
REMARK UNBOUND:                -0.811
REMARK SMILES CCCCCCCCCCCCCC(=O)[O-]
REMARK SMILES IDX 8 1 9 2 10 3 11 4 12 5 13 6 14 7 15 8 16 9 7 10 6 11 5 12
REMARK SMILES IDX 4 13 3 14 2 15 1 16
REMARK H PARENT
REMARK Flexibility Score: inf
ROOT
ATOM      1  C   UNL     1     -43.643 -51.051  31.009  1.00  0.00     0.000 C 
ENDROOT
BRANCH   1   2
ATOM      2  C   UNL     1     -43.335 -49.683  30.384  1.00  0.00     0.000 C 
BRANCH   2   3
ATOM      3  C   UNL     1     -41.868 -49.542  29.937  1.00  0.00     0.000 C 
BRANCH   3   4
ATOM      4  C   UNL     1     -41.640 -48.620  28.726  1.00  0.00     0.000 C 
BRANCH   4   5
ATOM      5  C   UNL     1     -40.166 -48.555  28.291  1.00  0.00     0.006 C 
BRANCH   5   6
ATOM      6  C   UNL     1     -39.566 -47.157  28.485  1.00  0.00     0.053 C 
BRANCH   6   7
ATOM      7  C   UNL     1     -38.133 -47.222  28.919  1.00  0.00     0.041 C 
ATOM      8  O   UNL     1     -37.559 -46.196  29.370  1.00  0.00    -0.550 OA
ATOM      9  O   UNL     1     -37.424 -48.411  28.800  1.00  0.00    -0.550 OA
ENDBRANCH   6   7
ENDBRANCH   5   6
ENDBRANCH   4   5
ENDBRANCH   3   4
ENDBRANCH   2   3
ENDBRANCH   1   2
BRANCH   1  10
ATOM     10  C   UNL     1     -42.987 -51.185  32.389  1.00  0.00     0.000 C 
BRANCH  10  11
ATOM     11  C   UNL     1     -43.969 -51.780  33.409  1.00  0.00    -0.000 C 
BRANCH  11  12
ATOM     12  C   UNL     1     -45.289 -52.234  32.765  1.00  0.00    -0.000 C 
BRANCH  12  13
ATOM     13  C   UNL     1     -46.512 -51.494  33.337  1.00  0.00    -0.000 C 
BRANCH  13  14
ATOM     14  C   UNL     1     -46.169 -50.081  33.834  1.00  0.00    -0.000 C 
BRANCH  14  15
ATOM     15  C   UNL     1     -46.898 -48.985  33.043  1.00  0.00    -0.003 C 
ATOM     16  C   UNL     1     -46.918 -49.306  31.551  1.00  0.00     0.004 C 
ENDBRANCH  14  15
ENDBRANCH  13  14
ENDBRANCH  12  13
ENDBRANCH  11  12
ENDBRANCH  10  11
ENDBRANCH   1  10
TORSDOF 12
ENDMDL
MODEL 3
REMARK VINA RESULT:    -4.921      1.219      1.617
REMARK INTER + INTRA:          -9.185
REMARK INTER:                  -8.371
REMARK INTRA:                  -0.814
REMARK UNBOUND:                -0.811
REMARK SMILES CCCCCCCCCCCCCC(=O)[O-]
REMARK SMILES IDX 8 1 9 2 10 3 11 4 12 5 13 6 14 7 15 8 16 9 7 10 6 11 5 12
REMARK SMILES IDX 4 13 3 14 2 15 1 16
REMARK H PARENT
REMARK Flexibility Score: inf
ROOT
ATOM      1  C   UNL     1     -49.704 -48.694  19.148  1.00  0.00     0.000 C 
ENDROOT
BRANCH   1   2
ATOM      2  C   UNL     1     -48.490 -49.636  19.171  1.00  0.00     0.000 C 
BRANCH   2   3
ATOM      3  C   UNL     1     -47.302 -49.106  18.349  1.00  0.00     0.000 C 
BRANCH   3   4
ATOM      4  C   UNL     1     -47.681 -48.212  17.155  1.00  0.00     0.000 C 
BRANCH   4   5
ATOM      5  C   UNL     1     -47.281 -48.820  15.799  1.00  0.00     0.006 C 
BRANCH   5   6
ATOM      6  C   UNL     1     -47.704 -50.290  15.677  1.00  0.00     0.053 C 
BRANCH   6   7
ATOM      7  C   UNL     1     -49.149 -50.423  15.301  1.00  0.00     0.041 C 
ATOM      8  O   UNL     1     -49.574 -49.921  14.227  1.00  0.00    -0.550 OA
ATOM      9  O   UNL     1     -50.031 -51.079  16.150  1.00  0.00    -0.550 OA
ENDBRANCH   6   7
ENDBRANCH   5   6
ENDBRANCH   4   5
ENDBRANCH   3   4
ENDBRANCH   2   3
ENDBRANCH   1   2
BRANCH   1  10
ATOM     10  C   UNL     1     -50.984 -49.438  19.545  1.00  0.00     0.000 C 
BRANCH  10  11
ATOM     11  C   UNL     1     -51.721 -48.700  20.672  1.00  0.00    -0.000 C 
BRANCH  11  12
ATOM     12  C   UNL     1     -53.098 -49.312  20.978  1.00  0.00    -0.000 C 
BRANCH  12  13
ATOM     13  C   UNL     1     -53.797 -48.631  22.170  1.00  0.00    -0.000 C 
BRANCH  13  14
ATOM     14  C   UNL     1     -54.388 -47.261  21.802  1.00  0.00    -0.000 C 
BRANCH  14  15
ATOM     15  C   UNL     1     -55.418 -47.349  20.667  1.00  0.00    -0.003 C 
ATOM     16  C   UNL     1     -56.680 -48.075  21.125  1.00  0.00     0.004 C 
ENDBRANCH  14  15
ENDBRANCH  13  14
ENDBRANCH  12  13
ENDBRANCH  11  12
ENDBRANCH  10  11
ENDBRANCH   1  10
TORSDOF 12
ENDMDL
MODEL 4
REMARK VINA RESULT:    -4.796     14.070     16.378
REMARK INTER + INTRA:          -8.972
REMARK INTER:                  -8.291
REMARK INTRA:                  -0.681
REMARK UNBOUND:                -0.811
REMARK SMILES CCCCCCCCCCCCCC(=O)[O-]
REMARK SMILES IDX 8 1 9 2 10 3 11 4 12 5 13 6 14 7 15 8 16 9 7 10 6 11 5 12
REMARK SMILES IDX 4 13 3 14 2 15 1 16
REMARK H PARENT
REMARK Flexibility Score: inf
ROOT
ATOM      1  C   UNL     1     -42.590 -50.658  30.776  1.00  0.00     0.000 C 
ENDROOT
BRANCH   1   2
ATOM      2  C   UNL     1     -43.945 -51.106  31.343  1.00  0.00     0.000 C 
BRANCH   2   3
ATOM      3  C   UNL     1     -43.879 -51.480  32.835  1.00  0.00     0.000 C 
BRANCH   3   4
ATOM      4  C   UNL     1     -45.146 -52.148  33.397  1.00  0.00     0.000 C 
BRANCH   4   5
ATOM      5  C   UNL     1     -46.440 -51.434  32.970  1.00  0.00     0.006 C 
BRANCH   5   6
ATOM      6  C   UNL     1     -46.579 -50.051  33.618  1.00  0.00     0.053 C 
BRANCH   6   7
ATOM      7  C   UNL     1     -46.759 -48.972  32.593  1.00  0.00     0.041 C 
ATOM      8  O   UNL     1     -46.608 -47.763  32.910  1.00  0.00    -0.550 OA
ATOM      9  O   UNL     1     -47.119 -49.303  31.292  1.00  0.00    -0.550 OA
ENDBRANCH   6   7
ENDBRANCH   5   6
ENDBRANCH   4   5
ENDBRANCH   3   4
ENDBRANCH   2   3
ENDBRANCH   1   2
BRANCH   1  10
ATOM     10  C   UNL     1     -42.683 -50.400  29.267  1.00  0.00     0.000 C 
BRANCH  10  11
ATOM     11  C   UNL     1     -41.369 -49.817  28.727  1.00  0.00    -0.000 C 
BRANCH  11  12
ATOM     12  C   UNL     1     -41.592 -48.833  27.568  1.00  0.00    -0.000 C 
BRANCH  12  13
ATOM     13  C   UNL     1     -40.580 -47.672  27.574  1.00  0.00    -0.000 C 
BRANCH  13  14
ATOM     14  C   UNL     1     -39.748 -47.622  28.865  1.00  0.00    -0.000 C 
BRANCH  14  15
ATOM     15  C   UNL     1     -38.281 -47.246  28.607  1.00  0.00    -0.003 C 
ATOM     16  C   UNL     1     -37.370 -48.464  28.744  1.00  0.00     0.004 C 
ENDBRANCH  14  15
ENDBRANCH  13  14
ENDBRANCH  12  13
ENDBRANCH  11  12
ENDBRANCH  10  11
ENDBRANCH   1  10
TORSDOF 12
ENDMDL
MODEL 5
REMARK VINA RESULT:    -4.791     13.845     15.037
REMARK INTER + INTRA:          -8.962
REMARK INTER:                  -7.723
REMARK INTRA:                  -1.240
REMARK UNBOUND:                -0.811
REMARK SMILES CCCCCCCCCCCCCC(=O)[O-]
REMARK SMILES IDX 8 1 9 2 10 3 11 4 12 5 13 6 14 7 15 8 16 9 7 10 6 11 5 12
REMARK SMILES IDX 4 13 3 14 2 15 1 16
REMARK H PARENT
REMARK Flexibility Score: inf
ROOT
ATOM      1  C   UNL     1     -43.791 -50.435  29.637  1.00  0.00     0.000 C 
ENDROOT
BRANCH   1   2
ATOM      2  C   UNL     1     -42.668 -49.672  30.354  1.00  0.00     0.000 C 
BRANCH   2   3
ATOM      3  C   UNL     1     -41.384 -49.557  29.511  1.00  0.00     0.000 C 
BRANCH   3   4
ATOM      4  C   UNL     1     -41.482 -48.613  28.299  1.00  0.00     0.000 C 
BRANCH   4   5
ATOM      5  C   UNL     1     -40.338 -47.586  28.246  1.00  0.00     0.006 C 
BRANCH   5   6
ATOM      6  C   UNL     1     -39.380 -47.723  29.436  1.00  0.00     0.053 C 
BRANCH   6   7
ATOM      7  C   UNL     1     -37.953 -47.836  28.991  1.00  0.00     0.041 C 
ATOM      8  O   UNL     1     -37.517 -48.921  28.527  1.00  0.00    -0.550 OA
ATOM      9  O   UNL     1     -37.099 -46.747  29.114  1.00  0.00    -0.550 OA
ENDBRANCH   6   7
ENDBRANCH   5   6
ENDBRANCH   4   5
ENDBRANCH   3   4
ENDBRANCH   2   3
ENDBRANCH   1   2
BRANCH   1  10
ATOM     10  C   UNL     1     -45.123 -49.684  29.746  1.00  0.00     0.000 C 
BRANCH  10  11
ATOM     11  C   UNL     1     -45.019 -48.522  30.745  1.00  0.00    -0.000 C 
BRANCH  11  12
ATOM     12  C   UNL     1     -46.104 -48.577  31.832  1.00  0.00    -0.000 C 
BRANCH  12  13
ATOM     13  C   UNL     1     -46.727 -49.979  31.975  1.00  0.00    -0.000 C 
BRANCH  13  14
ATOM     14  C   UNL     1     -46.369 -50.649  33.311  1.00  0.00    -0.000 C 
BRANCH  14  15
ATOM     15  C   UNL     1     -45.600 -51.965  33.122  1.00  0.00    -0.003 C 
ATOM     16  C   UNL     1     -45.962 -52.627  31.794  1.00  0.00     0.004 C 
ENDBRANCH  14  15
ENDBRANCH  13  14
ENDBRANCH  12  13
ENDBRANCH  11  12
ENDBRANCH  10  11
ENDBRANCH   1  10
TORSDOF 12
ENDMDL
MODEL 6
REMARK VINA RESULT:    -4.788     13.325     15.379
REMARK INTER + INTRA:          -8.958
REMARK INTER:                  -7.369
REMARK INTRA:                  -1.589
REMARK UNBOUND:                -0.811
REMARK SMILES CCCCCCCCCCCCCC(=O)[O-]
REMARK SMILES IDX 8 1 9 2 10 3 11 4 12 5 13 6 14 7 15 8 16 9 7 10 6 11 5 12
REMARK SMILES IDX 4 13 3 14 2 15 1 16
REMARK H PARENT
REMARK Flexibility Score: inf
ROOT
ATOM      1  C   UNL     1     -44.215 -50.492  29.383  1.00  0.00     0.000 C 
ENDROOT
BRANCH   1   2
ATOM      2  C   UNL     1     -45.157 -49.286  29.512  1.00  0.00     0.000 C 
BRANCH   2   3
ATOM      3  C   UNL     1     -45.009 -48.548  30.855  1.00  0.00     0.000 C 
BRANCH   3   4
ATOM      4  C   UNL     1     -46.224 -48.651  31.794  1.00  0.00     0.000 C 
BRANCH   4   5
ATOM      5  C   UNL     1     -46.916 -50.023  31.730  1.00  0.00     0.006 C 
BRANCH   5   6
ATOM      6  C   UNL     1     -46.626 -50.878  32.970  1.00  0.00     0.053 C 
BRANCH   6   7
ATOM      7  C   UNL     1     -45.676 -51.996  32.665  1.00  0.00     0.041 C 
ATOM      8  O   UNL     1     -45.862 -52.731  31.660  1.00  0.00    -0.550 OA
ATOM      9  O   UNL     1     -44.598 -52.242  33.507  1.00  0.00    -0.550 OA
ENDBRANCH   6   7
ENDBRANCH   5   6
ENDBRANCH   4   5
ENDBRANCH   3   4
ENDBRANCH   2   3
ENDBRANCH   1   2
BRANCH   1  10
ATOM     10  C   UNL     1     -43.180 -50.505  30.514  1.00  0.00     0.000 C 
BRANCH  10  11
ATOM     11  C   UNL     1     -41.757 -50.660  29.957  1.00  0.00    -0.000 C 
BRANCH  11  12
ATOM     12  C   UNL     1     -41.107 -49.311  29.613  1.00  0.00    -0.000 C 
BRANCH  12  13
ATOM     13  C   UNL     1     -40.574 -49.262  28.169  1.00  0.00    -0.000 C 
BRANCH  13  14
ATOM     14  C   UNL     1     -41.603 -48.691  27.180  1.00  0.00    -0.000 C 
BRANCH  14  15
ATOM     15  C   UNL     1     -42.306 -47.437  27.720  1.00  0.00    -0.003 C 
ATOM     16  C   UNL     1     -41.434 -46.197  27.537  1.00  0.00     0.004 C 
ENDBRANCH  14  15
ENDBRANCH  13  14
ENDBRANCH  12  13
ENDBRANCH  11  12
ENDBRANCH  10  11
ENDBRANCH   1  10
TORSDOF 12
ENDMDL
MODEL 7
REMARK VINA RESULT:    -4.785      1.552      2.088
REMARK INTER + INTRA:          -8.953
REMARK INTER:                  -7.944
REMARK INTRA:                  -1.010
REMARK UNBOUND:                -0.811
REMARK SMILES CCCCCCCCCCCCCC(=O)[O-]
REMARK SMILES IDX 8 1 9 2 10 3 11 4 12 5 13 6 14 7 15 8 16 9 7 10 6 11 5 12
REMARK SMILES IDX 4 13 3 14 2 15 1 16
REMARK H PARENT
REMARK Flexibility Score: inf
ROOT
ATOM      1  C   UNL     1     -50.385 -48.993  20.467  1.00  0.00     0.000 C 
ENDROOT
BRANCH   1   2
ATOM      2  C   UNL     1     -49.594 -48.893  19.154  1.00  0.00     0.000 C 
BRANCH   2   3
ATOM      3  C   UNL     1     -48.874 -50.203  18.784  1.00  0.00     0.000 C 
BRANCH   3   4
ATOM      4  C   UNL     1     -47.592 -50.030  17.950  1.00  0.00     0.000 C 
BRANCH   4   5
ATOM      5  C   UNL     1     -47.801 -50.344  16.458  1.00  0.00     0.006 C 
BRANCH   5   6
ATOM      6  C   UNL     1     -49.089 -51.139  16.208  1.00  0.00     0.053 C 
BRANCH   6   7
ATOM      7  C   UNL     1     -49.697 -50.808  14.880  1.00  0.00     0.041 C 
ATOM      8  O   UNL     1     -50.484 -51.618  14.323  1.00  0.00    -0.550 OA
ATOM      9  O   UNL     1     -49.374 -49.615  14.245  1.00  0.00    -0.550 OA
ENDBRANCH   6   7
ENDBRANCH   5   6
ENDBRANCH   4   5
ENDBRANCH   3   4
ENDBRANCH   2   3
ENDBRANCH   1   2
BRANCH   1  10
ATOM     10  C   UNL     1     -49.505 -49.538  21.598  1.00  0.00     0.000 C 
BRANCH  10  11
ATOM     11  C   UNL     1     -50.337 -49.805  22.861  1.00  0.00    -0.000 C 
BRANCH  11  12
ATOM     12  C   UNL     1     -50.778 -48.511  23.564  1.00  0.00    -0.000 C 
BRANCH  12  13
ATOM     13  C   UNL     1     -52.308 -48.398  23.689  1.00  0.00    -0.000 C 
BRANCH  13  14
ATOM     14  C   UNL     1     -52.884 -47.240  22.858  1.00  0.00    -0.000 C 
BRANCH  14  15
ATOM     15  C   UNL     1     -53.756 -47.727  21.692  1.00  0.00    -0.003 C 
ATOM     16  C   UNL     1     -54.077 -49.214  21.830  1.00  0.00     0.004 C 
ENDBRANCH  14  15
ENDBRANCH  13  14
ENDBRANCH  12  13
ENDBRANCH  11  12
ENDBRANCH  10  11
ENDBRANCH   1  10
TORSDOF 12
ENDMDL
MODEL 8
REMARK VINA RESULT:    -4.782      1.251      2.125
REMARK INTER + INTRA:          -8.948
REMARK INTER:                  -8.025
REMARK INTRA:                  -0.924
REMARK UNBOUND:                -0.811
REMARK SMILES CCCCCCCCCCCCCC(=O)[O-]
REMARK SMILES IDX 8 1 9 2 10 3 11 4 12 5 13 6 14 7 15 8 16 9 7 10 6 11 5 12
REMARK SMILES IDX 4 13 3 14 2 15 1 16
REMARK H PARENT
REMARK Flexibility Score: inf
ROOT
ATOM      1  C   UNL     1     -49.864 -49.365  19.788  1.00  0.00     0.000 C 
ENDROOT
BRANCH   1   2
ATOM      2  C   UNL     1     -49.392 -48.073  19.104  1.00  0.00     0.000 C 
BRANCH   2   3
ATOM      3  C   UNL     1     -47.923 -48.137  18.648  1.00  0.00     0.000 C 
BRANCH   3   4
ATOM      4  C   UNL     1     -47.454 -49.515  18.147  1.00  0.00     0.000 C 
BRANCH   4   5
ATOM      5  C   UNL     1     -47.454 -49.626  16.612  1.00  0.00     0.006 C 
BRANCH   5   6
ATOM      6  C   UNL     1     -48.120 -50.920  16.125  1.00  0.00     0.053 C 
BRANCH   6   7
ATOM      7  C   UNL     1     -49.356 -50.641  15.325  1.00  0.00     0.041 C 
ATOM      8  O   UNL     1     -50.424 -51.261  15.569  1.00  0.00    -0.550 OA
ATOM      9  O   UNL     1     -49.319 -49.714  14.290  1.00  0.00    -0.550 OA
ENDBRANCH   6   7
ENDBRANCH   5   6
ENDBRANCH   4   5
ENDBRANCH   3   4
ENDBRANCH   2   3
ENDBRANCH   1   2
BRANCH   1  10
ATOM     10  C   UNL     1     -50.803 -50.160  18.872  1.00  0.00     0.000 C 
BRANCH  10  11
ATOM     11  C   UNL     1     -52.270 -49.783  19.127  1.00  0.00    -0.000 C 
BRANCH  11  12
ATOM     12  C   UNL     1     -52.519 -49.319  20.571  1.00  0.00    -0.000 C 
BRANCH  12  13
ATOM     13  C   UNL     1     -53.873 -48.605  20.738  1.00  0.00    -0.000 C 
BRANCH  13  14
ATOM     14  C   UNL     1     -53.909 -47.691  21.973  1.00  0.00    -0.000 C 
BRANCH  14  15
ATOM     15  C   UNL     1     -52.522 -47.497  22.603  1.00  0.00    -0.003 C 
ATOM     16  C   UNL     1     -52.608 -47.488  24.128  1.00  0.00     0.004 C 
ENDBRANCH  14  15
ENDBRANCH  13  14
ENDBRANCH  12  13
ENDBRANCH  11  12
ENDBRANCH  10  11
ENDBRANCH   1  10
TORSDOF 12
ENDMDL
MODEL 9
REMARK VINA RESULT:    -4.755      3.243      6.759
REMARK INTER + INTRA:          -8.901
REMARK INTER:                  -7.232
REMARK INTRA:                  -1.669
REMARK UNBOUND:                -0.811
REMARK SMILES CCCCCCCCCCCCCC(=O)[O-]
REMARK SMILES IDX 8 1 9 2 10 3 11 4 12 5 13 6 14 7 15 8 16 9 7 10 6 11 5 12
REMARK SMILES IDX 4 13 3 14 2 15 1 16
REMARK H PARENT
REMARK Flexibility Score: inf
ROOT
ATOM      1  C   UNL     1     -49.250 -48.101  19.332  1.00  0.00     0.000 C 
ENDROOT
BRANCH   1   2
ATOM      2  C   UNL     1     -48.912 -49.561  19.668  1.00  0.00     0.000 C 
BRANCH   2   3
ATOM      3  C   UNL     1     -50.035 -50.542  19.285  1.00  0.00     0.000 C 
BRANCH   3   4
ATOM      4  C   UNL     1     -51.149 -49.947  18.406  1.00  0.00     0.000 C 
BRANCH   4   5
ATOM      5  C   UNL     1     -52.525 -49.955  19.094  1.00  0.00     0.006 C 
BRANCH   5   6
ATOM      6  C   UNL     1     -52.410 -49.824  20.618  1.00  0.00     0.053 C 
BRANCH   6   7
ATOM      7  C   UNL     1     -52.805 -48.457  21.090  1.00  0.00     0.041 C 
ATOM      8  O   UNL     1     -51.931 -47.654  21.510  1.00  0.00    -0.550 OA
ATOM      9  O   UNL     1     -54.142 -48.081  21.090  1.00  0.00    -0.550 OA
ENDBRANCH   6   7
ENDBRANCH   5   6
ENDBRANCH   4   5
ENDBRANCH   3   4
ENDBRANCH   2   3
ENDBRANCH   1   2
BRANCH   1  10
ATOM     10  C   UNL     1     -48.127 -47.451  18.515  1.00  0.00     0.000 C 
BRANCH  10  11
ATOM     11  C   UNL     1     -47.341 -48.506  17.724  1.00  0.00    -0.000 C 
BRANCH  11  12
ATOM     12  C   UNL     1     -47.286 -48.198  16.219  1.00  0.00    -0.000 C 
BRANCH  12  13
ATOM     13  C   UNL     1     -48.012 -49.258  15.370  1.00  0.00    -0.000 C 
BRANCH  13  14
ATOM     14  C   UNL     1     -48.120 -50.614  16.086  1.00  0.00    -0.000 C 
BRANCH  14  15
ATOM     15  C   UNL     1     -48.970 -51.626  15.304  1.00  0.00    -0.003 C 
ATOM     16  C   UNL     1     -50.326 -51.033  14.931  1.00  0.00     0.004 C 
ENDBRANCH  14  15
ENDBRANCH  13  14
ENDBRANCH  12  13
ENDBRANCH  11  12
ENDBRANCH  10  11
ENDBRANCH   1  10
TORSDOF 12
ENDMDL
