MODEL 1
REMARK VINA RESULT:    -4.354      0.000      0.000
REMARK INTER + INTRA:          -9.585
REMARK INTER:                  -8.172
REMARK INTRA:                  -1.413
REMARK UNBOUND:                -1.413
REMARK SMILES CCCCCCCCC=CCCCCCCCC(=O)[O-]
REMARK SMILES IDX 10 1 9 2 11 3 12 4 13 5 14 6 15 7 16 8 17 9 18 10 19 11
REMARK SMILES IDX 20 12 8 13 7 14 6 15 5 16 4 17 3 18 2 19 1 20
REMARK H PARENT
REMARK Flexibility Score: inf
ROOT
ATOM      1  C   UNL     1      -5.792   5.693  -9.583  1.00  0.00    -0.031 C 
ATOM      2  C   UNL     1      -6.151   5.987 -10.840  1.00  0.00    -0.031 C 
ENDROOT
BRANCH   1   3
ATOM      3  C   UNL     1      -4.423   6.029  -9.052  1.00  0.00     0.027 C 
BRANCH   3   4
ATOM      4  C   UNL     1      -4.394   7.377  -8.318  1.00  0.00     0.004 C 
BRANCH   4   5
ATOM      5  C   UNL     1      -5.546   7.510  -7.306  1.00  0.00     0.000 C 
BRANCH   5   6
ATOM      6  C   UNL     1      -5.046   7.636  -5.858  1.00  0.00     0.000 C 
BRANCH   6   7
ATOM      7  C   UNL     1      -5.530   6.482  -4.962  1.00  0.00     0.000 C 
BRANCH   7   8
ATOM      8  C   UNL     1      -5.787   5.180  -5.742  1.00  0.00     0.006 C 
BRANCH   8   9
ATOM      9  C   UNL     1      -4.968   3.980  -5.238  1.00  0.00     0.053 C 
BRANCH   9  10
ATOM     10  C   UNL     1      -5.598   3.312  -4.054  1.00  0.00     0.041 C 
ATOM     11  O   UNL     1      -4.959   2.445  -3.402  1.00  0.00    -0.550 OA
ATOM     12  O   UNL     1      -6.904   3.619  -3.690  1.00  0.00    -0.550 OA
ENDBRANCH   9  10
ENDBRANCH   8   9
ENDBRANCH   7   8
ENDBRANCH   6   7
ENDBRANCH   5   6
ENDBRANCH   4   5
ENDBRANCH   3   4
ENDBRANCH   1   3
BRANCH   2  13
ATOM     13  C   UNL     1      -7.525   5.641 -11.347  1.00  0.00     0.027 C 
BRANCH  13  14
ATOM     14  C   UNL     1      -7.587   5.576 -12.882  1.00  0.00     0.004 C 
BRANCH  14  15
ATOM     15  C   UNL     1      -6.506   6.414 -13.591  1.00  0.00     0.000 C 
BRANCH  15  16
ATOM     16  C   UNL     1      -6.166   5.884 -14.995  1.00  0.00     0.000 C 
BRANCH  16  17
ATOM     17  C   UNL     1      -6.719   4.461 -15.230  1.00  0.00    -0.000 C 
BRANCH  17  18
ATOM     18  C   UNL     1      -5.622   3.386 -15.355  1.00  0.00    -0.000 C 
BRANCH  18  19
ATOM     19  C   UNL     1      -5.137   2.806 -14.016  1.00  0.00    -0.003 C 
ATOM     20  C   UNL     1      -3.615   2.693 -13.936  1.00  0.00     0.004 C 
ENDBRANCH  18  19
ENDBRANCH  17  18
ENDBRANCH  16  17
ENDBRANCH  15  16
ENDBRANCH  14  15
ENDBRANCH  13  14
ENDBRANCH   2  13
TORSDOF 15
ENDMDL
MODEL 2
REMARK VINA RESULT:    -4.228      1.335      1.711
REMARK INTER + INTRA:          -9.349
REMARK INTER:                  -8.151
REMARK INTRA:                  -1.198
REMARK UNBOUND:                -1.413
REMARK SMILES CCCCCCCCC=CCCCCCCCC(=O)[O-]
REMARK SMILES IDX 10 1 9 2 11 3 12 4 13 5 14 6 15 7 16 8 17 9 18 10 19 11
REMARK SMILES IDX 20 12 8 13 7 14 6 15 5 16 4 17 3 18 2 19 1 20
REMARK H PARENT
REMARK Flexibility Score: inf
ROOT
ATOM      1  C   UNL     1      -5.703   6.881 -10.202  1.00  0.00    -0.031 C 
ATOM      2  C   UNL     1      -5.493   7.985 -10.934  1.00  0.00    -0.031 C 
ENDROOT
BRANCH   1   3
ATOM      3  C   UNL     1      -4.740   6.448  -9.129  1.00  0.00     0.027 C 
BRANCH   3   4
ATOM      4  C   UNL     1      -4.769   7.377  -7.907  1.00  0.00     0.004 C 
BRANCH   4   5
ATOM      5  C   UNL     1      -6.204   7.668  -7.433  1.00  0.00     0.000 C 
BRANCH   5   6
ATOM      6  C   UNL     1      -6.372   7.486  -5.917  1.00  0.00     0.000 C 
BRANCH   6   7
ATOM      7  C   UNL     1      -5.037   7.223  -5.200  1.00  0.00     0.000 C 
BRANCH   7   8
ATOM      8  C   UNL     1      -5.169   6.246  -4.018  1.00  0.00     0.006 C 
BRANCH   8   9
ATOM      9  C   UNL     1      -6.014   4.999  -4.332  1.00  0.00     0.053 C 
BRANCH   9  10
ATOM     10  C   UNL     1      -5.173   3.815  -4.702  1.00  0.00     0.041 C 
ATOM     11  O   UNL     1      -5.168   2.789  -3.972  1.00  0.00    -0.550 OA
ATOM     12  O   UNL     1      -4.366   3.856  -5.833  1.00  0.00    -0.550 OA
ENDBRANCH   9  10
ENDBRANCH   8   9
ENDBRANCH   7   8
ENDBRANCH   6   7
ENDBRANCH   5   6
ENDBRANCH   4   5
ENDBRANCH   3   4
ENDBRANCH   1   3
BRANCH   2  13
ATOM     13  C   UNL     1      -6.471   8.396 -12.001  1.00  0.00     0.027 C 
BRANCH  13  14
ATOM     14  C   UNL     1      -6.526   7.395 -13.167  1.00  0.00     0.004 C 
BRANCH  14  15
ATOM     15  C   UNL     1      -7.772   6.489 -13.159  1.00  0.00     0.000 C 
BRANCH  15  16
ATOM     16  C   UNL     1      -7.440   5.020 -12.847  1.00  0.00     0.000 C 
BRANCH  16  17
ATOM     17  C   UNL     1      -6.111   4.573 -13.496  1.00  0.00    -0.000 C 
BRANCH  17  18
ATOM     18  C   UNL     1      -6.134   3.120 -14.011  1.00  0.00    -0.000 C 
BRANCH  18  19
ATOM     19  C   UNL     1      -4.897   2.710 -14.827  1.00  0.00    -0.003 C 
ATOM     20  C   UNL     1      -3.657   2.499 -13.959  1.00  0.00     0.004 C 
ENDBRANCH  18  19
ENDBRANCH  17  18
ENDBRANCH  16  17
ENDBRANCH  15  16
ENDBRANCH  14  15
ENDBRANCH  13  14
ENDBRANCH   2  13
TORSDOF 15
ENDMDL
MODEL 3
REMARK VINA RESULT:    -4.048     11.094     13.416
REMARK INTER + INTRA:          -9.012
REMARK INTER:                  -7.737
REMARK INTRA:                  -1.275
REMARK UNBOUND:                -1.413
REMARK SMILES CCCCCCCCC=CCCCCCCCC(=O)[O-]
REMARK SMILES IDX 10 1 9 2 11 3 12 4 13 5 14 6 15 7 16 8 17 9 18 10 19 11
REMARK SMILES IDX 20 12 8 13 7 14 6 15 5 16 4 17 3 18 2 19 1 20
REMARK H PARENT
REMARK Flexibility Score: inf
ROOT
ATOM      1  C   UNL     1      -6.244  -9.426  -8.007  1.00  0.00    -0.031 C 
ATOM      2  C   UNL     1      -6.444  -8.147  -8.352  1.00  0.00    -0.031 C 
ENDROOT
BRANCH   1   3
ATOM      3  C   UNL     1      -6.583  -9.937  -6.632  1.00  0.00     0.027 C 
BRANCH   3   4
ATOM      4  C   UNL     1      -7.794  -9.217  -6.021  1.00  0.00     0.004 C 
BRANCH   4   5
ATOM      5  C   UNL     1      -7.644  -9.018  -4.502  1.00  0.00     0.000 C 
BRANCH   5   6
ATOM      6  C   UNL     1      -6.174  -8.970  -4.057  1.00  0.00     0.000 C 
BRANCH   6   7
ATOM      7  C   UNL     1      -5.996  -8.325  -2.671  1.00  0.00     0.000 C 
BRANCH   7   8
ATOM      8  C   UNL     1      -5.224  -6.994  -2.721  1.00  0.00     0.006 C 
BRANCH   8   9
ATOM      9  C   UNL     1      -3.892  -7.017  -1.951  1.00  0.00     0.053 C 
BRANCH   9  10
ATOM     10  C   UNL     1      -3.973  -6.290  -0.643  1.00  0.00     0.041 C 
ATOM     11  O   UNL     1      -4.692  -6.739   0.288  1.00  0.00    -0.550 OA
ATOM     12  O   UNL     1      -3.282  -5.097  -0.462  1.00  0.00    -0.550 OA
ENDBRANCH   9  10
ENDBRANCH   8   9
ENDBRANCH   7   8
ENDBRANCH   6   7
ENDBRANCH   5   6
ENDBRANCH   4   5
ENDBRANCH   3   4
ENDBRANCH   1   3
BRANCH   2  13
ATOM     13  C   UNL     1      -6.098  -7.660  -9.734  1.00  0.00     0.027 C 
BRANCH  13  14
ATOM     14  C   UNL     1      -4.806  -8.296 -10.273  1.00  0.00     0.004 C 
BRANCH  14  15
ATOM     15  C   UNL     1      -4.901  -8.768 -11.737  1.00  0.00     0.000 C 
BRANCH  15  16
ATOM     16  C   UNL     1      -3.725  -8.278 -12.599  1.00  0.00     0.000 C 
BRANCH  16  17
ATOM     17  C   UNL     1      -4.053  -6.964 -13.341  1.00  0.00    -0.000 C 
BRANCH  17  18
ATOM     18  C   UNL     1      -5.549  -6.803 -13.677  1.00  0.00    -0.000 C 
BRANCH  18  19
ATOM     19  C   UNL     1      -6.149  -5.439 -13.297  1.00  0.00    -0.003 C 
ATOM     20  C   UNL     1      -5.579  -4.884 -11.993  1.00  0.00     0.004 C 
ENDBRANCH  18  19
ENDBRANCH  17  18
ENDBRANCH  16  17
ENDBRANCH  15  16
ENDBRANCH  14  15
ENDBRANCH  13  14
ENDBRANCH   2  13
TORSDOF 15
ENDMDL
MODEL 4
REMARK VINA RESULT:    -4.011      1.278      2.087
REMARK INTER + INTRA:          -8.942
REMARK INTER:                  -7.286
REMARK INTRA:                  -1.656
REMARK UNBOUND:                -1.413
REMARK SMILES CCCCCCCCC=CCCCCCCCC(=O)[O-]
REMARK SMILES IDX 10 1 9 2 11 3 12 4 13 5 14 6 15 7 16 8 17 9 18 10 19 11
REMARK SMILES IDX 20 12 8 13 7 14 6 15 5 16 4 17 3 18 2 19 1 20
REMARK H PARENT
REMARK Flexibility Score: inf
ROOT
ATOM      1  C   UNL     1      -5.179   5.729 -10.108  1.00  0.00    -0.031 C 
ATOM      2  C   UNL     1      -6.098   6.587 -10.571  1.00  0.00    -0.031 C 
ENDROOT
BRANCH   1   3
ATOM      3  C   UNL     1      -4.658   5.813  -8.698  1.00  0.00     0.027 C 
BRANCH   3   4
ATOM      4  C   UNL     1      -4.396   7.260  -8.256  1.00  0.00     0.004 C 
BRANCH   4   5
ATOM      5  C   UNL     1      -5.099   7.597  -6.928  1.00  0.00     0.000 C 
BRANCH   5   6
ATOM      6  C   UNL     1      -6.475   6.925  -6.803  1.00  0.00     0.000 C 
BRANCH   6   7
ATOM      7  C   UNL     1      -6.985   6.884  -5.352  1.00  0.00     0.000 C 
BRANCH   7   8
ATOM      8  C   UNL     1      -6.962   5.469  -4.745  1.00  0.00     0.006 C 
BRANCH   8   9
ATOM      9  C   UNL     1      -5.652   5.126  -4.015  1.00  0.00     0.053 C 
BRANCH   9  10
ATOM     10  C   UNL     1      -5.016   3.874  -4.536  1.00  0.00     0.041 C 
ATOM     11  O   UNL     1      -5.022   2.823  -3.842  1.00  0.00    -0.550 OA
ATOM     12  O   UNL     1      -4.384   3.873  -5.775  1.00  0.00    -0.550 OA
ENDBRANCH   9  10
ENDBRANCH   8   9
ENDBRANCH   7   8
ENDBRANCH   6   7
ENDBRANCH   5   6
ENDBRANCH   4   5
ENDBRANCH   3   4
ENDBRANCH   1   3
BRANCH   2  13
ATOM     13  C   UNL     1      -6.603   6.482 -11.986  1.00  0.00     0.027 C 
BRANCH  13  14
ATOM     14  C   UNL     1      -7.607   5.331 -12.167  1.00  0.00     0.004 C 
BRANCH  14  15
ATOM     15  C   UNL     1      -7.357   4.470 -13.420  1.00  0.00     0.000 C 
BRANCH  15  16
ATOM     16  C   UNL     1      -5.902   3.981 -13.526  1.00  0.00     0.000 C 
BRANCH  16  17
ATOM     17  C   UNL     1      -5.267   4.332 -14.889  1.00  0.00    -0.000 C 
BRANCH  17  18
ATOM     18  C   UNL     1      -6.277   4.876 -15.919  1.00  0.00    -0.000 C 
BRANCH  18  19
ATOM     19  C   UNL     1      -5.962   6.287 -16.442  1.00  0.00    -0.003 C 
ATOM     20  C   UNL     1      -5.298   7.175 -15.390  1.00  0.00     0.004 C 
ENDBRANCH  18  19
ENDBRANCH  17  18
ENDBRANCH  16  17
ENDBRANCH  15  16
ENDBRANCH  14  15
ENDBRANCH  13  14
ENDBRANCH   2  13
TORSDOF 15
ENDMDL
MODEL 5
REMARK VINA RESULT:    -3.975     11.278     13.213
REMARK INTER + INTRA:          -8.874
REMARK INTER:                  -7.311
REMARK INTRA:                  -1.563
REMARK UNBOUND:                -1.413
REMARK SMILES CCCCCCCCC=CCCCCCCCC(=O)[O-]
REMARK SMILES IDX 10 1 9 2 11 3 12 4 13 5 14 6 15 7 16 8 17 9 18 10 19 11
REMARK SMILES IDX 20 12 8 13 7 14 6 15 5 16 4 17 3 18 2 19 1 20
REMARK H PARENT
REMARK Flexibility Score: inf
ROOT
ATOM      1  C   UNL     1      -5.878  -7.757  -9.638  1.00  0.00    -0.031 C 
ATOM      2  C   UNL     1      -7.052  -7.113  -9.698  1.00  0.00    -0.031 C 
ENDROOT
BRANCH   1   3
ATOM      3  C   UNL     1      -5.768  -9.149  -9.075  1.00  0.00     0.027 C 
BRANCH   3   4
ATOM      4  C   UNL     1      -6.933  -9.495  -8.137  1.00  0.00     0.004 C 
BRANCH   4   5
ATOM      5  C   UNL     1      -6.445  -9.949  -6.750  1.00  0.00     0.000 C 
BRANCH   5   6
ATOM      6  C   UNL     1      -6.742  -8.913  -5.654  1.00  0.00     0.000 C 
BRANCH   6   7
ATOM      7  C   UNL     1      -6.307  -9.388  -4.257  1.00  0.00     0.000 C 
BRANCH   7   8
ATOM      8  C   UNL     1      -5.946  -8.227  -3.312  1.00  0.00     0.006 C 
BRANCH   8   9
ATOM      9  C   UNL     1      -4.732  -8.512  -2.410  1.00  0.00     0.053 C 
BRANCH   9  10
ATOM     10  C   UNL     1      -4.389  -7.352  -1.527  1.00  0.00     0.041 C 
ATOM     11  O   UNL     1      -5.143  -7.041  -0.568  1.00  0.00    -0.550 OA
ATOM     12  O   UNL     1      -3.253  -6.591  -1.781  1.00  0.00    -0.550 OA
ENDBRANCH   9  10
ENDBRANCH   8   9
ENDBRANCH   7   8
ENDBRANCH   6   7
ENDBRANCH   5   6
ENDBRANCH   4   5
ENDBRANCH   3   4
ENDBRANCH   1   3
BRANCH   2  13
ATOM     13  C   UNL     1      -7.136  -5.721 -10.265  1.00  0.00     0.027 C 
BRANCH  13  14
ATOM     14  C   UNL     1      -5.954  -5.391 -11.192  1.00  0.00     0.004 C 
BRANCH  14  15
ATOM     15  C   UNL     1      -6.347  -5.204 -12.670  1.00  0.00     0.000 C 
BRANCH  15  16
ATOM     16  C   UNL     1      -5.684  -6.236 -13.598  1.00  0.00     0.000 C 
BRANCH  16  17
ATOM     17  C   UNL     1      -6.191  -7.671 -13.332  1.00  0.00    -0.000 C 
BRANCH  17  18
ATOM     18  C   UNL     1      -5.059  -8.694 -13.112  1.00  0.00    -0.000 C 
BRANCH  18  19
ATOM     19  C   UNL     1      -3.744  -8.094 -12.588  1.00  0.00    -0.003 C 
ATOM     20  C   UNL     1      -2.584  -8.263 -13.567  1.00  0.00     0.004 C 
ENDBRANCH  18  19
ENDBRANCH  17  18
ENDBRANCH  16  17
ENDBRANCH  15  16
ENDBRANCH  14  15
ENDBRANCH  13  14
ENDBRANCH   2  13
TORSDOF 15
ENDMDL
MODEL 6
REMARK VINA RESULT:    -3.970     11.837     16.257
REMARK INTER + INTRA:          -8.864
REMARK INTER:                  -7.899
REMARK INTRA:                  -0.965
REMARK UNBOUND:                -1.413
REMARK SMILES CCCCCCCCC=CCCCCCCCC(=O)[O-]
REMARK SMILES IDX 10 1 9 2 11 3 12 4 13 5 14 6 15 7 16 8 17 9 18 10 19 11
REMARK SMILES IDX 20 12 8 13 7 14 6 15 5 16 4 17 3 18 2 19 1 20
REMARK H PARENT
REMARK Flexibility Score: inf
ROOT
ATOM      1  C   UNL     1      -6.245  -9.405  -4.665  1.00  0.00    -0.031 C 
ATOM      2  C   UNL     1      -5.728  -9.081  -3.471  1.00  0.00    -0.031 C 
ENDROOT
BRANCH   1   3
ATOM      3  C   UNL     1      -5.818 -10.648  -5.400  1.00  0.00     0.027 C 
BRANCH   3   4
ATOM      4  C   UNL     1      -6.137 -10.579  -6.900  1.00  0.00     0.004 C 
BRANCH   4   5
ATOM      5  C   UNL     1      -7.628 -10.302  -7.164  1.00  0.00     0.000 C 
BRANCH   5   6
ATOM      6  C   UNL     1      -7.856  -9.004  -7.954  1.00  0.00     0.000 C 
BRANCH   6   7
ATOM      7  C   UNL     1      -6.543  -8.375  -8.451  1.00  0.00     0.000 C 
BRANCH   7   8
ATOM      8  C   UNL     1      -6.554  -8.072  -9.960  1.00  0.00     0.006 C 
BRANCH   8   9
ATOM      9  C   UNL     1      -6.490  -6.572 -10.295  1.00  0.00     0.053 C 
BRANCH   9  10
ATOM     10  C   UNL     1      -5.517  -6.270 -11.394  1.00  0.00     0.041 C 
ATOM     11  O   UNL     1      -4.783  -7.181 -11.858  1.00  0.00    -0.550 OA
ATOM     12  O   UNL     1      -5.396  -4.974 -11.884  1.00  0.00    -0.550 OA
ENDBRANCH   9  10
ENDBRANCH   8   9
ENDBRANCH   7   8
ENDBRANCH   6   7
ENDBRANCH   5   6
ENDBRANCH   4   5
ENDBRANCH   3   4
ENDBRANCH   1   3
BRANCH   2  13
ATOM     13  C   UNL     1      -6.171  -7.832  -2.756  1.00  0.00     0.027 C 
BRANCH  13  14
ATOM     14  C   UNL     1      -5.028  -6.818  -2.581  1.00  0.00     0.004 C 
BRANCH  14  15
ATOM     15  C   UNL     1      -3.877  -7.317  -1.687  1.00  0.00     0.000 C 
BRANCH  15  16
ATOM     16  C   UNL     1      -4.330  -7.628  -0.250  1.00  0.00     0.000 C 
BRANCH  16  17
ATOM     17  C   UNL     1      -4.036  -6.462   0.719  1.00  0.00    -0.000 C 
BRANCH  17  18
ATOM     18  C   UNL     1      -2.962  -5.485   0.201  1.00  0.00    -0.000 C 
BRANCH  18  19
ATOM     19  C   UNL     1      -3.142  -4.030   0.664  1.00  0.00    -0.003 C 
ATOM     20  C   UNL     1      -1.815  -3.332   0.956  1.00  0.00     0.004 C 
ENDBRANCH  18  19
ENDBRANCH  17  18
ENDBRANCH  16  17
ENDBRANCH  15  16
ENDBRANCH  14  15
ENDBRANCH  13  14
ENDBRANCH   2  13
TORSDOF 15
ENDMDL
MODEL 7
REMARK VINA RESULT:    -3.959      1.219      1.978
REMARK INTER + INTRA:          -8.844
REMARK INTER:                  -7.611
REMARK INTRA:                  -1.232
REMARK UNBOUND:                -1.413
REMARK SMILES CCCCCCCCC=CCCCCCCCC(=O)[O-]
REMARK SMILES IDX 10 1 9 2 11 3 12 4 13 5 14 6 15 7 16 8 17 9 18 10 19 11
REMARK SMILES IDX 20 12 8 13 7 14 6 15 5 16 4 17 3 18 2 19 1 20
REMARK H PARENT
REMARK Flexibility Score: inf
ROOT
ATOM      1  C   UNL     1      -5.667   8.156 -11.615  1.00  0.00    -0.031 C 
ATOM      2  C   UNL     1      -6.637   7.236 -11.518  1.00  0.00    -0.031 C 
ENDROOT
BRANCH   1   3
ATOM      3  C   UNL     1      -4.874   8.600 -10.415  1.00  0.00     0.027 C 
BRANCH   3   4
ATOM      4  C   UNL     1      -5.419   8.013  -9.104  1.00  0.00     0.004 C 
BRANCH   4   5
ATOM      5  C   UNL     1      -4.366   7.164  -8.368  1.00  0.00     0.000 C 
BRANCH   5   6
ATOM      6  C   UNL     1      -4.436   5.677  -8.751  1.00  0.00     0.000 C 
BRANCH   6   7
ATOM      7  C   UNL     1      -5.437   4.890  -7.888  1.00  0.00     0.000 C 
BRANCH   7   8
ATOM      8  C   UNL     1      -5.228   5.102  -6.378  1.00  0.00     0.006 C 
BRANCH   8   9
ATOM      9  C   UNL     1      -4.698   3.859  -5.642  1.00  0.00     0.053 C 
BRANCH   9  10
ATOM     10  C   UNL     1      -5.524   3.506  -4.443  1.00  0.00     0.041 C 
ATOM     11  O   UNL     1      -6.632   4.072  -4.248  1.00  0.00    -0.550 OA
ATOM     12  O   UNL     1      -5.057   2.577  -3.520  1.00  0.00    -0.550 OA
ENDBRANCH   9  10
ENDBRANCH   8   9
ENDBRANCH   7   8
ENDBRANCH   6   7
ENDBRANCH   5   6
ENDBRANCH   4   5
ENDBRANCH   3   4
ENDBRANCH   1   3
BRANCH   2  13
ATOM     13  C   UNL     1      -7.415   6.809 -12.734  1.00  0.00     0.027 C 
BRANCH  13  14
ATOM     14  C   UNL     1      -6.807   7.346 -14.040  1.00  0.00     0.004 C 
BRANCH  14  15
ATOM     15  C   UNL     1      -7.132   6.494 -15.281  1.00  0.00     0.000 C 
BRANCH  15  16
ATOM     16  C   UNL     1      -7.499   5.042 -14.928  1.00  0.00     0.000 C 
BRANCH  16  17
ATOM     17  C   UNL     1      -6.371   4.051 -15.291  1.00  0.00    -0.000 C 
BRANCH  17  18
ATOM     18  C   UNL     1      -5.712   3.390 -14.064  1.00  0.00    -0.000 C 
BRANCH  18  19
ATOM     19  C   UNL     1      -4.592   2.391 -14.398  1.00  0.00    -0.003 C 
ATOM     20  C   UNL     1      -3.259   2.757 -13.748  1.00  0.00     0.004 C 
ENDBRANCH  18  19
ENDBRANCH  17  18
ENDBRANCH  16  17
ENDBRANCH  15  16
ENDBRANCH  14  15
ENDBRANCH  13  14
ENDBRANCH   2  13
TORSDOF 15
ENDMDL
MODEL 8
REMARK VINA RESULT:    -3.958     11.230     13.332
REMARK INTER + INTRA:          -8.841
REMARK INTER:                  -7.667
REMARK INTRA:                  -1.175
REMARK UNBOUND:                -1.413
REMARK SMILES CCCCCCCCC=CCCCCCCCC(=O)[O-]
REMARK SMILES IDX 10 1 9 2 11 3 12 4 13 5 14 6 15 7 16 8 17 9 18 10 19 11
REMARK SMILES IDX 20 12 8 13 7 14 6 15 5 16 4 17 3 18 2 19 1 20
REMARK H PARENT
REMARK Flexibility Score: inf
ROOT
ATOM      1  C   UNL     1      -6.603  -8.850  -7.857  1.00  0.00    -0.031 C 
ATOM      2  C   UNL     1      -7.757  -8.335  -8.301  1.00  0.00    -0.031 C 
ENDROOT
BRANCH   1   3
ATOM      3  C   UNL     1      -6.535  -9.665  -6.593  1.00  0.00     0.027 C 
BRANCH   3   4
ATOM      4  C   UNL     1      -7.872  -9.688  -5.839  1.00  0.00     0.004 C 
BRANCH   4   5
ATOM      5  C   UNL     1      -7.772  -9.012  -4.460  1.00  0.00     0.000 C 
BRANCH   5   6
ATOM      6  C   UNL     1      -6.351  -9.070  -3.877  1.00  0.00     0.000 C 
BRANCH   6   7
ATOM      7  C   UNL     1      -5.837  -7.691  -3.430  1.00  0.00     0.000 C 
BRANCH   7   8
ATOM      8  C   UNL     1      -5.227  -7.705  -2.017  1.00  0.00     0.006 C 
BRANCH   8   9
ATOM      9  C   UNL     1      -3.925  -6.894  -1.892  1.00  0.00     0.053 C 
BRANCH   9  10
ATOM     10  C   UNL     1      -3.589  -6.562  -0.471  1.00  0.00     0.041 C 
ATOM     11  O   UNL     1      -2.931  -5.523  -0.201  1.00  0.00    -0.550 OA
ATOM     12  O   UNL     1      -3.973  -7.416   0.557  1.00  0.00    -0.550 OA
ENDBRANCH   9  10
ENDBRANCH   8   9
ENDBRANCH   7   8
ENDBRANCH   6   7
ENDBRANCH   5   6
ENDBRANCH   4   5
ENDBRANCH   3   4
ENDBRANCH   1   3
BRANCH   2  13
ATOM     13  C   UNL     1      -7.799  -7.523  -9.569  1.00  0.00     0.027 C 
BRANCH  13  14
ATOM     14  C   UNL     1      -6.498  -6.738  -9.807  1.00  0.00     0.004 C 
BRANCH  14  15
ATOM     15  C   UNL     1      -6.700  -5.390 -10.525  1.00  0.00     0.000 C 
BRANCH  15  16
ATOM     16  C   UNL     1      -5.890  -5.283 -11.829  1.00  0.00     0.000 C 
BRANCH  16  17
ATOM     17  C   UNL     1      -5.824  -6.627 -12.586  1.00  0.00    -0.000 C 
BRANCH  17  18
ATOM     18  C   UNL     1      -4.431  -6.939 -13.169  1.00  0.00    -0.000 C 
BRANCH  18  19
ATOM     19  C   UNL     1      -3.673  -8.066 -12.449  1.00  0.00    -0.003 C 
ATOM     20  C   UNL     1      -4.604  -9.122 -11.854  1.00  0.00     0.004 C 
ENDBRANCH  18  19
ENDBRANCH  17  18
ENDBRANCH  16  17
ENDBRANCH  15  16
ENDBRANCH  14  15
ENDBRANCH  13  14
ENDBRANCH   2  13
TORSDOF 15
ENDMDL
MODEL 9
REMARK VINA RESULT:    -3.937      3.755      8.410
REMARK INTER + INTRA:          -8.802
REMARK INTER:                  -7.427
REMARK INTRA:                  -1.375
REMARK UNBOUND:                -1.413
REMARK SMILES CCCCCCCCC=CCCCCCCCC(=O)[O-]
REMARK SMILES IDX 10 1 9 2 11 3 12 4 13 5 14 6 15 7 16 8 17 9 18 10 19 11
REMARK SMILES IDX 20 12 8 13 7 14 6 15 5 16 4 17 3 18 2 19 1 20
REMARK H PARENT
REMARK Flexibility Score: inf
ROOT
ATOM      1  C   UNL     1      -6.427   6.423 -10.172  1.00  0.00    -0.031 C 
ATOM      2  C   UNL     1      -5.213   5.987  -9.809  1.00  0.00    -0.031 C 
ENDROOT
BRANCH   1   3
ATOM      3  C   UNL     1      -7.270   5.676 -11.171  1.00  0.00     0.027 C 
BRANCH   3   4
ATOM      4  C   UNL     1      -7.962   6.613 -12.172  1.00  0.00     0.004 C 
BRANCH   4   5
ATOM      5  C   UNL     1      -6.975   7.190 -13.202  1.00  0.00     0.000 C 
BRANCH   5   6
ATOM      6  C   UNL     1      -6.288   6.098 -14.036  1.00  0.00     0.000 C 
BRANCH   6   7
ATOM      7  C   UNL     1      -7.292   5.136 -14.695  1.00  0.00     0.000 C 
BRANCH   7   8
ATOM      8  C   UNL     1      -6.987   3.655 -14.405  1.00  0.00     0.006 C 
BRANCH   8   9
ATOM      9  C   UNL     1      -5.631   3.422 -13.717  1.00  0.00     0.053 C 
BRANCH   9  10
ATOM     10  C   UNL     1      -4.665   2.679 -14.589  1.00  0.00     0.041 C 
ATOM     11  O   UNL     1      -4.996   2.339 -15.755  1.00  0.00    -0.550 OA
ATOM     12  O   UNL     1      -3.409   2.332 -14.104  1.00  0.00    -0.550 OA
ENDBRANCH   9  10
ENDBRANCH   8   9
ENDBRANCH   7   8
ENDBRANCH   6   7
ENDBRANCH   5   6
ENDBRANCH   4   5
ENDBRANCH   3   4
ENDBRANCH   1   3
BRANCH   2  13
ATOM     13  C   UNL     1      -4.390   6.753  -8.808  1.00  0.00     0.027 C 
BRANCH  13  14
ATOM     14  C   UNL     1      -5.257   7.567  -7.834  1.00  0.00     0.004 C 
BRANCH  14  15
ATOM     15  C   UNL     1      -5.085   7.168  -6.355  1.00  0.00     0.000 C 
BRANCH  15  16
ATOM     16  C   UNL     1      -5.950   5.959  -5.959  1.00  0.00     0.000 C 
BRANCH  16  17
ATOM     17  C   UNL     1      -5.185   4.625  -6.098  1.00  0.00    -0.000 C 
BRANCH  17  18
ATOM     18  C   UNL     1      -4.998   3.879  -4.763  1.00  0.00    -0.000 C 
BRANCH  18  19
ATOM     19  C   UNL     1      -6.282   3.716  -3.933  1.00  0.00    -0.003 C 
ATOM     20  C   UNL     1      -6.072   2.875  -2.675  1.00  0.00     0.004 C 
ENDBRANCH  18  19
ENDBRANCH  17  18
ENDBRANCH  16  17
ENDBRANCH  15  16
ENDBRANCH  14  15
ENDBRANCH  13  14
ENDBRANCH   2  13
TORSDOF 15
ENDMDL
