MODEL 1
REMARK VINA RESULT:    -4.131      0.000      0.000
REMARK INTER + INTRA:         -17.396
REMARK INTER:                 -10.892
REMARK INTRA:                  -6.504
REMARK UNBOUND:                -6.504
REMARK SMILES CCCCCCCCCCCCCCCCCCCCCCCCCCCCCC(=O)[O-]
REMARK SMILES IDX 16 1 17 2 18 3 19 4 20 5 21 6 22 7 23 8 24 9 25 10 26 11
REMARK SMILES IDX 27 12 28 13 29 14 30 15 31 16 32 17 15 18 14 19 13 20 12 21
REMARK SMILES IDX 11 22 10 23 9 24 8 25 7 26 6 27 5 28 4 29 3 30 2 31 1 32
REMARK H PARENT
REMARK Flexibility Score: inf
ROOT
ATOM      1  C   UNL     1      53.658  30.466  37.669  1.00  0.00     0.000 C 
ENDROOT
BRANCH   1   2
ATOM      2  C   UNL     1      53.116  30.279  36.237  1.00  0.00     0.000 C 
BRANCH   2   3
ATOM      3  C   UNL     1      53.009  28.823  35.751  1.00  0.00     0.000 C 
BRANCH   3   4
ATOM      4  C   UNL     1      53.716  28.519  34.415  1.00  0.00     0.000 C 
BRANCH   4   5
ATOM      5  C   UNL     1      55.199  28.125  34.564  1.00  0.00     0.000 C 
BRANCH   5   6
ATOM      6  C   UNL     1      55.625  27.034  33.571  1.00  0.00     0.000 C 
BRANCH   6   7
ATOM      7  C   UNL     1      57.093  26.643  33.780  1.00  0.00     0.000 C 
BRANCH   7   8
ATOM      8  C   UNL     1      57.209  25.225  34.361  1.00  0.00     0.000 C 
BRANCH   8   9
ATOM      9  C   UNL     1      55.915  24.414  34.196  1.00  0.00     0.000 C 
BRANCH   9  10
ATOM     10  C   UNL     1      55.564  23.597  35.452  1.00  0.00     0.000 C 
BRANCH  10  11
ATOM     11  C   UNL     1      54.053  23.571  35.737  1.00  0.00     0.000 C 
BRANCH  11  12
ATOM     12  C   UNL     1      53.401  24.956  35.587  1.00  0.00     0.000 C 
BRANCH  12  13
ATOM     13  C   UNL     1      51.926  24.871  35.161  1.00  0.00     0.006 C 
BRANCH  13  14
ATOM     14  C   UNL     1      51.621  25.715  33.916  1.00  0.00     0.053 C 
BRANCH  14  15
ATOM     15  C   UNL     1      50.278  26.366  34.039  1.00  0.00     0.041 C 
ATOM     16  O   UNL     1      49.974  26.997  35.088  1.00  0.00    -0.550 OA
ATOM     17  O   UNL     1      49.383  26.323  32.979  1.00  0.00    -0.550 OA
ENDBRANCH  14  15
ENDBRANCH  13  14
ENDBRANCH  12  13
ENDBRANCH  11  12
ENDBRANCH  10  11
ENDBRANCH   9  10
ENDBRANCH   8   9
ENDBRANCH   7   8
ENDBRANCH   6   7
ENDBRANCH   5   6
ENDBRANCH   4   5
ENDBRANCH   3   4
ENDBRANCH   2   3
ENDBRANCH   1   2
BRANCH   1  18
ATOM     18  C   UNL     1      54.996  31.233  37.748  1.00  0.00     0.000 C 
BRANCH  18  19
ATOM     19  C   UNL     1      56.194  30.379  37.292  1.00  0.00     0.000 C 
BRANCH  19  20
ATOM     20  C   UNL     1      57.535  30.876  37.853  1.00  0.00     0.000 C 
BRANCH  20  21
ATOM     21  C   UNL     1      58.478  29.724  38.252  1.00  0.00     0.000 C 
BRANCH  21  22
ATOM     22  C   UNL     1      58.968  28.893  37.046  1.00  0.00     0.000 C 
BRANCH  22  23
ATOM     23  C   UNL     1      58.583  27.401  37.095  1.00  0.00     0.000 C 
BRANCH  23  24
ATOM     24  C   UNL     1      57.569  27.000  38.185  1.00  0.00    -0.000 C 
BRANCH  24  25
ATOM     25  C   UNL     1      56.197  26.515  37.678  1.00  0.00    -0.000 C 
BRANCH  25  26
ATOM     26  C   UNL     1      55.019  27.036  38.519  1.00  0.00    -0.000 C 
BRANCH  26  27
ATOM     27  C   UNL     1      55.399  27.281  39.991  1.00  0.00    -0.000 C 
BRANCH  27  28
ATOM     28  C   UNL     1      54.851  28.587  40.598  1.00  0.00    -0.000 C 
BRANCH  28  29
ATOM     29  C   UNL     1      55.951  29.607  40.928  1.00  0.00    -0.000 C 
BRANCH  29  30
ATOM     30  C   UNL     1      55.339  30.917  41.443  1.00  0.00    -0.000 C 
BRANCH  30  31
ATOM     31  C   UNL     1      56.252  32.131  41.215  1.00  0.00    -0.003 C 
ATOM     32  C   UNL     1      57.720  31.835  41.525  1.00  0.00     0.004 C 
ENDBRANCH  30  31
ENDBRANCH  29  30
ENDBRANCH  28  29
ENDBRANCH  27  28
ENDBRANCH  26  27
ENDBRANCH  25  26
ENDBRANCH  24  25
ENDBRANCH  23  24
ENDBRANCH  22  23
ENDBRANCH  21  22
ENDBRANCH  20  21
ENDBRANCH  19  20
ENDBRANCH  18  19
ENDBRANCH   1  18
TORSDOF 28
ENDMDL
MODEL 2
REMARK VINA RESULT:    -4.100      3.205      7.357
REMARK INTER + INTRA:         -17.316
REMARK INTER:                 -11.459
REMARK INTRA:                  -5.857
REMARK UNBOUND:                -6.504
REMARK SMILES CCCCCCCCCCCCCCCCCCCCCCCCCCCCCC(=O)[O-]
REMARK SMILES IDX 16 1 17 2 18 3 19 4 20 5 21 6 22 7 23 8 24 9 25 10 26 11
REMARK SMILES IDX 27 12 28 13 29 14 30 15 31 16 32 17 15 18 14 19 13 20 12 21
REMARK SMILES IDX 11 22 10 23 9 24 8 25 7 26 6 27 5 28 4 29 3 30 2 31 1 32
REMARK H PARENT
REMARK Flexibility Score: inf
ROOT
ATOM      1  C   UNL     1      55.020  30.731  37.708  1.00  0.00     0.000 C 
ENDROOT
BRANCH   1   2
ATOM      2  C   UNL     1      56.133  31.731  38.085  1.00  0.00     0.000 C 
BRANCH   2   3
ATOM      3  C   UNL     1      57.572  31.201  37.965  1.00  0.00     0.000 C 
BRANCH   3   4
ATOM      4  C   UNL     1      57.932  30.571  36.603  1.00  0.00     0.000 C 
BRANCH   4   5
ATOM      5  C   UNL     1      58.079  29.036  36.641  1.00  0.00     0.000 C 
BRANCH   5   6
ATOM      6  C   UNL     1      58.673  28.530  37.964  1.00  0.00     0.000 C 
BRANCH   6   7
ATOM      7  C   UNL     1      57.831  27.386  38.542  1.00  0.00     0.000 C 
BRANCH   7   8
ATOM      8  C   UNL     1      56.532  27.199  37.742  1.00  0.00     0.000 C 
BRANCH   8   9
ATOM      9  C   UNL     1      55.329  26.875  38.641  1.00  0.00     0.000 C 
BRANCH   9  10
ATOM     10  C   UNL     1      55.500  27.405  40.076  1.00  0.00     0.000 C 
BRANCH  10  11
ATOM     11  C   UNL     1      54.805  28.758  40.292  1.00  0.00     0.000 C 
BRANCH  11  12
ATOM     12  C   UNL     1      55.309  29.485  41.551  1.00  0.00     0.000 C 
BRANCH  12  13
ATOM     13  C   UNL     1      56.754  29.105  41.914  1.00  0.00     0.006 C 
BRANCH  13  14
ATOM     14  C   UNL     1      57.785  30.088  41.343  1.00  0.00     0.053 C 
BRANCH  14  15
ATOM     15  C   UNL     1      57.691  31.411  42.039  1.00  0.00     0.041 C 
ATOM     16  O   UNL     1      58.200  31.562  43.182  1.00  0.00    -0.550 OA
ATOM     17  O   UNL     1      57.090  32.490  41.405  1.00  0.00    -0.550 OA
ENDBRANCH  14  15
ENDBRANCH  13  14
ENDBRANCH  12  13
ENDBRANCH  11  12
ENDBRANCH  10  11
ENDBRANCH   9  10
ENDBRANCH   8   9
ENDBRANCH   7   8
ENDBRANCH   6   7
ENDBRANCH   5   6
ENDBRANCH   4   5
ENDBRANCH   3   4
ENDBRANCH   2   3
ENDBRANCH   1   2
BRANCH   1  18
ATOM     18  C   UNL     1      53.787  31.375  37.037  1.00  0.00     0.000 C 
BRANCH  18  19
ATOM     19  C   UNL     1      53.064  30.409  36.079  1.00  0.00     0.000 C 
BRANCH  19  20
ATOM     20  C   UNL     1      53.719  29.020  36.017  1.00  0.00     0.000 C 
BRANCH  20  21
ATOM     21  C   UNL     1      53.875  28.498  34.576  1.00  0.00     0.000 C 
BRANCH  21  22
ATOM     22  C   UNL     1      55.310  28.033  34.249  1.00  0.00     0.000 C 
BRANCH  22  23
ATOM     23  C   UNL     1      55.471  26.508  34.089  1.00  0.00     0.000 C 
BRANCH  23  24
ATOM     24  C   UNL     1      54.163  25.694  34.014  1.00  0.00    -0.000 C 
BRANCH  24  25
ATOM     25  C   UNL     1      53.906  24.729  35.187  1.00  0.00    -0.000 C 
BRANCH  25  26
ATOM     26  C   UNL     1      52.979  25.318  36.265  1.00  0.00    -0.000 C 
BRANCH  26  27
ATOM     27  C   UNL     1      51.674  24.519  36.432  1.00  0.00    -0.000 C 
BRANCH  27  28
ATOM     28  C   UNL     1      50.389  25.283  36.058  1.00  0.00    -0.000 C 
BRANCH  28  29
ATOM     29  C   UNL     1      50.661  26.706  35.546  1.00  0.00    -0.000 C 
BRANCH  29  30
ATOM     30  C   UNL     1      50.565  26.759  34.015  1.00  0.00    -0.000 C 
BRANCH  30  31
ATOM     31  C   UNL     1      49.981  25.474  33.410  1.00  0.00    -0.003 C 
ATOM     32  C   UNL     1      50.977  24.735  32.516  1.00  0.00     0.004 C 
ENDBRANCH  30  31
ENDBRANCH  29  30
ENDBRANCH  28  29
ENDBRANCH  27  28
ENDBRANCH  26  27
ENDBRANCH  25  26
ENDBRANCH  24  25
ENDBRANCH  23  24
ENDBRANCH  22  23
ENDBRANCH  21  22
ENDBRANCH  20  21
ENDBRANCH  19  20
ENDBRANCH  18  19
ENDBRANCH   1  18
TORSDOF 28
ENDMDL
MODEL 3
REMARK VINA RESULT:    -4.006      2.926      7.596
REMARK INTER + INTRA:         -17.066
REMARK INTER:                 -11.643
REMARK INTRA:                  -5.423
REMARK UNBOUND:                -6.504
REMARK SMILES CCCCCCCCCCCCCCCCCCCCCCCCCCCCCC(=O)[O-]
REMARK SMILES IDX 16 1 17 2 18 3 19 4 20 5 21 6 22 7 23 8 24 9 25 10 26 11
REMARK SMILES IDX 27 12 28 13 29 14 30 15 31 16 32 17 15 18 14 19 13 20 12 21
REMARK SMILES IDX 11 22 10 23 9 24 8 25 7 26 6 27 5 28 4 29 3 30 2 31 1 32
REMARK H PARENT
REMARK Flexibility Score: inf
ROOT
ATOM      1  C   UNL     1      52.057  27.967  34.545  1.00  0.00     0.000 C 
ENDROOT
BRANCH   1   2
ATOM      2  C   UNL     1      53.205  28.909  34.961  1.00  0.00     0.000 C 
BRANCH   2   3
ATOM      3  C   UNL     1      52.774  30.269  35.538  1.00  0.00     0.000 C 
BRANCH   3   4
ATOM      4  C   UNL     1      53.624  30.785  36.717  1.00  0.00     0.000 C 
BRANCH   4   5
ATOM      5  C   UNL     1      53.433  29.989  38.024  1.00  0.00     0.000 C 
BRANCH   5   6
ATOM      6  C   UNL     1      54.735  29.847  38.827  1.00  0.00     0.000 C 
BRANCH   6   7
ATOM      7  C   UNL     1      55.111  28.371  39.007  1.00  0.00     0.000 C 
BRANCH   7   8
ATOM      8  C   UNL     1      55.102  27.632  37.660  1.00  0.00     0.000 C 
BRANCH   8   9
ATOM      9  C   UNL     1      56.515  27.419  37.095  1.00  0.00     0.000 C 
BRANCH   9  10
ATOM     10  C   UNL     1      57.574  27.243  38.198  1.00  0.00     0.000 C 
BRANCH  10  11
ATOM     11  C   UNL     1      58.761  28.207  38.036  1.00  0.00     0.000 C 
BRANCH  11  12
ATOM     12  C   UNL     1      58.437  29.390  37.107  1.00  0.00     0.000 C 
BRANCH  12  13
ATOM     13  C   UNL     1      58.249  30.709  37.874  1.00  0.00     0.006 C 
BRANCH  13  14
ATOM     14  C   UNL     1      57.403  31.727  37.099  1.00  0.00     0.053 C 
BRANCH  14  15
ATOM     15  C   UNL     1      56.722  32.670  38.042  1.00  0.00     0.041 C 
ATOM     16  O   UNL     1      55.841  33.466  37.615  1.00  0.00    -0.550 OA
ATOM     17  O   UNL     1      57.019  32.636  39.398  1.00  0.00    -0.550 OA
ENDBRANCH  14  15
ENDBRANCH  13  14
ENDBRANCH  12  13
ENDBRANCH  11  12
ENDBRANCH  10  11
ENDBRANCH   9  10
ENDBRANCH   8   9
ENDBRANCH   7   8
ENDBRANCH   6   7
ENDBRANCH   5   6
ENDBRANCH   4   5
ENDBRANCH   3   4
ENDBRANCH   2   3
ENDBRANCH   1   2
BRANCH   1  18
ATOM     18  C   UNL     1      51.261  27.372  35.727  1.00  0.00     0.000 C 
BRANCH  18  19
ATOM     19  C   UNL     1      49.999  26.617  35.270  1.00  0.00     0.000 C 
BRANCH  19  20
ATOM     20  C   UNL     1      49.649  26.868  33.795  1.00  0.00     0.000 C 
BRANCH  20  21
ATOM     21  C   UNL     1      49.679  25.582  32.947  1.00  0.00     0.000 C 
BRANCH  21  22
ATOM     22  C   UNL     1      51.097  24.995  32.781  1.00  0.00     0.000 C 
BRANCH  22  23
ATOM     23  C   UNL     1      51.173  23.458  32.883  1.00  0.00     0.000 C 
BRANCH  23  24
ATOM     24  C   UNL     1      50.093  22.784  33.753  1.00  0.00    -0.000 C 
BRANCH  24  25
ATOM     25  C   UNL     1      50.309  22.873  35.276  1.00  0.00    -0.000 C 
BRANCH  25  26
ATOM     26  C   UNL     1      51.786  22.749  35.689  1.00  0.00    -0.000 C 
BRANCH  26  27
ATOM     27  C   UNL     1      52.267  23.932  36.549  1.00  0.00    -0.000 C 
BRANCH  27  28
ATOM     28  C   UNL     1      53.747  24.317  36.359  1.00  0.00    -0.000 C 
BRANCH  28  29
ATOM     29  C   UNL     1      54.004  25.106  35.067  1.00  0.00    -0.000 C 
BRANCH  29  30
ATOM     30  C   UNL     1      55.438  24.879  34.569  1.00  0.00    -0.000 C 
BRANCH  30  31
ATOM     31  C   UNL     1      55.740  25.627  33.262  1.00  0.00    -0.003 C 
ATOM     32  C   UNL     1      56.218  27.060  33.496  1.00  0.00     0.004 C 
ENDBRANCH  30  31
ENDBRANCH  29  30
ENDBRANCH  28  29
ENDBRANCH  27  28
ENDBRANCH  26  27
ENDBRANCH  25  26
ENDBRANCH  24  25
ENDBRANCH  23  24
ENDBRANCH  22  23
ENDBRANCH  21  22
ENDBRANCH  20  21
ENDBRANCH  19  20
ENDBRANCH  18  19
ENDBRANCH   1  18
TORSDOF 28
ENDMDL
MODEL 4
REMARK VINA RESULT:    -3.982      3.332      8.649
REMARK INTER + INTRA:         -17.004
REMARK INTER:                 -10.808
REMARK INTRA:                  -6.197
REMARK UNBOUND:                -6.504
REMARK SMILES CCCCCCCCCCCCCCCCCCCCCCCCCCCCCC(=O)[O-]
REMARK SMILES IDX 16 1 17 2 18 3 19 4 20 5 21 6 22 7 23 8 24 9 25 10 26 11
REMARK SMILES IDX 27 12 28 13 29 14 30 15 31 16 32 17 15 18 14 19 13 20 12 21
REMARK SMILES IDX 11 22 10 23 9 24 8 25 7 26 6 27 5 28 4 29 3 30 2 31 1 32
REMARK H PARENT
REMARK Flexibility Score: inf
ROOT
ATOM      1  C   UNL     1      52.536  25.340  36.530  1.00  0.00     0.000 C 
ENDROOT
BRANCH   1   2
ATOM      2  C   UNL     1      54.063  25.141  36.622  1.00  0.00     0.000 C 
BRANCH   2   3
ATOM      3  C   UNL     1      54.829  26.221  37.405  1.00  0.00     0.000 C 
BRANCH   3   4
ATOM      4  C   UNL     1      56.061  26.809  36.687  1.00  0.00     0.000 C 
BRANCH   4   5
ATOM      5  C   UNL     1      55.996  26.712  35.149  1.00  0.00     0.000 C 
BRANCH   5   6
ATOM      6  C   UNL     1      55.470  27.999  34.496  1.00  0.00     0.000 C 
BRANCH   6   7
ATOM      7  C   UNL     1      54.044  27.802  33.967  1.00  0.00     0.000 C 
BRANCH   7   8
ATOM      8  C   UNL     1      53.142  28.981  34.365  1.00  0.00     0.000 C 
BRANCH   8   9
ATOM      9  C   UNL     1      52.760  28.955  35.853  1.00  0.00     0.000 C 
BRANCH   9  10
ATOM     10  C   UNL     1      53.150  30.249  36.588  1.00  0.00     0.000 C 
BRANCH  10  11
ATOM     11  C   UNL     1      54.469  30.113  37.365  1.00  0.00     0.000 C 
BRANCH  11  12
ATOM     12  C   UNL     1      54.250  29.997  38.884  1.00  0.00     0.000 C 
BRANCH  12  13
ATOM     13  C   UNL     1      55.347  29.174  39.578  1.00  0.00     0.006 C 
BRANCH  13  14
ATOM     14  C   UNL     1      55.415  29.434  41.088  1.00  0.00     0.053 C 
BRANCH  14  15
ATOM     15  C   UNL     1      56.781  29.903  41.480  1.00  0.00     0.041 C 
ATOM     16  O   UNL     1      57.591  29.106  42.028  1.00  0.00    -0.550 OA
ATOM     17  O   UNL     1      57.181  31.201  41.194  1.00  0.00    -0.550 OA
ENDBRANCH  14  15
ENDBRANCH  13  14
ENDBRANCH  12  13
ENDBRANCH  11  12
ENDBRANCH  10  11
ENDBRANCH   9  10
ENDBRANCH   8   9
ENDBRANCH   7   8
ENDBRANCH   6   7
ENDBRANCH   5   6
ENDBRANCH   4   5
ENDBRANCH   3   4
ENDBRANCH   2   3
ENDBRANCH   1   2
BRANCH   1  18
ATOM     18  C   UNL     1      51.717  24.034  36.624  1.00  0.00     0.000 C 
BRANCH  18  19
ATOM     19  C   UNL     1      52.486  22.814  36.082  1.00  0.00     0.000 C 
BRANCH  19  20
ATOM     20  C   UNL     1      51.606  21.868  35.252  1.00  0.00     0.000 C 
BRANCH  20  21
ATOM     21  C   UNL     1      50.099  22.103  35.478  1.00  0.00     0.000 C 
BRANCH  21  22
ATOM     22  C   UNL     1      49.310  22.289  34.165  1.00  0.00     0.000 C 
BRANCH  22  23
ATOM     23  C   UNL     1      48.098  23.238  34.272  1.00  0.00     0.000 C 
BRANCH  23  24
ATOM     24  C   UNL     1      48.311  24.669  33.739  1.00  0.00    -0.000 C 
BRANCH  24  25
ATOM     25  C   UNL     1      48.970  25.658  34.720  1.00  0.00    -0.000 C 
BRANCH  25  26
ATOM     26  C   UNL     1      49.999  26.585  34.049  1.00  0.00    -0.000 C 
BRANCH  26  27
ATOM     27  C   UNL     1      50.671  25.941  32.822  1.00  0.00    -0.000 C 
BRANCH  27  28
ATOM     28  C   UNL     1      51.907  25.076  33.134  1.00  0.00    -0.000 C 
BRANCH  28  29
ATOM     29  C   UNL     1      51.976  23.796  32.288  1.00  0.00    -0.000 C 
BRANCH  29  30
ATOM     30  C   UNL     1      53.435  23.375  32.060  1.00  0.00    -0.000 C 
BRANCH  30  31
ATOM     31  C   UNL     1      54.420  24.123  32.971  1.00  0.00    -0.003 C 
ATOM     32  C   UNL     1      55.333  23.181  33.757  1.00  0.00     0.004 C 
ENDBRANCH  30  31
ENDBRANCH  29  30
ENDBRANCH  28  29
ENDBRANCH  27  28
ENDBRANCH  26  27
ENDBRANCH  25  26
ENDBRANCH  24  25
ENDBRANCH  23  24
ENDBRANCH  22  23
ENDBRANCH  21  22
ENDBRANCH  20  21
ENDBRANCH  19  20
ENDBRANCH  18  19
ENDBRANCH   1  18
TORSDOF 28
ENDMDL
MODEL 5
REMARK VINA RESULT:    -3.967      2.879      4.918
REMARK INTER + INTRA:         -16.964
REMARK INTER:                 -11.404
REMARK INTRA:                  -5.560
REMARK UNBOUND:                -6.504
REMARK SMILES CCCCCCCCCCCCCCCCCCCCCCCCCCCCCC(=O)[O-]
REMARK SMILES IDX 16 1 17 2 18 3 19 4 20 5 21 6 22 7 23 8 24 9 25 10 26 11
REMARK SMILES IDX 27 12 28 13 29 14 30 15 31 16 32 17 15 18 14 19 13 20 12 21
REMARK SMILES IDX 11 22 10 23 9 24 8 25 7 26 6 27 5 28 4 29 3 30 2 31 1 32
REMARK H PARENT
REMARK Flexibility Score: inf
ROOT
ATOM      1  C   UNL     1      53.500  30.283  36.789  1.00  0.00     0.000 C 
ENDROOT
BRANCH   1   2
ATOM      2  C   UNL     1      52.847  29.619  35.559  1.00  0.00     0.000 C 
BRANCH   2   3
ATOM      3  C   UNL     1      52.009  28.362  35.848  1.00  0.00     0.000 C 
BRANCH   3   4
ATOM      4  C   UNL     1      51.643  27.514  34.612  1.00  0.00     0.000 C 
BRANCH   4   5
ATOM      5  C   UNL     1      52.846  26.804  33.960  1.00  0.00     0.000 C 
BRANCH   5   6
ATOM      6  C   UNL     1      52.511  25.380  33.493  1.00  0.00     0.000 C 
BRANCH   6   7
ATOM      7  C   UNL     1      53.493  24.362  34.086  1.00  0.00     0.000 C 
BRANCH   7   8
ATOM      8  C   UNL     1      53.561  24.490  35.616  1.00  0.00     0.000 C 
BRANCH   8   9
ATOM      9  C   UNL     1      55.002  24.607  36.134  1.00  0.00     0.000 C 
BRANCH   9  10
ATOM     10  C   UNL     1      55.323  26.008  36.685  1.00  0.00     0.000 C 
BRANCH  10  11
ATOM     11  C   UNL     1      56.517  26.663  35.972  1.00  0.00     0.000 C 
BRANCH  11  12
ATOM     12  C   UNL     1      56.095  27.469  34.732  1.00  0.00     0.000 C 
BRANCH  12  13
ATOM     13  C   UNL     1      56.750  26.952  33.441  1.00  0.00     0.006 C 
BRANCH  13  14
ATOM     14  C   UNL     1      57.932  26.012  33.713  1.00  0.00     0.053 C 
BRANCH  14  15
ATOM     15  C   UNL     1      59.018  26.229  32.706  1.00  0.00     0.041 C 
ATOM     16  O   UNL     1      58.729  26.564  31.525  1.00  0.00    -0.550 OA
ATOM     17  O   UNL     1      60.350  26.114  33.081  1.00  0.00    -0.550 OA
ENDBRANCH  14  15
ENDBRANCH  13  14
ENDBRANCH  12  13
ENDBRANCH  11  12
ENDBRANCH  10  11
ENDBRANCH   9  10
ENDBRANCH   8   9
ENDBRANCH   7   8
ENDBRANCH   6   7
ENDBRANCH   5   6
ENDBRANCH   4   5
ENDBRANCH   3   4
ENDBRANCH   2   3
ENDBRANCH   1   2
BRANCH   1  18
ATOM     18  C   UNL     1      54.417  29.347  37.606  1.00  0.00     0.000 C 
BRANCH  18  19
ATOM     19  C   UNL     1      54.661  29.860  39.038  1.00  0.00     0.000 C 
BRANCH  19  20
ATOM     20  C   UNL     1      54.952  28.732  40.040  1.00  0.00     0.000 C 
BRANCH  20  21
ATOM     21  C   UNL     1      54.893  29.206  41.505  1.00  0.00     0.000 C 
BRANCH  21  22
ATOM     22  C   UNL     1      55.361  30.666  41.691  1.00  0.00     0.000 C 
BRANCH  22  23
ATOM     23  C   UNL     1      56.738  30.818  42.368  1.00  0.00     0.000 C 
BRANCH  23  24
ATOM     24  C   UNL     1      57.965  30.665  41.447  1.00  0.00    -0.000 C 
BRANCH  24  25
ATOM     25  C   UNL     1      58.585  29.255  41.386  1.00  0.00    -0.000 C 
BRANCH  25  26
ATOM     26  C   UNL     1      58.666  28.689  39.958  1.00  0.00    -0.000 C 
BRANCH  26  27
ATOM     27  C   UNL     1      58.721  29.789  38.882  1.00  0.00    -0.000 C 
BRANCH  27  28
ATOM     28  C   UNL     1      58.385  29.321  37.453  1.00  0.00    -0.000 C 
BRANCH  28  29
ATOM     29  C   UNL     1      57.717  30.412  36.603  1.00  0.00    -0.000 C 
BRANCH  29  30
ATOM     30  C   UNL     1      57.914  31.794  37.242  1.00  0.00    -0.000 C 
BRANCH  30  31
ATOM     31  C   UNL     1      56.586  32.496  37.561  1.00  0.00    -0.003 C 
ATOM     32  C   UNL     1      56.556  33.096  38.967  1.00  0.00     0.004 C 
ENDBRANCH  30  31
ENDBRANCH  29  30
ENDBRANCH  28  29
ENDBRANCH  27  28
ENDBRANCH  26  27
ENDBRANCH  25  26
ENDBRANCH  24  25
ENDBRANCH  23  24
ENDBRANCH  22  23
ENDBRANCH  21  22
ENDBRANCH  20  21
ENDBRANCH  19  20
ENDBRANCH  18  19
ENDBRANCH   1  18
TORSDOF 28
ENDMDL
MODEL 6
REMARK VINA RESULT:    -3.954      2.656      4.822
REMARK INTER + INTRA:         -16.931
REMARK INTER:                 -10.811
REMARK INTRA:                  -6.120
REMARK UNBOUND:                -6.504
REMARK SMILES CCCCCCCCCCCCCCCCCCCCCCCCCCCCCC(=O)[O-]
REMARK SMILES IDX 16 1 17 2 18 3 19 4 20 5 21 6 22 7 23 8 24 9 25 10 26 11
REMARK SMILES IDX 27 12 28 13 29 14 30 15 31 16 32 17 15 18 14 19 13 20 12 21
REMARK SMILES IDX 11 22 10 23 9 24 8 25 7 26 6 27 5 28 4 29 3 30 2 31 1 32
REMARK H PARENT
REMARK Flexibility Score: inf
ROOT
ATOM      1  C   UNL     1      53.228  27.287  35.201  1.00  0.00     0.000 C 
ENDROOT
BRANCH   1   2
ATOM      2  C   UNL     1      52.656  27.038  33.790  1.00  0.00     0.000 C 
BRANCH   2   3
ATOM      3  C   UNL     1      51.350  26.227  33.735  1.00  0.00     0.000 C 
BRANCH   3   4
ATOM      4  C   UNL     1      50.198  26.770  34.606  1.00  0.00     0.000 C 
BRANCH   4   5
ATOM      5  C   UNL     1      49.985  25.994  35.921  1.00  0.00     0.000 C 
BRANCH   5   6
ATOM      6  C   UNL     1      50.466  24.538  35.834  1.00  0.00     0.000 C 
BRANCH   6   7
ATOM      7  C   UNL     1      51.751  24.335  36.645  1.00  0.00     0.000 C 
BRANCH   7   8
ATOM      8  C   UNL     1      52.439  23.015  36.266  1.00  0.00     0.000 C 
BRANCH   8   9
ATOM      9  C   UNL     1      52.511  22.803  34.745  1.00  0.00     0.000 C 
BRANCH   9  10
ATOM     10  C   UNL     1      53.717  23.512  34.104  1.00  0.00     0.000 C 
BRANCH  10  11
ATOM     11  C   UNL     1      54.967  23.477  34.998  1.00  0.00     0.000 C 
BRANCH  11  12
ATOM     12  C   UNL     1      55.830  24.742  34.856  1.00  0.00     0.000 C 
BRANCH  12  13
ATOM     13  C   UNL     1      55.839  25.292  33.420  1.00  0.00     0.006 C 
BRANCH  13  14
ATOM     14  C   UNL     1      56.685  26.566  33.281  1.00  0.00     0.053 C 
BRANCH  14  15
ATOM     15  C   UNL     1      58.118  26.219  33.023  1.00  0.00     0.041 C 
ATOM     16  O   UNL     1      58.532  26.077  31.840  1.00  0.00    -0.550 OA
ATOM     17  O   UNL     1      59.009  26.106  34.081  1.00  0.00    -0.550 OA
ENDBRANCH  14  15
ENDBRANCH  13  14
ENDBRANCH  12  13
ENDBRANCH  11  12
ENDBRANCH  10  11
ENDBRANCH   9  10
ENDBRANCH   8   9
ENDBRANCH   7   8
ENDBRANCH   6   7
ENDBRANCH   5   6
ENDBRANCH   4   5
ENDBRANCH   3   4
ENDBRANCH   2   3
ENDBRANCH   1   2
BRANCH   1  18
ATOM     18  C   UNL     1      53.856  28.684  35.396  1.00  0.00     0.000 C 
BRANCH  18  19
ATOM     19  C   UNL     1      52.818  29.747  35.801  1.00  0.00     0.000 C 
BRANCH  19  20
ATOM     20  C   UNL     1      53.142  30.426  37.140  1.00  0.00     0.000 C 
BRANCH  20  21
ATOM     21  C   UNL     1      54.633  30.327  37.514  1.00  0.00     0.000 C 
BRANCH  21  22
ATOM     22  C   UNL     1      54.883  30.373  39.037  1.00  0.00     0.000 C 
BRANCH  22  23
ATOM     23  C   UNL     1      54.985  28.991  39.714  1.00  0.00     0.000 C 
BRANCH  23  24
ATOM     24  C   UNL     1      55.124  27.783  38.766  1.00  0.00    -0.000 C 
BRANCH  24  25
ATOM     25  C   UNL     1      56.251  26.789  39.108  1.00  0.00    -0.000 C 
BRANCH  25  26
ATOM     26  C   UNL     1      57.340  26.709  38.024  1.00  0.00    -0.000 C 
BRANCH  26  27
ATOM     27  C   UNL     1      57.012  27.561  36.784  1.00  0.00    -0.000 C 
BRANCH  27  28
ATOM     28  C   UNL     1      58.054  28.642  36.441  1.00  0.00    -0.000 C 
BRANCH  28  29
ATOM     29  C   UNL     1      58.900  29.070  37.650  1.00  0.00    -0.000 C 
BRANCH  29  30
ATOM     30  C   UNL     1      58.381  30.392  38.234  1.00  0.00    -0.000 C 
BRANCH  30  31
ATOM     31  C   UNL     1      58.513  30.460  39.762  1.00  0.00    -0.003 C 
ATOM     32  C   UNL     1      58.871  29.111  40.387  1.00  0.00     0.004 C 
ENDBRANCH  30  31
ENDBRANCH  29  30
ENDBRANCH  28  29
ENDBRANCH  27  28
ENDBRANCH  26  27
ENDBRANCH  25  26
ENDBRANCH  24  25
ENDBRANCH  23  24
ENDBRANCH  22  23
ENDBRANCH  21  22
ENDBRANCH  20  21
ENDBRANCH  19  20
ENDBRANCH  18  19
ENDBRANCH   1  18
TORSDOF 28
ENDMDL
MODEL 7
REMARK VINA RESULT:    -3.944      2.834      5.337
REMARK INTER + INTRA:         -16.903
REMARK INTER:                 -10.809
REMARK INTRA:                  -6.094
REMARK UNBOUND:                -6.504
REMARK SMILES CCCCCCCCCCCCCCCCCCCCCCCCCCCCCC(=O)[O-]
REMARK SMILES IDX 16 1 17 2 18 3 19 4 20 5 21 6 22 7 23 8 24 9 25 10 26 11
REMARK SMILES IDX 27 12 28 13 29 14 30 15 31 16 32 17 15 18 14 19 13 20 12 21
REMARK SMILES IDX 11 22 10 23 9 24 8 25 7 26 6 27 5 28 4 29 3 30 2 31 1 32
REMARK H PARENT
REMARK Flexibility Score: inf
ROOT
ATOM      1  C   UNL     1      51.826  27.004  35.476  1.00  0.00     0.000 C 
ENDROOT
BRANCH   1   2
ATOM      2  C   UNL     1      50.368  26.529  35.308  1.00  0.00     0.000 C 
BRANCH   2   3
ATOM      3  C   UNL     1      49.762  26.721  33.907  1.00  0.00     0.000 C 
BRANCH   3   4
ATOM      4  C   UNL     1      49.380  25.422  33.169  1.00  0.00     0.000 C 
BRANCH   4   5
ATOM      5  C   UNL     1      48.256  24.618  33.853  1.00  0.00     0.000 C 
BRANCH   5   6
ATOM      6  C   UNL     1      48.474  23.101  33.762  1.00  0.00     0.000 C 
BRANCH   6   7
ATOM      7  C   UNL     1      48.935  22.530  35.108  1.00  0.00     0.000 C 
BRANCH   7   8
ATOM      8  C   UNL     1      50.414  22.115  35.053  1.00  0.00     0.000 C 
BRANCH   8   9
ATOM      9  C   UNL     1      51.276  22.868  36.078  1.00  0.00     0.000 C 
BRANCH   9  10
ATOM     10  C   UNL     1      52.476  23.584  35.432  1.00  0.00     0.000 C 
BRANCH  10  11
ATOM     11  C   UNL     1      52.511  23.416  33.905  1.00  0.00     0.000 C 
BRANCH  11  12
ATOM     12  C   UNL     1      53.377  24.484  33.215  1.00  0.00     0.000 C 
BRANCH  12  13
ATOM     13  C   UNL     1      54.616  23.885  32.528  1.00  0.00     0.006 C 
BRANCH  13  14
ATOM     14  C   UNL     1      55.202  22.695  33.299  1.00  0.00     0.053 C 
BRANCH  14  15
ATOM     15  C   UNL     1      56.646  22.933  33.615  1.00  0.00     0.041 C 
ATOM     16  O   UNL     1      57.333  23.703  32.891  1.00  0.00    -0.550 OA
ATOM     17  O   UNL     1      57.219  22.349  34.736  1.00  0.00    -0.550 OA
ENDBRANCH  14  15
ENDBRANCH  13  14
ENDBRANCH  12  13
ENDBRANCH  11  12
ENDBRANCH  10  11
ENDBRANCH   9  10
ENDBRANCH   8   9
ENDBRANCH   7   8
ENDBRANCH   6   7
ENDBRANCH   5   6
ENDBRANCH   4   5
ENDBRANCH   3   4
ENDBRANCH   2   3
ENDBRANCH   1   2
BRANCH   1  18
ATOM     18  C   UNL     1      52.002  28.538  35.455  1.00  0.00     0.000 C 
BRANCH  18  19
ATOM     19  C   UNL     1      53.402  28.966  34.978  1.00  0.00     0.000 C 
BRANCH  19  20
ATOM     20  C   UNL     1      54.003  28.007  33.939  1.00  0.00     0.000 C 
BRANCH  20  21
ATOM     21  C   UNL     1      55.537  28.122  33.838  1.00  0.00     0.000 C 
BRANCH  21  22
ATOM     22  C   UNL     1      56.257  26.760  33.947  1.00  0.00     0.000 C 
BRANCH  22  23
ATOM     23  C   UNL     1      56.604  26.330  35.387  1.00  0.00     0.000 C 
BRANCH  23  24
ATOM     24  C   UNL     1      55.509  25.552  36.142  1.00  0.00    -0.000 C 
BRANCH  24  25
ATOM     25  C   UNL     1      54.832  26.304  37.304  1.00  0.00    -0.000 C 
BRANCH  25  26
ATOM     26  C   UNL     1      55.741  27.363  37.953  1.00  0.00    -0.000 C 
BRANCH  26  27
ATOM     27  C   UNL     1      54.996  28.670  38.281  1.00  0.00    -0.000 C 
BRANCH  27  28
ATOM     28  C   UNL     1      55.705  29.958  37.820  1.00  0.00    -0.000 C 
BRANCH  28  29
ATOM     29  C   UNL     1      56.643  29.735  36.624  1.00  0.00    -0.000 C 
BRANCH  29  30
ATOM     30  C   UNL     1      58.074  30.172  36.969  1.00  0.00    -0.000 C 
BRANCH  30  31
ATOM     31  C   UNL     1      59.014  28.985  37.225  1.00  0.00    -0.003 C 
ATOM     32  C   UNL     1      59.105  28.609  38.704  1.00  0.00     0.004 C 
ENDBRANCH  30  31
ENDBRANCH  29  30
ENDBRANCH  28  29
ENDBRANCH  27  28
ENDBRANCH  26  27
ENDBRANCH  25  26
ENDBRANCH  24  25
ENDBRANCH  23  24
ENDBRANCH  22  23
ENDBRANCH  21  22
ENDBRANCH  20  21
ENDBRANCH  19  20
ENDBRANCH  18  19
ENDBRANCH   1  18
TORSDOF 28
ENDMDL
MODEL 8
REMARK VINA RESULT:    -3.920      3.047      8.029
REMARK INTER + INTRA:         -16.840
REMARK INTER:                 -11.319
REMARK INTRA:                  -5.522
REMARK UNBOUND:                -6.504
REMARK SMILES CCCCCCCCCCCCCCCCCCCCCCCCCCCCCC(=O)[O-]
REMARK SMILES IDX 16 1 17 2 18 3 19 4 20 5 21 6 22 7 23 8 24 9 25 10 26 11
REMARK SMILES IDX 27 12 28 13 29 14 30 15 31 16 32 17 15 18 14 19 13 20 12 21
REMARK SMILES IDX 11 22 10 23 9 24 8 25 7 26 6 27 5 28 4 29 3 30 2 31 1 32
REMARK H PARENT
REMARK Flexibility Score: inf
ROOT
ATOM      1  C   UNL     1      55.593  28.125  34.180  1.00  0.00     0.000 C 
ENDROOT
BRANCH   1   2
ATOM      2  C   UNL     1      56.009  27.404  35.479  1.00  0.00     0.000 C 
BRANCH   2   3
ATOM      3  C   UNL     1      57.497  27.515  35.854  1.00  0.00     0.000 C 
BRANCH   3   4
ATOM      4  C   UNL     1      57.825  27.250  37.338  1.00  0.00     0.000 C 
BRANCH   4   5
ATOM      5  C   UNL     1      58.679  28.352  37.998  1.00  0.00     0.000 C 
BRANCH   5   6
ATOM      6  C   UNL     1      58.335  29.757  37.483  1.00  0.00     0.000 C 
BRANCH   6   7
ATOM      7  C   UNL     1      58.037  30.711  38.645  1.00  0.00     0.000 C 
BRANCH   7   8
ATOM      8  C   UNL     1      56.825  31.601  38.332  1.00  0.00     0.000 C 
BRANCH   8   9
ATOM      9  C   UNL     1      55.736  30.857  37.543  1.00  0.00     0.000 C 
BRANCH   9  10
ATOM     10  C   UNL     1      54.647  30.262  38.452  1.00  0.00     0.000 C 
BRANCH  10  11
ATOM     11  C   UNL     1      54.785  28.741  38.621  1.00  0.00     0.000 C 
BRANCH  11  12
ATOM     12  C   UNL     1      55.095  28.334  40.072  1.00  0.00     0.000 C 
BRANCH  12  13
ATOM     13  C   UNL     1      54.945  29.504  41.058  1.00  0.00     0.006 C 
BRANCH  13  14
ATOM     14  C   UNL     1      56.229  29.775  41.854  1.00  0.00     0.053 C 
BRANCH  14  15
ATOM     15  C   UNL     1      56.303  31.215  42.257  1.00  0.00     0.041 C 
ATOM     16  O   UNL     1      55.512  32.056  41.750  1.00  0.00    -0.550 OA
ATOM     17  O   UNL     1      57.207  31.620  43.229  1.00  0.00    -0.550 OA
ENDBRANCH  14  15
ENDBRANCH  13  14
ENDBRANCH  12  13
ENDBRANCH  11  12
ENDBRANCH  10  11
ENDBRANCH   9  10
ENDBRANCH   8   9
ENDBRANCH   7   8
ENDBRANCH   6   7
ENDBRANCH   5   6
ENDBRANCH   4   5
ENDBRANCH   3   4
ENDBRANCH   2   3
ENDBRANCH   1   2
BRANCH   1  18
ATOM     18  C   UNL     1      54.067  28.283  34.001  1.00  0.00     0.000 C 
BRANCH  18  19
ATOM     19  C   UNL     1      53.439  29.199  35.068  1.00  0.00     0.000 C 
BRANCH  19  20
ATOM     20  C   UNL     1      52.160  28.614  35.686  1.00  0.00     0.000 C 
BRANCH  20  21
ATOM     21  C   UNL     1      51.716  27.303  35.010  1.00  0.00     0.000 C 
BRANCH  21  22
ATOM     22  C   UNL     1      50.256  26.917  35.331  1.00  0.00     0.000 C 
BRANCH  22  23
ATOM     23  C   UNL     1      49.421  26.488  34.107  1.00  0.00     0.000 C 
BRANCH  23  24
ATOM     24  C   UNL     1      49.498  24.996  33.727  1.00  0.00    -0.000 C 
BRANCH  24  25
ATOM     25  C   UNL     1      49.038  24.003  34.812  1.00  0.00    -0.000 C 
BRANCH  25  26
ATOM     26  C   UNL     1      50.187  23.153  35.383  1.00  0.00    -0.000 C 
BRANCH  26  27
ATOM     27  C   UNL     1      51.456  23.203  34.514  1.00  0.00    -0.000 C 
BRANCH  27  28
ATOM     28  C   UNL     1      52.784  23.171  35.294  1.00  0.00    -0.000 C 
BRANCH  28  29
ATOM     29  C   UNL     1      53.683  24.383  35.004  1.00  0.00    -0.000 C 
BRANCH  29  30
ATOM     30  C   UNL     1      53.814  24.612  33.492  1.00  0.00    -0.000 C 
BRANCH  30  31
ATOM     31  C   UNL     1      55.276  24.672  33.024  1.00  0.00    -0.003 C 
ATOM     32  C   UNL     1      56.241  24.006  34.006  1.00  0.00     0.004 C 
ENDBRANCH  30  31
ENDBRANCH  29  30
ENDBRANCH  28  29
ENDBRANCH  27  28
ENDBRANCH  26  27
ENDBRANCH  25  26
ENDBRANCH  24  25
ENDBRANCH  23  24
ENDBRANCH  22  23
ENDBRANCH  21  22
ENDBRANCH  20  21
ENDBRANCH  19  20
ENDBRANCH  18  19
ENDBRANCH   1  18
TORSDOF 28
ENDMDL
MODEL 9
REMARK VINA RESULT:    -3.915      2.010      3.979
REMARK INTER + INTRA:         -16.828
REMARK INTER:                 -11.770
REMARK INTRA:                  -5.058
REMARK UNBOUND:                -6.504
REMARK SMILES CCCCCCCCCCCCCCCCCCCCCCCCCCCCCC(=O)[O-]
REMARK SMILES IDX 16 1 17 2 18 3 19 4 20 5 21 6 22 7 23 8 24 9 25 10 26 11
REMARK SMILES IDX 27 12 28 13 29 14 30 15 31 16 32 17 15 18 14 19 13 20 12 21
REMARK SMILES IDX 11 22 10 23 9 24 8 25 7 26 6 27 5 28 4 29 3 30 2 31 1 32
REMARK H PARENT
REMARK Flexibility Score: inf
ROOT
ATOM      1  C   UNL     1      56.556  26.950  36.726  1.00  0.00     0.000 C 
ENDROOT
BRANCH   1   2
ATOM      2  C   UNL     1      55.285  27.101  35.865  1.00  0.00     0.000 C 
BRANCH   2   3
ATOM      3  C   UNL     1      55.379  28.114  34.711  1.00  0.00     0.000 C 
BRANCH   3   4
ATOM      4  C   UNL     1      54.043  28.450  34.017  1.00  0.00     0.000 C 
BRANCH   4   5
ATOM      5  C   UNL     1      52.858  28.624  34.988  1.00  0.00     0.000 C 
BRANCH   5   6
ATOM      6  C   UNL     1      51.744  27.593  34.754  1.00  0.00     0.000 C 
BRANCH   6   7
ATOM      7  C   UNL     1      52.143  26.593  33.663  1.00  0.00     0.000 C 
BRANCH   7   8
ATOM      8  C   UNL     1      50.901  25.975  33.002  1.00  0.00     0.000 C 
BRANCH   8   9
ATOM      9  C   UNL     1      49.589  26.517  33.589  1.00  0.00     0.000 C 
BRANCH   9  10
ATOM     10  C   UNL     1      48.675  25.403  34.129  1.00  0.00     0.000 C 
BRANCH  10  11
ATOM     11  C   UNL     1      49.458  24.294  34.849  1.00  0.00     0.000 C 
BRANCH  11  12
ATOM     12  C   UNL     1      50.085  24.775  36.168  1.00  0.00     0.000 C 
BRANCH  12  13
ATOM     13  C   UNL     1      51.386  24.030  36.510  1.00  0.00     0.006 C 
BRANCH  13  14
ATOM     14  C   UNL     1      51.741  22.955  35.475  1.00  0.00     0.053 C 
BRANCH  14  15
ATOM     15  C   UNL     1      53.038  23.281  34.802  1.00  0.00     0.041 C 
ATOM     16  O   UNL     1      53.150  23.161  33.551  1.00  0.00    -0.550 OA
ATOM     17  O   UNL     1      54.104  23.770  35.544  1.00  0.00    -0.550 OA
ENDBRANCH  14  15
ENDBRANCH  13  14
ENDBRANCH  12  13
ENDBRANCH  11  12
ENDBRANCH  10  11
ENDBRANCH   9  10
ENDBRANCH   8   9
ENDBRANCH   7   8
ENDBRANCH   6   7
ENDBRANCH   5   6
ENDBRANCH   4   5
ENDBRANCH   3   4
ENDBRANCH   2   3
ENDBRANCH   1   2
BRANCH   1  18
ATOM     18  C   UNL     1      57.780  27.728  36.195  1.00  0.00     0.000 C 
BRANCH  18  19
ATOM     19  C   UNL     1      58.746  28.148  37.319  1.00  0.00     0.000 C 
BRANCH  19  20
ATOM     20  C   UNL     1      58.722  29.658  37.601  1.00  0.00     0.000 C 
BRANCH  20  21
ATOM     21  C   UNL     1      57.732  30.418  36.697  1.00  0.00     0.000 C 
BRANCH  21  22
ATOM     22  C   UNL     1      57.310  31.787  37.272  1.00  0.00     0.000 C 
BRANCH  22  23
ATOM     23  C   UNL     1      55.889  31.822  37.870  1.00  0.00     0.000 C 
BRANCH  23  24
ATOM     24  C   UNL     1      54.887  30.802  37.292  1.00  0.00    -0.000 C 
BRANCH  24  25
ATOM     25  C   UNL     1      54.275  29.816  38.306  1.00  0.00    -0.000 C 
BRANCH  25  26
ATOM     26  C   UNL     1      55.307  29.241  39.292  1.00  0.00    -0.000 C 
BRANCH  26  27
ATOM     27  C   UNL     1      54.884  29.404  40.763  1.00  0.00    -0.000 C 
BRANCH  27  28
ATOM     28  C   UNL     1      55.800  28.707  41.787  1.00  0.00    -0.000 C 
BRANCH  28  29
ATOM     29  C   UNL     1      56.927  29.613  42.304  1.00  0.00    -0.000 C 
BRANCH  29  30
ATOM     30  C   UNL     1      58.089  29.659  41.302  1.00  0.00    -0.000 C 
BRANCH  30  31
ATOM     31  C   UNL     1      58.663  31.072  41.119  1.00  0.00    -0.003 C 
ATOM     32  C   UNL     1      57.579  32.148  41.058  1.00  0.00     0.004 C 
ENDBRANCH  30  31
ENDBRANCH  29  30
ENDBRANCH  28  29
ENDBRANCH  27  28
ENDBRANCH  26  27
ENDBRANCH  25  26
ENDBRANCH  24  25
ENDBRANCH  23  24
ENDBRANCH  22  23
ENDBRANCH  21  22
ENDBRANCH  20  21
ENDBRANCH  19  20
ENDBRANCH  18  19
ENDBRANCH   1  18
TORSDOF 28
ENDMDL
