MODEL 1
REMARK VINA RESULT:    -5.267      0.000      0.000
REMARK INTER + INTRA:          -9.767
REMARK INTER:                  -8.962
REMARK INTRA:                  -0.805
REMARK UNBOUND:                -0.805
REMARK SMILES CCCCCCCCCCCCCC(=O)[O-]
REMARK SMILES IDX 8 1 9 2 10 3 11 4 12 5 13 6 14 7 15 8 16 9 7 10 6 11 5 12
REMARK SMILES IDX 4 13 3 14 2 15 1 16
REMARK H PARENT
REMARK Flexibility Score: inf
ROOT
ATOM      1  C   UNL     1      -0.598  26.837  56.235  1.00  0.00     0.000 C 
ENDROOT
BRANCH   1   2
ATOM      2  C   UNL     1      -0.979  25.781  55.189  1.00  0.00     0.000 C 
BRANCH   2   3
ATOM      3  C   UNL     1       0.249  25.347  54.374  1.00  0.00     0.000 C 
BRANCH   3   4
ATOM      4  C   UNL     1      -0.068  25.161  52.881  1.00  0.00     0.000 C 
BRANCH   4   5
ATOM      5  C   UNL     1      -1.162  26.116  52.383  1.00  0.00     0.006 C 
BRANCH   5   6
ATOM      6  C   UNL     1      -1.428  25.914  50.889  1.00  0.00     0.053 C 
BRANCH   6   7
ATOM      7  C   UNL     1      -2.496  26.848  50.415  1.00  0.00     0.041 C 
ATOM      8  O   UNL     1      -2.187  27.943  49.876  1.00  0.00    -0.550 OA
ATOM      9  O   UNL     1      -3.833  26.488  50.525  1.00  0.00    -0.550 OA
ENDBRANCH   6   7
ENDBRANCH   5   6
ENDBRANCH   4   5
ENDBRANCH   3   4
ENDBRANCH   2   3
ENDBRANCH   1   2
BRANCH   1  10
ATOM     10  C   UNL     1      -1.723  27.862  56.417  1.00  0.00     0.000 C 
BRANCH  10  11
ATOM     11  C   UNL     1      -3.011  27.394  55.728  1.00  0.00    -0.000 C 
BRANCH  11  12
ATOM     12  C   UNL     1      -4.158  28.384  55.977  1.00  0.00    -0.000 C 
BRANCH  12  13
ATOM     13  C   UNL     1      -3.800  29.455  57.021  1.00  0.00    -0.000 C 
BRANCH  13  14
ATOM     14  C   UNL     1      -4.767  29.461  58.216  1.00  0.00    -0.000 C 
BRANCH  14  15
ATOM     15  C   UNL     1      -4.756  30.798  58.974  1.00  0.00    -0.003 C 
ATOM     16  C   UNL     1      -4.010  31.899  58.219  1.00  0.00     0.004 C 
ENDBRANCH  14  15
ENDBRANCH  13  14
ENDBRANCH  12  13
ENDBRANCH  11  12
ENDBRANCH  10  11
ENDBRANCH   1  10
TORSDOF 12
ENDMDL
MODEL 2
REMARK VINA RESULT:    -5.219      3.096      4.936
REMARK INTER + INTRA:          -9.685
REMARK INTER:                  -9.049
REMARK INTRA:                  -0.636
REMARK UNBOUND:                -0.805
REMARK SMILES CCCCCCCCCCCCCC(=O)[O-]
REMARK SMILES IDX 8 1 9 2 10 3 11 4 12 5 13 6 14 7 15 8 16 9 7 10 6 11 5 12
REMARK SMILES IDX 4 13 3 14 2 15 1 16
REMARK H PARENT
REMARK Flexibility Score: inf
ROOT
ATOM      1  C   UNL     1      -3.296  29.816  57.640  1.00  0.00     0.000 C 
ENDROOT
BRANCH   1   2
ATOM      2  C   UNL     1      -3.288  29.106  56.280  1.00  0.00     0.000 C 
BRANCH   2   3
ATOM      3  C   UNL     1      -4.592  28.324  56.062  1.00  0.00     0.000 C 
BRANCH   3   4
ATOM      4  C   UNL     1      -4.427  27.165  55.064  1.00  0.00     0.000 C 
BRANCH   4   5
ATOM      5  C   UNL     1      -3.158  26.339  55.319  1.00  0.00     0.006 C 
BRANCH   5   6
ATOM      6  C   UNL     1      -2.246  26.342  54.089  1.00  0.00     0.053 C 
BRANCH   6   7
ATOM      7  C   UNL     1      -0.850  25.965  54.470  1.00  0.00     0.041 C 
ATOM      8  O   UNL     1      -0.118  25.337  53.660  1.00  0.00    -0.550 OA
ATOM      9  O   UNL     1      -0.339  26.349  55.704  1.00  0.00    -0.550 OA
ENDBRANCH   6   7
ENDBRANCH   5   6
ENDBRANCH   4   5
ENDBRANCH   3   4
ENDBRANCH   2   3
ENDBRANCH   1   2
BRANCH   1  10
ATOM     10  C   UNL     1      -4.726  29.979  58.167  1.00  0.00     0.000 C 
BRANCH  10  11
ATOM     11  C   UNL     1      -4.733  30.688  59.528  1.00  0.00    -0.000 C 
BRANCH  11  12
ATOM     12  C   UNL     1      -3.577  31.694  59.629  1.00  0.00    -0.000 C 
BRANCH  12  13
ATOM     13  C   UNL     1      -3.501  32.370  61.008  1.00  0.00    -0.000 C 
BRANCH  13  14
ATOM     14  C   UNL     1      -2.264  33.273  61.155  1.00  0.00    -0.000 C 
BRANCH  14  15
ATOM     15  C   UNL     1      -1.595  33.133  62.531  1.00  0.00    -0.003 C 
ATOM     16  C   UNL     1      -2.555  32.619  63.605  1.00  0.00     0.004 C 
ENDBRANCH  14  15
ENDBRANCH  13  14
ENDBRANCH  12  13
ENDBRANCH  11  12
ENDBRANCH  10  11
ENDBRANCH   1  10
TORSDOF 12
ENDMDL
MODEL 3
REMARK VINA RESULT:    -5.176      5.246      8.893
REMARK INTER + INTRA:          -9.612
REMARK INTER:                  -9.102
REMARK INTRA:                  -0.510
REMARK UNBOUND:                -0.805
REMARK SMILES CCCCCCCCCCCCCC(=O)[O-]
REMARK SMILES IDX 8 1 9 2 10 3 11 4 12 5 13 6 14 7 15 8 16 9 7 10 6 11 5 12
REMARK SMILES IDX 4 13 3 14 2 15 1 16
REMARK H PARENT
REMARK Flexibility Score: inf
ROOT
ATOM      1  C   UNL     1      -3.334  28.653  56.421  1.00  0.00     0.000 C 
ENDROOT
BRANCH   1   2
ATOM      2  C   UNL     1      -4.173  29.683  57.187  1.00  0.00     0.000 C 
BRANCH   2   3
ATOM      3  C   UNL     1      -3.301  30.481  58.169  1.00  0.00     0.000 C 
BRANCH   3   4
ATOM      4  C   UNL     1      -4.067  31.635  58.837  1.00  0.00     0.000 C 
BRANCH   4   5
ATOM      5  C   UNL     1      -3.901  31.651  60.364  1.00  0.00     0.006 C 
BRANCH   5   6
ATOM      6  C   UNL     1      -2.864  32.693  60.792  1.00  0.00     0.053 C 
BRANCH   6   7
ATOM      7  C   UNL     1      -3.070  33.081  62.222  1.00  0.00     0.041 C 
ATOM      8  O   UNL     1      -3.467  34.239  62.514  1.00  0.00    -0.550 OA
ATOM      9  O   UNL     1      -2.869  32.146  63.231  1.00  0.00    -0.550 OA
ENDBRANCH   6   7
ENDBRANCH   5   6
ENDBRANCH   4   5
ENDBRANCH   3   4
ENDBRANCH   2   3
ENDBRANCH   1   2
BRANCH   1  10
ATOM     10  C   UNL     1      -4.199  27.866  55.429  1.00  0.00     0.000 C 
BRANCH  10  11
ATOM     11  C   UNL     1      -3.576  26.499  55.120  1.00  0.00    -0.000 C 
BRANCH  11  12
ATOM     12  C   UNL     1      -3.149  26.410  53.647  1.00  0.00    -0.000 C 
BRANCH  12  13
ATOM     13  C   UNL     1      -1.632  26.226  53.481  1.00  0.00    -0.000 C 
BRANCH  13  14
ATOM     14  C   UNL     1      -0.907  26.054  54.826  1.00  0.00    -0.000 C 
BRANCH  14  15
ATOM     15  C   UNL     1       0.546  25.583  54.655  1.00  0.00    -0.003 C 
ATOM     16  C   UNL     1       0.706  24.557  53.533  1.00  0.00     0.004 C 
ENDBRANCH  14  15
ENDBRANCH  13  14
ENDBRANCH  12  13
ENDBRANCH  11  12
ENDBRANCH  10  11
ENDBRANCH   1  10
TORSDOF 12
ENDMDL
MODEL 4
REMARK VINA RESULT:    -5.158      2.329      3.721
REMARK INTER + INTRA:          -9.581
REMARK INTER:                  -9.074
REMARK INTRA:                  -0.507
REMARK UNBOUND:                -0.805
REMARK SMILES CCCCCCCCCCCCCC(=O)[O-]
REMARK SMILES IDX 8 1 9 2 10 3 11 4 12 5 13 6 14 7 15 8 16 9 7 10 6 11 5 12
REMARK SMILES IDX 4 13 3 14 2 15 1 16
REMARK H PARENT
REMARK Flexibility Score: inf
ROOT
ATOM      1  C   UNL     1      -2.640  29.462  57.295  1.00  0.00     0.000 C 
ENDROOT
BRANCH   1   2
ATOM      2  C   UNL     1      -2.352  28.323  56.309  1.00  0.00     0.000 C 
BRANCH   2   3
ATOM      3  C   UNL     1      -3.623  27.925  55.543  1.00  0.00     0.000 C 
BRANCH   3   4
ATOM      4  C   UNL     1      -3.542  26.505  54.959  1.00  0.00     0.000 C 
BRANCH   4   5
ATOM      5  C   UNL     1      -2.466  26.371  53.871  1.00  0.00     0.006 C 
BRANCH   5   6
ATOM      6  C   UNL     1      -3.099  26.315  52.478  1.00  0.00     0.053 C 
BRANCH   6   7
ATOM      7  C   UNL     1      -2.046  26.398  51.420  1.00  0.00     0.041 C 
ATOM      8  O   UNL     1      -2.179  27.196  50.454  1.00  0.00    -0.550 OA
ATOM      9  O   UNL     1      -0.893  25.630  51.525  1.00  0.00    -0.550 OA
ENDBRANCH   6   7
ENDBRANCH   5   6
ENDBRANCH   4   5
ENDBRANCH   3   4
ENDBRANCH   2   3
ENDBRANCH   1   2
BRANCH   1  10
ATOM     10  C   UNL     1      -4.138  29.788  57.337  1.00  0.00     0.000 C 
BRANCH  10  11
ATOM     11  C   UNL     1      -4.538  30.361  58.703  1.00  0.00    -0.000 C 
BRANCH  11  12
ATOM     12  C   UNL     1      -3.991  31.784  58.884  1.00  0.00    -0.000 C 
BRANCH  12  13
ATOM     13  C   UNL     1      -3.031  31.902  60.079  1.00  0.00    -0.000 C 
BRANCH  13  14
ATOM     14  C   UNL     1      -3.766  32.175  61.402  1.00  0.00    -0.000 C 
BRANCH  14  15
ATOM     15  C   UNL     1      -3.014  33.172  62.297  1.00  0.00    -0.003 C 
ATOM     16  C   UNL     1      -2.600  32.565  63.638  1.00  0.00     0.004 C 
ENDBRANCH  14  15
ENDBRANCH  13  14
ENDBRANCH  12  13
ENDBRANCH  11  12
ENDBRANCH  10  11
ENDBRANCH   1  10
TORSDOF 12
ENDMDL
MODEL 5
REMARK VINA RESULT:    -5.138      5.078      8.856
REMARK INTER + INTRA:          -9.547
REMARK INTER:                  -8.851
REMARK INTRA:                  -0.697
REMARK UNBOUND:                -0.805
REMARK SMILES CCCCCCCCCCCCCC(=O)[O-]
REMARK SMILES IDX 8 1 9 2 10 3 11 4 12 5 13 6 14 7 15 8 16 9 7 10 6 11 5 12
REMARK SMILES IDX 4 13 3 14 2 15 1 16
REMARK H PARENT
REMARK Flexibility Score: inf
ROOT
ATOM      1  C   UNL     1      -3.417  30.319  57.738  1.00  0.00     0.000 C 
ENDROOT
BRANCH   1   2
ATOM      2  C   UNL     1      -4.580  30.037  58.697  1.00  0.00     0.000 C 
BRANCH   2   3
ATOM      3  C   UNL     1      -4.690  31.136  59.765  1.00  0.00     0.000 C 
BRANCH   3   4
ATOM      4  C   UNL     1      -3.391  31.946  59.916  1.00  0.00     0.000 C 
BRANCH   4   5
ATOM      5  C   UNL     1      -3.217  32.530  61.326  1.00  0.00     0.006 C 
BRANCH   5   6
ATOM      6  C   UNL     1      -2.017  33.481  61.381  1.00  0.00     0.053 C 
BRANCH   6   7
ATOM      7  C   UNL     1      -0.788  32.749  61.816  1.00  0.00     0.041 C 
ATOM      8  O   UNL     1      -0.539  32.601  63.041  1.00  0.00    -0.550 OA
ATOM      9  O   UNL     1       0.058  32.187  60.868  1.00  0.00    -0.550 OA
ENDBRANCH   6   7
ENDBRANCH   5   6
ENDBRANCH   4   5
ENDBRANCH   3   4
ENDBRANCH   2   3
ENDBRANCH   1   2
BRANCH   1  10
ATOM     10  C   UNL     1      -3.286  29.208  56.690  1.00  0.00     0.000 C 
BRANCH  10  11
ATOM     11  C   UNL     1      -4.655  28.600  56.358  1.00  0.00    -0.000 C 
BRANCH  11  12
ATOM     12  C   UNL     1      -4.514  27.441  55.360  1.00  0.00    -0.000 C 
BRANCH  12  13
ATOM     13  C   UNL     1      -3.256  26.594  55.612  1.00  0.00    -0.000 C 
BRANCH  13  14
ATOM     14  C   UNL     1      -2.479  26.292  54.319  1.00  0.00    -0.000 C 
BRANCH  14  15
ATOM     15  C   UNL     1      -3.371  26.354  53.069  1.00  0.00    -0.003 C 
ATOM     16  C   UNL     1      -2.567  26.331  51.769  1.00  0.00     0.004 C 
ENDBRANCH  14  15
ENDBRANCH  13  14
ENDBRANCH  12  13
ENDBRANCH  11  12
ENDBRANCH  10  11
ENDBRANCH   1  10
TORSDOF 12
ENDMDL
MODEL 6
REMARK VINA RESULT:    -5.041      3.427      4.651
REMARK INTER + INTRA:          -9.383
REMARK INTER:                  -8.385
REMARK INTRA:                  -0.998
REMARK UNBOUND:                -0.805
REMARK SMILES CCCCCCCCCCCCCC(=O)[O-]
REMARK SMILES IDX 8 1 9 2 10 3 11 4 12 5 13 6 14 7 15 8 16 9 7 10 6 11 5 12
REMARK SMILES IDX 4 13 3 14 2 15 1 16
REMARK H PARENT
REMARK Flexibility Score: inf
ROOT
ATOM      1  C   UNL     1      -3.782  26.525  54.382  1.00  0.00     0.000 C 
ENDROOT
BRANCH   1   2
ATOM      2  C   UNL     1      -2.550  26.080  55.180  1.00  0.00     0.000 C 
BRANCH   2   3
ATOM      3  C   UNL     1      -1.297  26.063  54.290  1.00  0.00     0.000 C 
BRANCH   3   4
ATOM      4  C   UNL     1       0.007  26.115  55.104  1.00  0.00     0.000 C 
BRANCH   4   5
ATOM      5  C   UNL     1      -0.155  26.864  56.435  1.00  0.00     0.006 C 
BRANCH   5   6
ATOM      6  C   UNL     1       1.209  27.180  57.055  1.00  0.00     0.053 C 
BRANCH   6   7
ATOM      7  C   UNL     1       1.170  28.495  57.765  1.00  0.00     0.041 C 
ATOM      8  O   UNL     1       2.019  28.760  58.657  1.00  0.00    -0.550 OA
ATOM      9  O   UNL     1       0.225  29.450  57.409  1.00  0.00    -0.550 OA
ENDBRANCH   6   7
ENDBRANCH   5   6
ENDBRANCH   4   5
ENDBRANCH   3   4
ENDBRANCH   2   3
ENDBRANCH   1   2
BRANCH   1  10
ATOM     10  C   UNL     1      -4.596  27.565  55.161  1.00  0.00     0.000 C 
BRANCH  10  11
ATOM     11  C   UNL     1      -3.889  27.952  56.467  1.00  0.00    -0.000 C 
BRANCH  11  12
ATOM     12  C   UNL     1      -3.323  29.377  56.383  1.00  0.00    -0.000 C 
BRANCH  12  13
ATOM     13  C   UNL     1      -3.274  30.075  57.752  1.00  0.00    -0.000 C 
BRANCH  13  14
ATOM     14  C   UNL     1      -4.627  30.039  58.482  1.00  0.00    -0.000 C 
BRANCH  14  15
ATOM     15  C   UNL     1      -4.672  30.996  59.684  1.00  0.00    -0.003 C 
ATOM     16  C   UNL     1      -3.438  31.893  59.771  1.00  0.00     0.004 C 
ENDBRANCH  14  15
ENDBRANCH  13  14
ENDBRANCH  12  13
ENDBRANCH  11  12
ENDBRANCH  10  11
ENDBRANCH   1  10
TORSDOF 12
ENDMDL
MODEL 7
REMARK VINA RESULT:    -4.925      3.374      4.550
REMARK INTER + INTRA:          -9.185
REMARK INTER:                  -8.136
REMARK INTRA:                  -1.048
REMARK UNBOUND:                -0.805
REMARK SMILES CCCCCCCCCCCCCC(=O)[O-]
REMARK SMILES IDX 8 1 9 2 10 3 11 4 12 5 13 6 14 7 15 8 16 9 7 10 6 11 5 12
REMARK SMILES IDX 4 13 3 14 2 15 1 16
REMARK H PARENT
REMARK Flexibility Score: inf
ROOT
ATOM      1  C   UNL     1      -1.561  26.362  54.493  1.00  0.00     0.000 C 
ENDROOT
BRANCH   1   2
ATOM      2  C   UNL     1      -0.333  26.196  55.398  1.00  0.00     0.000 C 
BRANCH   2   3
ATOM      3  C   UNL     1      -0.451  27.079  56.649  1.00  0.00     0.000 C 
BRANCH   3   4
ATOM      4  C   UNL     1       0.919  27.484  57.219  1.00  0.00     0.000 C 
BRANCH   4   5
ATOM      5  C   UNL     1       2.055  26.571  56.735  1.00  0.00     0.006 C 
BRANCH   5   6
ATOM      6  C   UNL     1       3.176  27.388  56.086  1.00  0.00     0.053 C 
BRANCH   6   7
ATOM      7  C   UNL     1       3.648  26.727  54.831  1.00  0.00     0.041 C 
ATOM      8  O   UNL     1       3.441  25.499  54.644  1.00  0.00    -0.550 OA
ATOM      9  O   UNL     1       4.274  27.477  53.843  1.00  0.00    -0.550 OA
ENDBRANCH   6   7
ENDBRANCH   5   6
ENDBRANCH   4   5
ENDBRANCH   3   4
ENDBRANCH   2   3
ENDBRANCH   1   2
BRANCH   1  10
ATOM     10  C   UNL     1      -2.854  26.056  55.258  1.00  0.00     0.000 C 
BRANCH  10  11
ATOM     11  C   UNL     1      -3.967  27.038  54.871  1.00  0.00    -0.000 C 
BRANCH  11  12
ATOM     12  C   UNL     1      -4.343  27.938  56.058  1.00  0.00    -0.000 C 
BRANCH  12  13
ATOM     13  C   UNL     1      -3.486  29.213  56.128  1.00  0.00    -0.000 C 
BRANCH  13  14
ATOM     14  C   UNL     1      -3.073  29.568  57.566  1.00  0.00    -0.000 C 
BRANCH  14  15
ATOM     15  C   UNL     1      -3.794  30.820  58.092  1.00  0.00    -0.003 C 
ATOM     16  C   UNL     1      -4.752  30.509  59.242  1.00  0.00     0.004 C 
ENDBRANCH  14  15
ENDBRANCH  13  14
ENDBRANCH  12  13
ENDBRANCH  11  12
ENDBRANCH  10  11
ENDBRANCH   1  10
TORSDOF 12
ENDMDL
MODEL 8
REMARK VINA RESULT:    -4.681      4.440      5.806
REMARK INTER + INTRA:          -8.770
REMARK INTER:                  -7.754
REMARK INTRA:                  -1.015
REMARK UNBOUND:                -0.805
REMARK SMILES CCCCCCCCCCCCCC(=O)[O-]
REMARK SMILES IDX 8 1 9 2 10 3 11 4 12 5 13 6 14 7 15 8 16 9 7 10 6 11 5 12
REMARK SMILES IDX 4 13 3 14 2 15 1 16
REMARK H PARENT
REMARK Flexibility Score: inf
ROOT
ATOM      1  C   UNL     1      -1.403  26.076  54.582  1.00  0.00     0.000 C 
ENDROOT
BRANCH   1   2
ATOM      2  C   UNL     1      -0.157  26.291  55.450  1.00  0.00     0.000 C 
BRANCH   2   3
ATOM      3  C   UNL     1      -0.510  27.051  56.738  1.00  0.00     0.000 C 
BRANCH   3   4
ATOM      4  C   UNL     1       0.710  27.741  57.371  1.00  0.00     0.000 C 
BRANCH   4   5
ATOM      5  C   UNL     1       2.026  27.008  57.073  1.00  0.00     0.006 C 
BRANCH   5   6
ATOM      6  C   UNL     1       2.687  26.520  58.366  1.00  0.00     0.053 C 
BRANCH   6   7
ATOM      7  C   UNL     1       3.706  27.507  58.839  1.00  0.00     0.041 C 
ATOM      8  O   UNL     1       4.282  28.267  58.017  1.00  0.00    -0.550 OA
ATOM      9  O   UNL     1       3.986  27.620  60.195  1.00  0.00    -0.550 OA
ENDBRANCH   6   7
ENDBRANCH   5   6
ENDBRANCH   4   5
ENDBRANCH   3   4
ENDBRANCH   2   3
ENDBRANCH   1   2
BRANCH   1  10
ATOM     10  C   UNL     1      -2.673  26.039  55.440  1.00  0.00     0.000 C 
BRANCH  10  11
ATOM     11  C   UNL     1      -3.782  26.898  54.819  1.00  0.00    -0.000 C 
BRANCH  11  12
ATOM     12  C   UNL     1      -4.349  27.889  55.847  1.00  0.00    -0.000 C 
BRANCH  12  13
ATOM     13  C   UNL     1      -3.450  29.122  56.038  1.00  0.00    -0.000 C 
BRANCH  13  14
ATOM     14  C   UNL     1      -3.076  29.358  57.511  1.00  0.00    -0.000 C 
BRANCH  14  15
ATOM     15  C   UNL     1      -3.755  30.606  58.097  1.00  0.00    -0.003 C 
ATOM     16  C   UNL     1      -4.820  30.264  59.139  1.00  0.00     0.004 C 
ENDBRANCH  14  15
ENDBRANCH  13  14
ENDBRANCH  12  13
ENDBRANCH  11  12
ENDBRANCH  10  11
ENDBRANCH   1  10
TORSDOF 12
ENDMDL
MODEL 9
REMARK VINA RESULT:    -4.556     11.853     13.977
REMARK INTER + INTRA:          -8.557
REMARK INTER:                  -6.709
REMARK INTRA:                  -1.847
REMARK UNBOUND:                -0.805
REMARK SMILES CCCCCCCCCCCCCC(=O)[O-]
REMARK SMILES IDX 8 1 9 2 10 3 11 4 12 5 13 6 14 7 15 8 16 9 7 10 6 11 5 12
REMARK SMILES IDX 4 13 3 14 2 15 1 16
REMARK H PARENT
REMARK Flexibility Score: inf
ROOT
ATOM      1  C   UNL     1      -5.325  40.396  52.619  1.00  0.00     0.000 C 
ENDROOT
BRANCH   1   2
ATOM      2  C   UNL     1      -4.147  41.363  52.446  1.00  0.00     0.000 C 
BRANCH   2   3
ATOM      3  C   UNL     1      -3.356  41.504  53.755  1.00  0.00     0.000 C 
BRANCH   3   4
ATOM      4  C   UNL     1      -3.276  40.186  54.543  1.00  0.00     0.000 C 
BRANCH   4   5
ATOM      5  C   UNL     1      -1.837  39.814  54.931  1.00  0.00     0.006 C 
BRANCH   5   6
ATOM      6  C   UNL     1      -1.288  40.775  55.988  1.00  0.00     0.053 C 
BRANCH   6   7
ATOM      7  C   UNL     1      -2.103  40.701  57.239  1.00  0.00     0.041 C 
ATOM      8  O   UNL     1      -2.672  41.730  57.688  1.00  0.00    -0.550 OA
ATOM      9  O   UNL     1      -2.275  39.482  57.885  1.00  0.00    -0.550 OA
ENDBRANCH   6   7
ENDBRANCH   5   6
ENDBRANCH   4   5
ENDBRANCH   3   4
ENDBRANCH   2   3
ENDBRANCH   1   2
BRANCH   1  10
ATOM     10  C   UNL     1      -5.493  39.506  51.382  1.00  0.00     0.000 C 
BRANCH  10  11
ATOM     11  C   UNL     1      -4.209  39.480  50.544  1.00  0.00    -0.000 C 
BRANCH  11  12
ATOM     12  C   UNL     1      -3.951  38.077  49.977  1.00  0.00    -0.000 C 
BRANCH  12  13
ATOM     13  C   UNL     1      -2.531  37.569  50.278  1.00  0.00    -0.000 C 
BRANCH  13  14
ATOM     14  C   UNL     1      -2.027  38.010  51.662  1.00  0.00    -0.000 C 
BRANCH  14  15
ATOM     15  C   UNL     1      -0.639  38.666  51.602  1.00  0.00    -0.003 C 
ATOM     16  C   UNL     1      -0.707  40.169  51.331  1.00  0.00     0.004 C 
ENDBRANCH  14  15
ENDBRANCH  13  14
ENDBRANCH  12  13
ENDBRANCH  11  12
ENDBRANCH  10  11
ENDBRANCH   1  10
TORSDOF 12
ENDMDL
