MODEL 1
REMARK VINA RESULT:    -5.293      0.000      0.000
REMARK INTER + INTRA:          -9.019
REMARK INTER:                  -8.387
REMARK INTRA:                  -0.632
REMARK UNBOUND:                -0.632
REMARK SMILES CCCCCCCCCCCC(=O)[O-]
REMARK SMILES IDX 7 1 8 2 9 3 10 4 11 5 12 6 13 7 14 8 6 9 5 10 4 11 3 12 2 13
REMARK SMILES IDX 1 14
REMARK H PARENT
REMARK Flexibility Score: inf
ROOT
ATOM      1  C   UNL     1       9.810 -12.045  24.217  1.00  0.00     0.000 C 
ENDROOT
BRANCH   1   2
ATOM      2  C   UNL     1      11.040 -12.880  24.610  1.00  0.00     0.000 C 
BRANCH   2   3
ATOM      3  C   UNL     1      12.366 -12.212  24.203  1.00  0.00     0.000 C 
BRANCH   3   4
ATOM      4  C   UNL     1      13.434 -12.301  25.305  1.00  0.00     0.006 C 
BRANCH   4   5
ATOM      5  C   UNL     1      14.025 -13.711  25.440  1.00  0.00     0.053 C 
BRANCH   5   6
ATOM      6  C   UNL     1      14.236 -14.052  26.882  1.00  0.00     0.041 C 
ATOM      7  O   UNL     1      13.555 -13.479  27.774  1.00  0.00    -0.550 OA
ATOM      8  O   UNL     1      15.218 -14.964  27.244  1.00  0.00    -0.550 OA
ENDBRANCH   5   6
ENDBRANCH   4   5
ENDBRANCH   3   4
ENDBRANCH   2   3
ENDBRANCH   1   2
BRANCH   1   9
ATOM      9  C   UNL     1       8.996 -11.583  25.437  1.00  0.00     0.000 C 
BRANCH   9  10
ATOM     10  C   UNL     1       9.304 -12.400  26.705  1.00  0.00    -0.000 C 
BRANCH  10  11
ATOM     11  C   UNL     1       8.168 -13.326  27.185  1.00  0.00    -0.000 C 
BRANCH  11  12
ATOM     12  C   UNL     1       8.040 -13.465  28.713  1.00  0.00    -0.000 C 
BRANCH  12  13
ATOM     13  C   UNL     1       8.867 -12.421  29.477  1.00  0.00    -0.003 C 
ATOM     14  C   UNL     1       7.982 -11.579  30.390  1.00  0.00     0.004 C 
ENDBRANCH  12  13
ENDBRANCH  11  12
ENDBRANCH  10  11
ENDBRANCH   9  10
ENDBRANCH   1   9
TORSDOF 10
ENDMDL
MODEL 2
REMARK VINA RESULT:    -5.253      1.175      1.433
REMARK INTER + INTRA:          -8.957
REMARK INTER:                  -8.150
REMARK INTRA:                  -0.806
REMARK UNBOUND:                -0.632
REMARK SMILES CCCCCCCCCCCC(=O)[O-]
REMARK SMILES IDX 7 1 8 2 9 3 10 4 11 5 12 6 13 7 14 8 6 9 5 10 4 11 3 12 2 13
REMARK SMILES IDX 1 14
REMARK H PARENT
REMARK Flexibility Score: inf
ROOT
ATOM      1  C   UNL     1      10.397 -12.674  24.187  1.00  0.00     0.000 C 
ENDROOT
BRANCH   1   2
ATOM      2  C   UNL     1      11.920 -12.758  24.376  1.00  0.00     0.000 C 
BRANCH   2   3
ATOM      3  C   UNL     1      12.345 -12.588  25.846  1.00  0.00     0.000 C 
BRANCH   3   4
ATOM      4  C   UNL     1      13.852 -12.809  26.054  1.00  0.00     0.006 C 
BRANCH   4   5
ATOM      5  C   UNL     1      14.158 -13.654  27.298  1.00  0.00     0.053 C 
BRANCH   5   6
ATOM      6  C   UNL     1      14.983 -14.846  26.930  1.00  0.00     0.041 C 
ATOM      7  O   UNL     1      14.480 -15.779  26.249  1.00  0.00    -0.550 OA
ATOM      8  O   UNL     1      16.293 -14.951  27.379  1.00  0.00    -0.550 OA
ENDBRANCH   5   6
ENDBRANCH   4   5
ENDBRANCH   3   4
ENDBRANCH   2   3
ENDBRANCH   1   2
BRANCH   1   9
ATOM      9  C   UNL     1       9.815 -11.335  24.673  1.00  0.00     0.000 C 
BRANCH   9  10
ATOM     10  C   UNL     1       8.674 -11.514  25.691  1.00  0.00    -0.000 C 
BRANCH  10  11
ATOM     11  C   UNL     1       8.262 -12.974  25.969  1.00  0.00    -0.000 C 
BRANCH  11  12
ATOM     12  C   UNL     1       8.255 -13.379  27.454  1.00  0.00    -0.000 C 
BRANCH  12  13
ATOM     13  C   UNL     1       9.038 -12.400  28.342  1.00  0.00    -0.003 C 
ATOM     14  C   UNL     1       8.267 -12.078  29.619  1.00  0.00     0.004 C 
ENDBRANCH  12  13
ENDBRANCH  11  12
ENDBRANCH  10  11
ENDBRANCH   9  10
ENDBRANCH   1   9
TORSDOF 10
ENDMDL
MODEL 3
REMARK VINA RESULT:    -5.142      3.256      3.928
REMARK INTER + INTRA:          -8.780
REMARK INTER:                  -7.859
REMARK INTRA:                  -0.921
REMARK UNBOUND:                -0.632
REMARK SMILES CCCCCCCCCCCC(=O)[O-]
REMARK SMILES IDX 7 1 8 2 9 3 10 4 11 5 12 6 13 7 14 8 6 9 5 10 4 11 3 12 2 13
REMARK SMILES IDX 1 14
REMARK H PARENT
REMARK Flexibility Score: inf
ROOT
ATOM      1  C   UNL     1       8.649 -11.807  25.479  1.00  0.00     0.000 C 
ENDROOT
BRANCH   1   2
ATOM      2  C   UNL     1       9.980 -11.106  25.159  1.00  0.00     0.000 C 
BRANCH   2   3
ATOM      3  C   UNL     1      11.195 -12.037  25.326  1.00  0.00     0.000 C 
BRANCH   3   4
ATOM      4  C   UNL     1      11.945 -12.270  24.004  1.00  0.00     0.006 C 
BRANCH   4   5
ATOM      5  C   UNL     1      11.321 -13.390  23.162  1.00  0.00     0.053 C 
BRANCH   5   6
ATOM      6  C   UNL     1      10.792 -12.842  21.874  1.00  0.00     0.041 C 
ATOM      7  O   UNL     1       9.722 -12.177  21.860  1.00  0.00    -0.550 OA
ATOM      8  O   UNL     1      11.454 -13.106  20.682  1.00  0.00    -0.550 OA
ENDBRANCH   5   6
ENDBRANCH   4   5
ENDBRANCH   3   4
ENDBRANCH   2   3
ENDBRANCH   1   2
BRANCH   1   9
ATOM      9  C   UNL     1       8.851 -13.191  26.118  1.00  0.00     0.000 C 
BRANCH   9  10
ATOM     10  C   UNL     1       7.875 -13.462  27.278  1.00  0.00    -0.000 C 
BRANCH  10  11
ATOM     11  C   UNL     1       8.400 -13.094  28.680  1.00  0.00    -0.000 C 
BRANCH  11  12
ATOM     12  C   UNL     1       9.888 -12.705  28.739  1.00  0.00    -0.000 C 
BRANCH  12  13
ATOM     13  C   UNL     1      10.611 -13.303  29.955  1.00  0.00    -0.003 C 
ATOM     14  C   UNL     1      11.973 -13.867  29.563  1.00  0.00     0.004 C 
ENDBRANCH  12  13
ENDBRANCH  11  12
ENDBRANCH  10  11
ENDBRANCH   9  10
ENDBRANCH   1   9
TORSDOF 10
ENDMDL
MODEL 4
REMARK VINA RESULT:    -5.044      3.238      3.801
REMARK INTER + INTRA:          -8.625
REMARK INTER:                  -7.945
REMARK INTRA:                  -0.680
REMARK UNBOUND:                -0.632
REMARK SMILES CCCCCCCCCCCC(=O)[O-]
REMARK SMILES IDX 7 1 8 2 9 3 10 4 11 5 12 6 13 7 14 8 6 9 5 10 4 11 3 12 2 13
REMARK SMILES IDX 1 14
REMARK H PARENT
REMARK Flexibility Score: inf
ROOT
ATOM      1  C   UNL     1      10.941 -12.904  24.393  1.00  0.00     0.000 C 
ENDROOT
BRANCH   1   2
ATOM      2  C   UNL     1      12.133 -12.330  25.174  1.00  0.00     0.000 C 
BRANCH   2   3
ATOM      3  C   UNL     1      13.332 -11.998  24.267  1.00  0.00     0.000 C 
BRANCH   3   4
ATOM      4  C   UNL     1      13.477 -12.985  23.098  1.00  0.00     0.006 C 
BRANCH   4   5
ATOM      5  C   UNL     1      13.798 -12.284  21.771  1.00  0.00     0.053 C 
BRANCH   5   6
ATOM      6  C   UNL     1      12.692 -12.501  20.786  1.00  0.00     0.041 C 
ATOM      7  O   UNL     1      11.764 -13.311  21.045  1.00  0.00    -0.550 OA
ATOM      8  O   UNL     1      12.714 -11.845  19.561  1.00  0.00    -0.550 OA
ENDBRANCH   5   6
ENDBRANCH   4   5
ENDBRANCH   3   4
ENDBRANCH   2   3
ENDBRANCH   1   2
BRANCH   1   9
ATOM      9  C   UNL     1       9.834 -11.862  24.157  1.00  0.00     0.000 C 
BRANCH   9  10
ATOM     10  C   UNL     1       9.120 -11.444  25.455  1.00  0.00    -0.000 C 
BRANCH  10  11
ATOM     11  C   UNL     1       8.720 -12.603  26.390  1.00  0.00    -0.000 C 
BRANCH  11  12
ATOM     12  C   UNL     1       9.323 -12.540  27.804  1.00  0.00    -0.000 C 
BRANCH  12  13
ATOM     13  C   UNL     1       8.353 -13.033  28.888  1.00  0.00    -0.003 C 
ATOM     14  C   UNL     1       8.175 -11.987  29.984  1.00  0.00     0.004 C 
ENDBRANCH  12  13
ENDBRANCH  11  12
ENDBRANCH  10  11
ENDBRANCH   9  10
ENDBRANCH   1   9
TORSDOF 10
ENDMDL
MODEL 5
REMARK VINA RESULT:    -5.026      4.251      5.147
REMARK INTER + INTRA:          -8.596
REMARK INTER:                  -8.279
REMARK INTRA:                  -0.317
REMARK UNBOUND:                -0.632
REMARK SMILES CCCCCCCCCCCC(=O)[O-]
REMARK SMILES IDX 7 1 8 2 9 3 10 4 11 5 12 6 13 7 14 8 6 9 5 10 4 11 3 12 2 13
REMARK SMILES IDX 1 14
REMARK H PARENT
REMARK Flexibility Score: inf
ROOT
ATOM      1  C   UNL     1       9.738 -11.456  24.936  1.00  0.00     0.000 C 
ENDROOT
BRANCH   1   2
ATOM      2  C   UNL     1       9.661 -11.878  23.460  1.00  0.00     0.000 C 
BRANCH   2   3
ATOM      3  C   UNL     1      10.870 -12.725  23.021  1.00  0.00     0.000 C 
BRANCH   3   4
ATOM      4  C   UNL     1      10.878 -13.001  21.509  1.00  0.00     0.006 C 
BRANCH   4   5
ATOM      5  C   UNL     1       9.619 -12.476  20.807  1.00  0.00     0.053 C 
BRANCH   5   6
ATOM      6  C   UNL     1       9.974 -11.863  19.488  1.00  0.00     0.041 C 
ATOM      7  O   UNL     1      10.903 -12.352  18.793  1.00  0.00    -0.550 OA
ATOM      8  O   UNL     1       9.312 -10.723  19.051  1.00  0.00    -0.550 OA
ENDBRANCH   5   6
ENDBRANCH   4   5
ENDBRANCH   3   4
ENDBRANCH   2   3
ENDBRANCH   1   2
BRANCH   1   9
ATOM      9  C   UNL     1       9.391 -12.606  25.897  1.00  0.00     0.000 C 
BRANCH   9  10
ATOM     10  C   UNL     1       8.896 -12.110  27.268  1.00  0.00    -0.000 C 
BRANCH  10  11
ATOM     11  C   UNL     1       8.997 -13.135  28.415  1.00  0.00    -0.000 C 
BRANCH  11  12
ATOM     12  C   UNL     1       9.167 -12.529  29.820  1.00  0.00    -0.000 C 
BRANCH  12  13
ATOM     13  C   UNL     1       7.954 -11.697  30.260  1.00  0.00    -0.003 C 
ATOM     14  C   UNL     1       8.016 -11.378  31.750  1.00  0.00     0.004 C 
ENDBRANCH  12  13
ENDBRANCH  11  12
ENDBRANCH  10  11
ENDBRANCH   9  10
ENDBRANCH   1   9
TORSDOF 10
ENDMDL
MODEL 6
REMARK VINA RESULT:    -4.913      1.620      3.923
REMARK INTER + INTRA:          -8.417
REMARK INTER:                  -7.498
REMARK INTRA:                  -0.920
REMARK UNBOUND:                -0.632
REMARK SMILES CCCCCCCCCCCC(=O)[O-]
REMARK SMILES IDX 7 1 8 2 9 3 10 4 11 5 12 6 13 7 14 8 6 9 5 10 4 11 3 12 2 13
REMARK SMILES IDX 1 14
REMARK H PARENT
REMARK Flexibility Score: inf
ROOT
ATOM      1  C   UNL     1      10.461 -13.351  29.919  1.00  0.00     0.000 C 
ENDROOT
BRANCH   1   2
ATOM      2  C   UNL     1      11.945 -13.748  29.973  1.00  0.00     0.000 C 
BRANCH   2   3
ATOM      3  C   UNL     1      12.611 -13.744  28.585  1.00  0.00     0.000 C 
BRANCH   3   4
ATOM      4  C   UNL     1      14.102 -13.375  28.647  1.00  0.00     0.006 C 
BRANCH   4   5
ATOM      5  C   UNL     1      14.740 -13.263  27.256  1.00  0.00     0.053 C 
BRANCH   5   6
ATOM      6  C   UNL     1      15.327 -14.576  26.844  1.00  0.00     0.041 C 
ATOM      7  O   UNL     1      16.502 -14.879  27.184  1.00  0.00    -0.550 OA
ATOM      8  O   UNL     1      14.597 -15.443  26.042  1.00  0.00    -0.550 OA
ENDBRANCH   5   6
ENDBRANCH   4   5
ENDBRANCH   3   4
ENDBRANCH   2   3
ENDBRANCH   1   2
BRANCH   1   9
ATOM      9  C   UNL     1      10.081 -12.669  28.593  1.00  0.00     0.000 C 
BRANCH   9  10
ATOM     10  C   UNL     1       8.902 -13.359  27.884  1.00  0.00    -0.000 C 
BRANCH  10  11
ATOM     11  C   UNL     1       8.495 -12.742  26.530  1.00  0.00    -0.000 C 
BRANCH  11  12
ATOM     12  C   UNL     1       9.570 -11.868  25.861  1.00  0.00    -0.000 C 
BRANCH  12  13
ATOM     13  C   UNL     1      10.342 -12.611  24.762  1.00  0.00    -0.003 C 
ATOM     14  C   UNL     1      11.838 -12.635  25.060  1.00  0.00     0.004 C 
ENDBRANCH  12  13
ENDBRANCH  11  12
ENDBRANCH  10  11
ENDBRANCH   9  10
ENDBRANCH   1   9
TORSDOF 10
ENDMDL
MODEL 7
REMARK VINA RESULT:    -4.907      1.560      1.960
REMARK INTER + INTRA:          -8.408
REMARK INTER:                  -7.799
REMARK INTRA:                  -0.609
REMARK UNBOUND:                -0.632
REMARK SMILES CCCCCCCCCCCC(=O)[O-]
REMARK SMILES IDX 7 1 8 2 9 3 10 4 11 5 12 6 13 7 14 8 6 9 5 10 4 11 3 12 2 13
REMARK SMILES IDX 1 14
REMARK H PARENT
REMARK Flexibility Score: inf
ROOT
ATOM      1  C   UNL     1      11.072 -12.902  24.237  1.00  0.00     0.000 C 
ENDROOT
BRANCH   1   2
ATOM      2  C   UNL     1      12.500 -13.225  24.705  1.00  0.00     0.000 C 
BRANCH   2   3
ATOM      3  C   UNL     1      13.303 -11.964  25.072  1.00  0.00     0.000 C 
BRANCH   3   4
ATOM      4  C   UNL     1      14.691 -12.295  25.646  1.00  0.00     0.006 C 
BRANCH   4   5
ATOM      5  C   UNL     1      14.617 -12.906  27.052  1.00  0.00     0.053 C 
BRANCH   5   6
ATOM      6  C   UNL     1      15.700 -12.348  27.921  1.00  0.00     0.041 C 
ATOM      7  O   UNL     1      16.353 -13.108  28.684  1.00  0.00    -0.550 OA
ATOM      8  O   UNL     1      15.954 -10.983  27.925  1.00  0.00    -0.550 OA
ENDBRANCH   5   6
ENDBRANCH   4   5
ENDBRANCH   3   4
ENDBRANCH   2   3
ENDBRANCH   1   2
BRANCH   1   9
ATOM      9  C   UNL     1      10.432 -11.758  25.043  1.00  0.00     0.000 C 
BRANCH   9  10
ATOM     10  C   UNL     1       8.937 -11.992  25.327  1.00  0.00    -0.000 C 
BRANCH  10  11
ATOM     11  C   UNL     1       8.628 -12.812  26.596  1.00  0.00    -0.000 C 
BRANCH  11  12
ATOM     12  C   UNL     1       9.581 -12.569  27.780  1.00  0.00    -0.000 C 
BRANCH  12  13
ATOM     13  C   UNL     1       9.003 -13.052  29.118  1.00  0.00    -0.003 C 
ATOM     14  C   UNL     1       8.158 -11.967  29.777  1.00  0.00     0.004 C 
ENDBRANCH  12  13
ENDBRANCH  11  12
ENDBRANCH  10  11
ENDBRANCH   9  10
ENDBRANCH   1   9
TORSDOF 10
ENDMDL
MODEL 8
REMARK VINA RESULT:    -4.867      2.143      5.479
REMARK INTER + INTRA:          -8.345
REMARK INTER:                  -7.751
REMARK INTRA:                  -0.595
REMARK UNBOUND:                -0.632
REMARK SMILES CCCCCCCCCCCC(=O)[O-]
REMARK SMILES IDX 7 1 8 2 9 3 10 4 11 5 12 6 13 7 14 8 6 9 5 10 4 11 3 12 2 13
REMARK SMILES IDX 1 14
REMARK H PARENT
REMARK Flexibility Score: inf
ROOT
ATOM      1  C   UNL     1      11.252 -12.702  24.273  1.00  0.00     0.000 C 
ENDROOT
BRANCH   1   2
ATOM      2  C   UNL     1       9.856 -12.061  24.340  1.00  0.00     0.000 C 
BRANCH   2   3
ATOM      3  C   UNL     1       8.929 -12.763  25.349  1.00  0.00     0.000 C 
BRANCH   3   4
ATOM      4  C   UNL     1       8.995 -12.129  26.748  1.00  0.00     0.006 C 
BRANCH   4   5
ATOM      5  C   UNL     1       8.593 -13.110  27.859  1.00  0.00     0.053 C 
BRANCH   5   6
ATOM      6  C   UNL     1       8.975 -12.565  29.199  1.00  0.00     0.041 C 
ATOM      7  O   UNL     1      10.073 -12.888  29.725  1.00  0.00    -0.550 OA
ATOM      8  O   UNL     1       8.096 -11.739  29.890  1.00  0.00    -0.550 OA
ENDBRANCH   5   6
ENDBRANCH   4   5
ENDBRANCH   3   4
ENDBRANCH   2   3
ENDBRANCH   1   2
BRANCH   1   9
ATOM      9  C   UNL     1      12.316 -11.877  25.018  1.00  0.00     0.000 C 
BRANCH   9  10
ATOM     10  C   UNL     1      13.753 -12.248  24.611  1.00  0.00    -0.000 C 
BRANCH  10  11
ATOM     11  C   UNL     1      14.796 -12.187  25.745  1.00  0.00    -0.000 C 
BRANCH  11  12
ATOM     12  C   UNL     1      15.313 -13.552  26.233  1.00  0.00    -0.000 C 
BRANCH  12  13
ATOM     13  C   UNL     1      14.319 -14.267  27.160  1.00  0.00    -0.003 C 
ATOM     14  C   UNL     1      14.084 -13.465  28.437  1.00  0.00     0.004 C 
ENDBRANCH  12  13
ENDBRANCH  11  12
ENDBRANCH  10  11
ENDBRANCH   9  10
ENDBRANCH   1   9
TORSDOF 10
ENDMDL
MODEL 9
REMARK VINA RESULT:    -4.852      1.854      2.849
REMARK INTER + INTRA:          -8.321
REMARK INTER:                  -7.643
REMARK INTRA:                  -0.677
REMARK UNBOUND:                -0.632
REMARK SMILES CCCCCCCCCCCC(=O)[O-]
REMARK SMILES IDX 7 1 8 2 9 3 10 4 11 5 12 6 13 7 14 8 6 9 5 10 4 11 3 12 2 13
REMARK SMILES IDX 1 14
REMARK H PARENT
REMARK Flexibility Score: inf
ROOT
ATOM      1  C   UNL     1      12.324 -12.264  24.912  1.00  0.00     0.000 C 
ENDROOT
BRANCH   1   2
ATOM      2  C   UNL     1      12.752 -12.970  26.209  1.00  0.00     0.000 C 
BRANCH   2   3
ATOM      3  C   UNL     1      14.281 -13.103  26.335  1.00  0.00     0.000 C 
BRANCH   3   4
ATOM      4  C   UNL     1      14.739 -14.568  26.421  1.00  0.00     0.006 C 
BRANCH   4   5
ATOM      5  C   UNL     1      14.774 -15.255  25.049  1.00  0.00     0.053 C 
BRANCH   5   6
ATOM      6  C   UNL     1      16.166 -15.252  24.499  1.00  0.00     0.041 C 
ATOM      7  O   UNL     1      16.358 -15.097  23.264  1.00  0.00    -0.550 OA
ATOM      8  O   UNL     1      17.247 -15.471  25.343  1.00  0.00    -0.550 OA
ENDBRANCH   5   6
ENDBRANCH   4   5
ENDBRANCH   3   4
ENDBRANCH   2   3
ENDBRANCH   1   2
BRANCH   1   9
ATOM      9  C   UNL     1      10.896 -12.638  24.480  1.00  0.00     0.000 C 
BRANCH   9  10
ATOM     10  C   UNL     1       9.907 -11.466  24.609  1.00  0.00    -0.000 C 
BRANCH  10  11
ATOM     11  C   UNL     1       8.906 -11.573  25.777  1.00  0.00    -0.000 C 
BRANCH  11  12
ATOM     12  C   UNL     1       9.199 -12.696  26.788  1.00  0.00    -0.000 C 
BRANCH  12  13
ATOM     13  C   UNL     1       9.005 -12.251  28.245  1.00  0.00    -0.003 C 
ATOM     14  C   UNL     1       9.956 -12.992  29.179  1.00  0.00     0.004 C 
ENDBRANCH  12  13
ENDBRANCH  11  12
ENDBRANCH  10  11
ENDBRANCH   9  10
ENDBRANCH   1   9
TORSDOF 10
ENDMDL
