MODEL 1
REMARK VINA RESULT:    -7.086      0.000      0.000
REMARK INTER + INTRA:         -14.000
REMARK INTER:                 -11.642
REMARK INTRA:                  -2.358
REMARK UNBOUND:                -2.358
REMARK SMILES C[C@H]1O[C@@H](OC[C@H]2O[C@@H](Oc3c(-c4ccc(O)c(O)c4)oc4cc(O)cc(O)c4c3=O)[C@H](O)[C@H](O)[C@@H]2O)[C@H](O)[C@@H](O)[C@@H]1O
REMARK SMILES IDX 7 1 36 2 34 3 32 4 9 5 8 6 6 7 5 8 4 9 1 10 2 11 42 12 3 13
REMARK SMILES IDX 40 14 38 15 43 16 41 18 39 20 37 22 35 24 10 26 11 27 12 28
REMARK SMILES IDX 30 29 21 30 29 31 31 32 22 33 27 34 23 35 26 36 24 37 13 38
REMARK SMILES IDX 20 39 14 40 18 41 15 42 16 43 19 44 17 46 28 48 25 50 33 52
REMARK H PARENT 43 17 41 19 39 21 37 23 35 25 19 45 17 47 28 49 25 51 33 53
REMARK Flexibility Score: inf
ROOT
ATOM      1  C   UNL     1      88.701  85.886  75.064  1.00  0.00     0.180 C 
ATOM      2  C   UNL     1      87.351  85.524  74.395  1.00  0.00     0.177 C 
ATOM      3  C   UNL     1      86.865  86.656  73.473  1.00  0.00     0.180 C 
ATOM      4  C   UNL     1      86.925  88.016  74.186  1.00  0.00     0.214 C 
ATOM      5  C   UNL     1      88.305  88.232  74.844  1.00  0.00     0.339 C 
ATOM      6  O   UNL     1      88.679  87.161  75.701  1.00  0.00    -0.332 OA
ENDROOT
BRANCH   1   7
ATOM      7  C   UNL     1      89.924  85.709  74.140  1.00  0.00     0.198 C 
BRANCH   7   8
ATOM      8  O   UNL     1      90.849  84.810  74.723  1.00  0.00    -0.347 OA
BRANCH   8   9
ATOM      9  C   UNL     1      90.903  83.604  73.976  1.00  0.00     0.281 C 
ATOM     10  C   UNL     1      90.004  83.038  76.905  1.00  0.00     0.041 C 
ATOM     11  C   UNL     1      90.324  82.088  75.741  1.00  0.00     0.150 C 
ATOM     12  C   UNL     1      91.756  81.498  75.805  1.00  0.00     0.174 C 
ATOM     13  O   UNL     1      89.983  82.636  74.472  1.00  0.00    -0.344 OA
ATOM     14  C   UNL     1      92.811  82.468  75.244  1.00  0.00     0.179 C 
ATOM     15  C   UNL     1      92.354  83.076  73.910  1.00  0.00     0.202 C 
BRANCH  12  16
ATOM     16  O   UNL     1      91.806  80.293  75.081  1.00  0.00    -0.388 OA
ATOM     17  H   UNL     1      91.523  79.569  75.700  1.00  0.00     0.211 HD
ENDBRANCH  12  16
BRANCH  14  18
ATOM     18  O   UNL     1      93.070  83.499  76.162  1.00  0.00    -0.387 OA
ATOM     19  H   UNL     1      93.431  84.265  75.643  1.00  0.00     0.211 HD
ENDBRANCH  14  18
BRANCH  15  20
ATOM     20  O   UNL     1      92.520  82.153  72.857  1.00  0.00    -0.385 OA
ATOM     21  H   UNL     1      91.871  82.376  72.141  1.00  0.00     0.211 HD
ENDBRANCH  15  20
ENDBRANCH   8   9
ENDBRANCH   7   8
ENDBRANCH   1   7
BRANCH   2  22
ATOM     22  O   UNL     1      86.382  85.266  75.380  1.00  0.00    -0.387 OA
ATOM     23  H   UNL     1      85.970  84.390  75.159  1.00  0.00     0.211 HD
ENDBRANCH   2  22
BRANCH   3  24
ATOM     24  O   UNL     1      85.554  86.409  73.033  1.00  0.00    -0.387 OA
ATOM     25  H   UNL     1      85.455  85.422  72.969  1.00  0.00     0.211 HD
ENDBRANCH   3  24
BRANCH   5  26
ATOM     26  O   UNL     1      89.309  88.464  73.854  1.00  0.00    -0.454 OA
BRANCH  26  27
ATOM     27  C   UNL     1      89.953  89.697  73.697  1.00  0.00     0.214 A 
ATOM     28  C   UNL     1      91.353  89.814  73.788  1.00  0.00     0.180 A 
ATOM     29  C   UNL     1      89.190  90.840  73.436  1.00  0.00     0.239 A 
ATOM     30  O   UNL     1      91.920  91.009  73.685  1.00  0.00    -0.452 OA
ATOM     31  C   UNL     1      89.820  92.107  73.359  1.00  0.00     0.111 A 
ATOM     32  O   UNL     1      87.952  90.703  73.259  1.00  0.00    -0.285 OA
ATOM     33  C   UNL     1      91.235  92.128  73.476  1.00  0.00     0.146 A 
ATOM     34  C   UNL     1      89.134  93.344  73.154  1.00  0.00     0.134 A 
ATOM     35  C   UNL     1      91.939  93.328  73.355  1.00  0.00     0.094 A 
ATOM     36  C   UNL     1      89.874  94.524  73.001  1.00  0.00     0.093 A 
ATOM     37  C   UNL     1      91.264  94.523  73.104  1.00  0.00     0.123 A 
BRANCH  28  38
ATOM     38  C   UNL     1      92.228  88.636  73.972  1.00  0.00     0.025 A 
ATOM     39  C   UNL     1      92.468  88.103  75.251  1.00  0.00     0.062 A 
ATOM     40  C   UNL     1      92.805  88.016  72.853  1.00  0.00     0.016 A 
ATOM     41  C   UNL     1      93.313  86.997  75.414  1.00  0.00     0.158 A 
ATOM     42  C   UNL     1      93.644  86.909  73.014  1.00  0.00     0.051 A 
ATOM     43  C   UNL     1      93.906  86.402  74.294  1.00  0.00     0.157 A 
BRANCH  41  44
ATOM     44  O   UNL     1      93.563  86.484  76.686  1.00  0.00    -0.504 OA
ATOM     45  H   UNL     1      94.174  85.687  76.825  1.00  0.00     0.293 HD
ENDBRANCH  41  44
BRANCH  43  46
ATOM     46  O   UNL     1      94.749  85.305  74.459  1.00  0.00    -0.504 OA
ATOM     47  H   UNL     1      95.222  85.126  75.338  1.00  0.00     0.293 HD
ENDBRANCH  43  46
ENDBRANCH  28  38
BRANCH  34  48
ATOM     48  O   UNL     1      87.743  93.473  73.118  1.00  0.00    -0.507 OA
ATOM     49  H   UNL     1      87.224  93.978  72.417  1.00  0.00     0.293 HD
ENDBRANCH  34  48
BRANCH  37  50
ATOM     50  O   UNL     1      91.964  95.718  72.961  1.00  0.00    -0.508 OA
ATOM     51  H   UNL     1      92.643  95.850  72.222  1.00  0.00     0.293 HD
ENDBRANCH  37  50
ENDBRANCH  26  27
ENDBRANCH   5  26
BRANCH   4  52
ATOM     52  O   UNL     1      85.875  88.159  75.116  1.00  0.00    -0.384 OA
ATOM     53  H   UNL     1      86.039  88.975  75.656  1.00  0.00     0.211 HD
ENDBRANCH   4  52
TORSDOF 16
ENDMDL
MODEL 2
REMARK VINA RESULT:    -6.952      1.957      8.272
REMARK INTER + INTRA:         -13.780
REMARK INTER:                 -12.029
REMARK INTRA:                  -1.751
REMARK UNBOUND:                -2.358
REMARK SMILES C[C@H]1O[C@@H](OC[C@H]2O[C@@H](Oc3c(-c4ccc(O)c(O)c4)oc4cc(O)cc(O)c4c3=O)[C@H](O)[C@H](O)[C@@H]2O)[C@H](O)[C@@H](O)[C@@H]1O
REMARK SMILES IDX 7 1 36 2 34 3 32 4 9 5 8 6 6 7 5 8 4 9 1 10 2 11 42 12 3 13
REMARK SMILES IDX 40 14 38 15 43 16 41 18 39 20 37 22 35 24 10 26 11 27 12 28
REMARK SMILES IDX 30 29 21 30 29 31 31 32 22 33 27 34 23 35 26 36 24 37 13 38
REMARK SMILES IDX 20 39 14 40 18 41 15 42 16 43 19 44 17 46 28 48 25 50 33 52
REMARK H PARENT 43 17 41 19 39 21 37 23 35 25 19 45 17 47 28 49 25 51 33 53
REMARK Flexibility Score: inf
ROOT
ATOM      1  C   UNL     1      90.865  90.432  75.737  1.00  0.00     0.180 C 
ATOM      2  C   UNL     1      92.363  90.748  75.498  1.00  0.00     0.177 C 
ATOM      3  C   UNL     1      93.115  89.514  74.970  1.00  0.00     0.180 C 
ATOM      4  C   UNL     1      92.812  88.273  75.824  1.00  0.00     0.214 C 
ATOM      5  C   UNL     1      91.290  88.098  76.020  1.00  0.00     0.339 C 
ATOM      6  O   UNL     1      90.665  89.268  76.533  1.00  0.00    -0.332 OA
ENDROOT
BRANCH   1   7
ATOM      7  C   UNL     1      90.015  90.419  74.448  1.00  0.00     0.198 C 
BRANCH   7   8
ATOM      8  O   UNL     1      90.570  91.301  73.490  1.00  0.00    -0.347 OA
BRANCH   8   9
ATOM      9  C   UNL     1      89.652  92.341  73.186  1.00  0.00     0.281 C 
ATOM     10  C   UNL     1      91.072  91.345  70.599  1.00  0.00     0.041 C 
ATOM     11  C   UNL     1      90.093  92.504  70.836  1.00  0.00     0.150 C 
ATOM     12  C   UNL     1      90.793  93.880  70.987  1.00  0.00     0.174 C 
ATOM     13  O   UNL     1      89.145  92.225  71.861  1.00  0.00    -0.344 OA
ATOM     14  C   UNL     1      91.334  94.104  72.410  1.00  0.00     0.179 C 
ATOM     15  C   UNL     1      90.289  93.720  73.468  1.00  0.00     0.202 C 
BRANCH  12  16
ATOM     16  O   UNL     1      89.890  94.909  70.668  1.00  0.00    -0.388 OA
ATOM     17  H   UNL     1      90.343  95.502  70.012  1.00  0.00     0.211 HD
ENDBRANCH  12  16
BRANCH  14  18
ATOM     18  O   UNL     1      92.504  93.355  72.617  1.00  0.00    -0.387 OA
ATOM     19  H   UNL     1      92.221  92.454  72.924  1.00  0.00     0.211 HD
ENDBRANCH  14  18
BRANCH  15  20
ATOM     20  O   UNL     1      89.309  94.726  73.591  1.00  0.00    -0.385 OA
ATOM     21  H   UNL     1      89.513  95.443  72.937  1.00  0.00     0.211 HD
ENDBRANCH  15  20
ENDBRANCH   8   9
ENDBRANCH   7   8
ENDBRANCH   1   7
BRANCH   2  22
ATOM     22  O   UNL     1      92.956  91.189  76.693  1.00  0.00    -0.387 OA
ATOM     23  H   UNL     1      93.469  90.423  77.062  1.00  0.00     0.211 HD
ENDBRANCH   2  22
BRANCH   3  24
ATOM     24  O   UNL     1      94.500  89.749  74.949  1.00  0.00    -0.387 OA
ATOM     25  H   UNL     1      94.929  88.970  75.394  1.00  0.00     0.211 HD
ENDBRANCH   3  24
BRANCH   5  26
ATOM     26  O   UNL     1      90.666  87.680  74.804  1.00  0.00    -0.454 OA
BRANCH  26  27
ATOM     27  C   UNL     1      89.841  86.553  74.721  1.00  0.00     0.214 A 
ATOM     28  C   UNL     1      90.357  85.285  74.391  1.00  0.00     0.180 A 
ATOM     29  C   UNL     1      88.472  86.684  74.978  1.00  0.00     0.239 A 
ATOM     30  O   UNL     1      89.533  84.252  74.271  1.00  0.00    -0.452 OA
ATOM     31  C   UNL     1      87.613  85.570  74.815  1.00  0.00     0.111 A 
ATOM     32  O   UNL     1      88.043  87.801  75.368  1.00  0.00    -0.285 OA
ATOM     33  C   UNL     1      88.222  84.335  74.467  1.00  0.00     0.146 A 
ATOM     34  C   UNL     1      86.196  85.604  74.994  1.00  0.00     0.134 A 
ATOM     35  C   UNL     1      87.454  83.175  74.342  1.00  0.00     0.094 A 
ATOM     36  C   UNL     1      85.461  84.415  74.897  1.00  0.00     0.093 A 
ATOM     37  C   UNL     1      86.078  83.210  74.570  1.00  0.00     0.123 A 
BRANCH  28  38
ATOM     38  C   UNL     1      91.805  85.054  74.195  1.00  0.00     0.025 A 
ATOM     39  C   UNL     1      92.487  84.062  74.920  1.00  0.00     0.062 A 
ATOM     40  C   UNL     1      92.507  85.813  73.246  1.00  0.00     0.016 A 
ATOM     41  C   UNL     1      93.862  83.865  74.737  1.00  0.00     0.158 A 
ATOM     42  C   UNL     1      93.879  85.615  73.059  1.00  0.00     0.051 A 
ATOM     43  C   UNL     1      94.561  84.646  73.807  1.00  0.00     0.157 A 
BRANCH  41  44
ATOM     44  O   UNL     1      94.538  82.893  75.472  1.00  0.00    -0.504 OA
ATOM     45  H   UNL     1      95.238  82.297  75.045  1.00  0.00     0.293 HD
ENDBRANCH  41  44
BRANCH  43  46
ATOM     46  O   UNL     1      95.929  84.451  73.630  1.00  0.00    -0.504 OA
ATOM     47  H   UNL     1      96.505  84.043  74.357  1.00  0.00     0.293 HD
ENDBRANCH  43  46
ENDBRANCH  28  38
BRANCH  34  48
ATOM     48  O   UNL     1      85.464  86.769  75.242  1.00  0.00    -0.507 OA
ATOM     49  H   UNL     1      84.707  87.112  74.672  1.00  0.00     0.293 HD
ENDBRANCH  34  48
BRANCH  37  50
ATOM     50  O   UNL     1      85.312  82.051  74.467  1.00  0.00    -0.508 OA
ATOM     51  H   UNL     1      84.984  81.709  73.572  1.00  0.00     0.293 HD
ENDBRANCH  37  50
ENDBRANCH  26  27
ENDBRANCH   5  26
BRANCH   4  52
ATOM     52  O   UNL     1      93.496  88.313  77.055  1.00  0.00    -0.384 OA
ATOM     53  H   UNL     1      94.183  89.028  77.013  1.00  0.00     0.211 HD
ENDBRANCH   4  52
TORSDOF 16
ENDMDL
MODEL 3
REMARK VINA RESULT:    -6.903      2.058      5.665
REMARK INTER + INTRA:         -13.699
REMARK INTER:                 -11.153
REMARK INTRA:                  -2.546
REMARK UNBOUND:                -2.358
REMARK SMILES C[C@H]1O[C@@H](OC[C@H]2O[C@@H](Oc3c(-c4ccc(O)c(O)c4)oc4cc(O)cc(O)c4c3=O)[C@H](O)[C@H](O)[C@@H]2O)[C@H](O)[C@@H](O)[C@@H]1O
REMARK SMILES IDX 7 1 36 2 34 3 32 4 9 5 8 6 6 7 5 8 4 9 1 10 2 11 42 12 3 13
REMARK SMILES IDX 40 14 38 15 43 16 41 18 39 20 37 22 35 24 10 26 11 27 12 28
REMARK SMILES IDX 30 29 21 30 29 31 31 32 22 33 27 34 23 35 26 36 24 37 13 38
REMARK SMILES IDX 20 39 14 40 18 41 15 42 16 43 19 44 17 46 28 48 25 50 33 52
REMARK H PARENT 43 17 41 19 39 21 37 23 35 25 19 45 17 47 28 49 25 51 33 53
REMARK Flexibility Score: inf
ROOT
ATOM      1  C   UNL     1      88.368  82.573  75.111  1.00  0.00     0.180 C 
ATOM      2  C   UNL     1      89.094  81.334  75.695  1.00  0.00     0.177 C 
ATOM      3  C   UNL     1      90.548  81.667  76.070  1.00  0.00     0.180 C 
ATOM      4  C   UNL     1      91.265  82.393  74.920  1.00  0.00     0.214 C 
ATOM      5  C   UNL     1      90.418  83.576  74.403  1.00  0.00     0.339 C 
ATOM      6  O   UNL     1      89.094  83.192  74.053  1.00  0.00    -0.332 OA
ENDROOT
BRANCH   1   7
ATOM      7  C   UNL     1      87.901  83.586  76.178  1.00  0.00     0.198 C 
BRANCH   7   8
ATOM      8  O   UNL     1      87.119  84.600  75.576  1.00  0.00    -0.347 OA
BRANCH   8   9
ATOM      9  C   UNL     1      85.739  84.369  75.819  1.00  0.00     0.281 C 
ATOM     10  C   UNL     1      86.242  84.901  72.792  1.00  0.00     0.041 C 
ATOM     11  C   UNL     1      84.941  84.710  73.585  1.00  0.00     0.150 C 
ATOM     12  C   UNL     1      84.245  86.044  73.957  1.00  0.00     0.174 C 
ATOM     13  O   UNL     1      85.089  83.813  74.680  1.00  0.00    -0.344 OA
ATOM     14  C   UNL     1      84.861  86.691  75.210  1.00  0.00     0.179 C 
ATOM     15  C   UNL     1      85.058  85.659  76.329  1.00  0.00     0.202 C 
BRANCH  12  16
ATOM     16  O   UNL     1      82.875  85.819  74.180  1.00  0.00    -0.388 OA
ATOM     17  H   UNL     1      82.669  86.154  75.092  1.00  0.00     0.211 HD
ENDBRANCH  12  16
BRANCH  14  18
ATOM     18  O   UNL     1      86.095  87.288  74.902  1.00  0.00    -0.387 OA
ATOM     19  H   UNL     1      86.414  87.735  75.729  1.00  0.00     0.211 HD
ENDBRANCH  14  18
BRANCH  15  20
ATOM     20  O   UNL     1      83.835  85.378  76.972  1.00  0.00    -0.385 OA
ATOM     21  H   UNL     1      83.539  84.472  76.697  1.00  0.00     0.211 HD
ENDBRANCH  15  20
ENDBRANCH   8   9
ENDBRANCH   7   8
ENDBRANCH   1   7
BRANCH   2  22
ATOM     22  O   UNL     1      89.073  80.283  74.763  1.00  0.00    -0.387 OA
ATOM     23  H   UNL     1      88.195  80.323  74.301  1.00  0.00     0.211 HD
ENDBRANCH   2  22
BRANCH   3  24
ATOM     24  O   UNL     1      91.253  80.499  76.406  1.00  0.00    -0.387 OA
ATOM     25  H   UNL     1      90.599  79.883  76.832  1.00  0.00     0.211 HD
ENDBRANCH   3  24
BRANCH   5  26
ATOM     26  O   UNL     1      90.402  84.643  75.354  1.00  0.00    -0.454 OA
BRANCH  26  27
ATOM     27  C   UNL     1      90.899  85.921  75.072  1.00  0.00     0.214 A 
ATOM     28  C   UNL     1      92.265  86.227  75.216  1.00  0.00     0.180 A 
ATOM     29  C   UNL     1      90.021  86.916  74.630  1.00  0.00     0.239 A 
ATOM     30  O   UNL     1      92.688  87.465  74.990  1.00  0.00    -0.452 OA
ATOM     31  C   UNL     1      90.495  88.235  74.423  1.00  0.00     0.111 A 
ATOM     32  O   UNL     1      88.823  86.600  74.411  1.00  0.00    -0.285 OA
ATOM     33  C   UNL     1      91.887  88.452  74.606  1.00  0.00     0.146 A 
ATOM     34  C   UNL     1      89.679  89.339  74.028  1.00  0.00     0.134 A 
ATOM     35  C   UNL     1      92.445  89.710  74.367  1.00  0.00     0.094 A 
ATOM     36  C   UNL     1      90.277  90.577  73.762  1.00  0.00     0.093 A 
ATOM     37  C   UNL     1      91.647  90.768  73.933  1.00  0.00     0.123 A 
BRANCH  28  38
ATOM     38  C   UNL     1      93.264  85.203  75.593  1.00  0.00     0.025 A 
ATOM     39  C   UNL     1      93.447  84.827  76.936  1.00  0.00     0.062 A 
ATOM     40  C   UNL     1      94.021  84.570  74.595  1.00  0.00     0.016 A 
ATOM     41  C   UNL     1      94.408  83.868  77.281  1.00  0.00     0.158 A 
ATOM     42  C   UNL     1      94.977  83.609  74.938  1.00  0.00     0.051 A 
ATOM     43  C   UNL     1      95.178  83.261  76.281  1.00  0.00     0.157 A 
BRANCH  41  44
ATOM     44  O   UNL     1      94.600  83.511  78.614  1.00  0.00    -0.504 OA
ATOM     45  H   UNL     1      94.559  82.544  78.916  1.00  0.00     0.293 HD
ENDBRANCH  41  44
BRANCH  43  46
ATOM     46  O   UNL     1      96.137  82.310  76.627  1.00  0.00    -0.504 OA
ATOM     47  H   UNL     1      96.750  81.897  75.934  1.00  0.00     0.293 HD
ENDBRANCH  43  46
ENDBRANCH  28  38
BRANCH  34  48
ATOM     48  O   UNL     1      88.287  89.282  73.908  1.00  0.00    -0.507 OA
ATOM     49  H   UNL     1      87.778  89.289  73.037  1.00  0.00     0.293 HD
ENDBRANCH  34  48
BRANCH  37  50
ATOM     50  O   UNL     1      92.204  92.018  73.673  1.00  0.00    -0.508 OA
ATOM     51  H   UNL     1      91.809  92.641  72.979  1.00  0.00     0.293 HD
ENDBRANCH  37  50
ENDBRANCH  26  27
ENDBRANCH   5  26
BRANCH   4  52
ATOM     52  O   UNL     1      91.608  81.503  73.882  1.00  0.00    -0.384 OA
ATOM     53  H   UNL     1      90.791  81.300  73.356  1.00  0.00     0.211 HD
ENDBRANCH   4  52
TORSDOF 16
ENDMDL
MODEL 4
REMARK VINA RESULT:    -6.885      2.947      5.136
REMARK INTER + INTRA:         -13.669
REMARK INTER:                 -10.657
REMARK INTRA:                  -3.012
REMARK UNBOUND:                -2.358
REMARK SMILES C[C@H]1O[C@@H](OC[C@H]2O[C@@H](Oc3c(-c4ccc(O)c(O)c4)oc4cc(O)cc(O)c4c3=O)[C@H](O)[C@H](O)[C@@H]2O)[C@H](O)[C@@H](O)[C@@H]1O
REMARK SMILES IDX 7 1 36 2 34 3 32 4 9 5 8 6 6 7 5 8 4 9 1 10 2 11 42 12 3 13
REMARK SMILES IDX 40 14 38 15 43 16 41 18 39 20 37 22 35 24 10 26 11 27 12 28
REMARK SMILES IDX 30 29 21 30 29 31 31 32 22 33 27 34 23 35 26 36 24 37 13 38
REMARK SMILES IDX 20 39 14 40 18 41 15 42 16 43 19 44 17 46 28 48 25 50 33 52
REMARK H PARENT 43 17 41 19 39 21 37 23 35 25 19 45 17 47 28 49 25 51 33 53
REMARK Flexibility Score: inf
ROOT
ATOM      1  C   UNL     1      89.593  86.197  75.251  1.00  0.00     0.180 C 
ATOM      2  C   UNL     1      88.587  87.248  74.716  1.00  0.00     0.177 C 
ATOM      3  C   UNL     1      89.044  88.678  75.055  1.00  0.00     0.180 C 
ATOM      4  C   UNL     1      89.428  88.801  76.538  1.00  0.00     0.214 C 
ATOM      5  C   UNL     1      90.397  87.672  76.951  1.00  0.00     0.339 C 
ATOM      6  O   UNL     1      89.902  86.378  76.630  1.00  0.00    -0.332 OA
ENDROOT
BRANCH   1   7
ATOM      7  C   UNL     1      90.858  86.041  74.379  1.00  0.00     0.198 C 
BRANCH   7   8
ATOM      8  O   UNL     1      91.404  84.745  74.541  1.00  0.00    -0.347 OA
BRANCH   8   9
ATOM      9  C   UNL     1      92.720  84.693  74.010  1.00  0.00     0.281 C 
ATOM     10  C   UNL     1      92.256  82.354  76.014  1.00  0.00     0.041 C 
ATOM     11  C   UNL     1      93.515  82.811  75.263  1.00  0.00     0.150 C 
ATOM     12  C   UNL     1      94.460  83.689  76.124  1.00  0.00     0.174 C 
ATOM     13  O   UNL     1      93.225  83.362  73.983  1.00  0.00    -0.344 OA
ATOM     14  C   UNL     1      94.008  85.159  76.169  1.00  0.00     0.179 C 
ATOM     15  C   UNL     1      93.644  85.672  74.769  1.00  0.00     0.202 C 
BRANCH  12  16
ATOM     16  O   UNL     1      95.767  83.624  75.610  1.00  0.00    -0.388 OA
ATOM     17  H   UNL     1      95.688  83.463  74.633  1.00  0.00     0.211 HD
ENDBRANCH  12  16
BRANCH  14  18
ATOM     18  O   UNL     1      92.902  85.309  77.023  1.00  0.00    -0.387 OA
ATOM     19  H   UNL     1      93.259  85.539  77.921  1.00  0.00     0.211 HD
ENDBRANCH  14  18
BRANCH  15  20
ATOM     20  O   UNL     1      94.806  85.965  74.026  1.00  0.00    -0.385 OA
ATOM     21  H   UNL     1      94.715  86.878  73.650  1.00  0.00     0.211 HD
ENDBRANCH  15  20
ENDBRANCH   8   9
ENDBRANCH   7   8
ENDBRANCH   1   7
BRANCH   2  22
ATOM     22  O   UNL     1      87.315  87.014  75.264  1.00  0.00    -0.387 OA
ATOM     23  H   UNL     1      87.275  86.052  75.504  1.00  0.00     0.211 HD
ENDBRANCH   2  22
BRANCH   3  24
ATOM     24  O   UNL     1      88.034  89.606  74.748  1.00  0.00    -0.387 OA
ATOM     25  H   UNL     1      87.528  89.765  75.588  1.00  0.00     0.211 HD
ENDBRANCH   3  24
BRANCH   5  26
ATOM     26  O   UNL     1      91.690  87.877  76.376  1.00  0.00    -0.454 OA
BRANCH  26  27
ATOM     27  C   UNL     1      92.569  88.874  76.815  1.00  0.00     0.214 A 
ATOM     28  C   UNL     1      92.879  89.989  76.012  1.00  0.00     0.180 A 
ATOM     29  C   UNL     1      93.149  88.766  78.083  1.00  0.00     0.239 A 
ATOM     30  O   UNL     1      93.758  90.884  76.444  1.00  0.00    -0.452 OA
ATOM     31  C   UNL     1      94.104  89.723  78.506  1.00  0.00     0.111 A 
ATOM     32  O   UNL     1      92.785  87.819  78.826  1.00  0.00    -0.285 OA
ATOM     33  C   UNL     1      94.362  90.806  77.624  1.00  0.00     0.146 A 
ATOM     34  C   UNL     1      94.799  89.680  79.754  1.00  0.00     0.134 A 
ATOM     35  C   UNL     1      95.248  91.822  77.988  1.00  0.00     0.094 A 
ATOM     36  C   UNL     1      95.653  90.735  80.103  1.00  0.00     0.093 A 
ATOM     37  C   UNL     1      95.883  91.796  79.230  1.00  0.00     0.123 A 
BRANCH  28  38
ATOM     38  C   UNL     1      92.236  90.213  74.699  1.00  0.00     0.025 A 
ATOM     39  C   UNL     1      91.516  91.392  74.436  1.00  0.00     0.062 A 
ATOM     40  C   UNL     1      92.370  89.252  73.686  1.00  0.00     0.016 A 
ATOM     41  C   UNL     1      90.897  91.585  73.193  1.00  0.00     0.158 A 
ATOM     42  C   UNL     1      91.757  89.445  72.444  1.00  0.00     0.051 A 
ATOM     43  C   UNL     1      91.014  90.608  72.197  1.00  0.00     0.157 A 
BRANCH  41  44
ATOM     44  O   UNL     1      90.169  92.746  72.942  1.00  0.00    -0.504 OA
ATOM     45  H   UNL     1      89.196  92.831  73.213  1.00  0.00     0.293 HD
ENDBRANCH  41  44
BRANCH  43  46
ATOM     46  O   UNL     1      90.394  90.800  70.964  1.00  0.00    -0.504 OA
ATOM     47  H   UNL     1      90.901  91.165  70.166  1.00  0.00     0.293 HD
ENDBRANCH  43  46
ENDBRANCH  28  38
BRANCH  34  48
ATOM     48  O   UNL     1      94.708  88.626  80.667  1.00  0.00    -0.507 OA
ATOM     49  H   UNL     1      94.084  88.593  81.458  1.00  0.00     0.293 HD
ENDBRANCH  34  48
BRANCH  37  50
ATOM     50  O   UNL     1      96.750  92.819  79.606  1.00  0.00    -0.508 OA
ATOM     51  H   UNL     1      96.914  93.622  79.011  1.00  0.00     0.293 HD
ENDBRANCH  37  50
ENDBRANCH  26  27
ENDBRANCH   5  26
BRANCH   4  52
ATOM     52  O   UNL     1      88.288  88.838  77.365  1.00  0.00    -0.384 OA
ATOM     53  H   UNL     1      88.449  89.489  78.098  1.00  0.00     0.211 HD
ENDBRANCH   4  52
TORSDOF 16
ENDMDL
MODEL 5
REMARK VINA RESULT:    -6.878      2.935      4.338
REMARK INTER + INTRA:         -13.658
REMARK INTER:                 -11.777
REMARK INTRA:                  -1.882
REMARK UNBOUND:                -2.358
REMARK SMILES C[C@H]1O[C@@H](OC[C@H]2O[C@@H](Oc3c(-c4ccc(O)c(O)c4)oc4cc(O)cc(O)c4c3=O)[C@H](O)[C@H](O)[C@@H]2O)[C@H](O)[C@@H](O)[C@@H]1O
REMARK SMILES IDX 7 1 36 2 34 3 32 4 9 5 8 6 6 7 5 8 4 9 1 10 2 11 42 12 3 13
REMARK SMILES IDX 40 14 38 15 43 16 41 18 39 20 37 22 35 24 10 26 11 27 12 28
REMARK SMILES IDX 30 29 21 30 29 31 31 32 22 33 27 34 23 35 26 36 24 37 13 38
REMARK SMILES IDX 20 39 14 40 18 41 15 42 16 43 19 44 17 46 28 48 25 50 33 52
REMARK H PARENT 43 17 41 19 39 21 37 23 35 25 19 45 17 47 28 49 25 51 33 53
REMARK Flexibility Score: inf
ROOT
ATOM      1  C   UNL     1      92.161  85.223  76.206  1.00  0.00     0.180 C 
ATOM      2  C   UNL     1      91.376  84.399  75.154  1.00  0.00     0.177 C 
ATOM      3  C   UNL     1      90.812  85.305  74.046  1.00  0.00     0.180 C 
ATOM      4  C   UNL     1      90.079  86.517  74.641  1.00  0.00     0.214 C 
ATOM      5  C   UNL     1      90.951  87.221  75.703  1.00  0.00     0.339 C 
ATOM      6  O   UNL     1      91.418  86.330  76.708  1.00  0.00    -0.332 OA
ENDROOT
BRANCH   1   7
ATOM      7  C   UNL     1      93.582  85.622  75.755  1.00  0.00     0.198 C 
BRANCH   7   8
ATOM      8  O   UNL     1      94.539  85.148  76.685  1.00  0.00    -0.347 OA
BRANCH   8   9
ATOM      9  C   UNL     1      93.962  84.160  77.526  1.00  0.00     0.281 C 
ATOM     10  C   UNL     1      96.203  85.709  79.037  1.00  0.00     0.041 C 
ATOM     11  C   UNL     1      95.360  84.492  79.444  1.00  0.00     0.150 C 
ATOM     12  C   UNL     1      96.091  83.140  79.239  1.00  0.00     0.174 C 
ATOM     13  O   UNL     1      94.045  84.524  78.900  1.00  0.00    -0.344 OA
ATOM     14  C   UNL     1      96.010  82.651  77.782  1.00  0.00     0.179 C 
ATOM     15  C   UNL     1      94.582  82.775  77.232  1.00  0.00     0.202 C 
BRANCH  12  16
ATOM     16  O   UNL     1      95.533  82.165  80.084  1.00  0.00    -0.388 OA
ATOM     17  H   UNL     1      95.201  82.637  80.894  1.00  0.00     0.211 HD
ENDBRANCH  12  16
BRANCH  14  18
ATOM     18  O   UNL     1      96.890  83.383  76.966  1.00  0.00    -0.387 OA
ATOM     19  H   UNL     1      97.676  82.801  76.795  1.00  0.00     0.211 HD
ENDBRANCH  14  18
BRANCH  15  20
ATOM     20  O   UNL     1      93.767  81.732  77.716  1.00  0.00    -0.385 OA
ATOM     21  H   UNL     1      92.822  82.029  77.676  1.00  0.00     0.211 HD
ENDBRANCH  15  20
ENDBRANCH   8   9
ENDBRANCH   7   8
ENDBRANCH   1   7
BRANCH   2  22
ATOM     22  O   UNL     1      90.328  83.701  75.777  1.00  0.00    -0.387 OA
ATOM     23  H   UNL     1      90.741  82.979  76.318  1.00  0.00     0.211 HD
ENDBRANCH   2  22
BRANCH   3  24
ATOM     24  O   UNL     1      89.938  84.584  73.214  1.00  0.00    -0.387 OA
ATOM     25  H   UNL     1      89.017  84.775  73.533  1.00  0.00     0.211 HD
ENDBRANCH   3  24
BRANCH   5  26
ATOM     26  O   UNL     1      92.042  87.910  75.089  1.00  0.00    -0.454 OA
BRANCH  26  27
ATOM     27  C   UNL     1      92.001  89.273  74.773  1.00  0.00     0.214 A 
ATOM     28  C   UNL     1      92.222  90.262  75.751  1.00  0.00     0.180 A 
ATOM     29  C   UNL     1      91.743  89.664  73.455  1.00  0.00     0.239 A 
ATOM     30  O   UNL     1      92.122  91.544  75.422  1.00  0.00    -0.452 OA
ATOM     31  C   UNL     1      91.615  91.039  73.139  1.00  0.00     0.111 A 
ATOM     32  O   UNL     1      91.648  88.770  72.576  1.00  0.00    -0.285 OA
ATOM     33  C   UNL     1      91.841  91.963  74.193  1.00  0.00     0.146 A 
ATOM     34  C   UNL     1      91.297  91.548  71.843  1.00  0.00     0.134 A 
ATOM     35  C   UNL     1      91.791  93.339  73.954  1.00  0.00     0.094 A 
ATOM     36  C   UNL     1      91.290  92.933  71.629  1.00  0.00     0.093 A 
ATOM     37  C   UNL     1      91.530  93.825  72.673  1.00  0.00     0.123 A 
BRANCH  28  38
ATOM     38  C   UNL     1      92.588  89.921  77.143  1.00  0.00     0.025 A 
ATOM     39  C   UNL     1      93.926  89.968  77.573  1.00  0.00     0.062 A 
ATOM     40  C   UNL     1      91.585  89.577  78.061  1.00  0.00     0.016 A 
ATOM     41  C   UNL     1      94.261  89.627  78.890  1.00  0.00     0.158 A 
ATOM     42  C   UNL     1      91.918  89.241  79.377  1.00  0.00     0.051 A 
ATOM     43  C   UNL     1      93.256  89.258  79.793  1.00  0.00     0.157 A 
BRANCH  41  44
ATOM     44  O   UNL     1      95.591  89.656  79.308  1.00  0.00    -0.504 OA
ATOM     45  H   UNL     1      96.040  90.521  79.587  1.00  0.00     0.293 HD
ENDBRANCH  41  44
BRANCH  43  46
ATOM     46  O   UNL     1      93.593  88.914  81.101  1.00  0.00    -0.504 OA
ATOM     47  H   UNL     1      93.342  89.504  81.886  1.00  0.00     0.293 HD
ENDBRANCH  43  46
ENDBRANCH  28  38
BRANCH  34  48
ATOM     48  O   UNL     1      90.959  90.749  70.747  1.00  0.00    -0.507 OA
ATOM     49  H   UNL     1      91.615  90.358  70.088  1.00  0.00     0.293 HD
ENDBRANCH  34  48
BRANCH  37  50
ATOM     50  O   UNL     1      91.500  95.195  72.426  1.00  0.00    -0.508 OA
ATOM     51  H   UNL     1      91.930  95.595  71.601  1.00  0.00     0.293 HD
ENDBRANCH  37  50
ENDBRANCH  26  27
ENDBRANCH   5  26
BRANCH   4  52
ATOM     52  O   UNL     1      88.818  86.157  75.157  1.00  0.00    -0.384 OA
ATOM     53  H   UNL     1      88.854  86.206  76.148  1.00  0.00     0.211 HD
ENDBRANCH   4  52
TORSDOF 16
ENDMDL
MODEL 6
REMARK VINA RESULT:    -6.872      3.471      6.921
REMARK INTER + INTRA:         -13.648
REMARK INTER:                 -10.949
REMARK INTRA:                  -2.699
REMARK UNBOUND:                -2.358
REMARK SMILES C[C@H]1O[C@@H](OC[C@H]2O[C@@H](Oc3c(-c4ccc(O)c(O)c4)oc4cc(O)cc(O)c4c3=O)[C@H](O)[C@H](O)[C@@H]2O)[C@H](O)[C@@H](O)[C@@H]1O
REMARK SMILES IDX 7 1 36 2 34 3 32 4 9 5 8 6 6 7 5 8 4 9 1 10 2 11 42 12 3 13
REMARK SMILES IDX 40 14 38 15 43 16 41 18 39 20 37 22 35 24 10 26 11 27 12 28
REMARK SMILES IDX 30 29 21 30 29 31 31 32 22 33 27 34 23 35 26 36 24 37 13 38
REMARK SMILES IDX 20 39 14 40 18 41 15 42 16 43 19 44 17 46 28 48 25 50 33 52
REMARK H PARENT 43 17 41 19 39 21 37 23 35 25 19 45 17 47 28 49 25 51 33 53
REMARK Flexibility Score: inf
ROOT
ATOM      1  C   UNL     1      93.368  84.762  74.980  1.00  0.00     0.180 C 
ATOM      2  C   UNL     1      94.076  86.112  74.704  1.00  0.00     0.177 C 
ATOM      3  C   UNL     1      93.058  87.219  74.378  1.00  0.00     0.180 C 
ATOM      4  C   UNL     1      92.053  86.751  73.314  1.00  0.00     0.214 C 
ATOM      5  C   UNL     1      91.454  85.377  73.688  1.00  0.00     0.339 C 
ATOM      6  O   UNL     1      92.451  84.398  73.952  1.00  0.00    -0.332 OA
ENDROOT
BRANCH   1   7
ATOM      7  C   UNL     1      92.746  84.658  76.390  1.00  0.00     0.198 C 
BRANCH   7   8
ATOM      8  O   UNL     1      93.767  84.621  77.370  1.00  0.00    -0.347 OA
BRANCH   8   9
ATOM      9  C   UNL     1      94.249  83.295  77.531  1.00  0.00     0.281 C 
ATOM     10  C   UNL     1      93.846  84.656  80.304  1.00  0.00     0.041 C 
ATOM     11  C   UNL     1      94.442  83.294  79.920  1.00  0.00     0.150 C 
ATOM     12  C   UNL     1      95.992  83.292  79.870  1.00  0.00     0.174 C 
ATOM     13  O   UNL     1      93.828  82.727  78.767  1.00  0.00    -0.344 OA
ATOM     14  C   UNL     1      96.531  83.852  78.541  1.00  0.00     0.179 C 
ATOM     15  C   UNL     1      95.782  83.254  77.341  1.00  0.00     0.202 C 
BRANCH  12  16
ATOM     16  O   UNL     1      96.471  81.982  80.047  1.00  0.00    -0.388 OA
ATOM     17  H   UNL     1      96.171  81.681  80.945  1.00  0.00     0.211 HD
ENDBRANCH  12  16
BRANCH  14  18
ATOM     18  O   UNL     1      96.416  85.252  78.512  1.00  0.00    -0.387 OA
ATOM     19  H   UNL     1      96.819  85.592  79.354  1.00  0.00     0.211 HD
ENDBRANCH  14  18
BRANCH  15  20
ATOM     20  O   UNL     1      96.234  81.946  77.071  1.00  0.00    -0.385 OA
ATOM     21  H   UNL     1      96.972  82.001  76.410  1.00  0.00     0.211 HD
ENDBRANCH  15  20
ENDBRANCH   8   9
ENDBRANCH   7   8
ENDBRANCH   1   7
BRANCH   2  22
ATOM     22  O   UNL     1      94.980  85.970  73.638  1.00  0.00    -0.387 OA
ATOM     23  H   UNL     1      95.834  86.388  73.924  1.00  0.00     0.211 HD
ENDBRANCH   2  22
BRANCH   3  24
ATOM     24  O   UNL     1      93.713  88.380  73.934  1.00  0.00    -0.387 OA
ATOM     25  H   UNL     1      94.642  88.113  73.704  1.00  0.00     0.211 HD
ENDBRANCH   3  24
BRANCH   5  26
ATOM     26  O   UNL     1      90.556  85.499  74.793  1.00  0.00    -0.454 OA
BRANCH  26  27
ATOM     27  C   UNL     1      89.204  85.146  74.717  1.00  0.00     0.214 A 
ATOM     28  C   UNL     1      88.757  83.860  75.074  1.00  0.00     0.180 A 
ATOM     29  C   UNL     1      88.272  86.095  74.284  1.00  0.00     0.239 A 
ATOM     30  O   UNL     1      87.474  83.550  74.937  1.00  0.00    -0.452 OA
ATOM     31  C   UNL     1      86.913  85.727  74.121  1.00  0.00     0.111 A 
ATOM     32  O   UNL     1      88.672  87.267  74.065  1.00  0.00    -0.285 OA
ATOM     33  C   UNL     1      86.558  84.404  74.494  1.00  0.00     0.146 A 
ATOM     34  C   UNL     1      85.890  86.596  73.633  1.00  0.00     0.134 A 
ATOM     35  C   UNL     1      85.230  83.978  74.419  1.00  0.00     0.094 A 
ATOM     36  C   UNL     1      84.563  86.148  73.604  1.00  0.00     0.093 A 
ATOM     37  C   UNL     1      84.230  84.850  73.988  1.00  0.00     0.123 A 
BRANCH  28  38
ATOM     38  C   UNL     1      89.671  82.836  75.624  1.00  0.00     0.025 A 
ATOM     39  C   UNL     1      89.872  82.712  77.011  1.00  0.00     0.062 A 
ATOM     40  C   UNL     1      90.327  81.950  74.756  1.00  0.00     0.016 A 
ATOM     41  C   UNL     1      90.754  81.749  77.518  1.00  0.00     0.158 A 
ATOM     42  C   UNL     1      91.204  80.986  75.262  1.00  0.00     0.051 A 
ATOM     43  C   UNL     1      91.425  80.887  76.642  1.00  0.00     0.157 A 
BRANCH  41  44
ATOM     44  O   UNL     1      90.964  81.641  78.892  1.00  0.00    -0.504 OA
ATOM     45  H   UNL     1      90.635  80.839  79.417  1.00  0.00     0.293 HD
ENDBRANCH  41  44
BRANCH  43  46
ATOM     46  O   UNL     1      92.305  79.933  77.149  1.00  0.00    -0.504 OA
ATOM     47  H   UNL     1      92.561  79.915  78.130  1.00  0.00     0.293 HD
ENDBRANCH  43  46
ENDBRANCH  28  38
BRANCH  34  48
ATOM     48  O   UNL     1      86.121  87.885  73.145  1.00  0.00    -0.507 OA
ATOM     49  H   UNL     1      86.571  88.103  72.269  1.00  0.00     0.293 HD
ENDBRANCH  34  48
BRANCH  37  50
ATOM     50  O   UNL     1      82.902  84.436  73.932  1.00  0.00    -0.508 OA
ATOM     51  H   UNL     1      82.404  84.134  74.761  1.00  0.00     0.293 HD
ENDBRANCH  37  50
ENDBRANCH  26  27
ENDBRANCH   5  26
BRANCH   4  52
ATOM     52  O   UNL     1      92.631  86.735  72.029  1.00  0.00    -0.384 OA
ATOM     53  H   UNL     1      92.651  87.664  71.679  1.00  0.00     0.211 HD
ENDBRANCH   4  52
TORSDOF 16
ENDMDL
MODEL 7
REMARK VINA RESULT:    -6.812      2.849      4.611
REMARK INTER + INTRA:         -13.550
REMARK INTER:                 -12.097
REMARK INTRA:                  -1.453
REMARK UNBOUND:                -2.358
REMARK SMILES C[C@H]1O[C@@H](OC[C@H]2O[C@@H](Oc3c(-c4ccc(O)c(O)c4)oc4cc(O)cc(O)c4c3=O)[C@H](O)[C@H](O)[C@@H]2O)[C@H](O)[C@@H](O)[C@@H]1O
REMARK SMILES IDX 7 1 36 2 34 3 32 4 9 5 8 6 6 7 5 8 4 9 1 10 2 11 42 12 3 13
REMARK SMILES IDX 40 14 38 15 43 16 41 18 39 20 37 22 35 24 10 26 11 27 12 28
REMARK SMILES IDX 30 29 21 30 29 31 31 32 22 33 27 34 23 35 26 36 24 37 13 38
REMARK SMILES IDX 20 39 14 40 18 41 15 42 16 43 19 44 17 46 28 48 25 50 33 52
REMARK H PARENT 43 17 41 19 39 21 37 23 35 25 19 45 17 47 28 49 25 51 33 53
REMARK Flexibility Score: inf
ROOT
ATOM      1  C   UNL     1      91.681  85.088  74.671  1.00  0.00     0.180 C 
ATOM      2  C   UNL     1      93.158  84.749  74.346  1.00  0.00     0.177 C 
ATOM      3  C   UNL     1      93.966  86.020  74.036  1.00  0.00     0.180 C 
ATOM      4  C   UNL     1      93.234  86.907  73.016  1.00  0.00     0.214 C 
ATOM      5  C   UNL     1      91.765  87.132  73.435  1.00  0.00     0.339 C 
ATOM      6  O   UNL     1      91.073  85.915  73.683  1.00  0.00    -0.332 OA
ENDROOT
BRANCH   1   7
ATOM      7  C   UNL     1      91.463  85.623  76.103  1.00  0.00     0.198 C 
BRANCH   7   8
ATOM      8  O   UNL     1      92.555  85.263  76.929  1.00  0.00    -0.347 OA
BRANCH   8   9
ATOM      9  C   UNL     1      92.091  84.627  78.111  1.00  0.00     0.281 C 
ATOM     10  C   UNL     1      95.087  85.427  78.402  1.00  0.00     0.041 C 
ATOM     11  C   UNL     1      94.156  84.630  79.328  1.00  0.00     0.150 C 
ATOM     12  C   UNL     1      94.323  83.094  79.195  1.00  0.00     0.174 C 
ATOM     13  O   UNL     1      92.804  85.070  79.262  1.00  0.00    -0.344 OA
ATOM     14  C   UNL     1      93.543  82.526  77.996  1.00  0.00     0.179 C 
ATOM     15  C   UNL     1      92.116  83.092  77.942  1.00  0.00     0.202 C 
BRANCH  12  16
ATOM     16  O   UNL     1      93.881  82.466  80.373  1.00  0.00    -0.388 OA
ATOM     17  H   UNL     1      94.385  82.872  81.127  1.00  0.00     0.211 HD
ENDBRANCH  12  16
BRANCH  14  18
ATOM     18  O   UNL     1      94.207  82.818  76.793  1.00  0.00    -0.387 OA
ATOM     19  H   UNL     1      93.507  83.023  76.119  1.00  0.00     0.211 HD
ENDBRANCH  14  18
BRANCH  15  20
ATOM     20  O   UNL     1      91.289  82.454  78.890  1.00  0.00    -0.385 OA
ATOM     21  H   UNL     1      90.679  81.838  78.407  1.00  0.00     0.211 HD
ENDBRANCH  15  20
ENDBRANCH   8   9
ENDBRANCH   7   8
ENDBRANCH   1   7
BRANCH   2  22
ATOM     22  O   UNL     1      93.217  83.870  73.252  1.00  0.00    -0.387 OA
ATOM     23  H   UNL     1      93.180  84.426  72.431  1.00  0.00     0.211 HD
ENDBRANCH   2  22
BRANCH   3  24
ATOM     24  O   UNL     1      95.242  85.690  73.548  1.00  0.00    -0.387 OA
ATOM     25  H   UNL     1      95.158  85.608  72.561  1.00  0.00     0.211 HD
ENDBRANCH   3  24
BRANCH   5  26
ATOM     26  O   UNL     1      91.688  87.999  74.569  1.00  0.00    -0.454 OA
BRANCH  26  27
ATOM     27  C   UNL     1      91.790  89.392  74.470  1.00  0.00     0.214 A 
ATOM     28  C   UNL     1      92.112  90.187  75.586  1.00  0.00     0.180 A 
ATOM     29  C   UNL     1      91.574  90.009  73.233  1.00  0.00     0.239 A 
ATOM     30  O   UNL     1      92.147  91.508  75.462  1.00  0.00    -0.452 OA
ATOM     31  C   UNL     1      91.590  91.422  73.137  1.00  0.00     0.111 A 
ATOM     32  O   UNL     1      91.386  89.278  72.227  1.00  0.00    -0.285 OA
ATOM     33  C   UNL     1      91.912  92.142  74.319  1.00  0.00     0.146 A 
ATOM     34  C   UNL     1      91.328  92.158  71.941  1.00  0.00     0.134 A 
ATOM     35  C   UNL     1      92.006  93.535  74.297  1.00  0.00     0.094 A 
ATOM     36  C   UNL     1      91.466  93.552  71.946  1.00  0.00     0.093 A 
ATOM     37  C   UNL     1      91.797  94.240  73.112  1.00  0.00     0.123 A 
BRANCH  28  38
ATOM     38  C   UNL     1      92.441  89.597  76.901  1.00  0.00     0.025 A 
ATOM     39  C   UNL     1      93.749  89.648  77.414  1.00  0.00     0.062 A 
ATOM     40  C   UNL     1      91.427  89.004  77.670  1.00  0.00     0.016 A 
ATOM     41  C   UNL     1      94.051  89.071  78.654  1.00  0.00     0.158 A 
ATOM     42  C   UNL     1      91.726  88.431  78.910  1.00  0.00     0.051 A 
ATOM     43  C   UNL     1      93.038  88.456  79.402  1.00  0.00     0.157 A 
BRANCH  41  44
ATOM     44  O   UNL     1      95.353  89.107  79.151  1.00  0.00    -0.504 OA
ATOM     45  H   UNL     1      95.933  88.277  79.178  1.00  0.00     0.293 HD
ENDBRANCH  41  44
BRANCH  43  46
ATOM     46  O   UNL     1      93.341  87.879  80.634  1.00  0.00    -0.504 OA
ATOM     47  H   UNL     1      94.281  87.573  80.859  1.00  0.00     0.293 HD
ENDBRANCH  43  46
ENDBRANCH  28  38
BRANCH  34  48
ATOM     48  O   UNL     1      90.908  91.579  70.740  1.00  0.00    -0.507 OA
ATOM     49  H   UNL     1      90.964  92.016  69.833  1.00  0.00     0.293 HD
ENDBRANCH  34  48
BRANCH  37  50
ATOM     50  O   UNL     1      91.911  95.628  73.081  1.00  0.00    -0.508 OA
ATOM     51  H   UNL     1      92.593  96.092  72.494  1.00  0.00     0.293 HD
ENDBRANCH  37  50
ENDBRANCH  26  27
ENDBRANCH   5  26
BRANCH   4  52
ATOM     52  O   UNL     1      93.329  86.381  71.711  1.00  0.00    -0.384 OA
ATOM     53  H   UNL     1      93.109  85.414  71.742  1.00  0.00     0.211 HD
ENDBRANCH   4  52
TORSDOF 16
ENDMDL
MODEL 8
REMARK VINA RESULT:    -6.780      2.515      6.073
REMARK INTER + INTRA:         -13.497
REMARK INTER:                 -11.347
REMARK INTRA:                  -2.150
REMARK UNBOUND:                -2.358
REMARK SMILES C[C@H]1O[C@@H](OC[C@H]2O[C@@H](Oc3c(-c4ccc(O)c(O)c4)oc4cc(O)cc(O)c4c3=O)[C@H](O)[C@H](O)[C@@H]2O)[C@H](O)[C@@H](O)[C@@H]1O
REMARK SMILES IDX 7 1 36 2 34 3 32 4 9 5 8 6 6 7 5 8 4 9 1 10 2 11 42 12 3 13
REMARK SMILES IDX 40 14 38 15 43 16 41 18 39 20 37 22 35 24 10 26 11 27 12 28
REMARK SMILES IDX 30 29 21 30 29 31 31 32 22 33 27 34 23 35 26 36 24 37 13 38
REMARK SMILES IDX 20 39 14 40 18 41 15 42 16 43 19 44 17 46 28 48 25 50 33 52
REMARK H PARENT 43 17 41 19 39 21 37 23 35 25 19 45 17 47 28 49 25 51 33 53
REMARK Flexibility Score: inf
ROOT
ATOM      1  C   UNL     1      89.004  82.650  74.984  1.00  0.00     0.180 C 
ATOM      2  C   UNL     1      89.404  81.302  75.637  1.00  0.00     0.177 C 
ATOM      3  C   UNL     1      90.683  81.450  76.480  1.00  0.00     0.180 C 
ATOM      4  C   UNL     1      91.785  82.175  75.692  1.00  0.00     0.214 C 
ATOM      5  C   UNL     1      91.246  83.475  75.059  1.00  0.00     0.339 C 
ATOM      6  O   UNL     1      90.079  83.261  74.275  1.00  0.00    -0.332 OA
ENDROOT
BRANCH   1   7
ATOM      7  C   UNL     1      88.301  83.629  75.949  1.00  0.00     0.198 C 
BRANCH   7   8
ATOM      8  O   UNL     1      86.996  83.917  75.483  1.00  0.00    -0.347 OA
BRANCH   8   9
ATOM      9  C   UNL     1      87.027  85.001  74.566  1.00  0.00     0.281 C 
ATOM     10  C   UNL     1      84.705  85.364  76.610  1.00  0.00     0.041 C 
ATOM     11  C   UNL     1      85.099  86.177  75.368  1.00  0.00     0.150 C 
ATOM     12  C   UNL     1      84.266  85.821  74.110  1.00  0.00     0.174 C 
ATOM     13  O   UNL     1      86.504  86.194  75.142  1.00  0.00    -0.344 OA
ATOM     14  C   UNL     1      84.795  84.563  73.399  1.00  0.00     0.179 C 
ATOM     15  C   UNL     1      86.322  84.611  73.248  1.00  0.00     0.202 C 
BRANCH  12  16
ATOM     16  O   UNL     1      84.281  86.901  73.209  1.00  0.00    -0.388 OA
ATOM     17  H   UNL     1      84.357  86.517  72.296  1.00  0.00     0.211 HD
ENDBRANCH  12  16
BRANCH  14  18
ATOM     18  O   UNL     1      84.433  83.406  74.108  1.00  0.00    -0.387 OA
ATOM     19  H   UNL     1      84.425  82.657  73.456  1.00  0.00     0.211 HD
ENDBRANCH  14  18
BRANCH  15  20
ATOM     20  O   UNL     1      86.694  85.467  72.191  1.00  0.00    -0.385 OA
ATOM     21  H   UNL     1      86.060  85.330  71.440  1.00  0.00     0.211 HD
ENDBRANCH  15  20
ENDBRANCH   8   9
ENDBRANCH   7   8
ENDBRANCH   1   7
BRANCH   2  22
ATOM     22  O   UNL     1      89.600  80.328  74.643  1.00  0.00    -0.387 OA
ATOM     23  H   UNL     1      88.771  79.784  74.603  1.00  0.00     0.211 HD
ENDBRANCH   2  22
BRANCH   3  24
ATOM     24  O   UNL     1      91.148  80.192  76.899  1.00  0.00    -0.387 OA
ATOM     25  H   UNL     1      90.385  79.740  77.347  1.00  0.00     0.211 HD
ENDBRANCH   3  24
BRANCH   5  26
ATOM     26  O   UNL     1      91.009  84.468  76.060  1.00  0.00    -0.454 OA
BRANCH  26  27
ATOM     27  C   UNL     1      91.654  85.710  76.068  1.00  0.00     0.214 A 
ATOM     28  C   UNL     1      92.887  85.896  76.722  1.00  0.00     0.180 A 
ATOM     29  C   UNL     1      91.065  86.792  75.404  1.00  0.00     0.239 A 
ATOM     30  O   UNL     1      93.439  87.102  76.750  1.00  0.00    -0.452 OA
ATOM     31  C   UNL     1      91.664  88.074  75.475  1.00  0.00     0.111 A 
ATOM     32  O   UNL     1      90.017  86.585  74.741  1.00  0.00    -0.285 OA
ATOM     33  C   UNL     1      92.900  88.167  76.168  1.00  0.00     0.146 A 
ATOM     34  C   UNL     1      91.122  89.257  74.886  1.00  0.00     0.134 A 
ATOM     35  C   UNL     1      93.585  89.382  76.237  1.00  0.00     0.094 A 
ATOM     36  C   UNL     1      91.853  90.451  74.942  1.00  0.00     0.093 A 
ATOM     37  C   UNL     1      93.071  90.520  75.614  1.00  0.00     0.123 A 
BRANCH  28  38
ATOM     38  C   UNL     1      93.609  84.778  77.366  1.00  0.00     0.025 A 
ATOM     39  C   UNL     1      94.659  84.115  76.706  1.00  0.00     0.062 A 
ATOM     40  C   UNL     1      93.269  84.389  78.671  1.00  0.00     0.016 A 
ATOM     41  C   UNL     1      95.324  83.046  77.321  1.00  0.00     0.158 A 
ATOM     42  C   UNL     1      93.935  83.326  79.288  1.00  0.00     0.051 A 
ATOM     43  C   UNL     1      94.958  82.647  78.613  1.00  0.00     0.157 A 
BRANCH  41  44
ATOM     44  O   UNL     1      96.351  82.379  76.655  1.00  0.00    -0.504 OA
ATOM     45  H   UNL     1      96.993  81.768  77.147  1.00  0.00     0.293 HD
ENDBRANCH  41  44
BRANCH  43  46
ATOM     46  O   UNL     1      95.619  81.581  79.220  1.00  0.00    -0.504 OA
ATOM     47  H   UNL     1      96.584  81.363  79.004  1.00  0.00     0.293 HD
ENDBRANCH  43  46
ENDBRANCH  28  38
BRANCH  34  48
ATOM     48  O   UNL     1      89.873  89.321  74.261  1.00  0.00    -0.507 OA
ATOM     49  H   UNL     1      89.486  90.140  73.818  1.00  0.00     0.293 HD
ENDBRANCH  34  48
BRANCH  37  50
ATOM     50  O   UNL     1      93.762  91.729  75.661  1.00  0.00    -0.508 OA
ATOM     51  H   UNL     1      93.813  92.343  74.858  1.00  0.00     0.293 HD
ENDBRANCH  37  50
ENDBRANCH  26  27
ENDBRANCH   5  26
BRANCH   4  52
ATOM     52  O   UNL     1      92.372  81.330  74.728  1.00  0.00    -0.384 OA
ATOM     53  H   UNL     1      93.343  81.529  74.681  1.00  0.00     0.211 HD
ENDBRANCH   4  52
TORSDOF 16
ENDMDL
MODEL 9
REMARK VINA RESULT:    -6.731      2.014      8.332
REMARK INTER + INTRA:         -13.417
REMARK INTER:                 -11.514
REMARK INTRA:                  -1.902
REMARK UNBOUND:                -2.358
REMARK SMILES C[C@H]1O[C@@H](OC[C@H]2O[C@@H](Oc3c(-c4ccc(O)c(O)c4)oc4cc(O)cc(O)c4c3=O)[C@H](O)[C@H](O)[C@@H]2O)[C@H](O)[C@@H](O)[C@@H]1O
REMARK SMILES IDX 7 1 36 2 34 3 32 4 9 5 8 6 6 7 5 8 4 9 1 10 2 11 42 12 3 13
REMARK SMILES IDX 40 14 38 15 43 16 41 18 39 20 37 22 35 24 10 26 11 27 12 28
REMARK SMILES IDX 30 29 21 30 29 31 31 32 22 33 27 34 23 35 26 36 24 37 13 38
REMARK SMILES IDX 20 39 14 40 18 41 15 42 16 43 19 44 17 46 28 48 25 50 33 52
REMARK H PARENT 43 17 41 19 39 21 37 23 35 25 19 45 17 47 28 49 25 51 33 53
REMARK Flexibility Score: inf
ROOT
ATOM      1  C   UNL     1      90.667  89.833  75.162  1.00  0.00     0.180 C 
ATOM      2  C   UNL     1      92.159  90.229  75.031  1.00  0.00     0.177 C 
ATOM      3  C   UNL     1      93.033  89.005  74.706  1.00  0.00     0.180 C 
ATOM      4  C   UNL     1      92.723  87.836  75.654  1.00  0.00     0.214 C 
ATOM      5  C   UNL     1      91.203  87.574  75.727  1.00  0.00     0.339 C 
ATOM      6  O   UNL     1      90.460  88.742  76.055  1.00  0.00    -0.332 OA
ENDROOT
BRANCH   1   7
ATOM      7  C   UNL     1      89.951  89.633  73.809  1.00  0.00     0.198 C 
BRANCH   7   8
ATOM      8  O   UNL     1      89.428  90.865  73.348  1.00  0.00    -0.347 OA
BRANCH   8   9
ATOM      9  C   UNL     1      90.015  91.215  72.103  1.00  0.00     0.281 C 
ATOM     10  C   UNL     1      90.496  93.460  74.209  1.00  0.00     0.041 C 
ATOM     11  C   UNL     1      90.819  93.390  72.709  1.00  0.00     0.150 C 
ATOM     12  C   UNL     1      89.770  94.108  71.820  1.00  0.00     0.174 C 
ATOM     13  O   UNL     1      91.139  92.074  72.273  1.00  0.00    -0.344 OA
ATOM     14  C   UNL     1      88.538  93.227  71.550  1.00  0.00     0.179 C 
ATOM     15  C   UNL     1      88.949  91.802  71.151  1.00  0.00     0.202 C 
BRANCH  12  16
ATOM     16  O   UNL     1      90.356  94.471  70.595  1.00  0.00    -0.388 OA
ATOM     17  H   UNL     1      90.052  95.395  70.389  1.00  0.00     0.211 HD
ENDBRANCH  12  16
BRANCH  14  18
ATOM     18  O   UNL     1      87.710  93.174  72.684  1.00  0.00    -0.387 OA
ATOM     19  H   UNL     1      86.801  92.931  72.367  1.00  0.00     0.211 HD
ENDBRANCH  14  18
BRANCH  15  20
ATOM     20  O   UNL     1      89.377  91.762  69.809  1.00  0.00    -0.385 OA
ATOM     21  H   UNL     1      88.580  91.844  69.224  1.00  0.00     0.211 HD
ENDBRANCH  15  20
ENDBRANCH   8   9
ENDBRANCH   7   8
ENDBRANCH   1   7
BRANCH   2  22
ATOM     22  O   UNL     1      92.603  90.827  76.222  1.00  0.00    -0.387 OA
ATOM     23  H   UNL     1      92.072  91.656  76.346  1.00  0.00     0.211 HD
ENDBRANCH   2  22
BRANCH   3  24
ATOM     24  O   UNL     1      94.397  89.334  74.789  1.00  0.00    -0.387 OA
ATOM     25  H   UNL     1      94.775  89.214  73.878  1.00  0.00     0.211 HD
ENDBRANCH   3  24
BRANCH   5  26
ATOM     26  O   UNL     1      90.728  86.995  74.509  1.00  0.00    -0.454 OA
BRANCH  26  27
ATOM     27  C   UNL     1      89.893  85.873  74.475  1.00  0.00     0.214 A 
ATOM     28  C   UNL     1      90.401  84.572  74.651  1.00  0.00     0.180 A 
ATOM     29  C   UNL     1      88.520  86.046  74.269  1.00  0.00     0.239 A 
ATOM     30  O   UNL     1      89.584  83.530  74.559  1.00  0.00    -0.452 OA
ATOM     31  C   UNL     1      87.676  84.914  74.149  1.00  0.00     0.111 A 
ATOM     32  O   UNL     1      88.069  87.218  74.215  1.00  0.00    -0.285 OA
ATOM     33  C   UNL     1      88.281  83.641  74.327  1.00  0.00     0.146 A 
ATOM     34  C   UNL     1      86.274  84.972  73.882  1.00  0.00     0.134 A 
ATOM     35  C   UNL     1      87.510  82.477  74.280  1.00  0.00     0.094 A 
ATOM     36  C   UNL     1      85.525  83.788  73.878  1.00  0.00     0.093 A 
ATOM     37  C   UNL     1      86.133  82.549  74.070  1.00  0.00     0.123 A 
BRANCH  28  38
ATOM     38  C   UNL     1      91.825  84.320  74.961  1.00  0.00     0.025 A 
ATOM     39  C   UNL     1      92.816  84.443  73.970  1.00  0.00     0.062 A 
ATOM     40  C   UNL     1      92.204  83.986  76.270  1.00  0.00     0.016 A 
ATOM     41  C   UNL     1      94.160  84.186  74.273  1.00  0.00     0.158 A 
ATOM     42  C   UNL     1      93.545  83.733  76.574  1.00  0.00     0.051 A 
ATOM     43  C   UNL     1      94.525  83.826  75.576  1.00  0.00     0.157 A 
BRANCH  41  44
ATOM     44  O   UNL     1      95.137  84.290  73.284  1.00  0.00    -0.504 OA
ATOM     45  H   UNL     1      95.565  85.179  73.054  1.00  0.00     0.293 HD
ENDBRANCH  41  44
BRANCH  43  46
ATOM     46  O   UNL     1      95.861  83.566  75.874  1.00  0.00    -0.504 OA
ATOM     47  H   UNL     1      96.156  83.302  76.807  1.00  0.00     0.293 HD
ENDBRANCH  43  46
ENDBRANCH  28  38
BRANCH  34  48
ATOM     48  O   UNL     1      85.578  86.149  73.594  1.00  0.00    -0.507 OA
ATOM     49  H   UNL     1      85.018  86.306  72.770  1.00  0.00     0.293 HD
ENDBRANCH  34  48
BRANCH  37  50
ATOM     50  O   UNL     1      85.357  81.392  74.044  1.00  0.00    -0.508 OA
ATOM     51  H   UNL     1      84.405  81.399  73.700  1.00  0.00     0.293 HD
ENDBRANCH  37  50
ENDBRANCH  26  27
ENDBRANCH   5  26
BRANCH   4  52
ATOM     52  O   UNL     1      93.278  88.046  76.933  1.00  0.00    -0.384 OA
ATOM     53  H   UNL     1      93.497  89.009  77.029  1.00  0.00     0.211 HD
ENDBRANCH   4  52
TORSDOF 16
ENDMDL
