MODEL 1
REMARK VINA RESULT:    -8.357      0.000      0.000
REMARK INTER + INTRA:         -10.411
REMARK INTER:                 -10.067
REMARK INTRA:                  -0.344
REMARK UNBOUND:                -0.344
REMARK SMILES Oc1cc(O)c2cc(O)c(-c3ccc(O)c(O)c3)[o+]c2c1
REMARK SMILES IDX 10 1 19 2 20 3 21 4 2 5 3 6 4 7 6 8 7 9 8 10 11 11 12 12
REMARK SMILES IDX 13 13 14 14 18 15 16 16 15 17 17 19 9 21 1 23 5 25
REMARK H PARENT 15 18 17 20 9 22 1 24 5 26
REMARK Flexibility Score: inf
ROOT
ATOM      1  C   UNL     1     -30.879  16.797  57.340  1.00  0.00     0.402 A 
ATOM      2  O   UNL     1     -31.487  15.974  58.191  1.00  0.00    -0.202 OA
ATOM      3  C   UNL     1     -32.667  15.412  57.946  1.00  0.00     0.368 A 
ATOM      4  C   UNL     1     -33.226  14.563  58.904  1.00  0.00     0.162 A 
ATOM      5  C   UNL     1     -34.464  13.962  58.676  1.00  0.00     0.128 A 
ATOM      6  C   UNL     1     -35.151  14.211  57.482  1.00  0.00     0.093 A 
ATOM      7  C   UNL     1     -34.611  15.058  56.507  1.00  0.00     0.136 A 
ATOM      8  C   UNL     1     -33.351  15.669  56.734  1.00  0.00     0.125 A 
ATOM      9  C   UNL     1     -32.728  16.522  55.809  1.00  0.00     0.078 A 
ATOM     10  C   UNL     1     -31.481  17.084  56.101  1.00  0.00     0.223 A 
ENDROOT
BRANCH   1  11
ATOM     11  C   UNL     1     -29.571  17.368  57.732  1.00  0.00     0.087 A 
ATOM     12  C   UNL     1     -28.389  16.702  57.367  1.00  0.00     0.022 A 
ATOM     13  C   UNL     1     -27.145  17.212  57.743  1.00  0.00     0.051 A 
ATOM     14  C   UNL     1     -27.062  18.386  58.502  1.00  0.00     0.157 A 
ATOM     15  C   UNL     1     -29.484  18.535  58.512  1.00  0.00     0.068 A 
ATOM     16  C   UNL     1     -28.234  19.047  58.892  1.00  0.00     0.158 A 
BRANCH  14  17
ATOM     17  O   UNL     1     -25.822  18.899  58.878  1.00  0.00    -0.504 OA
ATOM     18  H   UNL     1     -25.716  19.476  59.703  1.00  0.00     0.293 HD
ENDBRANCH  14  17
BRANCH  16  19
ATOM     19  O   UNL     1     -28.150  20.207  59.659  1.00  0.00    -0.504 OA
ATOM     20  H   UNL     1     -27.836  20.184  60.623  1.00  0.00     0.293 HD
ENDBRANCH  16  19
ENDBRANCH   1  11
BRANCH  10  21
ATOM     21  O   UNL     1     -30.840  17.891  55.162  1.00  0.00    -0.500 OA
ATOM     22  H   UNL     1     -30.897  18.902  55.199  1.00  0.00     0.294 HD
ENDBRANCH  10  21
BRANCH   5  23
ATOM     23  O   UNL     1     -35.006  13.118  59.644  1.00  0.00    -0.507 OA
ATOM     24  H   UNL     1     -35.990  12.873  59.643  1.00  0.00     0.293 HD
ENDBRANCH   5  23
BRANCH   7  25
ATOM     25  O   UNL     1     -35.360  15.259  55.343  1.00  0.00    -0.507 OA
ATOM     26  H   UNL     1     -35.776  16.139  55.078  1.00  0.00     0.293 HD
ENDBRANCH   7  25
TORSDOF 6
ENDMDL
MODEL 2
REMARK VINA RESULT:    -8.241      2.509      3.288
REMARK INTER + INTRA:         -10.270
REMARK INTER:                  -9.973
REMARK INTRA:                  -0.298
REMARK UNBOUND:                -0.344
REMARK SMILES Oc1cc(O)c2cc(O)c(-c3ccc(O)c(O)c3)[o+]c2c1
REMARK SMILES IDX 10 1 19 2 20 3 21 4 2 5 3 6 4 7 6 8 7 9 8 10 11 11 12 12
REMARK SMILES IDX 13 13 14 14 18 15 16 16 15 17 17 19 9 21 1 23 5 25
REMARK H PARENT 15 18 17 20 9 22 1 24 5 26
REMARK Flexibility Score: inf
ROOT
ATOM      1  C   UNL     1     -31.336  17.208  56.931  1.00  0.00     0.402 A 
ATOM      2  O   UNL     1     -32.620  17.028  56.634  1.00  0.00    -0.202 OA
ATOM      3  C   UNL     1     -33.138  15.843  56.324  1.00  0.00     0.368 A 
ATOM      4  C   UNL     1     -34.499  15.755  56.023  1.00  0.00     0.162 A 
ATOM      5  C   UNL     1     -35.069  14.526  55.691  1.00  0.00     0.128 A 
ATOM      6  C   UNL     1     -34.274  13.375  55.657  1.00  0.00     0.093 A 
ATOM      7  C   UNL     1     -32.907  13.438  55.954  1.00  0.00     0.136 A 
ATOM      8  C   UNL     1     -32.324  14.686  56.295  1.00  0.00     0.125 A 
ATOM      9  C   UNL     1     -30.967  14.841  56.619  1.00  0.00     0.078 A 
ATOM     10  C   UNL     1     -30.465  16.104  56.951  1.00  0.00     0.223 A 
ENDROOT
BRANCH   1  11
ATOM     11  C   UNL     1     -30.878  18.580  57.251  1.00  0.00     0.087 A 
ATOM     12  C   UNL     1     -30.672  18.945  58.591  1.00  0.00     0.022 A 
ATOM     13  C   UNL     1     -30.259  20.238  58.916  1.00  0.00     0.051 A 
ATOM     14  C   UNL     1     -30.059  21.191  57.909  1.00  0.00     0.157 A 
ATOM     15  C   UNL     1     -30.696  19.545  56.244  1.00  0.00     0.068 A 
ATOM     16  C   UNL     1     -30.283  20.846  56.570  1.00  0.00     0.158 A 
BRANCH  14  17
ATOM     17  O   UNL     1     -29.645  22.482  58.230  1.00  0.00    -0.504 OA
ATOM     18  H   UNL     1     -28.669  22.701  58.390  1.00  0.00     0.293 HD
ENDBRANCH  14  17
BRANCH  16  19
ATOM     19  O   UNL     1     -30.097  21.799  55.571  1.00  0.00    -0.504 OA
ATOM     20  H   UNL     1     -29.578  21.588  54.727  1.00  0.00     0.293 HD
ENDBRANCH  16  19
ENDBRANCH   1  11
BRANCH  10  21
ATOM     21  O   UNL     1     -29.128  16.250  57.321  1.00  0.00    -0.500 OA
ATOM     22  H   UNL     1     -28.515  15.451  57.429  1.00  0.00     0.294 HD
ENDBRANCH  10  21
BRANCH   5  23
ATOM     23  O   UNL     1     -36.429  14.458  55.394  1.00  0.00    -0.507 OA
ATOM     24  H   UNL     1     -36.765  14.016  54.546  1.00  0.00     0.293 HD
ENDBRANCH   5  23
BRANCH   7  25
ATOM     25  O   UNL     1     -32.181  12.245  55.895  1.00  0.00    -0.507 OA
ATOM     26  H   UNL     1     -31.515  11.947  56.594  1.00  0.00     0.293 HD
ENDBRANCH   7  25
TORSDOF 6
ENDMDL
MODEL 3
REMARK VINA RESULT:    -8.197      2.516      3.410
REMARK INTER + INTRA:         -10.218
REMARK INTER:                  -9.908
REMARK INTRA:                  -0.310
REMARK UNBOUND:                -0.344
REMARK SMILES Oc1cc(O)c2cc(O)c(-c3ccc(O)c(O)c3)[o+]c2c1
REMARK SMILES IDX 10 1 19 2 20 3 21 4 2 5 3 6 4 7 6 8 7 9 8 10 11 11 12 12
REMARK SMILES IDX 13 13 14 14 18 15 16 16 15 17 17 19 9 21 1 23 5 25
REMARK H PARENT 15 18 17 20 9 22 1 24 5 26
REMARK Flexibility Score: inf
ROOT
ATOM      1  C   UNL     1     -30.968  16.821  56.474  1.00  0.00     0.402 A 
ATOM      2  O   UNL     1     -31.356  15.710  55.854  1.00  0.00    -0.202 OA
ATOM      3  C   UNL     1     -32.216  14.843  56.380  1.00  0.00     0.368 A 
ATOM      4  C   UNL     1     -32.561  13.701  55.652  1.00  0.00     0.162 A 
ATOM      5  C   UNL     1     -33.457  12.773  56.181  1.00  0.00     0.128 A 
ATOM      6  C   UNL     1     -34.013  12.984  57.448  1.00  0.00     0.093 A 
ATOM      7  C   UNL     1     -33.683  14.120  58.197  1.00  0.00     0.136 A 
ATOM      8  C   UNL     1     -32.774  15.068  57.661  1.00  0.00     0.125 A 
ATOM      9  C   UNL     1     -32.395  16.240  58.335  1.00  0.00     0.078 A 
ATOM     10  C   UNL     1     -31.496  17.132  57.741  1.00  0.00     0.223 A 
ENDROOT
BRANCH   1  11
ATOM     11  C   UNL     1     -29.997  17.703  55.787  1.00  0.00     0.087 A 
ATOM     12  C   UNL     1     -30.457  18.849  55.119  1.00  0.00     0.022 A 
ATOM     13  C   UNL     1     -29.562  19.685  54.447  1.00  0.00     0.051 A 
ATOM     14  C   UNL     1     -28.196  19.380  54.421  1.00  0.00     0.157 A 
ATOM     15  C   UNL     1     -28.626  17.389  55.740  1.00  0.00     0.068 A 
ATOM     16  C   UNL     1     -27.727  18.227  55.064  1.00  0.00     0.158 A 
BRANCH  14  17
ATOM     17  O   UNL     1     -27.299  20.212  53.754  1.00  0.00    -0.504 OA
ATOM     18  H   UNL     1     -27.239  21.201  53.962  1.00  0.00     0.293 HD
ENDBRANCH  14  17
BRANCH  16  19
ATOM     19  O   UNL     1     -26.369  17.919  55.024  1.00  0.00    -0.504 OA
ATOM     20  H   UNL     1     -26.044  16.977  54.838  1.00  0.00     0.293 HD
ENDBRANCH  16  19
ENDBRANCH   1  11
BRANCH  10  21
ATOM     21  O   UNL     1     -31.158  18.320  58.387  1.00  0.00    -0.500 OA
ATOM     22  H   UNL     1     -30.201  18.535  58.642  1.00  0.00     0.294 HD
ENDBRANCH  10  21
BRANCH   5  23
ATOM     23  O   UNL     1     -33.789  11.640  55.440  1.00  0.00    -0.507 OA
ATOM     24  H   UNL     1     -34.543  11.024  55.721  1.00  0.00     0.293 HD
ENDBRANCH   5  23
BRANCH   7  25
ATOM     25  O   UNL     1     -34.279  14.256  59.454  1.00  0.00    -0.507 OA
ATOM     26  H   UNL     1     -34.836  15.049  59.739  1.00  0.00     0.293 HD
ENDBRANCH   7  25
TORSDOF 6
ENDMDL
MODEL 4
REMARK VINA RESULT:    -8.179      1.722      1.817
REMARK INTER + INTRA:         -10.196
REMARK INTER:                 -10.224
REMARK INTRA:                   0.028
REMARK UNBOUND:                -0.344
REMARK SMILES Oc1cc(O)c2cc(O)c(-c3ccc(O)c(O)c3)[o+]c2c1
REMARK SMILES IDX 10 1 19 2 20 3 21 4 2 5 3 6 4 7 6 8 7 9 8 10 11 11 12 12
REMARK SMILES IDX 13 13 14 14 18 15 16 16 15 17 17 19 9 21 1 23 5 25
REMARK H PARENT 15 18 17 20 9 22 1 24 5 26
REMARK Flexibility Score: inf
ROOT
ATOM      1  C   UNL     1     -30.567  16.541  57.175  1.00  0.00     0.402 A 
ATOM      2  O   UNL     1     -30.630  15.233  56.943  1.00  0.00    -0.202 OA
ATOM      3  C   UNL     1     -31.735  14.616  56.538  1.00  0.00     0.368 A 
ATOM      4  C   UNL     1     -31.703  13.236  56.324  1.00  0.00     0.162 A 
ATOM      5  C   UNL     1     -32.849  12.561  55.902  1.00  0.00     0.128 A 
ATOM      6  C   UNL     1     -34.038  13.270  55.693  1.00  0.00     0.093 A 
ATOM      7  C   UNL     1     -34.095  14.653  55.901  1.00  0.00     0.136 A 
ATOM      8  C   UNL     1     -32.931  15.343  56.327  1.00  0.00     0.125 A 
ATOM      9  C   UNL     1     -32.893  16.729  56.549  1.00  0.00     0.078 A 
ATOM     10  C   UNL     1     -31.706  17.341  56.965  1.00  0.00     0.223 A 
ENDROOT
BRANCH   1  11
ATOM     11  C   UNL     1     -29.278  17.110  57.633  1.00  0.00     0.087 A 
ATOM     12  C   UNL     1     -28.079  16.650  57.065  1.00  0.00     0.022 A 
ATOM     13  C   UNL     1     -26.852  17.158  57.496  1.00  0.00     0.051 A 
ATOM     14  C   UNL     1     -26.803  18.121  58.511  1.00  0.00     0.157 A 
ATOM     15  C   UNL     1     -29.224  18.063  58.666  1.00  0.00     0.068 A 
ATOM     16  C   UNL     1     -27.991  18.572  59.101  1.00  0.00     0.158 A 
BRANCH  14  17
ATOM     17  O   UNL     1     -25.581  18.632  58.942  1.00  0.00    -0.504 OA
ATOM     18  H   UNL     1     -24.739  18.068  58.938  1.00  0.00     0.293 HD
ENDBRANCH  14  17
BRANCH  16  19
ATOM     19  O   UNL     1     -27.939  19.521  60.120  1.00  0.00    -0.504 OA
ATOM     20  H   UNL     1     -27.106  20.073  60.288  1.00  0.00     0.293 HD
ENDBRANCH  16  19
ENDBRANCH   1  11
BRANCH  10  21
ATOM     21  O   UNL     1     -31.654  18.724  57.137  1.00  0.00    -0.500 OA
ATOM     22  H   UNL     1     -31.988  19.168  57.984  1.00  0.00     0.294 HD
ENDBRANCH  10  21
BRANCH   5  23
ATOM     23  O   UNL     1     -32.797  11.184  55.693  1.00  0.00    -0.507 OA
ATOM     24  H   UNL     1     -33.234  10.534  56.336  1.00  0.00     0.293 HD
ENDBRANCH   5  23
BRANCH   7  25
ATOM     25  O   UNL     1     -35.320  15.287  55.673  1.00  0.00    -0.507 OA
ATOM     26  H   UNL     1     -36.221  14.843  55.782  1.00  0.00     0.293 HD
ENDBRANCH   7  25
TORSDOF 6
ENDMDL
MODEL 5
REMARK VINA RESULT:    -8.170      2.555      7.205
REMARK INTER + INTRA:         -10.185
REMARK INTER:                  -9.864
REMARK INTRA:                  -0.320
REMARK UNBOUND:                -0.344
REMARK SMILES Oc1cc(O)c2cc(O)c(-c3ccc(O)c(O)c3)[o+]c2c1
REMARK SMILES IDX 10 1 19 2 20 3 21 4 2 5 3 6 4 7 6 8 7 9 8 10 11 11 12 12
REMARK SMILES IDX 13 13 14 14 18 15 16 16 15 17 17 19 9 21 1 23 5 25
REMARK H PARENT 15 18 17 20 9 22 1 24 5 26
REMARK Flexibility Score: inf
ROOT
ATOM      1  C   UNL     1     -31.371  16.438  56.555  1.00  0.00     0.402 A 
ATOM      2  O   UNL     1     -30.567  16.998  55.655  1.00  0.00    -0.202 OA
ATOM      3  C   UNL     1     -29.883  18.115  55.883  1.00  0.00     0.368 A 
ATOM      4  C   UNL     1     -29.065  18.629  54.874  1.00  0.00     0.162 A 
ATOM      5  C   UNL     1     -28.338  19.801  55.083  1.00  0.00     0.128 A 
ATOM      6  C   UNL     1     -28.429  20.467  56.311  1.00  0.00     0.093 A 
ATOM      7  C   UNL     1     -29.241  19.972  57.338  1.00  0.00     0.136 A 
ATOM      8  C   UNL     1     -29.980  18.778  57.129  1.00  0.00     0.125 A 
ATOM      9  C   UNL     1     -30.810  18.203  58.105  1.00  0.00     0.078 A 
ATOM     10  C   UNL     1     -31.504  17.021  57.829  1.00  0.00     0.223 A 
ENDROOT
BRANCH   1  11
ATOM     11  C   UNL     1     -32.088  15.198  56.177  1.00  0.00     0.087 A 
ATOM     12  C   UNL     1     -33.444  15.265  55.821  1.00  0.00     0.022 A 
ATOM     13  C   UNL     1     -34.145  14.106  55.480  1.00  0.00     0.051 A 
ATOM     14  C   UNL     1     -33.505  12.861  55.506  1.00  0.00     0.157 A 
ATOM     15  C   UNL     1     -31.454  13.942  56.221  1.00  0.00     0.068 A 
ATOM     16  C   UNL     1     -32.158  12.778  55.882  1.00  0.00     0.158 A 
BRANCH  14  17
ATOM     17  O   UNL     1     -34.200  11.702  55.165  1.00  0.00    -0.504 OA
ATOM     18  H   UNL     1     -34.347  11.438  54.198  1.00  0.00     0.293 HD
ENDBRANCH  14  17
BRANCH  16  19
ATOM     19  O   UNL     1     -31.528  11.535  55.920  1.00  0.00    -0.504 OA
ATOM     20  H   UNL     1     -32.058  10.674  55.982  1.00  0.00     0.293 HD
ENDBRANCH  16  19
ENDBRANCH   1  11
BRANCH  10  21
ATOM     21  O   UNL     1     -32.288  16.423  58.814  1.00  0.00    -0.500 OA
ATOM     22  H   UNL     1     -32.214  15.435  59.027  1.00  0.00     0.294 HD
ENDBRANCH  10  21
BRANCH   5  23
ATOM     23  O   UNL     1     -27.528  20.297  54.064  1.00  0.00    -0.507 OA
ATOM     24  H   UNL     1     -27.633  19.987  53.105  1.00  0.00     0.293 HD
ENDBRANCH   5  23
BRANCH   7  25
ATOM     25  O   UNL     1     -29.280  20.697  58.533  1.00  0.00    -0.507 OA
ATOM     26  H   UNL     1     -29.524  21.674  58.599  1.00  0.00     0.293 HD
ENDBRANCH   7  25
TORSDOF 6
ENDMDL
MODEL 6
REMARK VINA RESULT:    -8.023      1.618      7.138
REMARK INTER + INTRA:         -10.008
REMARK INTER:                  -9.680
REMARK INTRA:                  -0.328
REMARK UNBOUND:                -0.344
REMARK SMILES Oc1cc(O)c2cc(O)c(-c3ccc(O)c(O)c3)[o+]c2c1
REMARK SMILES IDX 10 1 19 2 20 3 21 4 2 5 3 6 4 7 6 8 7 9 8 10 11 11 12 12
REMARK SMILES IDX 13 13 14 14 18 15 16 16 15 17 17 19 9 21 1 23 5 25
REMARK H PARENT 15 18 17 20 9 22 1 24 5 26
REMARK Flexibility Score: inf
ROOT
ATOM      1  C   UNL     1     -31.573  16.798  57.198  1.00  0.00     0.402 A 
ATOM      2  O   UNL     1     -31.618  18.106  57.435  1.00  0.00    -0.202 OA
ATOM      3  C   UNL     1     -30.532  18.868  57.531  1.00  0.00     0.368 A 
ATOM      4  C   UNL     1     -30.682  20.234  57.784  1.00  0.00     0.162 A 
ATOM      5  C   UNL     1     -29.561  21.057  57.893  1.00  0.00     0.128 A 
ATOM      6  C   UNL     1     -28.280  20.513  57.750  1.00  0.00     0.093 A 
ATOM      7  C   UNL     1     -28.104  19.147  57.497  1.00  0.00     0.136 A 
ATOM      8  C   UNL     1     -29.242  18.307  57.382  1.00  0.00     0.125 A 
ATOM      9  C   UNL     1     -29.162  16.930  57.117  1.00  0.00     0.078 A 
ATOM     10  C   UNL     1     -30.328  16.167  57.012  1.00  0.00     0.223 A 
ENDROOT
BRANCH   1  11
ATOM     11  C   UNL     1     -32.852  16.056  57.123  1.00  0.00     0.087 A 
ATOM     12  C   UNL     1     -33.285  15.311  58.232  1.00  0.00     0.022 A 
ATOM     13  C   UNL     1     -34.478  14.588  58.177  1.00  0.00     0.051 A 
ATOM     14  C   UNL     1     -35.249  14.585  57.008  1.00  0.00     0.157 A 
ATOM     15  C   UNL     1     -33.619  16.033  55.944  1.00  0.00     0.068 A 
ATOM     16  C   UNL     1     -34.816  15.305  55.887  1.00  0.00     0.158 A 
BRANCH  14  17
ATOM     17  O   UNL     1     -36.441  13.866  56.949  1.00  0.00    -0.504 OA
ATOM     18  H   UNL     1     -37.133  13.926  57.686  1.00  0.00     0.293 HD
ENDBRANCH  14  17
BRANCH  16  19
ATOM     19  O   UNL     1     -35.578  15.289  54.720  1.00  0.00    -0.504 OA
ATOM     20  H   UNL     1     -35.676  16.114  54.140  1.00  0.00     0.293 HD
ENDBRANCH  16  19
ENDBRANCH   1  11
BRANCH  10  21
ATOM     21  O   UNL     1     -30.251  14.810  56.700  1.00  0.00    -0.500 OA
ATOM     22  H   UNL     1     -30.962  14.153  57.000  1.00  0.00     0.294 HD
ENDBRANCH  10  21
BRANCH   5  23
ATOM     23  O   UNL     1     -29.730  22.417  58.146  1.00  0.00    -0.507 OA
ATOM     24  H   UNL     1     -29.262  23.122  57.588  1.00  0.00     0.293 HD
ENDBRANCH   5  23
BRANCH   7  25
ATOM     25  O   UNL     1     -26.792  18.680  57.370  1.00  0.00    -0.507 OA
ATOM     26  H   UNL     1     -26.112  18.679  58.117  1.00  0.00     0.293 HD
ENDBRANCH   7  25
TORSDOF 6
ENDMDL
MODEL 7
REMARK VINA RESULT:    -7.880      1.668      6.681
REMARK INTER + INTRA:          -9.835
REMARK INTER:                  -9.493
REMARK INTRA:                  -0.342
REMARK UNBOUND:                -0.344
REMARK SMILES Oc1cc(O)c2cc(O)c(-c3ccc(O)c(O)c3)[o+]c2c1
REMARK SMILES IDX 10 1 19 2 20 3 21 4 2 5 3 6 4 7 6 8 7 9 8 10 11 11 12 12
REMARK SMILES IDX 13 13 14 14 18 15 16 16 15 17 17 19 9 21 1 23 5 25
REMARK H PARENT 15 18 17 20 9 22 1 24 5 26
REMARK Flexibility Score: inf
ROOT
ATOM      1  C   UNL     1     -31.054  16.273  57.071  1.00  0.00     0.402 A 
ATOM      2  O   UNL     1     -29.938  16.457  57.771  1.00  0.00    -0.202 OA
ATOM      3  C   UNL     1     -29.116  17.483  57.577  1.00  0.00     0.368 A 
ATOM      4  C   UNL     1     -27.965  17.589  58.362  1.00  0.00     0.162 A 
ATOM      5  C   UNL     1     -27.083  18.654  58.179  1.00  0.00     0.128 A 
ATOM      6  C   UNL     1     -27.350  19.620  57.203  1.00  0.00     0.093 A 
ATOM      7  C   UNL     1     -28.496  19.536  56.403  1.00  0.00     0.136 A 
ATOM      8  C   UNL     1     -29.398  18.456  56.589  1.00  0.00     0.125 A 
ATOM      9  C   UNL     1     -30.577  18.298  55.843  1.00  0.00     0.078 A 
ATOM     10  C   UNL     1     -31.420  17.209  56.086  1.00  0.00     0.223 A 
ENDROOT
BRANCH   1  11
ATOM     11  C   UNL     1     -31.883  15.084  57.374  1.00  0.00     0.087 A 
ATOM     12  C   UNL     1     -31.741  13.925  56.594  1.00  0.00     0.022 A 
ATOM     13  C   UNL     1     -32.526  12.799  56.849  1.00  0.00     0.051 A 
ATOM     14  C   UNL     1     -33.475  12.818  57.878  1.00  0.00     0.157 A 
ATOM     15  C   UNL     1     -32.852  15.106  58.394  1.00  0.00     0.068 A 
ATOM     16  C   UNL     1     -33.642  13.975  58.650  1.00  0.00     0.158 A 
BRANCH  14  17
ATOM     17  O   UNL     1     -34.259  11.696  58.138  1.00  0.00    -0.504 OA
ATOM     18  H   UNL     1     -35.094  11.753  58.708  1.00  0.00     0.293 HD
ENDBRANCH  14  17
BRANCH  16  19
ATOM     19  O   UNL     1     -34.597  13.996  59.665  1.00  0.00    -0.504 OA
ATOM     20  H   UNL     1     -35.512  13.581  59.540  1.00  0.00     0.293 HD
ENDBRANCH  16  19
ENDBRANCH   1  11
BRANCH  10  21
ATOM     21  O   UNL     1     -32.616  17.079  55.380  1.00  0.00    -0.500 OA
ATOM     22  H   UNL     1     -32.635  16.749  54.422  1.00  0.00     0.294 HD
ENDBRANCH  10  21
BRANCH   5  23
ATOM     23  O   UNL     1     -25.940  18.743  58.972  1.00  0.00    -0.507 OA
ATOM     24  H   UNL     1     -25.617  17.958  59.526  1.00  0.00     0.293 HD
ENDBRANCH   5  23
BRANCH   7  25
ATOM     25  O   UNL     1     -28.690  20.539  55.449  1.00  0.00    -0.507 OA
ATOM     26  H   UNL     1     -29.549  20.682  54.938  1.00  0.00     0.293 HD
ENDBRANCH   7  25
TORSDOF 6
ENDMDL
MODEL 8
REMARK VINA RESULT:    -7.680      1.588      2.453
REMARK INTER + INTRA:          -9.595
REMARK INTER:                  -9.283
REMARK INTRA:                  -0.312
REMARK UNBOUND:                -0.344
REMARK SMILES Oc1cc(O)c2cc(O)c(-c3ccc(O)c(O)c3)[o+]c2c1
REMARK SMILES IDX 10 1 19 2 20 3 21 4 2 5 3 6 4 7 6 8 7 9 8 10 11 11 12 12
REMARK SMILES IDX 13 13 14 14 18 15 16 16 15 17 17 19 9 21 1 23 5 25
REMARK H PARENT 15 18 17 20 9 22 1 24 5 26
REMARK Flexibility Score: inf
ROOT
ATOM      1  C   UNL     1     -32.703  16.079  57.156  1.00  0.00     0.402 A 
ATOM      2  O   UNL     1     -33.135  15.331  58.167  1.00  0.00    -0.202 OA
ATOM      3  C   UNL     1     -34.256  14.618  58.120  1.00  0.00     0.368 A 
ATOM      4  C   UNL     1     -34.629  13.864  59.236  1.00  0.00     0.162 A 
ATOM      5  C   UNL     1     -35.802  13.110  59.216  1.00  0.00     0.128 A 
ATOM      6  C   UNL     1     -36.611  13.108  58.075  1.00  0.00     0.093 A 
ATOM      7  C   UNL     1     -36.260  13.856  56.944  1.00  0.00     0.136 A 
ATOM      8  C   UNL     1     -35.066  14.622  56.959  1.00  0.00     0.125 A 
ATOM      9  C   UNL     1     -34.628  15.391  55.869  1.00  0.00     0.078 A 
ATOM     10  C   UNL     1     -33.436  16.118  55.955  1.00  0.00     0.223 A 
ENDROOT
BRANCH   1  11
ATOM     11  C   UNL     1     -31.442  16.835  57.333  1.00  0.00     0.087 A 
ATOM     12  C   UNL     1     -31.494  18.217  57.575  1.00  0.00     0.022 A 
ATOM     13  C   UNL     1     -30.317  18.954  57.726  1.00  0.00     0.051 A 
ATOM     14  C   UNL     1     -29.071  18.324  57.623  1.00  0.00     0.157 A 
ATOM     15  C   UNL     1     -30.188  16.210  57.210  1.00  0.00     0.068 A 
ATOM     16  C   UNL     1     -29.005  16.949  57.360  1.00  0.00     0.158 A 
BRANCH  14  17
ATOM     17  O   UNL     1     -27.894  19.055  57.775  1.00  0.00    -0.504 OA
ATOM     18  H   UNL     1     -27.903  20.066  57.836  1.00  0.00     0.293 HD
ENDBRANCH  14  17
BRANCH  16  19
ATOM     19  O   UNL     1     -27.764  16.327  57.244  1.00  0.00    -0.504 OA
ATOM     20  H   UNL     1     -27.022  16.497  57.913  1.00  0.00     0.293 HD
ENDBRANCH  16  19
ENDBRANCH   1  11
BRANCH  10  21
ATOM     21  O   UNL     1     -32.976  16.841  54.856  1.00  0.00    -0.500 OA
ATOM     22  H   UNL     1     -33.536  16.952  54.018  1.00  0.00     0.294 HD
ENDBRANCH  10  21
BRANCH   5  23
ATOM     23  O   UNL     1     -36.157  12.364  60.339  1.00  0.00    -0.507 OA
ATOM     24  H   UNL     1     -35.786  11.434  60.496  1.00  0.00     0.293 HD
ENDBRANCH   5  23
BRANCH   7  25
ATOM     25  O   UNL     1     -37.122  13.804  55.845  1.00  0.00    -0.507 OA
ATOM     26  H   UNL     1     -37.674  14.584  55.516  1.00  0.00     0.293 HD
ENDBRANCH   7  25
TORSDOF 6
ENDMDL
MODEL 9
REMARK VINA RESULT:    -7.673      0.608      1.480
REMARK INTER + INTRA:          -9.586
REMARK INTER:                  -9.238
REMARK INTRA:                  -0.348
REMARK UNBOUND:                -0.344
REMARK SMILES Oc1cc(O)c2cc(O)c(-c3ccc(O)c(O)c3)[o+]c2c1
REMARK SMILES IDX 10 1 19 2 20 3 21 4 2 5 3 6 4 7 6 8 7 9 8 10 11 11 12 12
REMARK SMILES IDX 13 13 14 14 18 15 16 16 15 17 17 19 9 21 1 23 5 25
REMARK H PARENT 15 18 17 20 9 22 1 24 5 26
REMARK Flexibility Score: inf
ROOT
ATOM      1  C   UNL     1     -30.821  16.862  57.330  1.00  0.00     0.402 A 
ATOM      2  O   UNL     1     -31.439  16.073  58.206  1.00  0.00    -0.202 OA
ATOM      3  C   UNL     1     -32.618  15.505  57.972  1.00  0.00     0.368 A 
ATOM      4  C   UNL     1     -33.188  14.694  58.955  1.00  0.00     0.162 A 
ATOM      5  C   UNL     1     -34.426  14.088  58.739  1.00  0.00     0.128 A 
ATOM      6  C   UNL     1     -35.101  14.294  57.531  1.00  0.00     0.093 A 
ATOM      7  C   UNL     1     -34.550  15.103  56.529  1.00  0.00     0.136 A 
ATOM      8  C   UNL     1     -33.290  15.719  56.745  1.00  0.00     0.125 A 
ATOM      9  C   UNL     1     -32.657  16.535  55.793  1.00  0.00     0.078 A 
ATOM     10  C   UNL     1     -31.411  17.104  56.075  1.00  0.00     0.223 A 
ENDROOT
BRANCH   1  11
ATOM     11  C   UNL     1     -29.514  17.444  57.712  1.00  0.00     0.087 A 
ATOM     12  C   UNL     1     -29.474  18.701  58.336  1.00  0.00     0.022 A 
ATOM     13  C   UNL     1     -28.251  19.278  58.687  1.00  0.00     0.051 A 
ATOM     14  C   UNL     1     -27.051  18.614  58.406  1.00  0.00     0.157 A 
ATOM     15  C   UNL     1     -28.305  16.790  57.413  1.00  0.00     0.068 A 
ATOM     16  C   UNL     1     -27.077  17.370  57.763  1.00  0.00     0.158 A 
BRANCH  14  17
ATOM     17  O   UNL     1     -25.829  19.185  58.756  1.00  0.00    -0.504 OA
ATOM     18  H   UNL     1     -25.013  19.097  58.162  1.00  0.00     0.293 HD
ENDBRANCH  14  17
BRANCH  16  19
ATOM     19  O   UNL     1     -25.880  16.718  57.472  1.00  0.00    -0.504 OA
ATOM     20  H   UNL     1     -25.429  16.111  58.147  1.00  0.00     0.293 HD
ENDBRANCH  16  19
ENDBRANCH   1  11
BRANCH  10  21
ATOM     21  O   UNL     1     -30.760  17.874  55.112  1.00  0.00    -0.500 OA
ATOM     22  H   UNL     1     -31.132  17.984  54.176  1.00  0.00     0.294 HD
ENDBRANCH  10  21
BRANCH   5  23
ATOM     23  O   UNL     1     -34.978  13.282  59.733  1.00  0.00    -0.507 OA
ATOM     24  H   UNL     1     -34.662  12.330  59.880  1.00  0.00     0.293 HD
ENDBRANCH   5  23
BRANCH   7  25
ATOM     25  O   UNL     1     -35.288  15.261  55.353  1.00  0.00    -0.507 OA
ATOM     26  H   UNL     1     -36.026  15.940  55.229  1.00  0.00     0.293 HD
ENDBRANCH   7  25
TORSDOF 6
ENDMDL
