MODEL 1
REMARK VINA RESULT:    27.351      0.000      0.000
REMARK INTER + INTRA:          31.857
REMARK INTER:                  32.147
REMARK INTRA:                  -0.291
REMARK UNBOUND:                -0.291
REMARK SMILES O=c1c(O)c(-c2ccc(O)cc2)oc2cc(O)cc(O)c12
REMARK SMILES IDX 5 1 3 2 2 3 1 4 21 5 19 6 18 7 16 8 15 9 14 10 13 11 6 12
REMARK SMILES IDX 7 13 8 14 9 15 12 16 11 17 10 18 4 20 20 22 17 24
REMARK H PARENT 10 19 4 21 20 23 17 25
REMARK Flexibility Score: inf
ROOT
ATOM      1  C   UNL     1      15.244   4.444  15.157  1.00  0.00     0.180 A 
ATOM      2  C   UNL     1      14.066   4.242  14.418  1.00  0.00     0.208 A 
ATOM      3  C   UNL     1      13.219   5.335  14.174  1.00  0.00     0.238 A 
ATOM      4  O   UNL     1      12.140   5.139  13.558  1.00  0.00    -0.285 OA
ATOM      5  C   UNL     1      13.569   6.619  14.657  1.00  0.00     0.111 A 
ATOM      6  C   UNL     1      12.807   7.805  14.434  1.00  0.00     0.134 A 
ATOM      7  C   UNL     1      13.180   8.996  15.070  1.00  0.00     0.093 A 
ATOM      8  C   UNL     1      14.322   9.060  15.867  1.00  0.00     0.123 A 
ATOM      9  C   UNL     1      15.109   7.920  16.044  1.00  0.00     0.094 A 
ATOM     10  C   UNL     1      14.742   6.709  15.452  1.00  0.00     0.146 A 
ATOM     11  O   UNL     1      15.511   5.647  15.654  1.00  0.00    -0.452 OA
ENDROOT
BRANCH   1  12
ATOM     12  C   UNL     1      16.198   3.346  15.435  1.00  0.00     0.021 A 
ATOM     13  C   UNL     1      16.037   2.564  16.592  1.00  0.00     0.016 A 
ATOM     14  C   UNL     1      16.939   1.537  16.884  1.00  0.00     0.047 A 
ATOM     15  C   UNL     1      18.023   1.289  16.032  1.00  0.00     0.115 A 
ATOM     16  C   UNL     1      17.301   3.104  14.595  1.00  0.00     0.016 A 
ATOM     17  C   UNL     1      18.201   2.076  14.891  1.00  0.00     0.047 A 
BRANCH  15  18
ATOM     18  O   UNL     1      18.928   0.268  16.313  1.00  0.00    -0.508 OA
ATOM     19  H   UNL     1      19.721   0.417  16.926  1.00  0.00     0.293 HD
ENDBRANCH  15  18
ENDBRANCH   1  12
BRANCH   2  20
ATOM     20  O   UNL     1      13.728   2.962  13.969  1.00  0.00    -0.502 OA
ATOM     21  H   UNL     1      13.038   2.805  13.244  1.00  0.00     0.293 HD
ENDBRANCH   2  20
BRANCH   6  22
ATOM     22  O   UNL     1      11.701   7.873  13.582  1.00  0.00    -0.507 OA
ATOM     23  H   UNL     1      11.702   7.585  12.616  1.00  0.00     0.293 HD
ENDBRANCH   6  22
BRANCH   8  24
ATOM     24  O   UNL     1      14.671  10.265  16.472  1.00  0.00    -0.508 OA
ATOM     25  H   UNL     1      14.758  10.348  17.478  1.00  0.00     0.293 HD
ENDBRANCH   8  24
TORSDOF 5
ENDMDL
MODEL 2
REMARK VINA RESULT:    28.735      1.678      6.851
REMARK INTER + INTRA:          33.484
REMARK INTER:                  33.778
REMARK INTRA:                  -0.294
REMARK UNBOUND:                -0.291
REMARK SMILES O=c1c(O)c(-c2ccc(O)cc2)oc2cc(O)cc(O)c12
REMARK SMILES IDX 5 1 3 2 2 3 1 4 21 5 19 6 18 7 16 8 15 9 14 10 13 11 6 12
REMARK SMILES IDX 7 13 8 14 9 15 12 16 11 17 10 18 4 20 20 22 17 24
REMARK H PARENT 10 19 4 21 20 23 17 25
REMARK Flexibility Score: inf
ROOT
ATOM      1  C   UNL     1      14.871   5.342  15.439  1.00  0.00     0.180 A 
ATOM      2  C   UNL     1      14.664   4.680  16.661  1.00  0.00     0.208 A 
ATOM      3  C   UNL     1      15.393   3.511  16.933  1.00  0.00     0.238 A 
ATOM      4  O   UNL     1      15.165   2.892  18.005  1.00  0.00    -0.285 OA
ATOM      5  C   UNL     1      16.331   3.028  15.988  1.00  0.00     0.111 A 
ATOM      6  C   UNL     1      17.152   1.877  16.176  1.00  0.00     0.134 A 
ATOM      7  C   UNL     1      17.949   1.416  15.121  1.00  0.00     0.093 A 
ATOM      8  C   UNL     1      18.004   2.102  13.908  1.00  0.00     0.123 A 
ATOM      9  C   UNL     1      17.250   3.263  13.733  1.00  0.00     0.094 A 
ATOM     10  C   UNL     1      16.417   3.726  14.755  1.00  0.00     0.146 A 
ATOM     11  O   UNL     1      15.708   4.828  14.545  1.00  0.00    -0.452 OA
ENDROOT
BRANCH   1  12
ATOM     12  C   UNL     1      14.158   6.593  15.090  1.00  0.00     0.021 A 
ATOM     13  C   UNL     1      12.935   6.524  14.402  1.00  0.00     0.016 A 
ATOM     14  C   UNL     1      12.258   7.693  14.043  1.00  0.00     0.047 A 
ATOM     15  C   UNL     1      12.801   8.946  14.355  1.00  0.00     0.115 A 
ATOM     16  C   UNL     1      14.709   7.855  15.381  1.00  0.00     0.016 A 
ATOM     17  C   UNL     1      14.028   9.022  15.020  1.00  0.00     0.047 A 
BRANCH  15  18
ATOM     18  O   UNL     1      12.135  10.118  14.003  1.00  0.00    -0.508 OA
ATOM     19  H   UNL     1      11.124  10.178  14.024  1.00  0.00     0.293 HD
ENDBRANCH  15  18
ENDBRANCH   1  12
BRANCH   2  20
ATOM     20  O   UNL     1      13.718   5.161  17.570  1.00  0.00    -0.502 OA
ATOM     21  H   UNL     1      12.877   5.642  17.276  1.00  0.00     0.293 HD
ENDBRANCH   2  20
BRANCH   6  22
ATOM     22  O   UNL     1      17.243   1.172  17.380  1.00  0.00    -0.507 OA
ATOM     23  H   UNL     1      16.537   1.172  18.101  1.00  0.00     0.293 HD
ENDBRANCH   6  22
BRANCH   8  24
ATOM     24  O   UNL     1      18.819   1.624  12.885  1.00  0.00    -0.508 OA
ATOM     25  H   UNL     1      18.430   1.250  12.027  1.00  0.00     0.293 HD
ENDBRANCH   8  24
TORSDOF 5
ENDMDL
