MODEL 1
REMARK VINA RESULT:    -4.395      0.000      0.000
REMARK INTER + INTRA:          -8.662
REMARK INTER:                  -7.477
REMARK INTRA:                  -1.185
REMARK UNBOUND:                -1.185
REMARK SMILES CCCCCCCCCCCCCC(=O)[O-]
REMARK SMILES IDX 8 1 9 2 10 3 11 4 12 5 13 6 14 7 15 8 16 9 7 10 6 11 5 12
REMARK SMILES IDX 4 13 3 14 2 15 1 16
REMARK H PARENT
REMARK Flexibility Score: inf
ROOT
ATOM      1  C   UNL     1      58.477  34.203  80.784  1.00  0.00     0.000 C 
ENDROOT
BRANCH   1   2
ATOM      2  C   UNL     1      58.905  33.732  79.382  1.00  0.00     0.000 C 
BRANCH   2   3
ATOM      3  C   UNL     1      57.726  33.229  78.532  1.00  0.00     0.000 C 
BRANCH   3   4
ATOM      4  C   UNL     1      58.142  32.831  77.104  1.00  0.00     0.000 C 
BRANCH   4   5
ATOM      5  C   UNL     1      58.085  31.323  76.799  1.00  0.00     0.006 C 
BRANCH   5   6
ATOM      6  C   UNL     1      57.697  31.020  75.345  1.00  0.00     0.053 C 
BRANCH   6   7
ATOM      7  C   UNL     1      56.909  29.751  75.269  1.00  0.00     0.041 C 
ATOM      8  O   UNL     1      57.382  28.682  75.736  1.00  0.00    -0.550 OA
ATOM      9  O   UNL     1      55.672  29.737  74.636  1.00  0.00    -0.550 OA
ENDBRANCH   6   7
ENDBRANCH   5   6
ENDBRANCH   4   5
ENDBRANCH   3   4
ENDBRANCH   2   3
ENDBRANCH   1   2
BRANCH   1  10
ATOM     10  C   UNL     1      59.076  35.549  81.236  1.00  0.00     0.000 C 
BRANCH  10  11
ATOM     11  C   UNL     1      58.112  36.729  81.047  1.00  0.00    -0.000 C 
BRANCH  11  12
ATOM     12  C   UNL     1      58.404  37.474  79.738  1.00  0.00    -0.000 C 
BRANCH  12  13
ATOM     13  C   UNL     1      57.153  37.535  78.849  1.00  0.00    -0.000 C 
BRANCH  13  14
ATOM     14  C   UNL     1      57.349  36.822  77.501  1.00  0.00    -0.000 C 
BRANCH  14  15
ATOM     15  C   UNL     1      56.026  36.353  76.882  1.00  0.00    -0.003 C 
ATOM     16  C   UNL     1      56.267  35.600  75.577  1.00  0.00     0.004 C 
ENDBRANCH  14  15
ENDBRANCH  13  14
ENDBRANCH  12  13
ENDBRANCH  11  12
ENDBRANCH  10  11
ENDBRANCH   1  10
TORSDOF 12
ENDMDL
MODEL 2
REMARK VINA RESULT:    -4.338      3.393      6.257
REMARK INTER + INTRA:          -8.566
REMARK INTER:                  -7.401
REMARK INTRA:                  -1.164
REMARK UNBOUND:                -1.185
REMARK SMILES CCCCCCCCCCCCCC(=O)[O-]
REMARK SMILES IDX 8 1 9 2 10 3 11 4 12 5 13 6 14 7 15 8 16 9 7 10 6 11 5 12
REMARK SMILES IDX 4 13 3 14 2 15 1 16
REMARK H PARENT
REMARK Flexibility Score: inf
ROOT
ATOM      1  C   UNL     1      58.980  33.595  79.451  1.00  0.00     0.000 C 
ENDROOT
BRANCH   1   2
ATOM      2  C   UNL     1      58.424  34.217  80.745  1.00  0.00     0.000 C 
BRANCH   2   3
ATOM      3  C   UNL     1      59.001  35.612  81.036  1.00  0.00     0.000 C 
BRANCH   3   4
ATOM      4  C   UNL     1      58.605  36.659  79.978  1.00  0.00     0.000 C 
BRANCH   4   5
ATOM      5  C   UNL     1      57.093  36.911  79.837  1.00  0.00     0.006 C 
BRANCH   5   6
ATOM      6  C   UNL     1      56.615  36.892  78.378  1.00  0.00     0.053 C 
BRANCH   6   7
ATOM      7  C   UNL     1      57.398  37.868  77.559  1.00  0.00     0.041 C 
ATOM      8  O   UNL     1      58.145  37.462  76.631  1.00  0.00    -0.550 OA
ATOM      9  O   UNL     1      57.343  39.225  77.854  1.00  0.00    -0.550 OA
ENDBRANCH   6   7
ENDBRANCH   5   6
ENDBRANCH   4   5
ENDBRANCH   3   4
ENDBRANCH   2   3
ENDBRANCH   1   2
BRANCH   1  10
ATOM     10  C   UNL     1      57.919  33.067  78.466  1.00  0.00     0.000 C 
BRANCH  10  11
ATOM     11  C   UNL     1      57.964  33.769  77.101  1.00  0.00    -0.000 C 
BRANCH  11  12
ATOM     12  C   UNL     1      57.939  32.747  75.957  1.00  0.00    -0.000 C 
BRANCH  12  13
ATOM     13  C   UNL     1      58.460  31.381  76.428  1.00  0.00    -0.000 C 
BRANCH  13  14
ATOM     14  C   UNL     1      57.619  30.211  75.892  1.00  0.00    -0.000 C 
BRANCH  14  15
ATOM     15  C   UNL     1      56.891  30.556  74.586  1.00  0.00    -0.003 C 
ATOM     16  C   UNL     1      55.731  29.597  74.334  1.00  0.00     0.004 C 
ENDBRANCH  14  15
ENDBRANCH  13  14
ENDBRANCH  12  13
ENDBRANCH  11  12
ENDBRANCH  10  11
ENDBRANCH   1  10
TORSDOF 12
ENDMDL
MODEL 3
REMARK VINA RESULT:    -4.150      1.314      2.021
REMARK INTER + INTRA:          -8.245
REMARK INTER:                  -7.099
REMARK INTRA:                  -1.146
REMARK UNBOUND:                -1.185
REMARK SMILES CCCCCCCCCCCCCC(=O)[O-]
REMARK SMILES IDX 8 1 9 2 10 3 11 4 12 5 13 6 14 7 15 8 16 9 7 10 6 11 5 12
REMARK SMILES IDX 4 13 3 14 2 15 1 16
REMARK H PARENT
REMARK Flexibility Score: inf
ROOT
ATOM      1  C   UNL     1      58.788  34.568  80.746  1.00  0.00     0.000 C 
ENDROOT
BRANCH   1   2
ATOM      2  C   UNL     1      57.835  33.682  79.922  1.00  0.00     0.000 C 
BRANCH   2   3
ATOM      3  C   UNL     1      58.493  33.106  78.657  1.00  0.00     0.000 C 
BRANCH   3   4
ATOM      4  C   UNL     1      57.799  33.560  77.360  1.00  0.00     0.000 C 
BRANCH   4   5
ATOM      5  C   UNL     1      57.846  32.548  76.200  1.00  0.00     0.006 C 
BRANCH   5   6
ATOM      6  C   UNL     1      58.026  31.100  76.675  1.00  0.00     0.053 C 
BRANCH   6   7
ATOM      7  C   UNL     1      57.580  30.144  75.614  1.00  0.00     0.041 C 
ATOM      8  O   UNL     1      56.804  30.528  74.700  1.00  0.00    -0.550 OA
ATOM      9  O   UNL     1      57.982  28.814  75.663  1.00  0.00    -0.550 OA
ENDBRANCH   6   7
ENDBRANCH   5   6
ENDBRANCH   4   5
ENDBRANCH   3   4
ENDBRANCH   2   3
ENDBRANCH   1   2
BRANCH   1  10
ATOM     10  C   UNL     1      58.963  36.007  80.224  1.00  0.00     0.000 C 
BRANCH  10  11
ATOM     11  C   UNL     1      57.914  36.980  80.782  1.00  0.00    -0.000 C 
BRANCH  11  12
ATOM     12  C   UNL     1      56.856  37.315  79.723  1.00  0.00    -0.000 C 
BRANCH  12  13
ATOM     13  C   UNL     1      57.432  37.177  78.306  1.00  0.00    -0.000 C 
BRANCH  13  14
ATOM     14  C   UNL     1      57.341  38.482  77.500  1.00  0.00    -0.000 C 
BRANCH  14  15
ATOM     15  C   UNL     1      58.695  39.191  77.366  1.00  0.00    -0.003 C 
ATOM     16  C   UNL     1      59.849  38.201  77.493  1.00  0.00     0.004 C 
ENDBRANCH  14  15
ENDBRANCH  13  14
ENDBRANCH  12  13
ENDBRANCH  11  12
ENDBRANCH  10  11
ENDBRANCH   1  10
TORSDOF 12
ENDMDL
MODEL 4
REMARK VINA RESULT:    -4.140      0.920      3.026
REMARK INTER + INTRA:          -8.230
REMARK INTER:                  -7.043
REMARK INTRA:                  -1.186
REMARK UNBOUND:                -1.185
REMARK SMILES CCCCCCCCCCCCCC(=O)[O-]
REMARK SMILES IDX 8 1 9 2 10 3 11 4 12 5 13 6 14 7 15 8 16 9 7 10 6 11 5 12
REMARK SMILES IDX 4 13 3 14 2 15 1 16
REMARK H PARENT
REMARK Flexibility Score: inf
ROOT
ATOM      1  C   UNL     1      57.638  34.103  78.192  1.00  0.00     0.000 C 
ENDROOT
BRANCH   1   2
ATOM      2  C   UNL     1      58.557  32.872  78.306  1.00  0.00     0.000 C 
BRANCH   2   3
ATOM      3  C   UNL     1      58.193  31.757  77.311  1.00  0.00     0.000 C 
BRANCH   3   4
ATOM      4  C   UNL     1      59.293  31.506  76.263  1.00  0.00     0.000 C 
BRANCH   4   5
ATOM      5  C   UNL     1      58.808  30.895  74.935  1.00  0.00     0.006 C 
BRANCH   5   6
ATOM      6  C   UNL     1      57.298  31.061  74.714  1.00  0.00     0.053 C 
BRANCH   6   7
ATOM      7  C   UNL     1      56.626  29.725  74.680  1.00  0.00     0.041 C 
ATOM      8  O   UNL     1      55.430  29.627  74.301  1.00  0.00    -0.550 OA
ATOM      9  O   UNL     1      57.305  28.593  75.115  1.00  0.00    -0.550 OA
ENDBRANCH   6   7
ENDBRANCH   5   6
ENDBRANCH   4   5
ENDBRANCH   3   4
ENDBRANCH   2   3
ENDBRANCH   1   2
BRANCH   1  10
ATOM     10  C   UNL     1      57.544  34.725  76.786  1.00  0.00     0.000 C 
BRANCH  10  11
ATOM     11  C   UNL     1      56.719  36.020  76.756  1.00  0.00    -0.000 C 
BRANCH  11  12
ATOM     12  C   UNL     1      56.623  36.644  78.153  1.00  0.00    -0.000 C 
BRANCH  12  13
ATOM     13  C   UNL     1      57.616  37.806  78.306  1.00  0.00    -0.000 C 
BRANCH  13  14
ATOM     14  C   UNL     1      58.697  37.526  79.362  1.00  0.00    -0.000 C 
BRANCH  14  15
ATOM     15  C   UNL     1      58.116  36.971  80.670  1.00  0.00    -0.003 C 
ATOM     16  C   UNL     1      58.886  35.738  81.134  1.00  0.00     0.004 C 
ENDBRANCH  14  15
ENDBRANCH  13  14
ENDBRANCH  12  13
ENDBRANCH  11  12
ENDBRANCH  10  11
ENDBRANCH   1  10
TORSDOF 12
ENDMDL
MODEL 5
REMARK VINA RESULT:    -4.116      1.991      3.201
REMARK INTER + INTRA:          -8.188
REMARK INTER:                  -6.742
REMARK INTRA:                  -1.446
REMARK UNBOUND:                -1.185
REMARK SMILES CCCCCCCCCCCCCC(=O)[O-]
REMARK SMILES IDX 8 1 9 2 10 3 11 4 12 5 13 6 14 7 15 8 16 9 7 10 6 11 5 12
REMARK SMILES IDX 4 13 3 14 2 15 1 16
REMARK H PARENT
REMARK Flexibility Score: inf
ROOT
ATOM      1  C   UNL     1      58.434  36.706  80.147  1.00  0.00     0.000 C 
ENDROOT
BRANCH   1   2
ATOM      2  C   UNL     1      58.811  35.585  81.132  1.00  0.00     0.000 C 
BRANCH   2   3
ATOM      3  C   UNL     1      59.110  34.247  80.434  1.00  0.00     0.000 C 
BRANCH   3   4
ATOM      4  C   UNL     1      57.848  33.573  79.864  1.00  0.00     0.000 C 
BRANCH   4   5
ATOM      5  C   UNL     1      58.019  32.922  78.479  1.00  0.00     0.006 C 
BRANCH   5   6
ATOM      6  C   UNL     1      58.018  33.943  77.333  1.00  0.00     0.053 C 
BRANCH   6   7
ATOM      7  C   UNL     1      57.668  33.276  76.041  1.00  0.00     0.041 C 
ATOM      8  O   UNL     1      57.629  32.019  75.966  1.00  0.00    -0.550 OA
ATOM      9  O   UNL     1      57.433  34.040  74.905  1.00  0.00    -0.550 OA
ENDBRANCH   6   7
ENDBRANCH   5   6
ENDBRANCH   4   5
ENDBRANCH   3   4
ENDBRANCH   2   3
ENDBRANCH   1   2
BRANCH   1  10
ATOM     10  C   UNL     1      56.935  37.056  80.091  1.00  0.00     0.000 C 
BRANCH  10  11
ATOM     11  C   UNL     1      56.537  37.793  78.804  1.00  0.00    -0.000 C 
BRANCH  11  12
ATOM     12  C   UNL     1      56.353  36.809  77.641  1.00  0.00    -0.000 C 
BRANCH  12  13
ATOM     13  C   UNL     1      56.886  37.403  76.328  1.00  0.00    -0.000 C 
BRANCH  13  14
ATOM     14  C   UNL     1      57.818  38.604  76.558  1.00  0.00    -0.000 C 
BRANCH  14  15
ATOM     15  C   UNL     1      59.247  38.348  76.058  1.00  0.00    -0.003 C 
ATOM     16  C   UNL     1      60.025  37.479  77.041  1.00  0.00     0.004 C 
ENDBRANCH  14  15
ENDBRANCH  13  14
ENDBRANCH  12  13
ENDBRANCH  11  12
ENDBRANCH  10  11
ENDBRANCH   1  10
TORSDOF 12
ENDMDL
MODEL 6
REMARK VINA RESULT:    -4.102      1.796      2.152
REMARK INTER + INTRA:          -8.165
REMARK INTER:                  -6.395
REMARK INTRA:                  -1.769
REMARK UNBOUND:                -1.185
REMARK SMILES CCCCCCCCCCCCCC(=O)[O-]
REMARK SMILES IDX 8 1 9 2 10 3 11 4 12 5 13 6 14 7 15 8 16 9 7 10 6 11 5 12
REMARK SMILES IDX 4 13 3 14 2 15 1 16
REMARK H PARENT
REMARK Flexibility Score: inf
ROOT
ATOM      1  C   UNL     1      58.135  34.720  80.093  1.00  0.00     0.000 C 
ENDROOT
BRANCH   1   2
ATOM      2  C   UNL     1      59.065  33.737  79.356  1.00  0.00     0.000 C 
BRANCH   2   3
ATOM      3  C   UNL     1      58.323  32.861  78.333  1.00  0.00     0.000 C 
BRANCH   3   4
ATOM      4  C   UNL     1      57.597  33.685  77.253  1.00  0.00     0.000 C 
BRANCH   4   5
ATOM      5  C   UNL     1      58.321  33.774  75.897  1.00  0.00     0.006 C 
BRANCH   5   6
ATOM      6  C   UNL     1      57.357  33.802  74.703  1.00  0.00     0.053 C 
BRANCH   6   7
ATOM      7  C   UNL     1      57.378  32.490  73.985  1.00  0.00     0.041 C 
ATOM      8  O   UNL     1      58.392  31.747  74.052  1.00  0.00    -0.550 OA
ATOM      9  O   UNL     1      56.297  32.110  73.199  1.00  0.00    -0.550 OA
ENDBRANCH   6   7
ENDBRANCH   5   6
ENDBRANCH   4   5
ENDBRANCH   3   4
ENDBRANCH   2   3
ENDBRANCH   1   2
BRANCH   1  10
ATOM     10  C   UNL     1      58.848  35.859  80.847  1.00  0.00     0.000 C 
BRANCH  10  11
ATOM     11  C   UNL     1      58.064  37.179  80.821  1.00  0.00    -0.000 C 
BRANCH  11  12
ATOM     12  C   UNL     1      56.791  37.046  79.975  1.00  0.00    -0.000 C 
BRANCH  12  13
ATOM     13  C   UNL     1      56.855  37.956  78.739  1.00  0.00    -0.000 C 
BRANCH  13  14
ATOM     14  C   UNL     1      56.985  37.163  77.428  1.00  0.00    -0.000 C 
BRANCH  14  15
ATOM     15  C   UNL     1      58.241  37.542  76.631  1.00  0.00    -0.003 C 
ATOM     16  C   UNL     1      59.502  37.011  77.307  1.00  0.00     0.004 C 
ENDBRANCH  14  15
ENDBRANCH  13  14
ENDBRANCH  12  13
ENDBRANCH  11  12
ENDBRANCH  10  11
ENDBRANCH   1  10
TORSDOF 12
ENDMDL
MODEL 7
REMARK VINA RESULT:    -4.075      1.155      3.014
REMARK INTER + INTRA:          -8.119
REMARK INTER:                  -6.740
REMARK INTRA:                  -1.379
REMARK UNBOUND:                -1.185
REMARK SMILES CCCCCCCCCCCCCC(=O)[O-]
REMARK SMILES IDX 8 1 9 2 10 3 11 4 12 5 13 6 14 7 15 8 16 9 7 10 6 11 5 12
REMARK SMILES IDX 4 13 3 14 2 15 1 16
REMARK H PARENT
REMARK Flexibility Score: inf
ROOT
ATOM      1  C   UNL     1      58.316  34.016  77.198  1.00  0.00     0.000 C 
ENDROOT
BRANCH   1   2
ATOM      2  C   UNL     1      57.154  34.826  76.593  1.00  0.00     0.000 C 
BRANCH   2   3
ATOM      3  C   UNL     1      56.777  34.367  75.175  1.00  0.00     0.000 C 
BRANCH   3   4
ATOM      4  C   UNL     1      57.824  33.427  74.550  1.00  0.00     0.000 C 
BRANCH   4   5
ATOM      5  C   UNL     1      57.310  32.025  74.175  1.00  0.00     0.006 C 
BRANCH   5   6
ATOM      6  C   UNL     1      57.808  30.929  75.126  1.00  0.00     0.053 C 
BRANCH   6   7
ATOM      7  C   UNL     1      56.882  29.754  75.099  1.00  0.00     0.041 C 
ATOM      8  O   UNL     1      57.138  28.730  75.786  1.00  0.00    -0.550 OA
ATOM      9  O   UNL     1      55.762  29.770  74.278  1.00  0.00    -0.550 OA
ENDBRANCH   6   7
ENDBRANCH   5   6
ENDBRANCH   4   5
ENDBRANCH   3   4
ENDBRANCH   2   3
ENDBRANCH   1   2
BRANCH   1  10
ATOM     10  C   UNL     1      57.902  32.929  78.209  1.00  0.00     0.000 C 
BRANCH  10  11
ATOM     11  C   UNL     1      57.770  33.461  79.643  1.00  0.00    -0.000 C 
BRANCH  11  12
ATOM     12  C   UNL     1      59.060  34.159  80.091  1.00  0.00    -0.000 C 
BRANCH  12  13
ATOM     13  C   UNL     1      58.766  35.570  80.624  1.00  0.00    -0.000 C 
BRANCH  13  14
ATOM     14  C   UNL     1      59.079  36.668  79.596  1.00  0.00    -0.000 C 
BRANCH  14  15
ATOM     15  C   UNL     1      57.820  37.401  79.110  1.00  0.00    -0.003 C 
ATOM     16  C   UNL     1      56.685  37.271  80.121  1.00  0.00     0.004 C 
ENDBRANCH  14  15
ENDBRANCH  13  14
ENDBRANCH  12  13
ENDBRANCH  11  12
ENDBRANCH  10  11
ENDBRANCH   1  10
TORSDOF 12
ENDMDL
MODEL 8
REMARK VINA RESULT:    -3.977      1.087      3.311
REMARK INTER + INTRA:          -7.952
REMARK INTER:                  -6.865
REMARK INTRA:                  -1.088
REMARK UNBOUND:                -1.185
REMARK SMILES CCCCCCCCCCCCCC(=O)[O-]
REMARK SMILES IDX 8 1 9 2 10 3 11 4 12 5 13 6 14 7 15 8 16 9 7 10 6 11 5 12
REMARK SMILES IDX 4 13 3 14 2 15 1 16
REMARK H PARENT
REMARK Flexibility Score: inf
ROOT
ATOM      1  C   UNL     1      57.184  36.048  76.189  1.00  0.00     0.000 C 
ENDROOT
BRANCH   1   2
ATOM      2  C   UNL     1      56.914  34.658  75.583  1.00  0.00     0.000 C 
BRANCH   2   3
ATOM      3  C   UNL     1      57.832  33.565  76.155  1.00  0.00     0.000 C 
BRANCH   3   4
ATOM      4  C   UNL     1      58.639  32.831  75.069  1.00  0.00     0.000 C 
BRANCH   4   5
ATOM      5  C   UNL     1      58.342  31.326  74.935  1.00  0.00     0.006 C 
BRANCH   5   6
ATOM      6  C   UNL     1      57.014  31.037  74.222  1.00  0.00     0.053 C 
BRANCH   6   7
ATOM      7  C   UNL     1      56.357  29.830  74.812  1.00  0.00     0.041 C 
ATOM      8  O   UNL     1      55.230  29.453  74.393  1.00  0.00    -0.550 OA
ATOM      9  O   UNL     1      56.965  29.148  75.858  1.00  0.00    -0.550 OA
ENDBRANCH   6   7
ENDBRANCH   5   6
ENDBRANCH   4   5
ENDBRANCH   3   4
ENDBRANCH   2   3
ENDBRANCH   1   2
BRANCH   1  10
ATOM     10  C   UNL     1      56.162  36.516  77.242  1.00  0.00     0.000 C 
BRANCH  10  11
ATOM     11  C   UNL     1      56.819  37.013  78.538  1.00  0.00    -0.000 C 
BRANCH  11  12
ATOM     12  C   UNL     1      58.287  37.388  78.302  1.00  0.00    -0.000 C 
BRANCH  12  13
ATOM     13  C   UNL     1      59.225  36.461  79.088  1.00  0.00    -0.000 C 
BRANCH  13  14
ATOM     14  C   UNL     1      58.656  36.068  80.460  1.00  0.00    -0.000 C 
BRANCH  14  15
ATOM     15  C   UNL     1      58.860  34.581  80.783  1.00  0.00    -0.003 C 
ATOM     16  C   UNL     1      58.018  33.700  79.865  1.00  0.00     0.004 C 
ENDBRANCH  14  15
ENDBRANCH  13  14
ENDBRANCH  12  13
ENDBRANCH  11  12
ENDBRANCH  10  11
ENDBRANCH   1  10
TORSDOF 12
ENDMDL
MODEL 9
REMARK VINA RESULT:    -3.937      4.079      6.274
REMARK INTER + INTRA:          -7.883
REMARK INTER:                  -6.596
REMARK INTRA:                  -1.287
REMARK UNBOUND:                -1.185
REMARK SMILES CCCCCCCCCCCCCC(=O)[O-]
REMARK SMILES IDX 8 1 9 2 10 3 11 4 12 5 13 6 14 7 15 8 16 9 7 10 6 11 5 12
REMARK SMILES IDX 4 13 3 14 2 15 1 16
REMARK H PARENT
REMARK Flexibility Score: inf
ROOT
ATOM      1  C   UNL     1      58.835  35.635  80.610  1.00  0.00     0.000 C 
ENDROOT
BRANCH   1   2
ATOM      2  C   UNL     1      58.600  36.700  79.523  1.00  0.00     0.000 C 
BRANCH   2   3
ATOM      3  C   UNL     1      57.152  37.216  79.491  1.00  0.00     0.000 C 
BRANCH   3   4
ATOM      4  C   UNL     1      56.484  37.045  78.114  1.00  0.00     0.000 C 
BRANCH   4   5
ATOM      5  C   UNL     1      57.427  37.182  76.904  1.00  0.00     0.006 C 
BRANCH   5   6
ATOM      6  C   UNL     1      57.341  38.559  76.231  1.00  0.00     0.053 C 
BRANCH   6   7
ATOM      7  C   UNL     1      58.172  39.556  76.973  1.00  0.00     0.041 C 
ATOM      8  O   UNL     1      57.630  40.557  77.513  1.00  0.00    -0.550 OA
ATOM      9  O   UNL     1      59.553  39.408  77.028  1.00  0.00    -0.550 OA
ENDBRANCH   6   7
ENDBRANCH   5   6
ENDBRANCH   4   5
ENDBRANCH   3   4
ENDBRANCH   2   3
ENDBRANCH   1   2
BRANCH   1  10
ATOM     10  C   UNL     1      59.096  34.209  80.088  1.00  0.00     0.000 C 
BRANCH  10  11
ATOM     11  C   UNL     1      57.810  33.472  79.686  1.00  0.00    -0.000 C 
BRANCH  11  12
ATOM     12  C   UNL     1      57.992  32.738  78.352  1.00  0.00    -0.000 C 
BRANCH  12  13
ATOM     13  C   UNL     1      57.951  33.722  77.173  1.00  0.00    -0.000 C 
BRANCH  13  14
ATOM     14  C   UNL     1      57.698  33.023  75.828  1.00  0.00    -0.000 C 
BRANCH  14  15
ATOM     15  C   UNL     1      57.947  31.510  75.891  1.00  0.00    -0.003 C 
ATOM     16  C   UNL     1      57.151  30.777  74.815  1.00  0.00     0.004 C 
ENDBRANCH  14  15
ENDBRANCH  13  14
ENDBRANCH  12  13
ENDBRANCH  11  12
ENDBRANCH  10  11
ENDBRANCH   1  10
TORSDOF 12
ENDMDL
