MODEL 1
REMARK VINA RESULT:    -3.522      0.000      0.000
REMARK INTER + INTRA:         -10.820
REMARK INTER:                  -7.640
REMARK INTRA:                  -3.180
REMARK UNBOUND:                -3.180
REMARK SMILES CCCCCCCCCCCCCCCCCCCCCC(=O)[O-]
REMARK SMILES IDX 12 1 11 2 10 3 9 4 8 5 7 6 6 7 5 8 4 9 3 10 2 11 1 12 13 13
REMARK SMILES IDX 14 14 15 15 16 16 17 17 18 18 19 19 20 20 21 21 22 22 23 23
REMARK SMILES IDX 24 24
REMARK H PARENT
REMARK Flexibility Score: inf
ROOT
ATOM      1  C   UNL     1      29.211  -0.162 -37.925  1.00  0.00     0.000 C 
ENDROOT
BRANCH   1   2
ATOM      2  C   UNL     1      30.580   0.090 -38.582  1.00  0.00     0.000 C 
BRANCH   2   3
ATOM      3  C   UNL     1      31.274  -1.202 -39.034  1.00  0.00     0.000 C 
BRANCH   3   4
ATOM      4  C   UNL     1      32.766  -1.178 -38.665  1.00  0.00    -0.000 C 
BRANCH   4   5
ATOM      5  C   UNL     1      33.155   0.051 -37.827  1.00  0.00    -0.000 C 
BRANCH   5   6
ATOM      6  C   UNL     1      33.520  -0.255 -36.362  1.00  0.00    -0.000 C 
BRANCH   6   7
ATOM      7  C   UNL     1      33.317  -1.734 -35.964  1.00  0.00    -0.000 C 
BRANCH   7   8
ATOM      8  C   UNL     1      32.089  -1.930 -35.059  1.00  0.00    -0.000 C 
BRANCH   8   9
ATOM      9  C   UNL     1      31.020  -2.834 -35.695  1.00  0.00    -0.000 C 
BRANCH   9  10
ATOM     10  C   UNL     1      31.610  -3.959 -36.570  1.00  0.00    -0.000 C 
BRANCH  10  11
ATOM     11  C   UNL     1      30.520  -4.758 -37.300  1.00  0.00    -0.003 C 
ATOM     12  C   UNL     1      29.281  -3.902 -37.546  1.00  0.00     0.004 C 
ENDBRANCH  10  11
ENDBRANCH   9  10
ENDBRANCH   8   9
ENDBRANCH   7   8
ENDBRANCH   6   7
ENDBRANCH   5   6
ENDBRANCH   4   5
ENDBRANCH   3   4
ENDBRANCH   2   3
ENDBRANCH   1   2
BRANCH   1  13
ATOM     13  C   UNL     1      29.132   0.199 -36.431  1.00  0.00     0.000 C 
BRANCH  13  14
ATOM     14  C   UNL     1      29.588   1.636 -36.136  1.00  0.00     0.000 C 
BRANCH  14  15
ATOM     15  C   UNL     1      30.917   1.641 -35.370  1.00  0.00     0.000 C 
BRANCH  15  16
ATOM     16  C   UNL     1      30.766   2.330 -34.008  1.00  0.00     0.000 C 
BRANCH  16  17
ATOM     17  C   UNL     1      31.659   1.661 -32.952  1.00  0.00     0.000 C 
BRANCH  17  18
ATOM     18  C   UNL     1      33.141   2.044 -33.092  1.00  0.00     0.000 C 
BRANCH  18  19
ATOM     19  C   UNL     1      33.341   3.543 -33.380  1.00  0.00     0.000 C 
BRANCH  19  20
ATOM     20  C   UNL     1      33.965   4.290 -32.191  1.00  0.00     0.006 C 
BRANCH  20  21
ATOM     21  C   UNL     1      34.888   5.432 -32.636  1.00  0.00     0.053 C 
BRANCH  21  22
ATOM     22  C   UNL     1      34.995   6.466 -31.560  1.00  0.00     0.041 C 
ATOM     23  O   UNL     1      36.112   6.732 -31.041  1.00  0.00    -0.550 OA
ATOM     24  O   UNL     1      33.865   7.166 -31.156  1.00  0.00    -0.550 OA
ENDBRANCH  21  22
ENDBRANCH  20  21
ENDBRANCH  19  20
ENDBRANCH  18  19
ENDBRANCH  17  18
ENDBRANCH  16  17
ENDBRANCH  15  16
ENDBRANCH  14  15
ENDBRANCH  13  14
ENDBRANCH   1  13
TORSDOF 20
ENDMDL
MODEL 2
REMARK VINA RESULT:    -3.457      4.540      8.169
REMARK INTER + INTRA:         -10.678
REMARK INTER:                  -6.955
REMARK INTRA:                  -3.722
REMARK UNBOUND:                -3.180
REMARK SMILES CCCCCCCCCCCCCCCCCCCCCC(=O)[O-]
REMARK SMILES IDX 12 1 11 2 10 3 9 4 8 5 7 6 6 7 5 8 4 9 3 10 2 11 1 12 13 13
REMARK SMILES IDX 14 14 15 15 16 16 17 17 18 18 19 19 20 20 21 21 22 22 23 23
REMARK SMILES IDX 24 24
REMARK H PARENT
REMARK Flexibility Score: inf
ROOT
ATOM      1  C   UNL     1      32.984  -0.726 -38.140  1.00  0.00     0.000 C 
ENDROOT
BRANCH   1   2
ATOM      2  C   UNL     1      32.121   0.500 -37.792  1.00  0.00     0.000 C 
BRANCH   2   3
ATOM      3  C   UNL     1      30.942   0.697 -38.755  1.00  0.00     0.000 C 
BRANCH   3   4
ATOM      4  C   UNL     1      29.620   0.825 -37.981  1.00  0.00    -0.000 C 
BRANCH   4   5
ATOM      5  C   UNL     1      29.803   0.699 -36.460  1.00  0.00    -0.000 C 
BRANCH   5   6
ATOM      6  C   UNL     1      29.009  -0.448 -35.806  1.00  0.00    -0.000 C 
BRANCH   6   7
ATOM      7  C   UNL     1      29.755  -1.139 -34.644  1.00  0.00    -0.000 C 
BRANCH   7   8
ATOM      8  C   UNL     1      31.005  -1.896 -35.122  1.00  0.00    -0.000 C 
BRANCH   8   9
ATOM      9  C   UNL     1      32.253  -1.572 -34.285  1.00  0.00    -0.000 C 
BRANCH   9  10
ATOM     10  C   UNL     1      32.183  -0.197 -33.587  1.00  0.00    -0.000 C 
BRANCH  10  11
ATOM     11  C   UNL     1      32.957   0.883 -34.357  1.00  0.00    -0.003 C 
ATOM     12  C   UNL     1      33.366   2.030 -33.438  1.00  0.00     0.004 C 
ENDBRANCH  10  11
ENDBRANCH   9  10
ENDBRANCH   8   9
ENDBRANCH   7   8
ENDBRANCH   6   7
ENDBRANCH   5   6
ENDBRANCH   4   5
ENDBRANCH   3   4
ENDBRANCH   2   3
ENDBRANCH   1   2
BRANCH   1  13
ATOM     13  C   UNL     1      32.283  -1.789 -39.004  1.00  0.00     0.000 C 
BRANCH  13  14
ATOM     14  C   UNL     1      31.961  -3.075 -38.229  1.00  0.00     0.000 C 
BRANCH  14  15
ATOM     15  C   UNL     1      30.702  -3.749 -38.787  1.00  0.00     0.000 C 
BRANCH  15  16
ATOM     16  C   UNL     1      29.709  -2.708 -39.322  1.00  0.00     0.000 C 
BRANCH  16  17
ATOM     17  C   UNL     1      28.361  -2.813 -38.594  1.00  0.00     0.000 C 
BRANCH  17  18
ATOM     18  C   UNL     1      28.361  -3.872 -37.481  1.00  0.00     0.000 C 
BRANCH  18  19
ATOM     19  C   UNL     1      27.264  -3.628 -36.430  1.00  0.00     0.000 C 
BRANCH  19  20
ATOM     20  C   UNL     1      26.495  -4.912 -36.078  1.00  0.00     0.006 C 
BRANCH  20  21
ATOM     21  C   UNL     1      26.295  -5.080 -34.565  1.00  0.00     0.053 C 
BRANCH  21  22
ATOM     22  C   UNL     1      25.440  -3.977 -34.026  1.00  0.00     0.041 C 
ATOM     23  O   UNL     1      24.212  -3.930 -34.304  1.00  0.00    -0.550 OA
ATOM     24  O   UNL     1      25.991  -3.022 -33.181  1.00  0.00    -0.550 OA
ENDBRANCH  21  22
ENDBRANCH  20  21
ENDBRANCH  19  20
ENDBRANCH  18  19
ENDBRANCH  17  18
ENDBRANCH  16  17
ENDBRANCH  15  16
ENDBRANCH  14  15
ENDBRANCH  13  14
ENDBRANCH   1  13
TORSDOF 20
ENDMDL
MODEL 3
REMARK VINA RESULT:    -3.436      4.694      7.406
REMARK INTER + INTRA:         -10.632
REMARK INTER:                  -6.471
REMARK INTRA:                  -4.161
REMARK UNBOUND:                -3.180
REMARK SMILES CCCCCCCCCCCCCCCCCCCCCC(=O)[O-]
REMARK SMILES IDX 12 1 11 2 10 3 9 4 8 5 7 6 6 7 5 8 4 9 3 10 2 11 1 12 13 13
REMARK SMILES IDX 14 14 15 15 16 16 17 17 18 18 19 19 20 20 21 21 22 22 23 23
REMARK SMILES IDX 24 24
REMARK H PARENT
REMARK Flexibility Score: inf
ROOT
ATOM      1  C   UNL     1      31.073  -0.407 -35.025  1.00  0.00     0.000 C 
ENDROOT
BRANCH   1   2
ATOM      2  C   UNL     1      29.608  -0.813 -34.784  1.00  0.00     0.000 C 
BRANCH   2   3
ATOM      3  C   UNL     1      29.195  -2.066 -35.568  1.00  0.00     0.000 C 
BRANCH   3   4
ATOM      4  C   UNL     1      28.026  -1.756 -36.516  1.00  0.00    -0.000 C 
BRANCH   4   5
ATOM      5  C   UNL     1      27.781  -2.870 -37.547  1.00  0.00    -0.000 C 
BRANCH   5   6
ATOM      6  C   UNL     1      27.738  -4.295 -36.962  1.00  0.00    -0.000 C 
BRANCH   6   7
ATOM      7  C   UNL     1      26.355  -4.700 -36.407  1.00  0.00    -0.000 C 
BRANCH   7   8
ATOM      8  C   UNL     1      26.412  -5.078 -34.918  1.00  0.00    -0.000 C 
BRANCH   8   9
ATOM      9  C   UNL     1      25.381  -4.314 -34.071  1.00  0.00    -0.000 C 
BRANCH   9  10
ATOM     10  C   UNL     1      24.600  -3.249 -34.869  1.00  0.00    -0.000 C 
BRANCH  10  11
ATOM     11  C   UNL     1      24.756  -1.845 -34.267  1.00  0.00    -0.003 C 
ATOM     12  C   UNL     1      26.009  -1.751 -33.401  1.00  0.00     0.004 C 
ENDBRANCH  10  11
ENDBRANCH   9  10
ENDBRANCH   8   9
ENDBRANCH   7   8
ENDBRANCH   6   7
ENDBRANCH   5   6
ENDBRANCH   4   5
ENDBRANCH   3   4
ENDBRANCH   2   3
ENDBRANCH   1   2
BRANCH   1  13
ATOM     13  C   UNL     1      31.265   0.835 -35.913  1.00  0.00     0.000 C 
BRANCH  13  14
ATOM     14  C   UNL     1      29.950   1.574 -36.202  1.00  0.00     0.000 C 
BRANCH  14  15
ATOM     15  C   UNL     1      29.593   1.491 -37.691  1.00  0.00     0.000 C 
BRANCH  15  16
ATOM     16  C   UNL     1      30.683   0.754 -38.481  1.00  0.00     0.000 C 
BRANCH  16  17
ATOM     17  C   UNL     1      30.088  -0.419 -39.273  1.00  0.00     0.000 C 
BRANCH  17  18
ATOM     18  C   UNL     1      30.906  -1.713 -39.132  1.00  0.00     0.000 C 
BRANCH  18  19
ATOM     19  C   UNL     1      32.326  -1.461 -38.595  1.00  0.00     0.000 C 
BRANCH  19  20
ATOM     20  C   UNL     1      32.761  -2.521 -37.571  1.00  0.00     0.006 C 
BRANCH  20  21
ATOM     21  C   UNL     1      31.735  -3.652 -37.424  1.00  0.00     0.053 C 
BRANCH  21  22
ATOM     22  C   UNL     1      32.165  -4.613 -36.362  1.00  0.00     0.041 C 
ATOM     23  O   UNL     1      32.756  -5.681 -36.671  1.00  0.00    -0.550 OA
ATOM     24  O   UNL     1      31.948  -4.309 -35.023  1.00  0.00    -0.550 OA
ENDBRANCH  21  22
ENDBRANCH  20  21
ENDBRANCH  19  20
ENDBRANCH  18  19
ENDBRANCH  17  18
ENDBRANCH  16  17
ENDBRANCH  15  16
ENDBRANCH  14  15
ENDBRANCH  13  14
ENDBRANCH   1  13
TORSDOF 20
ENDMDL
MODEL 4
REMARK VINA RESULT:    -3.427      1.486      3.134
REMARK INTER + INTRA:         -10.614
REMARK INTER:                  -6.931
REMARK INTRA:                  -3.683
REMARK UNBOUND:                -3.180
REMARK SMILES CCCCCCCCCCCCCCCCCCCCCC(=O)[O-]
REMARK SMILES IDX 12 1 11 2 10 3 9 4 8 5 7 6 6 7 5 8 4 9 3 10 2 11 1 12 13 13
REMARK SMILES IDX 14 14 15 15 16 16 17 17 18 18 19 19 20 20 21 21 22 22 23 23
REMARK SMILES IDX 24 24
REMARK H PARENT
REMARK Flexibility Score: inf
ROOT
ATOM      1  C   UNL     1      29.717   3.298 -34.674  1.00  0.00     0.000 C 
ENDROOT
BRANCH   1   2
ATOM      2  C   UNL     1      29.968   2.093 -35.598  1.00  0.00     0.000 C 
BRANCH   2   3
ATOM      3  C   UNL     1      31.240   1.314 -35.236  1.00  0.00     0.000 C 
BRANCH   3   4
ATOM      4  C   UNL     1      30.903   0.091 -34.368  1.00  0.00    -0.000 C 
BRANCH   4   5
ATOM      5  C   UNL     1      31.868  -1.085 -34.591  1.00  0.00    -0.000 C 
BRANCH   5   6
ATOM      6  C   UNL     1      33.170  -0.721 -35.330  1.00  0.00    -0.000 C 
BRANCH   6   7
ATOM      7  C   UNL     1      33.260  -1.303 -36.758  1.00  0.00    -0.000 C 
BRANCH   7   8
ATOM      8  C   UNL     1      33.229  -0.207 -37.836  1.00  0.00    -0.000 C 
BRANCH   8   9
ATOM      9  C   UNL     1      31.876  -0.124 -38.561  1.00  0.00    -0.000 C 
BRANCH   9  10
ATOM     10  C   UNL     1      30.947  -1.320 -38.265  1.00  0.00    -0.000 C 
BRANCH  10  11
ATOM     11  C   UNL     1      29.542  -0.871 -37.837  1.00  0.00    -0.003 C 
ATOM     12  C   UNL     1      28.932  -1.845 -36.834  1.00  0.00     0.004 C 
ENDBRANCH  10  11
ENDBRANCH   9  10
ENDBRANCH   8   9
ENDBRANCH   7   8
ENDBRANCH   6   7
ENDBRANCH   5   6
ENDBRANCH   4   5
ENDBRANCH   3   4
ENDBRANCH   2   3
ENDBRANCH   1   2
BRANCH   1  13
ATOM     13  C   UNL     1      28.671   3.065 -33.571  1.00  0.00     0.000 C 
BRANCH  13  14
ATOM     14  C   UNL     1      29.293   2.931 -32.173  1.00  0.00     0.000 C 
BRANCH  14  15
ATOM     15  C   UNL     1      30.735   3.454 -32.164  1.00  0.00     0.000 C 
BRANCH  15  16
ATOM     16  C   UNL     1      31.700   2.404 -31.600  1.00  0.00     0.000 C 
BRANCH  16  17
ATOM     17  C   UNL     1      33.053   2.455 -32.326  1.00  0.00     0.000 C 
BRANCH  17  18
ATOM     18  C   UNL     1      33.168   3.644 -33.293  1.00  0.00     0.000 C 
BRANCH  18  19
ATOM     19  C   UNL     1      34.364   4.557 -32.970  1.00  0.00     0.000 C 
BRANCH  19  20
ATOM     20  C   UNL     1      34.609   4.689 -31.459  1.00  0.00     0.006 C 
BRANCH  20  21
ATOM     21  C   UNL     1      33.889   5.900 -30.851  1.00  0.00     0.053 C 
BRANCH  21  22
ATOM     22  C   UNL     1      34.636   7.159 -31.157  1.00  0.00     0.041 C 
ATOM     23  O   UNL     1      34.013   8.228 -31.391  1.00  0.00    -0.550 OA
ATOM     24  O   UNL     1      36.026   7.161 -31.144  1.00  0.00    -0.550 OA
ENDBRANCH  21  22
ENDBRANCH  20  21
ENDBRANCH  19  20
ENDBRANCH  18  19
ENDBRANCH  17  18
ENDBRANCH  16  17
ENDBRANCH  15  16
ENDBRANCH  14  15
ENDBRANCH  13  14
ENDBRANCH   1  13
TORSDOF 20
ENDMDL
MODEL 5
REMARK VINA RESULT:    -3.392      4.209      5.660
REMARK INTER + INTRA:         -10.539
REMARK INTER:                  -6.608
REMARK INTRA:                  -3.931
REMARK UNBOUND:                -3.180
REMARK SMILES CCCCCCCCCCCCCCCCCCCCCC(=O)[O-]
REMARK SMILES IDX 12 1 11 2 10 3 9 4 8 5 7 6 6 7 5 8 4 9 3 10 2 11 1 12 13 13
REMARK SMILES IDX 14 14 15 15 16 16 17 17 18 18 19 19 20 20 21 21 22 22 23 23
REMARK SMILES IDX 24 24
REMARK H PARENT
REMARK Flexibility Score: inf
ROOT
ATOM      1  C   UNL     1      31.413  -1.765 -39.027  1.00  0.00     0.000 C 
ENDROOT
BRANCH   1   2
ATOM      2  C   UNL     1      30.499  -0.528 -38.961  1.00  0.00     0.000 C 
BRANCH   2   3
ATOM      3  C   UNL     1      29.185  -0.711 -39.733  1.00  0.00     0.000 C 
BRANCH   3   4
ATOM      4  C   UNL     1      28.578  -2.096 -39.459  1.00  0.00    -0.000 C 
BRANCH   4   5
ATOM      5  C   UNL     1      27.851  -2.174 -38.107  1.00  0.00    -0.000 C 
BRANCH   5   6
ATOM      6  C   UNL     1      27.828  -3.574 -37.465  1.00  0.00    -0.000 C 
BRANCH   6   7
ATOM      7  C   UNL     1      29.226  -4.213 -37.312  1.00  0.00    -0.000 C 
BRANCH   7   8
ATOM      8  C   UNL     1      30.005  -3.631 -36.121  1.00  0.00    -0.000 C 
BRANCH   8   9
ATOM      9  C   UNL     1      31.457  -4.134 -36.058  1.00  0.00    -0.000 C 
BRANCH   9  10
ATOM     10  C   UNL     1      31.817  -5.111 -37.196  1.00  0.00    -0.000 C 
BRANCH  10  11
ATOM     11  C   UNL     1      33.312  -5.066 -37.546  1.00  0.00    -0.003 C 
ATOM     12  C   UNL     1      34.097  -4.264 -36.513  1.00  0.00     0.004 C 
ENDBRANCH  10  11
ENDBRANCH   9  10
ENDBRANCH   8   9
ENDBRANCH   7   8
ENDBRANCH   6   7
ENDBRANCH   5   6
ENDBRANCH   4   5
ENDBRANCH   3   4
ENDBRANCH   2   3
ENDBRANCH   1   2
BRANCH   1  13
ATOM     13  C   UNL     1      32.882  -1.507 -38.647  1.00  0.00     0.000 C 
BRANCH  13  14
ATOM     14  C   UNL     1      33.064  -0.262 -37.766  1.00  0.00     0.000 C 
BRANCH  14  15
ATOM     15  C   UNL     1      33.344  -0.659 -36.311  1.00  0.00     0.000 C 
BRANCH  15  16
ATOM     16  C   UNL     1      32.565   0.233 -35.336  1.00  0.00     0.000 C 
BRANCH  16  17
ATOM     17  C   UNL     1      31.307  -0.483 -34.823  1.00  0.00     0.000 C 
BRANCH  17  18
ATOM     18  C   UNL     1      30.013   0.049 -35.458  1.00  0.00     0.000 C 
BRANCH  18  19
ATOM     19  C   UNL     1      30.058   1.566 -35.712  1.00  0.00     0.000 C 
BRANCH  19  20
ATOM     20  C   UNL     1      28.656   2.194 -35.754  1.00  0.00     0.006 C 
BRANCH  20  21
ATOM     21  C   UNL     1      28.515   3.241 -36.868  1.00  0.00     0.053 C 
BRANCH  21  22
ATOM     22  C   UNL     1      28.162   2.581 -38.163  1.00  0.00     0.041 C 
ATOM     23  O   UNL     1      27.259   1.704 -38.205  1.00  0.00    -0.550 OA
ATOM     24  O   UNL     1      28.804   2.965 -39.334  1.00  0.00    -0.550 OA
ENDBRANCH  21  22
ENDBRANCH  20  21
ENDBRANCH  19  20
ENDBRANCH  18  19
ENDBRANCH  17  18
ENDBRANCH  16  17
ENDBRANCH  15  16
ENDBRANCH  14  15
ENDBRANCH  13  14
ENDBRANCH   1  13
TORSDOF 20
ENDMDL
MODEL 6
REMARK VINA RESULT:    -3.374      6.113      8.957
REMARK INTER + INTRA:         -10.499
REMARK INTER:                  -7.129
REMARK INTRA:                  -3.371
REMARK UNBOUND:                -3.180
REMARK SMILES CCCCCCCCCCCCCCCCCCCCCC(=O)[O-]
REMARK SMILES IDX 12 1 11 2 10 3 9 4 8 5 7 6 6 7 5 8 4 9 3 10 2 11 1 12 13 13
REMARK SMILES IDX 14 14 15 15 16 16 17 17 18 18 19 19 20 20 21 21 22 22 23 23
REMARK SMILES IDX 24 24
REMARK H PARENT
REMARK Flexibility Score: inf
ROOT
ATOM      1  C   UNL     1      28.470  -3.611 -36.642  1.00  0.00     0.000 C 
ENDROOT
BRANCH   1   2
ATOM      2  C   UNL     1      29.434  -3.761 -37.832  1.00  0.00     0.000 C 
BRANCH   2   3
ATOM      3  C   UNL     1      28.775  -3.445 -39.182  1.00  0.00     0.000 C 
BRANCH   3   4
ATOM      4  C   UNL     1      29.589  -2.395 -39.955  1.00  0.00    -0.000 C 
BRANCH   4   5
ATOM      5  C   UNL     1      28.857  -1.049 -40.085  1.00  0.00    -0.000 C 
BRANCH   5   6
ATOM      6  C   UNL     1      27.582  -0.920 -39.229  1.00  0.00    -0.000 C 
BRANCH   6   7
ATOM      7  C   UNL     1      27.616   0.261 -38.235  1.00  0.00    -0.000 C 
BRANCH   7   8
ATOM      8  C   UNL     1      29.051   0.688 -37.886  1.00  0.00    -0.000 C 
BRANCH   8   9
ATOM      9  C   UNL     1      29.587  -0.006 -36.623  1.00  0.00    -0.000 C 
BRANCH   9  10
ATOM     10  C   UNL     1      30.999  -0.602 -36.803  1.00  0.00    -0.000 C 
BRANCH  10  11
ATOM     11  C   UNL     1      31.755   0.044 -37.973  1.00  0.00    -0.003 C 
ATOM     12  C   UNL     1      32.759  -0.929 -38.585  1.00  0.00     0.004 C 
ENDBRANCH  10  11
ENDBRANCH   9  10
ENDBRANCH   8   9
ENDBRANCH   7   8
ENDBRANCH   6   7
ENDBRANCH   5   6
ENDBRANCH   4   5
ENDBRANCH   3   4
ENDBRANCH   2   3
ENDBRANCH   1   2
BRANCH   1  13
ATOM     13  C   UNL     1      27.165  -4.419 -36.757  1.00  0.00     0.000 C 
BRANCH  13  14
ATOM     14  C   UNL     1      25.907  -3.546 -36.640  1.00  0.00     0.000 C 
BRANCH  14  15
ATOM     15  C   UNL     1      26.193  -2.282 -35.820  1.00  0.00     0.000 C 
BRANCH  15  16
ATOM     16  C   UNL     1      25.305  -2.222 -34.570  1.00  0.00     0.000 C 
BRANCH  16  17
ATOM     17  C   UNL     1      24.010  -3.021 -34.779  1.00  0.00     0.000 C 
BRANCH  17  18
ATOM     18  C   UNL     1      23.744  -4.035 -33.655  1.00  0.00     0.000 C 
BRANCH  18  19
ATOM     19  C   UNL     1      24.998  -4.843 -33.278  1.00  0.00     0.000 C 
BRANCH  19  20
ATOM     20  C   UNL     1      25.315  -4.764 -31.776  1.00  0.00     0.006 C 
BRANCH  20  21
ATOM     21  C   UNL     1      24.286  -5.512 -30.918  1.00  0.00     0.053 C 
BRANCH  21  22
ATOM     22  C   UNL     1      23.787  -4.633 -29.816  1.00  0.00     0.041 C 
ATOM     23  O   UNL     1      23.907  -4.989 -28.614  1.00  0.00    -0.550 OA
ATOM     24  O   UNL     1      23.224  -3.398 -30.115  1.00  0.00    -0.550 OA
ENDBRANCH  21  22
ENDBRANCH  20  21
ENDBRANCH  19  20
ENDBRANCH  18  19
ENDBRANCH  17  18
ENDBRANCH  16  17
ENDBRANCH  15  16
ENDBRANCH  14  15
ENDBRANCH  13  14
ENDBRANCH   1  13
TORSDOF 20
ENDMDL
MODEL 7
REMARK VINA RESULT:    -3.374      4.929      8.091
REMARK INTER + INTRA:         -10.499
REMARK INTER:                  -6.871
REMARK INTRA:                  -3.628
REMARK UNBOUND:                -3.180
REMARK SMILES CCCCCCCCCCCCCCCCCCCCCC(=O)[O-]
REMARK SMILES IDX 12 1 11 2 10 3 9 4 8 5 7 6 6 7 5 8 4 9 3 10 2 11 1 12 13 13
REMARK SMILES IDX 14 14 15 15 16 16 17 17 18 18 19 19 20 20 21 21 22 22 23 23
REMARK SMILES IDX 24 24
REMARK H PARENT
REMARK Flexibility Score: inf
ROOT
ATOM      1  C   UNL     1      29.563  -0.094 -35.034  1.00  0.00     0.000 C 
ENDROOT
BRANCH   1   2
ATOM      2  C   UNL     1      30.907   0.123 -34.316  1.00  0.00     0.000 C 
BRANCH   2   3
ATOM      3  C   UNL     1      31.915   0.919 -35.157  1.00  0.00     0.000 C 
BRANCH   3   4
ATOM      4  C   UNL     1      33.316   0.292 -35.068  1.00  0.00    -0.000 C 
BRANCH   4   5
ATOM      5  C   UNL     1      33.616  -0.669 -36.230  1.00  0.00    -0.000 C 
BRANCH   5   6
ATOM      6  C   UNL     1      33.096  -0.203 -37.605  1.00  0.00    -0.000 C 
BRANCH   6   7
ATOM      7  C   UNL     1      32.543  -1.347 -38.482  1.00  0.00    -0.000 C 
BRANCH   7   8
ATOM      8  C   UNL     1      31.098  -1.086 -38.938  1.00  0.00    -0.000 C 
BRANCH   8   9
ATOM      9  C   UNL     1      30.571   0.285 -38.485  1.00  0.00    -0.000 C 
BRANCH   9  10
ATOM     10  C   UNL     1      29.596   0.930 -39.492  1.00  0.00    -0.000 C 
BRANCH  10  11
ATOM     11  C   UNL     1      28.213   1.187 -38.876  1.00  0.00    -0.003 C 
ATOM     12  C   UNL     1      27.619  -0.095 -38.299  1.00  0.00     0.004 C 
ENDBRANCH  10  11
ENDBRANCH   9  10
ENDBRANCH   8   9
ENDBRANCH   7   8
ENDBRANCH   6   7
ENDBRANCH   5   6
ENDBRANCH   4   5
ENDBRANCH   3   4
ENDBRANCH   2   3
ENDBRANCH   1   2
BRANCH   1  13
ATOM     13  C   UNL     1      29.175  -1.566 -35.255  1.00  0.00     0.000 C 
BRANCH  13  14
ATOM     14  C   UNL     1      30.392  -2.488 -35.423  1.00  0.00     0.000 C 
BRANCH  14  15
ATOM     15  C   UNL     1      30.005  -3.775 -36.163  1.00  0.00     0.000 C 
BRANCH  15  16
ATOM     16  C   UNL     1      28.975  -3.490 -37.264  1.00  0.00     0.000 C 
BRANCH  16  17
ATOM     17  C   UNL     1      27.737  -4.384 -37.100  1.00  0.00     0.000 C 
BRANCH  17  18
ATOM     18  C   UNL     1      26.434  -3.581 -36.960  1.00  0.00     0.000 C 
BRANCH  18  19
ATOM     19  C   UNL     1      25.765  -3.772 -35.587  1.00  0.00     0.000 C 
BRANCH  19  20
ATOM     20  C   UNL     1      26.412  -4.902 -34.772  1.00  0.00     0.006 C 
BRANCH  20  21
ATOM     21  C   UNL     1      26.890  -4.431 -33.392  1.00  0.00     0.053 C 
BRANCH  21  22
ATOM     22  C   UNL     1      25.850  -4.716 -32.355  1.00  0.00     0.041 C 
ATOM     23  O   UNL     1      26.053  -4.410 -31.150  1.00  0.00    -0.550 OA
ATOM     24  O   UNL     1      24.638  -5.285 -32.726  1.00  0.00    -0.550 OA
ENDBRANCH  21  22
ENDBRANCH  20  21
ENDBRANCH  19  20
ENDBRANCH  18  19
ENDBRANCH  17  18
ENDBRANCH  16  17
ENDBRANCH  15  16
ENDBRANCH  14  15
ENDBRANCH  13  14
ENDBRANCH   1  13
TORSDOF 20
ENDMDL
MODEL 8
REMARK VINA RESULT:    -3.370      5.390      7.370
REMARK INTER + INTRA:         -10.490
REMARK INTER:                  -6.862
REMARK INTRA:                  -3.628
REMARK UNBOUND:                -3.180
REMARK SMILES CCCCCCCCCCCCCCCCCCCCCC(=O)[O-]
REMARK SMILES IDX 12 1 11 2 10 3 9 4 8 5 7 6 6 7 5 8 4 9 3 10 2 11 1 12 13 13
REMARK SMILES IDX 14 14 15 15 16 16 17 17 18 18 19 19 20 20 21 21 22 22 23 23
REMARK SMILES IDX 24 24
REMARK H PARENT
REMARK Flexibility Score: inf
ROOT
ATOM      1  C   UNL     1      29.068  -3.631 -38.639  1.00  0.00     0.000 C 
ENDROOT
BRANCH   1   2
ATOM      2  C   UNL     1      30.126  -3.999 -37.584  1.00  0.00     0.000 C 
BRANCH   2   3
ATOM      3  C   UNL     1      29.660  -3.728 -36.147  1.00  0.00     0.000 C 
BRANCH   3   4
ATOM      4  C   UNL     1      29.642  -2.220 -35.854  1.00  0.00    -0.000 C 
BRANCH   4   5
ATOM      5  C   UNL     1      28.288  -1.732 -35.313  1.00  0.00    -0.000 C 
BRANCH   5   6
ATOM      6  C   UNL     1      27.135  -1.759 -36.335  1.00  0.00    -0.000 C 
BRANCH   6   7
ATOM      7  C   UNL     1      25.954  -2.663 -35.919  1.00  0.00    -0.000 C 
BRANCH   7   8
ATOM      8  C   UNL     1      26.101  -4.097 -36.454  1.00  0.00    -0.000 C 
BRANCH   8   9
ATOM      9  C   UNL     1      26.415  -5.116 -35.346  1.00  0.00    -0.000 C 
BRANCH   9  10
ATOM     10  C   UNL     1      26.199  -4.560 -33.923  1.00  0.00    -0.000 C 
BRANCH  10  11
ATOM     11  C   UNL     1      24.980  -5.191 -33.233  1.00  0.00    -0.003 C 
ATOM     12  C   UNL     1      23.868  -4.165 -33.032  1.00  0.00     0.004 C 
ENDBRANCH  10  11
ENDBRANCH   9  10
ENDBRANCH   8   9
ENDBRANCH   7   8
ENDBRANCH   6   7
ENDBRANCH   5   6
ENDBRANCH   4   5
ENDBRANCH   3   4
ENDBRANCH   2   3
ENDBRANCH   1   2
BRANCH   1  13
ATOM     13  C   UNL     1      29.584  -2.761 -39.799  1.00  0.00     0.000 C 
BRANCH  13  14
ATOM     14  C   UNL     1      30.736  -1.833 -39.386  1.00  0.00     0.000 C 
BRANCH  14  15
ATOM     15  C   UNL     1      30.209  -0.450 -38.988  1.00  0.00     0.000 C 
BRANCH  15  16
ATOM     16  C   UNL     1      31.222   0.296 -38.109  1.00  0.00     0.000 C 
BRANCH  16  17
ATOM     17  C   UNL     1      32.631  -0.294 -38.276  1.00  0.00     0.000 C 
BRANCH  17  18
ATOM     18  C   UNL     1      33.479  -0.188 -36.999  1.00  0.00     0.000 C 
BRANCH  18  19
ATOM     19  C   UNL     1      33.295  -1.396 -36.063  1.00  0.00     0.000 C 
BRANCH  19  20
ATOM     20  C   UNL     1      33.432  -2.736 -36.803  1.00  0.00     0.006 C 
BRANCH  20  21
ATOM     21  C   UNL     1      33.465  -3.934 -35.844  1.00  0.00     0.053 C 
BRANCH  21  22
ATOM     22  C   UNL     1      33.752  -5.196 -36.596  1.00  0.00     0.041 C 
ATOM     23  O   UNL     1      33.532  -5.263 -37.834  1.00  0.00    -0.550 OA
ATOM     24  O   UNL     1      34.301  -6.287 -35.934  1.00  0.00    -0.550 OA
ENDBRANCH  21  22
ENDBRANCH  20  21
ENDBRANCH  19  20
ENDBRANCH  18  19
ENDBRANCH  17  18
ENDBRANCH  16  17
ENDBRANCH  15  16
ENDBRANCH  14  15
ENDBRANCH  13  14
ENDBRANCH   1  13
TORSDOF 20
ENDMDL
MODEL 9
REMARK VINA RESULT:    -3.349      5.487      8.312
REMARK INTER + INTRA:         -10.444
REMARK INTER:                  -6.236
REMARK INTRA:                  -4.209
REMARK UNBOUND:                -3.180
REMARK SMILES CCCCCCCCCCCCCCCCCCCCCC(=O)[O-]
REMARK SMILES IDX 12 1 11 2 10 3 9 4 8 5 7 6 6 7 5 8 4 9 3 10 2 11 1 12 13 13
REMARK SMILES IDX 14 14 15 15 16 16 17 17 18 18 19 19 20 20 21 21 22 22 23 23
REMARK SMILES IDX 24 24
REMARK H PARENT
REMARK Flexibility Score: inf
ROOT
ATOM      1  C   UNL     1      32.260  -3.045 -36.034  1.00  0.00     0.000 C 
ENDROOT
BRANCH   1   2
ATOM      2  C   UNL     1      32.110  -1.535 -36.291  1.00  0.00     0.000 C 
BRANCH   2   3
ATOM      3  C   UNL     1      33.058  -1.015 -37.381  1.00  0.00     0.000 C 
BRANCH   3   4
ATOM      4  C   UNL     1      32.265  -0.456 -38.573  1.00  0.00    -0.000 C 
BRANCH   4   5
ATOM      5  C   UNL     1      30.991   0.291 -38.146  1.00  0.00    -0.000 C 
BRANCH   5   6
ATOM      6  C   UNL     1      30.413   1.245 -39.209  1.00  0.00    -0.000 C 
BRANCH   6   7
ATOM      7  C   UNL     1      29.073   0.768 -39.811  1.00  0.00    -0.000 C 
BRANCH   7   8
ATOM      8  C   UNL     1      27.863   1.459 -39.161  1.00  0.00    -0.000 C 
BRANCH   8   9
ATOM      9  C   UNL     1      27.116   0.546 -38.175  1.00  0.00    -0.000 C 
BRANCH   9  10
ATOM     10  C   UNL     1      27.258   0.988 -36.703  1.00  0.00    -0.000 C 
BRANCH  10  11
ATOM     11  C   UNL     1      27.489  -0.203 -35.761  1.00  0.00    -0.003 C 
ATOM     12  C   UNL     1      28.847  -0.107 -35.072  1.00  0.00     0.004 C 
ENDBRANCH  10  11
ENDBRANCH   9  10
ENDBRANCH   8   9
ENDBRANCH   7   8
ENDBRANCH   6   7
ENDBRANCH   5   6
ENDBRANCH   4   5
ENDBRANCH   3   4
ENDBRANCH   2   3
ENDBRANCH   1   2
BRANCH   1  13
ATOM     13  C   UNL     1      33.046  -3.812 -37.112  1.00  0.00     0.000 C 
BRANCH  13  14
ATOM     14  C   UNL     1      32.148  -4.677 -38.008  1.00  0.00     0.000 C 
BRANCH  14  15
ATOM     15  C   UNL     1      32.054  -4.087 -39.420  1.00  0.00     0.000 C 
BRANCH  15  16
ATOM     16  C   UNL     1      30.640  -4.248 -39.993  1.00  0.00     0.000 C 
BRANCH  16  17
ATOM     17  C   UNL     1      29.929  -2.890 -40.089  1.00  0.00     0.000 C 
BRANCH  17  18
ATOM     18  C   UNL     1      28.648  -2.825 -39.243  1.00  0.00     0.000 C 
BRANCH  18  19
ATOM     19  C   UNL     1      28.937  -2.770 -37.732  1.00  0.00     0.000 C 
BRANCH  19  20
ATOM     20  C   UNL     1      28.402  -4.004 -36.988  1.00  0.00     0.006 C 
BRANCH  20  21
ATOM     21  C   UNL     1      26.874  -3.991 -36.852  1.00  0.00     0.053 C 
BRANCH  21  22
ATOM     22  C   UNL     1      26.475  -4.190 -35.424  1.00  0.00     0.041 C 
ATOM     23  O   UNL     1      26.240  -3.197 -34.685  1.00  0.00    -0.550 OA
ATOM     24  O   UNL     1      26.323  -5.475 -34.919  1.00  0.00    -0.550 OA
ENDBRANCH  21  22
ENDBRANCH  20  21
ENDBRANCH  19  20
ENDBRANCH  18  19
ENDBRANCH  17  18
ENDBRANCH  16  17
ENDBRANCH  15  16
ENDBRANCH  14  15
ENDBRANCH  13  14
ENDBRANCH   1  13
TORSDOF 20
ENDMDL
