MODEL 1
REMARK VINA RESULT:    -7.281      0.000      0.000
REMARK INTER + INTRA:          -7.943
REMARK INTER:                  -7.920
REMARK INTRA:                  -0.023
REMARK UNBOUND:                -0.023
REMARK SMILES C[C@@H]1[C@H](C)CC[C@]2(C(=O)[O-])CC[C@]3(C)C(=CC[C@@H]4[C@]5(C)CC[C@H](O)C(C)(C)[C@H]5CC[C@]43C)[C@H]12
REMARK SMILES IDX 7 1 6 2 11 3 33 4 5 5 12 6 15 7 2 8 3 9 13 10 16 11 1 12
REMARK SMILES IDX 4 13 14 14 31 15 17 16 18 17 30 18 32 19 19 20 29 21 28 22
REMARK SMILES IDX 21 23 20 24 25 25 22 26 23 27 26 28 27 29 8 30 9 31 10 32
REMARK SMILES IDX 24 33
REMARK H PARENT 24 34
REMARK Flexibility Score: inf
ROOT
ATOM      1  C   UNL     1      69.689  47.201   8.042  1.00  0.00     0.017 C 
ATOM      2  C   UNL     1      69.713  48.362   9.088  1.00  0.00     0.014 C 
ATOM      3  C   UNL     1      69.049  45.937   8.695  1.00  0.00     0.014 C 
ATOM      4  C   UNL     1      71.152  46.938   7.471  1.00  0.00     0.030 C 
ATOM      5  C   UNL     1      70.444  49.628   8.582  1.00  0.00     0.004 C 
ATOM      6  C   UNL     1      70.042  44.953   9.332  1.00  0.00     0.013 C 
ATOM      7  C   UNL     1      71.524  45.453   7.308  1.00  0.00    -0.063 C 
ATOM      8  C   UNL     1      72.278  47.861   8.057  1.00  0.00    -0.003 C 
ATOM      9  C   UNL     1      71.811  49.341   7.899  1.00  0.00    -0.011 C 
ATOM     10  C   UNL     1      71.174  44.399   8.380  1.00  0.00    -0.006 C 
ATOM     11  C   UNL     1      72.111  45.088   6.134  1.00  0.00    -0.027 C 
ATOM     12  C   UNL     1      72.755  47.538   9.501  1.00  0.00     0.008 C 
ATOM     13  C   UNL     1      72.893  50.364   8.300  1.00  0.00     0.008 C 
ATOM     14  C   UNL     1      72.462  44.197   9.280  1.00  0.00     0.017 C 
ATOM     15  C   UNL     1      70.759  43.006   7.681  1.00  0.00    -0.020 C 
ATOM     16  C   UNL     1      72.055  43.696   5.564  1.00  0.00     0.032 C 
ATOM     17  C   UNL     1      71.884  42.611   6.634  1.00  0.00     0.006 C 
ATOM     18  C   UNL     1      70.592  41.874   8.780  1.00  0.00     0.008 C 
ATOM     19  C   UNL     1      69.408  43.190   6.920  1.00  0.00     0.012 C 
ATOM     20  C   UNL     1      71.893  41.110   6.058  1.00  0.00    -0.025 C 
ATOM     21  C   UNL     1      71.191  40.495   8.430  1.00  0.00     0.005 C 
ATOM     22  C   UNL     1      70.968  40.194   6.939  1.00  0.00     0.003 C 
ATOM     23  C   UNL     1      71.371  41.002   4.591  1.00  0.00     0.010 C 
ATOM     24  C   UNL     1      73.396  40.668   6.062  1.00  0.00     0.012 C 
ATOM     25  C   UNL     1      70.849  38.686   6.501  1.00  0.00    -0.006 C 
ATOM     26  C   UNL     1      71.270  39.548   4.085  1.00  0.00     0.033 C 
ATOM     27  C   UNL     1      70.421  38.645   4.993  1.00  0.00     0.120 C 
ATOM     28  C   UNL     1      72.145  37.863   6.730  1.00  0.00     0.014 C 
ATOM     29  C   UNL     1      69.725  37.984   7.327  1.00  0.00     0.014 C 
ENDROOT
BRANCH   1  30
ATOM     30  C   UNL     1      68.754  47.592   6.891  1.00  0.00     0.048 C 
ATOM     31  O   UNL     1      69.160  48.389   6.001  1.00  0.00    -0.550 OA
ATOM     32  O   UNL     1      67.499  46.995   6.734  1.00  0.00    -0.550 OA
ENDBRANCH   1  30
BRANCH  27  33
ATOM     33  O   UNL     1      69.072  39.042   4.846  1.00  0.00    -0.393 OA
ATOM     34  H   UNL     1      68.500  38.251   5.032  1.00  0.00     0.210 HD
ENDBRANCH  27  33
TORSDOF 2
ENDMDL
MODEL 2
REMARK VINA RESULT:    -7.026      2.320      3.782
REMARK INTER + INTRA:          -7.665
REMARK INTER:                  -7.382
REMARK INTRA:                  -0.284
REMARK UNBOUND:                -0.023
REMARK SMILES C[C@@H]1[C@H](C)CC[C@]2(C(=O)[O-])CC[C@]3(C)C(=CC[C@@H]4[C@]5(C)CC[C@H](O)C(C)(C)[C@H]5CC[C@]43C)[C@H]12
REMARK SMILES IDX 7 1 6 2 11 3 33 4 5 5 12 6 15 7 2 8 3 9 13 10 16 11 1 12
REMARK SMILES IDX 4 13 14 14 31 15 17 16 18 17 30 18 32 19 19 20 29 21 28 22
REMARK SMILES IDX 21 23 20 24 25 25 22 26 23 27 26 28 27 29 8 30 9 31 10 32
REMARK SMILES IDX 24 33
REMARK H PARENT 24 34
REMARK Flexibility Score: inf
ROOT
ATOM      1  C   UNL     1      73.174  46.861   7.834  1.00  0.00     0.017 C 
ATOM      2  C   UNL     1      73.558  48.339   7.501  1.00  0.00     0.014 C 
ATOM      3  C   UNL     1      74.375  45.930   7.481  1.00  0.00     0.014 C 
ATOM      4  C   UNL     1      71.827  46.455   7.088  1.00  0.00     0.030 C 
ATOM      5  C   UNL     1      72.390  49.334   7.696  1.00  0.00     0.004 C 
ATOM      6  C   UNL     1      74.338  45.315   6.074  1.00  0.00     0.013 C 
ATOM      7  C   UNL     1      71.827  45.042   6.479  1.00  0.00    -0.063 C 
ATOM      8  C   UNL     1      71.186  47.579   6.201  1.00  0.00    -0.003 C 
ATOM      9  C   UNL     1      71.042  48.859   7.083  1.00  0.00    -0.011 C 
ATOM     10  C   UNL     1      73.047  44.480   5.718  1.00  0.00    -0.006 C 
ATOM     11  C   UNL     1      70.728  44.270   6.706  1.00  0.00    -0.027 C 
ATOM     12  C   UNL     1      71.882  47.868   4.842  1.00  0.00     0.008 C 
ATOM     13  C   UNL     1      70.284  50.000   6.374  1.00  0.00     0.008 C 
ATOM     14  C   UNL     1      72.779  44.699   4.172  1.00  0.00     0.017 C 
ATOM     15  C   UNL     1      73.227  42.908   6.033  1.00  0.00    -0.020 C 
ATOM     16  C   UNL     1      70.739  42.765   6.686  1.00  0.00     0.032 C 
ATOM     17  C   UNL     1      71.838  42.180   5.790  1.00  0.00     0.006 C 
ATOM     18  C   UNL     1      74.354  42.292   5.102  1.00  0.00     0.008 C 
ATOM     19  C   UNL     1      73.636  42.723   7.529  1.00  0.00     0.012 C 
ATOM     20  C   UNL     1      71.827  40.575   5.696  1.00  0.00    -0.025 C 
ATOM     21  C   UNL     1      74.044  40.912   4.484  1.00  0.00     0.005 C 
ATOM     22  C   UNL     1      73.293  40.041   5.504  1.00  0.00     0.003 C 
ATOM     23  C   UNL     1      71.255  39.880   6.971  1.00  0.00     0.010 C 
ATOM     24  C   UNL     1      70.875  40.233   4.500  1.00  0.00     0.012 C 
ATOM     25  C   UNL     1      73.466  38.479   5.409  1.00  0.00    -0.006 C 
ATOM     26  C   UNL     1      71.357  38.341   6.923  1.00  0.00     0.033 C 
ATOM     27  C   UNL     1      72.784  37.832   6.665  1.00  0.00     0.120 C 
ATOM     28  C   UNL     1      72.904  37.865   4.098  1.00  0.00     0.014 C 
ATOM     29  C   UNL     1      74.982  38.112   5.458  1.00  0.00     0.014 C 
ENDROOT
BRANCH   1  30
ATOM     30  C   UNL     1      72.979  46.731   9.350  1.00  0.00     0.048 C 
ATOM     31  O   UNL     1      73.945  46.970  10.125  1.00  0.00    -0.550 OA
ATOM     32  O   UNL     1      71.723  46.468   9.905  1.00  0.00    -0.550 OA
ENDBRANCH   1  30
BRANCH  27  33
ATOM     33  O   UNL     1      73.542  38.084   7.830  1.00  0.00    -0.393 OA
ATOM     34  H   UNL     1      73.271  37.423   8.520  1.00  0.00     0.210 HD
ENDBRANCH  27  33
TORSDOF 2
ENDMDL
MODEL 3
REMARK VINA RESULT:    -6.905      1.732      8.032
REMARK INTER + INTRA:          -7.533
REMARK INTER:                  -7.253
REMARK INTRA:                  -0.280
REMARK UNBOUND:                -0.023
REMARK SMILES C[C@@H]1[C@H](C)CC[C@]2(C(=O)[O-])CC[C@]3(C)C(=CC[C@@H]4[C@]5(C)CC[C@H](O)C(C)(C)[C@H]5CC[C@]43C)[C@H]12
REMARK SMILES IDX 7 1 6 2 11 3 33 4 5 5 12 6 15 7 2 8 3 9 13 10 16 11 1 12
REMARK SMILES IDX 4 13 14 14 31 15 17 16 18 17 30 18 32 19 19 20 29 21 28 22
REMARK SMILES IDX 21 23 20 24 25 25 22 26 23 27 26 28 27 29 8 30 9 31 10 32
REMARK SMILES IDX 24 33
REMARK H PARENT 24 34
REMARK Flexibility Score: inf
ROOT
ATOM      1  C   UNL     1      71.656  40.888   5.746  1.00  0.00     0.017 C 
ATOM      2  C   UNL     1      72.137  39.790   4.743  1.00  0.00     0.014 C 
ATOM      3  C   UNL     1      71.109  42.109   4.943  1.00  0.00     0.014 C 
ATOM      4  C   UNL     1      72.828  41.275   6.751  1.00  0.00     0.030 C 
ATOM      5  C   UNL     1      72.816  38.584   5.434  1.00  0.00     0.004 C 
ATOM      6  C   UNL     1      72.129  43.223   4.666  1.00  0.00     0.013 C 
ATOM      7  C   UNL     1      72.956  42.780   7.045  1.00  0.00    -0.063 C 
ATOM      8  C   UNL     1      74.179  40.506   6.536  1.00  0.00    -0.003 C 
ATOM      9  C   UNL     1      73.860  38.978   6.517  1.00  0.00    -0.011 C 
ATOM     10  C   UNL     1      72.837  43.844   5.933  1.00  0.00    -0.006 C 
ATOM     11  C   UNL     1      73.103  43.145   8.350  1.00  0.00    -0.027 C 
ATOM     12  C   UNL     1      75.040  40.949   5.320  1.00  0.00     0.008 C 
ATOM     13  C   UNL     1      75.124  38.097   6.462  1.00  0.00     0.008 C 
ATOM     14  C   UNL     1      74.308  44.225   5.487  1.00  0.00     0.017 C 
ATOM     15  C   UNL     1      72.067  45.148   6.487  1.00  0.00    -0.020 C 
ATOM     16  C   UNL     1      72.712  44.493   8.894  1.00  0.00     0.032 C 
ATOM     17  C   UNL     1      72.758  45.607   7.840  1.00  0.00     0.006 C 
ATOM     18  C   UNL     1      72.121  46.311   5.408  1.00  0.00     0.008 C 
ATOM     19  C   UNL     1      70.577  44.786   6.782  1.00  0.00     0.012 C 
ATOM     20  C   UNL     1      72.414  47.069   8.412  1.00  0.00    -0.025 C 
ATOM     21  C   UNL     1      72.417  47.726   5.949  1.00  0.00     0.005 C 
ATOM     22  C   UNL     1      71.709  47.926   7.299  1.00  0.00     0.003 C 
ATOM     23  C   UNL     1      71.453  47.048   9.642  1.00  0.00     0.010 C 
ATOM     24  C   UNL     1      73.782  47.666   8.888  1.00  0.00     0.012 C 
ATOM     25  C   UNL     1      71.286  49.389   7.699  1.00  0.00    -0.006 C 
ATOM     26  C   UNL     1      71.032  48.456  10.112  1.00  0.00     0.033 C 
ATOM     27  C   UNL     1      70.408  49.309   8.996  1.00  0.00     0.120 C 
ATOM     28  C   UNL     1      72.485  50.355   7.902  1.00  0.00     0.014 C 
ATOM     29  C   UNL     1      70.402  50.010   6.572  1.00  0.00     0.014 C 
ENDROOT
BRANCH   1  30
ATOM     30  C   UNL     1      70.460  40.343   6.538  1.00  0.00     0.048 C 
ATOM     31  O   UNL     1      70.470  40.402   7.798  1.00  0.00    -0.550 OA
ATOM     32  O   UNL     1      69.304  39.889   5.896  1.00  0.00    -0.550 OA
ENDBRANCH   1  30
BRANCH  27  33
ATOM     33  O   UNL     1      69.137  48.766   8.706  1.00  0.00    -0.393 OA
ATOM     34  H   UNL     1      69.125  48.516   7.744  1.00  0.00     0.210 HD
ENDBRANCH  27  33
TORSDOF 2
ENDMDL
MODEL 4
REMARK VINA RESULT:    -6.774      2.435      8.213
REMARK INTER + INTRA:          -7.391
REMARK INTER:                  -7.126
REMARK INTRA:                  -0.265
REMARK UNBOUND:                -0.023
REMARK SMILES C[C@@H]1[C@H](C)CC[C@]2(C(=O)[O-])CC[C@]3(C)C(=CC[C@@H]4[C@]5(C)CC[C@H](O)C(C)(C)[C@H]5CC[C@]43C)[C@H]12
REMARK SMILES IDX 7 1 6 2 11 3 33 4 5 5 12 6 15 7 2 8 3 9 13 10 16 11 1 12
REMARK SMILES IDX 4 13 14 14 31 15 17 16 18 17 30 18 32 19 19 20 29 21 28 22
REMARK SMILES IDX 21 23 20 24 25 25 22 26 23 27 26 28 27 29 8 30 9 31 10 32
REMARK SMILES IDX 24 33
REMARK H PARENT 24 34
REMARK Flexibility Score: inf
ROOT
ATOM      1  C   UNL     1      72.851  39.840   7.247  1.00  0.00     0.017 C 
ATOM      2  C   UNL     1      72.246  38.447   6.875  1.00  0.00     0.014 C 
ATOM      3  C   UNL     1      71.839  40.610   8.152  1.00  0.00     0.014 C 
ATOM      4  C   UNL     1      73.250  40.642   5.932  1.00  0.00     0.030 C 
ATOM      5  C   UNL     1      73.115  37.650   5.874  1.00  0.00     0.004 C 
ATOM      6  C   UNL     1      70.879  41.551   7.410  1.00  0.00     0.013 C 
ATOM      7  C   UNL     1      72.901  42.141   5.958  1.00  0.00    -0.063 C 
ATOM      8  C   UNL     1      72.962  39.900   4.579  1.00  0.00    -0.003 C 
ATOM      9  C   UNL     1      73.617  38.486   4.663  1.00  0.00    -0.011 C 
ATOM     10  C   UNL     1      71.554  42.657   6.508  1.00  0.00    -0.006 C 
ATOM     11  C   UNL     1      73.867  43.009   5.546  1.00  0.00    -0.027 C 
ATOM     12  C   UNL     1      71.477  39.843   4.125  1.00  0.00     0.008 C 
ATOM     13  C   UNL     1      73.538  37.703   3.336  1.00  0.00     0.008 C 
ATOM     14  C   UNL     1      70.593  42.877   5.268  1.00  0.00     0.017 C 
ATOM     15  C   UNL     1      71.768  44.046   7.299  1.00  0.00    -0.020 C 
ATOM     16  C   UNL     1      73.947  44.447   5.984  1.00  0.00     0.032 C 
ATOM     17  C   UNL     1      72.585  45.038   6.368  1.00  0.00     0.006 C 
ATOM     18  C   UNL     1      70.364  44.672   7.690  1.00  0.00     0.008 C 
ATOM     19  C   UNL     1      72.594  43.782   8.598  1.00  0.00     0.012 C 
ATOM     20  C   UNL     1      72.633  46.594   6.771  1.00  0.00    -0.025 C 
ATOM     21  C   UNL     1      70.217  46.195   7.480  1.00  0.00     0.005 C 
ATOM     22  C   UNL     1      71.532  46.900   7.850  1.00  0.00     0.003 C 
ATOM     23  C   UNL     1      73.999  47.039   7.380  1.00  0.00     0.010 C 
ATOM     24  C   UNL     1      72.430  47.380   5.431  1.00  0.00     0.012 C 
ATOM     25  C   UNL     1      71.451  48.384   8.372  1.00  0.00    -0.006 C 
ATOM     26  C   UNL     1      74.000  48.501   7.874  1.00  0.00     0.033 C 
ATOM     27  C   UNL     1      72.876  48.806   8.876  1.00  0.00     0.120 C 
ATOM     28  C   UNL     1      70.918  49.391   7.317  1.00  0.00     0.014 C 
ATOM     29  C   UNL     1      70.480  48.462   9.592  1.00  0.00     0.014 C 
ENDROOT
BRANCH   1  30
ATOM     30  C   UNL     1      74.098  39.621   8.112  1.00  0.00     0.048 C 
ATOM     31  O   UNL     1      75.125  40.327   7.914  1.00  0.00    -0.550 OA
ATOM     32  O   UNL     1      74.090  38.739   9.197  1.00  0.00    -0.550 OA
ENDBRANCH   1  30
BRANCH  27  33
ATOM     33  O   UNL     1      73.193  48.146  10.084  1.00  0.00    -0.393 OA
ATOM     34  H   UNL     1      72.846  48.700  10.834  1.00  0.00     0.210 HD
ENDBRANCH  27  33
TORSDOF 2
ENDMDL
MODEL 5
REMARK VINA RESULT:    -6.553      1.225      1.533
REMARK INTER + INTRA:          -7.151
REMARK INTER:                  -6.880
REMARK INTRA:                  -0.271
REMARK UNBOUND:                -0.023
REMARK SMILES C[C@@H]1[C@H](C)CC[C@]2(C(=O)[O-])CC[C@]3(C)C(=CC[C@@H]4[C@]5(C)CC[C@H](O)C(C)(C)[C@H]5CC[C@]43C)[C@H]12
REMARK SMILES IDX 7 1 6 2 11 3 33 4 5 5 12 6 15 7 2 8 3 9 13 10 16 11 1 12
REMARK SMILES IDX 4 13 14 14 31 15 17 16 18 17 30 18 32 19 19 20 29 21 28 22
REMARK SMILES IDX 21 23 20 24 25 25 22 26 23 27 26 28 27 29 8 30 9 31 10 32
REMARK SMILES IDX 24 33
REMARK H PARENT 24 34
REMARK Flexibility Score: inf
ROOT
ATOM      1  C   UNL     1      68.150  46.061   8.779  1.00  0.00     0.017 C 
ATOM      2  C   UNL     1      67.990  47.122   9.916  1.00  0.00     0.014 C 
ATOM      3  C   UNL     1      67.834  44.646   9.353  1.00  0.00     0.014 C 
ATOM      4  C   UNL     1      69.599  46.163   8.125  1.00  0.00     0.030 C 
ATOM      5  C   UNL     1      68.403  48.550   9.484  1.00  0.00     0.004 C 
ATOM      6  C   UNL     1      69.051  43.857   9.862  1.00  0.00     0.013 C 
ATOM      7  C   UNL     1      70.267  44.809   7.823  1.00  0.00    -0.063 C 
ATOM      8  C   UNL     1      70.536  47.263   8.735  1.00  0.00    -0.003 C 
ATOM      9  C   UNL     1      69.756  48.615   8.720  1.00  0.00    -0.011 C 
ATOM     10  C   UNL     1      70.214  43.631   8.819  1.00  0.00    -0.006 C 
ATOM     11  C   UNL     1      70.846  44.664   6.598  1.00  0.00    -0.027 C 
ATOM     12  C   UNL     1      71.157  46.949  10.125  1.00  0.00     0.008 C 
ATOM     13  C   UNL     1      70.619  49.817   9.157  1.00  0.00     0.008 C 
ATOM     14  C   UNL     1      71.567  43.649   9.642  1.00  0.00     0.017 C 
ATOM     15  C   UNL     1      70.063  42.234   8.026  1.00  0.00    -0.020 C 
ATOM     16  C   UNL     1      71.052  43.337   5.918  1.00  0.00     0.032 C 
ATOM     17  C   UNL     1      71.181  42.167   6.902  1.00  0.00     0.006 C 
ATOM     18  C   UNL     1      70.208  41.018   9.034  1.00  0.00     0.008 C 
ATOM     19  C   UNL     1      68.660  42.175   7.343  1.00  0.00     0.012 C 
ATOM     20  C   UNL     1      71.474  40.749   6.204  1.00  0.00    -0.025 C 
ATOM     21  C   UNL     1      71.064  39.830   8.545  1.00  0.00     0.005 C 
ATOM     22  C   UNL     1      70.820  39.595   7.046  1.00  0.00     0.003 C 
ATOM     23  C   UNL     1      70.899  40.636   4.757  1.00  0.00     0.010 C 
ATOM     24  C   UNL     1      73.034  40.645   6.105  1.00  0.00     0.012 C 
ATOM     25  C   UNL     1      70.997  38.131   6.491  1.00  0.00    -0.006 C 
ATOM     26  C   UNL     1      71.079  39.234   4.138  1.00  0.00     0.033 C 
ATOM     27  C   UNL     1      70.497  38.106   5.004  1.00  0.00     0.120 C 
ATOM     28  C   UNL     1      72.451  37.595   6.593  1.00  0.00     0.014 C 
ATOM     29  C   UNL     1      70.101  37.146   7.304  1.00  0.00     0.014 C 
ENDROOT
BRANCH   1  30
ATOM     30  C   UNL     1      67.085  46.321   7.706  1.00  0.00     0.048 C 
ATOM     31  O   UNL     1      67.425  46.821   6.599  1.00  0.00    -0.550 OA
ATOM     32  O   UNL     1      65.760  45.909   7.877  1.00  0.00    -0.550 OA
ENDBRANCH   1  30
BRANCH  27  33
ATOM     33  O   UNL     1      69.089  38.211   4.950  1.00  0.00    -0.393 OA
ATOM     34  H   UNL     1      68.761  38.389   5.871  1.00  0.00     0.210 HD
ENDBRANCH  27  33
TORSDOF 2
ENDMDL
MODEL 6
REMARK VINA RESULT:    -6.486      1.366      8.001
REMARK INTER + INTRA:          -7.078
REMARK INTER:                  -6.820
REMARK INTRA:                  -0.258
REMARK UNBOUND:                -0.023
REMARK SMILES C[C@@H]1[C@H](C)CC[C@]2(C(=O)[O-])CC[C@]3(C)C(=CC[C@@H]4[C@]5(C)CC[C@H](O)C(C)(C)[C@H]5CC[C@]43C)[C@H]12
REMARK SMILES IDX 7 1 6 2 11 3 33 4 5 5 12 6 15 7 2 8 3 9 13 10 16 11 1 12
REMARK SMILES IDX 4 13 14 14 31 15 17 16 18 17 30 18 32 19 19 20 29 21 28 22
REMARK SMILES IDX 21 23 20 24 25 25 22 26 23 27 26 28 27 29 8 30 9 31 10 32
REMARK SMILES IDX 24 33
REMARK H PARENT 24 34
REMARK Flexibility Score: inf
ROOT
ATOM      1  C   UNL     1      71.429  40.051   6.416  1.00  0.00     0.017 C 
ATOM      2  C   UNL     1      71.904  38.629   6.860  1.00  0.00     0.014 C 
ATOM      3  C   UNL     1      72.578  41.075   6.670  1.00  0.00     0.014 C 
ATOM      4  C   UNL     1      70.071  40.437   7.152  1.00  0.00     0.030 C 
ATOM      5  C   UNL     1      70.794  37.556   6.767  1.00  0.00     0.004 C 
ATOM      6  C   UNL     1      72.525  41.799   8.024  1.00  0.00     0.013 C 
ATOM      7  C   UNL     1      69.996  41.893   7.646  1.00  0.00    -0.063 C 
ATOM      8  C   UNL     1      69.510  39.354   8.139  1.00  0.00    -0.003 C 
ATOM      9  C   UNL     1      69.429  38.001   7.366  1.00  0.00    -0.011 C 
ATOM     10  C   UNL     1      71.191  42.585   8.336  1.00  0.00    -0.006 C 
ATOM     11  C   UNL     1      68.850  42.580   7.378  1.00  0.00    -0.027 C 
ATOM     12  C   UNL     1      70.241  39.218   9.504  1.00  0.00     0.008 C 
ATOM     13  C   UNL     1      68.750  36.879   8.178  1.00  0.00     0.008 C 
ATOM     14  C   UNL     1      70.959  42.477   9.899  1.00  0.00     0.017 C 
ATOM     15  C   UNL     1      71.274  44.133   7.892  1.00  0.00    -0.020 C 
ATOM     16  C   UNL     1      68.773  44.080   7.277  1.00  0.00     0.032 C 
ATOM     17  C   UNL     1      69.849  44.797   8.102  1.00  0.00     0.006 C 
ATOM     18  C   UNL     1      72.376  44.888   8.749  1.00  0.00     0.008 C 
ATOM     19  C   UNL     1      71.650  44.220   6.379  1.00  0.00     0.012 C 
ATOM     20  C   UNL     1      69.744  46.401   8.067  1.00  0.00    -0.025 C 
ATOM     21  C   UNL     1      71.994  46.293   9.260  1.00  0.00     0.005 C 
ATOM     22  C   UNL     1      71.178  47.033   8.187  1.00  0.00     0.003 C 
ATOM     23  C   UNL     1      69.114  46.957   6.751  1.00  0.00     0.010 C 
ATOM     24  C   UNL     1      68.790  46.785   9.249  1.00  0.00     0.012 C 
ATOM     25  C   UNL     1      71.260  48.605   8.153  1.00  0.00    -0.006 C 
ATOM     26  C   UNL     1      69.125  48.498   6.673  1.00  0.00     0.033 C 
ATOM     27  C   UNL     1      70.523  49.107   6.863  1.00  0.00     0.120 C 
ATOM     28  C   UNL     1      70.681  49.290   9.421  1.00  0.00     0.014 C 
ATOM     29  C   UNL     1      72.751  49.054   8.046  1.00  0.00     0.014 C 
ENDROOT
BRANCH   1  30
ATOM     30  C   UNL     1      71.205  40.046   4.898  1.00  0.00     0.048 C 
ATOM     31  O   UNL     1      72.199  40.063   4.122  1.00  0.00    -0.550 OA
ATOM     32  O   UNL     1      69.927  39.903   4.349  1.00  0.00    -0.550 OA
ENDBRANCH   1  30
BRANCH  27  33
ATOM     33  O   UNL     1      71.279  48.805   5.708  1.00  0.00    -0.393 OA
ATOM     34  H   UNL     1      71.378  47.818   5.658  1.00  0.00     0.210 HD
ENDBRANCH  27  33
TORSDOF 2
ENDMDL
MODEL 7
REMARK VINA RESULT:    -6.409      1.679      2.295
REMARK INTER + INTRA:          -6.994
REMARK INTER:                  -6.843
REMARK INTRA:                  -0.151
REMARK UNBOUND:                -0.023
REMARK SMILES C[C@@H]1[C@H](C)CC[C@]2(C(=O)[O-])CC[C@]3(C)C(=CC[C@@H]4[C@]5(C)CC[C@H](O)C(C)(C)[C@H]5CC[C@]43C)[C@H]12
REMARK SMILES IDX 7 1 6 2 11 3 33 4 5 5 12 6 15 7 2 8 3 9 13 10 16 11 1 12
REMARK SMILES IDX 4 13 14 14 31 15 17 16 18 17 30 18 32 19 19 20 29 21 28 22
REMARK SMILES IDX 21 23 20 24 25 25 22 26 23 27 26 28 27 29 8 30 9 31 10 32
REMARK SMILES IDX 24 33
REMARK H PARENT 24 34
REMARK Flexibility Score: inf
ROOT
ATOM      1  C   UNL     1      71.239  46.644   9.242  1.00  0.00     0.017 C 
ATOM      2  C   UNL     1      71.622  47.876  10.125  1.00  0.00     0.014 C 
ATOM      3  C   UNL     1      71.702  45.338   9.959  1.00  0.00     0.014 C 
ATOM      4  C   UNL     1      71.841  46.802   7.777  1.00  0.00     0.030 C 
ATOM      5  C   UNL     1      71.319  49.233   9.447  1.00  0.00     0.004 C 
ATOM      6  C   UNL     1      73.094  44.826   9.556  1.00  0.00     0.013 C 
ATOM      7  C   UNL     1      72.435  45.513   7.181  1.00  0.00    -0.063 C 
ATOM      8  C   UNL     1      72.670  48.111   7.528  1.00  0.00    -0.003 C 
ATOM      9  C   UNL     1      71.789  49.322   7.968  1.00  0.00    -0.011 C 
ATOM     10  C   UNL     1      73.310  44.554   8.016  1.00  0.00    -0.006 C 
ATOM     11  C   UNL     1      72.091  45.208   5.899  1.00  0.00    -0.027 C 
ATOM     12  C   UNL     1      74.095  48.155   8.147  1.00  0.00     0.008 C 
ATOM     13  C   UNL     1      72.427  50.687   7.636  1.00  0.00     0.008 C 
ATOM     14  C   UNL     1      74.823  44.905   7.704  1.00  0.00     0.017 C 
ATOM     15  C   UNL     1      73.000  43.022   7.615  1.00  0.00    -0.020 C 
ATOM     16  C   UNL     1      72.099  43.812   5.335  1.00  0.00     0.032 C 
ATOM     17  C   UNL     1      73.096  42.882   6.038  1.00  0.00     0.006 C 
ATOM     18  C   UNL     1      74.035  42.053   8.328  1.00  0.00     0.008 C 
ATOM     19  C   UNL     1      71.552  42.651   8.066  1.00  0.00     0.012 C 
ATOM     20  C   UNL     1      73.174  41.405   5.408  1.00  0.00    -0.025 C 
ATOM     21  C   UNL     1      74.606  40.913   7.458  1.00  0.00     0.005 C 
ATOM     22  C   UNL     1      73.508  40.362   6.535  1.00  0.00     0.003 C 
ATOM     23  C   UNL     1      71.842  40.940   4.741  1.00  0.00     0.010 C 
ATOM     24  C   UNL     1      74.265  41.485   4.287  1.00  0.00     0.012 C 
ATOM     25  C   UNL     1      73.606  38.854   6.091  1.00  0.00    -0.006 C 
ATOM     26  C   UNL     1      71.886  39.480   4.245  1.00  0.00     0.033 C 
ATOM     27  C   UNL     1      72.282  38.476   5.339  1.00  0.00     0.120 C 
ATOM     28  C   UNL     1      74.848  38.538   5.214  1.00  0.00     0.014 C 
ATOM     29  C   UNL     1      73.707  37.938   7.351  1.00  0.00     0.014 C 
ENDROOT
BRANCH   1  30
ATOM     30  C   UNL     1      69.710  46.552   9.160  1.00  0.00     0.048 C 
ATOM     31  O   UNL     1      69.099  47.149   8.232  1.00  0.00    -0.550 OA
ATOM     32  O   UNL     1      68.980  45.724  10.019  1.00  0.00    -0.550 OA
ENDBRANCH   1  30
BRANCH  27  33
ATOM     33  O   UNL     1      71.202  38.387   6.246  1.00  0.00    -0.393 OA
ATOM     34  H   UNL     1      70.831  37.467   6.188  1.00  0.00     0.210 HD
ENDBRANCH  27  33
TORSDOF 2
ENDMDL
MODEL 8
REMARK VINA RESULT:    -6.114      1.857      7.992
REMARK INTER + INTRA:          -6.673
REMARK INTER:                  -6.391
REMARK INTRA:                  -0.282
REMARK UNBOUND:                -0.023
REMARK SMILES C[C@@H]1[C@H](C)CC[C@]2(C(=O)[O-])CC[C@]3(C)C(=CC[C@@H]4[C@]5(C)CC[C@H](O)C(C)(C)[C@H]5CC[C@]43C)[C@H]12
REMARK SMILES IDX 7 1 6 2 11 3 33 4 5 5 12 6 15 7 2 8 3 9 13 10 16 11 1 12
REMARK SMILES IDX 4 13 14 14 31 15 17 16 18 17 30 18 32 19 19 20 29 21 28 22
REMARK SMILES IDX 21 23 20 24 25 25 22 26 23 27 26 28 27 29 8 30 9 31 10 32
REMARK SMILES IDX 24 33
REMARK H PARENT 24 34
REMARK Flexibility Score: inf
ROOT
ATOM      1  C   UNL     1      73.974  41.267   6.142  1.00  0.00     0.017 C 
ATOM      2  C   UNL     1      75.036  40.160   6.446  1.00  0.00     0.014 C 
ATOM      3  C   UNL     1      74.671  42.663   6.166  1.00  0.00     0.014 C 
ATOM      4  C   UNL     1      72.753  41.159   7.158  1.00  0.00     0.030 C 
ATOM      5  C   UNL     1      74.425  38.744   6.570  1.00  0.00     0.004 C 
ATOM      6  C   UNL     1      74.623  43.397   7.515  1.00  0.00     0.013 C 
ATOM      7  C   UNL     1      72.231  42.507   7.685  1.00  0.00    -0.063 C 
ATOM      8  C   UNL     1      72.862  40.009   8.219  1.00  0.00    -0.003 C 
ATOM      9  C   UNL     1      73.148  38.679   7.453  1.00  0.00    -0.011 C 
ATOM     10  C   UNL     1      73.185  43.640   8.120  1.00  0.00    -0.006 C 
ATOM     11  C   UNL     1      70.881  42.693   7.681  1.00  0.00    -0.027 C 
ATOM     12  C   UNL     1      73.852  40.244   9.394  1.00  0.00     0.008 C 
ATOM     13  C   UNL     1      73.129  37.438   8.368  1.00  0.00     0.008 C 
ATOM     14  C   UNL     1      73.336  43.551   9.694  1.00  0.00     0.017 C 
ATOM     15  C   UNL     1      72.579  45.075   7.699  1.00  0.00    -0.020 C 
ATOM     16  C   UNL     1      70.219  44.044   7.629  1.00  0.00     0.032 C 
ATOM     17  C   UNL     1      71.083  45.164   8.221  1.00  0.00     0.006 C 
ATOM     18  C   UNL     1      73.459  46.240   8.318  1.00  0.00     0.008 C 
ATOM     19  C   UNL     1      72.576  45.201   6.143  1.00  0.00     0.012 C 
ATOM     20  C   UNL     1      70.370  46.605   8.242  1.00  0.00    -0.025 C 
ATOM     21  C   UNL     1      72.683  47.428   8.927  1.00  0.00     0.005 C 
ATOM     22  C   UNL     1      71.446  47.736   8.067  1.00  0.00     0.003 C 
ATOM     23  C   UNL     1      69.321  46.798   7.102  1.00  0.00     0.010 C 
ATOM     24  C   UNL     1      69.605  46.674   9.608  1.00  0.00     0.012 C 
ATOM     25  C   UNL     1      70.913  49.218   8.048  1.00  0.00    -0.006 C 
ATOM     26  C   UNL     1      68.727  48.221   7.054  1.00  0.00     0.033 C 
ATOM     27  C   UNL     1      69.794  49.323   6.955  1.00  0.00     0.120 C 
ATOM     28  C   UNL     1      70.389  49.713   9.424  1.00  0.00     0.014 C 
ATOM     29  C   UNL     1      72.064  50.188   7.636  1.00  0.00     0.014 C 
ENDROOT
BRANCH   1  30
ATOM     30  C   UNL     1      73.465  41.083   4.707  1.00  0.00     0.048 C 
ATOM     31  O   UNL     1      74.288  41.053   3.752  1.00  0.00    -0.550 OA
ATOM     32  O   UNL     1      72.116  40.828   4.437  1.00  0.00    -0.550 OA
ENDBRANCH   1  30
BRANCH  27  33
ATOM     33  O   UNL     1      70.355  49.257   5.659  1.00  0.00    -0.393 OA
ATOM     34  H   UNL     1      69.608  49.258   5.003  1.00  0.00     0.210 HD
ENDBRANCH  27  33
TORSDOF 2
ENDMDL
MODEL 9
REMARK VINA RESULT:    -6.093      3.928      7.562
REMARK INTER + INTRA:          -6.650
REMARK INTER:                  -6.761
REMARK INTRA:                   0.111
REMARK UNBOUND:                -0.023
REMARK SMILES C[C@@H]1[C@H](C)CC[C@]2(C(=O)[O-])CC[C@]3(C)C(=CC[C@@H]4[C@]5(C)CC[C@H](O)C(C)(C)[C@H]5CC[C@]43C)[C@H]12
REMARK SMILES IDX 7 1 6 2 11 3 33 4 5 5 12 6 15 7 2 8 3 9 13 10 16 11 1 12
REMARK SMILES IDX 4 13 14 14 31 15 17 16 18 17 30 18 32 19 19 20 29 21 28 22
REMARK SMILES IDX 21 23 20 24 25 25 22 26 23 27 26 28 27 29 8 30 9 31 10 32
REMARK SMILES IDX 24 33
REMARK H PARENT 24 34
REMARK Flexibility Score: inf
ROOT
ATOM      1  C   UNL     1      65.895  43.448   8.646  1.00  0.00     0.017 C 
ATOM      2  C   UNL     1      64.764  42.920   9.588  1.00  0.00     0.014 C 
ATOM      3  C   UNL     1      67.255  43.411   9.411  1.00  0.00     0.014 C 
ATOM      4  C   UNL     1      65.527  44.894   8.093  1.00  0.00     0.030 C 
ATOM      5  C   UNL     1      63.351  43.032   8.970  1.00  0.00     0.004 C 
ATOM      6  C   UNL     1      67.642  44.716  10.125  1.00  0.00     0.013 C 
ATOM      7  C   UNL     1      66.700  45.890   8.057  1.00  0.00    -0.063 C 
ATOM      8  C   UNL     1      64.157  45.475   8.590  1.00  0.00    -0.003 C 
ATOM      9  C   UNL     1      63.056  44.406   8.306  1.00  0.00    -0.011 C 
ATOM     10  C   UNL     1      67.710  46.006   9.218  1.00  0.00    -0.006 C 
ATOM     11  C   UNL     1      66.861  46.617   6.915  1.00  0.00    -0.027 C 
ATOM     12  C   UNL     1      64.118  45.997  10.053  1.00  0.00     0.008 C 
ATOM     13  C   UNL     1      61.630  44.911   8.611  1.00  0.00     0.008 C 
ATOM     14  C   UNL     1      67.247  47.220  10.125  1.00  0.00     0.017 C 
ATOM     15  C   UNL     1      69.194  46.274   8.645  1.00  0.00    -0.020 C 
ATOM     16  C   UNL     1      68.174  47.202   6.469  1.00  0.00     0.032 C 
ATOM     17  C   UNL     1      69.132  47.493   7.631  1.00  0.00     0.006 C 
ATOM     18  C   UNL     1      70.190  46.589   9.839  1.00  0.00     0.008 C 
ATOM     19  C   UNL     1      69.691  45.008   7.879  1.00  0.00     0.012 C 
ATOM     20  C   UNL     1      70.514  48.184   7.187  1.00  0.00    -0.025 C 
ATOM     21  C   UNL     1      71.184  47.748   9.607  1.00  0.00     0.005 C 
ATOM     22  C   UNL     1      71.671  47.731   8.149  1.00  0.00     0.003 C 
ATOM     23  C   UNL     1      70.960  47.813   5.738  1.00  0.00     0.010 C 
ATOM     24  C   UNL     1      70.241  49.726   7.220  1.00  0.00     0.012 C 
ATOM     25  C   UNL     1      73.105  48.306   7.845  1.00  0.00    -0.006 C 
ATOM     26  C   UNL     1      72.343  48.383   5.361  1.00  0.00     0.033 C 
ATOM     27  C   UNL     1      73.453  47.991   6.348  1.00  0.00     0.120 C 
ATOM     28  C   UNL     1      73.246  49.824   8.136  1.00  0.00     0.014 C 
ATOM     29  C   UNL     1      74.164  47.582   8.735  1.00  0.00     0.014 C 
ENDROOT
BRANCH   1  30
ATOM     30  C   UNL     1      66.054  42.475   7.471  1.00  0.00     0.048 C 
ATOM     31  O   UNL     1      65.124  42.360   6.627  1.00  0.00    -0.550 OA
ATOM     32  O   UNL     1      67.255  41.796   7.242  1.00  0.00    -0.550 OA
ENDBRANCH   1  30
BRANCH  27  33
ATOM     33  O   UNL     1      73.709  46.612   6.176  1.00  0.00    -0.393 OA
ATOM     34  H   UNL     1      72.834  46.143   6.127  1.00  0.00     0.210 HD
ENDBRANCH  27  33
TORSDOF 2
ENDMDL
