MODEL 1
REMARK VINA RESULT:    -4.780      0.000      0.000
REMARK INTER + INTRA:          -8.457
REMARK INTER:                  -7.575
REMARK INTRA:                  -0.883
REMARK UNBOUND:                -0.883
REMARK SMILES CCCCCCCCCCCC(=O)[O-]
REMARK SMILES IDX 7 1 8 2 9 3 10 4 11 5 12 6 13 7 14 8 6 9 5 10 4 11 3 12 2 13
REMARK SMILES IDX 1 14
REMARK H PARENT
REMARK Flexibility Score: inf
ROOT
ATOM      1  C   UNL     1      11.406  12.424   3.640  1.00  0.00     0.000 C 
ENDROOT
BRANCH   1   2
ATOM      2  C   UNL     1      12.755  11.870   4.122  1.00  0.00     0.000 C 
BRANCH   2   3
ATOM      3  C   UNL     1      13.277  12.668   5.326  1.00  0.00     0.000 C 
BRANCH   3   4
ATOM      4  C   UNL     1      14.787  12.957   5.243  1.00  0.00     0.006 C 
BRANCH   4   5
ATOM      5  C   UNL     1      15.179  13.966   4.153  1.00  0.00     0.053 C 
BRANCH   5   6
ATOM      6  C   UNL     1      16.277  13.447   3.275  1.00  0.00     0.041 C 
ATOM      7  O   UNL     1      16.001  12.809   2.225  1.00  0.00    -0.550 OA
ATOM      8  O   UNL     1      17.605  13.639   3.634  1.00  0.00    -0.550 OA
ENDBRANCH   5   6
ENDBRANCH   4   5
ENDBRANCH   3   4
ENDBRANCH   2   3
ENDBRANCH   1   2
BRANCH   1   9
ATOM      9  C   UNL     1      10.287  11.370   3.662  1.00  0.00     0.000 C 
BRANCH   9  10
ATOM     10  C   UNL     1      10.499  10.306   4.753  1.00  0.00    -0.000 C 
BRANCH  10  11
ATOM     11  C   UNL     1       9.448  10.392   5.871  1.00  0.00    -0.000 C 
BRANCH  11  12
ATOM     12  C   UNL     1       9.731  11.531   6.866  1.00  0.00    -0.000 C 
BRANCH  12  13
ATOM     13  C   UNL     1       8.701  12.666   6.769  1.00  0.00    -0.003 C 
ATOM     14  C   UNL     1       7.264  12.154   6.689  1.00  0.00     0.004 C 
ENDBRANCH  12  13
ENDBRANCH  11  12
ENDBRANCH  10  11
ENDBRANCH   9  10
ENDBRANCH   1   9
TORSDOF 10
ENDMDL
MODEL 2
REMARK VINA RESULT:    -4.722      1.601      2.283
REMARK INTER + INTRA:          -8.365
REMARK INTER:                  -7.441
REMARK INTRA:                  -0.924
REMARK UNBOUND:                -0.883
REMARK SMILES CCCCCCCCCCCC(=O)[O-]
REMARK SMILES IDX 7 1 8 2 9 3 10 4 11 5 12 6 13 7 14 8 6 9 5 10 4 11 3 12 2 13
REMARK SMILES IDX 1 14
REMARK H PARENT
REMARK Flexibility Score: inf
ROOT
ATOM      1  C   UNL     1      12.495  13.006   4.312  1.00  0.00     0.000 C 
ENDROOT
BRANCH   1   2
ATOM      2  C   UNL     1      12.491  12.496   2.862  1.00  0.00     0.000 C 
BRANCH   2   3
ATOM      3  C   UNL     1      13.134  13.523   1.918  1.00  0.00     0.000 C 
BRANCH   3   4
ATOM      4  C   UNL     1      14.403  14.165   2.510  1.00  0.00     0.006 C 
BRANCH   4   5
ATOM      5  C   UNL     1      15.656  13.280   2.430  1.00  0.00     0.053 C 
BRANCH   5   6
ATOM      6  C   UNL     1      16.455  13.321   3.698  1.00  0.00     0.041 C 
ATOM      7  O   UNL     1      17.707  13.441   3.655  1.00  0.00    -0.550 OA
ATOM      8  O   UNL     1      15.818  13.191   4.925  1.00  0.00    -0.550 OA
ENDBRANCH   5   6
ENDBRANCH   4   5
ENDBRANCH   3   4
ENDBRANCH   2   3
ENDBRANCH   1   2
BRANCH   1   9
ATOM      9  C   UNL     1      11.758  12.063   5.277  1.00  0.00     0.000 C 
BRANCH   9  10
ATOM     10  C   UNL     1      11.279  10.772   4.591  1.00  0.00    -0.000 C 
BRANCH  10  11
ATOM     11  C   UNL     1       9.971  10.236   5.193  1.00  0.00    -0.000 C 
BRANCH  11  12
ATOM     12  C   UNL     1       8.822  11.258   5.124  1.00  0.00    -0.000 C 
BRANCH  12  13
ATOM     13  C   UNL     1       8.656  11.863   3.722  1.00  0.00    -0.003 C 
ATOM     14  C   UNL     1       8.728  13.389   3.725  1.00  0.00     0.004 C 
ENDBRANCH  12  13
ENDBRANCH  11  12
ENDBRANCH  10  11
ENDBRANCH   9  10
ENDBRANCH   1   9
TORSDOF 10
ENDMDL
MODEL 3
REMARK VINA RESULT:    -4.595      1.403      1.991
REMARK INTER + INTRA:          -8.164
REMARK INTER:                  -7.417
REMARK INTRA:                  -0.747
REMARK UNBOUND:                -0.883
REMARK SMILES CCCCCCCCCCCC(=O)[O-]
REMARK SMILES IDX 7 1 8 2 9 3 10 4 11 5 12 6 13 7 14 8 6 9 5 10 4 11 3 12 2 13
REMARK SMILES IDX 1 14
REMARK H PARENT
REMARK Flexibility Score: inf
ROOT
ATOM      1  C   UNL     1      12.399  11.482   4.151  1.00  0.00     0.000 C 
ENDROOT
BRANCH   1   2
ATOM      2  C   UNL     1      12.880  12.903   3.820  1.00  0.00     0.000 C 
BRANCH   2   3
ATOM      3  C   UNL     1      13.047  13.085   2.303  1.00  0.00     0.000 C 
BRANCH   3   4
ATOM      4  C   UNL     1      14.381  13.756   1.926  1.00  0.00     0.006 C 
BRANCH   4   5
ATOM      5  C   UNL     1      15.624  13.064   2.505  1.00  0.00     0.053 C 
BRANCH   5   6
ATOM      6  C   UNL     1      16.526  14.029   3.213  1.00  0.00     0.041 C 
ATOM      7  O   UNL     1      17.610  13.632   3.715  1.00  0.00    -0.550 OA
ATOM      8  O   UNL     1      16.153  15.360   3.347  1.00  0.00    -0.550 OA
ENDBRANCH   5   6
ENDBRANCH   4   5
ENDBRANCH   3   4
ENDBRANCH   2   3
ENDBRANCH   1   2
BRANCH   1   9
ATOM      9  C   UNL     1      10.900  11.282   3.875  1.00  0.00     0.000 C 
BRANCH   9  10
ATOM     10  C   UNL     1      10.251  10.275   4.841  1.00  0.00    -0.000 C 
BRANCH  10  11
ATOM     11  C   UNL     1       9.121  10.902   5.673  1.00  0.00    -0.000 C 
BRANCH  11  12
ATOM     12  C   UNL     1       9.478  11.021   7.165  1.00  0.00    -0.000 C 
BRANCH  12  13
ATOM     13  C   UNL     1       9.571  12.481   7.633  1.00  0.00    -0.003 C 
ATOM     14  C   UNL     1      10.743  13.231   7.001  1.00  0.00     0.004 C 
ENDBRANCH  12  13
ENDBRANCH  11  12
ENDBRANCH  10  11
ENDBRANCH   9  10
ENDBRANCH   1   9
TORSDOF 10
ENDMDL
MODEL 4
REMARK VINA RESULT:    -4.590      3.931      7.002
REMARK INTER + INTRA:          -8.157
REMARK INTER:                  -7.461
REMARK INTRA:                  -0.695
REMARK UNBOUND:                -0.883
REMARK SMILES CCCCCCCCCCCC(=O)[O-]
REMARK SMILES IDX 7 1 8 2 9 3 10 4 11 5 12 6 13 7 14 8 6 9 5 10 4 11 3 12 2 13
REMARK SMILES IDX 1 14
REMARK H PARENT
REMARK Flexibility Score: inf
ROOT
ATOM      1  C   UNL     1      12.257  11.957   3.254  1.00  0.00     0.000 C 
ENDROOT
BRANCH   1   2
ATOM      2  C   UNL     1      11.451  11.799   4.553  1.00  0.00     0.000 C 
BRANCH   2   3
ATOM      3  C   UNL     1      10.727  10.445   4.587  1.00  0.00     0.000 C 
BRANCH   3   4
ATOM      4  C   UNL     1       9.601  10.397   5.636  1.00  0.00     0.006 C 
BRANCH   4   5
ATOM      5  C   UNL     1       8.396  11.294   5.313  1.00  0.00     0.053 C 
BRANCH   5   6
ATOM      6  C   UNL     1       7.854  11.971   6.536  1.00  0.00     0.041 C 
ATOM      7  O   UNL     1       8.638  12.377   7.434  1.00  0.00    -0.550 OA
ATOM      8  O   UNL     1       6.484  12.123   6.697  1.00  0.00    -0.550 OA
ENDBRANCH   5   6
ENDBRANCH   4   5
ENDBRANCH   3   4
ENDBRANCH   2   3
ENDBRANCH   1   2
BRANCH   1   9
ATOM      9  C   UNL     1      12.396  13.423   2.813  1.00  0.00     0.000 C 
BRANCH   9  10
ATOM     10  C   UNL     1      13.276  13.582   1.561  1.00  0.00    -0.000 C 
BRANCH  10  11
ATOM     11  C   UNL     1      14.659  14.168   1.885  1.00  0.00    -0.000 C 
BRANCH  11  12
ATOM     12  C   UNL     1      15.603  13.141   2.534  1.00  0.00    -0.000 C 
BRANCH  12  13
ATOM     13  C   UNL     1      16.104  13.592   3.915  1.00  0.00    -0.003 C 
ATOM     14  C   UNL     1      15.280  13.008   5.061  1.00  0.00     0.004 C 
ENDBRANCH  12  13
ENDBRANCH  11  12
ENDBRANCH  10  11
ENDBRANCH   9  10
ENDBRANCH   1   9
TORSDOF 10
ENDMDL
MODEL 5
REMARK VINA RESULT:    -4.575      3.873      5.954
REMARK INTER + INTRA:          -8.133
REMARK INTER:                  -6.745
REMARK INTRA:                  -1.388
REMARK UNBOUND:                -0.883
REMARK SMILES CCCCCCCCCCCC(=O)[O-]
REMARK SMILES IDX 7 1 8 2 9 3 10 4 11 5 12 6 13 7 14 8 6 9 5 10 4 11 3 12 2 13
REMARK SMILES IDX 1 14
REMARK H PARENT
REMARK Flexibility Score: inf
ROOT
ATOM      1  C   UNL     1      10.520  11.633   3.683  1.00  0.00     0.000 C 
ENDROOT
BRANCH   1   2
ATOM      2  C   UNL     1      10.561  10.475   4.692  1.00  0.00     0.000 C 
BRANCH   2   3
ATOM      3  C   UNL     1       9.330  10.504   5.610  1.00  0.00     0.000 C 
BRANCH   3   4
ATOM      4  C   UNL     1       9.603  11.206   6.953  1.00  0.00     0.006 C 
BRANCH   4   5
ATOM      5  C   UNL     1       8.849  12.532   7.139  1.00  0.00     0.053 C 
BRANCH   5   6
ATOM      6  C   UNL     1       7.601  12.591   6.311  1.00  0.00     0.041 C 
ATOM      7  O   UNL     1       6.528  12.094   6.745  1.00  0.00    -0.550 OA
ATOM      8  O   UNL     1       7.632  13.164   5.046  1.00  0.00    -0.550 OA
ENDBRANCH   5   6
ENDBRANCH   4   5
ENDBRANCH   3   4
ENDBRANCH   2   3
ENDBRANCH   1   2
BRANCH   1   9
ATOM      9  C   UNL     1      11.918  12.163   3.327  1.00  0.00     0.000 C 
BRANCH   9  10
ATOM     10  C   UNL     1      12.980  11.774   4.369  1.00  0.00    -0.000 C 
BRANCH  10  11
ATOM     11  C   UNL     1      13.478  12.980   5.181  1.00  0.00    -0.000 C 
BRANCH  11  12
ATOM     12  C   UNL     1      12.507  13.383   6.304  1.00  0.00    -0.000 C 
BRANCH  12  13
ATOM     13  C   UNL     1      12.084  14.857   6.216  1.00  0.00    -0.003 C 
ATOM     14  C   UNL     1      10.805  15.057   5.405  1.00  0.00     0.004 C 
ENDBRANCH  12  13
ENDBRANCH  11  12
ENDBRANCH  10  11
ENDBRANCH   9  10
ENDBRANCH   1   9
TORSDOF 10
ENDMDL
MODEL 6
REMARK VINA RESULT:    -4.525      1.381      2.529
REMARK INTER + INTRA:          -8.053
REMARK INTER:                  -6.884
REMARK INTRA:                  -1.169
REMARK UNBOUND:                -0.883
REMARK SMILES CCCCCCCCCCCC(=O)[O-]
REMARK SMILES IDX 7 1 8 2 9 3 10 4 11 5 12 6 13 7 14 8 6 9 5 10 4 11 3 12 2 13
REMARK SMILES IDX 1 14
REMARK H PARENT
REMARK Flexibility Score: inf
ROOT
ATOM      1  C   UNL     1      13.073  12.835   5.431  1.00  0.00     0.000 C 
ENDROOT
BRANCH   1   2
ATOM      2  C   UNL     1      13.259  12.160   4.064  1.00  0.00     0.000 C 
BRANCH   2   3
ATOM      3  C   UNL     1      12.973  13.147   2.922  1.00  0.00     0.000 C 
BRANCH   3   4
ATOM      4  C   UNL     1      14.212  13.431   2.053  1.00  0.00     0.006 C 
BRANCH   4   5
ATOM      5  C   UNL     1      15.544  13.005   2.692  1.00  0.00     0.053 C 
BRANCH   5   6
ATOM      6  C   UNL     1      16.305  14.175   3.238  1.00  0.00     0.041 C 
ATOM      7  O   UNL     1      15.691  15.191   3.657  1.00  0.00    -0.550 OA
ATOM      8  O   UNL     1      17.694  14.155   3.252  1.00  0.00    -0.550 OA
ENDBRANCH   5   6
ENDBRANCH   4   5
ENDBRANCH   3   4
ENDBRANCH   2   3
ENDBRANCH   1   2
BRANCH   1   9
ATOM      9  C   UNL     1      11.744  13.599   5.542  1.00  0.00     0.000 C 
BRANCH   9  10
ATOM     10  C   UNL     1      10.888  13.126   6.730  1.00  0.00    -0.000 C 
BRANCH  10  11
ATOM     11  C   UNL     1       9.729  12.216   6.295  1.00  0.00    -0.000 C 
BRANCH  11  12
ATOM     12  C   UNL     1      10.165  10.754   6.093  1.00  0.00    -0.000 C 
BRANCH  12  13
ATOM     13  C   UNL     1      10.067  10.308   4.626  1.00  0.00    -0.003 C 
ATOM     14  C   UNL     1       9.536  11.409   3.709  1.00  0.00     0.004 C 
ENDBRANCH  12  13
ENDBRANCH  11  12
ENDBRANCH  10  11
ENDBRANCH   9  10
ENDBRANCH   1   9
TORSDOF 10
ENDMDL
MODEL 7
REMARK VINA RESULT:    -4.517      4.526      6.282
REMARK INTER + INTRA:          -8.040
REMARK INTER:                  -6.563
REMARK INTRA:                  -1.477
REMARK UNBOUND:                -0.883
REMARK SMILES CCCCCCCCCCCC(=O)[O-]
REMARK SMILES IDX 7 1 8 2 9 3 10 4 11 5 12 6 13 7 14 8 6 9 5 10 4 11 3 12 2 13
REMARK SMILES IDX 1 14
REMARK H PARENT
REMARK Flexibility Score: inf
ROOT
ATOM      1  C   UNL     1      12.455  13.571   6.640  1.00  0.00     0.000 C 
ENDROOT
BRANCH   1   2
ATOM      2  C   UNL     1      10.989  13.375   7.057  1.00  0.00     0.000 C 
BRANCH   2   3
ATOM      3  C   UNL     1      10.066  14.322   6.275  1.00  0.00     0.000 C 
BRANCH   3   4
ATOM      4  C   UNL     1       8.622  14.325   6.810  1.00  0.00     0.006 C 
BRANCH   4   5
ATOM      5  C   UNL     1       8.355  13.293   7.917  1.00  0.00     0.053 C 
BRANCH   5   6
ATOM      6  C   UNL     1       7.192  12.406   7.591  1.00  0.00     0.041 C 
ATOM      7  O   UNL     1       6.432  12.687   6.627  1.00  0.00    -0.550 OA
ATOM      8  O   UNL     1       6.931  11.287   8.371  1.00  0.00    -0.550 OA
ENDBRANCH   5   6
ENDBRANCH   4   5
ENDBRANCH   3   4
ENDBRANCH   2   3
ENDBRANCH   1   2
BRANCH   1   9
ATOM      9  C   UNL     1      12.663  13.450   5.121  1.00  0.00     0.000 C 
BRANCH   9  10
ATOM     10  C   UNL     1      12.744  11.988   4.651  1.00  0.00    -0.000 C 
BRANCH  10  11
ATOM     11  C   UNL     1      11.525  11.571   3.812  1.00  0.00    -0.000 C 
BRANCH  11  12
ATOM     12  C   UNL     1      10.677  10.484   4.495  1.00  0.00    -0.000 C 
BRANCH  12  13
ATOM     13  C   UNL     1       9.277  10.985   4.879  1.00  0.00    -0.003 C 
ATOM     14  C   UNL     1       8.677  11.922   3.831  1.00  0.00     0.004 C 
ENDBRANCH  12  13
ENDBRANCH  11  12
ENDBRANCH  10  11
ENDBRANCH   9  10
ENDBRANCH   1   9
TORSDOF 10
ENDMDL
MODEL 8
REMARK VINA RESULT:    -4.516      3.799      4.782
REMARK INTER + INTRA:          -8.038
REMARK INTER:                  -6.751
REMARK INTRA:                  -1.287
REMARK UNBOUND:                -0.883
REMARK SMILES CCCCCCCCCCCC(=O)[O-]
REMARK SMILES IDX 7 1 8 2 9 3 10 4 11 5 12 6 13 7 14 8 6 9 5 10 4 11 3 12 2 13
REMARK SMILES IDX 1 14
REMARK H PARENT
REMARK Flexibility Score: inf
ROOT
ATOM      1  C   UNL     1      12.940  11.922   4.696  1.00  0.00     0.000 C 
ENDROOT
BRANCH   1   2
ATOM      2  C   UNL     1      13.314  13.227   5.416  1.00  0.00     0.000 C 
BRANCH   2   3
ATOM      3  C   UNL     1      12.328  13.526   6.554  1.00  0.00     0.000 C 
BRANCH   3   4
ATOM      4  C   UNL     1      11.354  14.670   6.216  1.00  0.00     0.006 C 
BRANCH   4   5
ATOM      5  C   UNL     1       9.902  14.416   6.652  1.00  0.00     0.053 C 
BRANCH   5   6
ATOM      6  C   UNL     1       9.121  15.689   6.777  1.00  0.00     0.041 C 
ATOM      7  O   UNL     1       7.906  15.721   6.450  1.00  0.00    -0.550 OA
ATOM      8  O   UNL     1       9.745  16.846   7.224  1.00  0.00    -0.550 OA
ENDBRANCH   5   6
ENDBRANCH   4   5
ENDBRANCH   3   4
ENDBRANCH   2   3
ENDBRANCH   1   2
BRANCH   1   9
ATOM      9  C   UNL     1      12.009  12.151   3.494  1.00  0.00     0.000 C 
BRANCH   9  10
ATOM     10  C   UNL     1      10.581  11.635   3.746  1.00  0.00    -0.000 C 
BRANCH  10  11
ATOM     11  C   UNL     1      10.542  10.487   4.766  1.00  0.00    -0.000 C 
BRANCH  11  12
ATOM     12  C   UNL     1       9.530  10.733   5.899  1.00  0.00    -0.000 C 
BRANCH  12  13
ATOM     13  C   UNL     1       8.253  11.430   5.406  1.00  0.00    -0.003 C 
ATOM     14  C   UNL     1       7.342  11.872   6.550  1.00  0.00     0.004 C 
ENDBRANCH  12  13
ENDBRANCH  11  12
ENDBRANCH  10  11
ENDBRANCH   9  10
ENDBRANCH   1   9
TORSDOF 10
ENDMDL
MODEL 9
REMARK VINA RESULT:    -4.489      3.881      6.913
REMARK INTER + INTRA:          -7.995
REMARK INTER:                  -7.257
REMARK INTRA:                  -0.739
REMARK UNBOUND:                -0.883
REMARK SMILES CCCCCCCCCCCC(=O)[O-]
REMARK SMILES IDX 7 1 8 2 9 3 10 4 11 5 12 6 13 7 14 8 6 9 5 10 4 11 3 12 2 13
REMARK SMILES IDX 1 14
REMARK H PARENT
REMARK Flexibility Score: inf
ROOT
ATOM      1  C   UNL     1      12.109  12.452   5.094  1.00  0.00     0.000 C 
ENDROOT
BRANCH   1   2
ATOM      2  C   UNL     1      11.079  11.816   4.148  1.00  0.00     0.000 C 
BRANCH   2   3
ATOM      3  C   UNL     1      10.655  10.428   4.653  1.00  0.00     0.000 C 
BRANCH   3   4
ATOM      4  C   UNL     1       9.421  10.478   5.573  1.00  0.00     0.006 C 
BRANCH   4   5
ATOM      5  C   UNL     1       8.276  11.360   5.049  1.00  0.00     0.053 C 
BRANCH   5   6
ATOM      6  C   UNL     1       7.736  12.269   6.110  1.00  0.00     0.041 C 
ATOM      7  O   UNL     1       6.579  12.087   6.572  1.00  0.00    -0.550 OA
ATOM      8  O   UNL     1       8.498  13.337   6.565  1.00  0.00    -0.550 OA
ENDBRANCH   5   6
ENDBRANCH   4   5
ENDBRANCH   3   4
ENDBRANCH   2   3
ENDBRANCH   1   2
BRANCH   1   9
ATOM      9  C   UNL     1      13.557  12.260   4.614  1.00  0.00     0.000 C 
BRANCH   9  10
ATOM     10  C   UNL     1      14.414  13.523   4.800  1.00  0.00    -0.000 C 
BRANCH  10  11
ATOM     11  C   UNL     1      15.691  13.499   3.946  1.00  0.00    -0.000 C 
BRANCH  11  12
ATOM     12  C   UNL     1      15.416  13.144   2.474  1.00  0.00    -0.000 C 
BRANCH  12  13
ATOM     13  C   UNL     1      14.607  14.230   1.749  1.00  0.00    -0.003 C 
ATOM     14  C   UNL     1      13.380  13.670   1.030  1.00  0.00     0.004 C 
ENDBRANCH  12  13
ENDBRANCH  11  12
ENDBRANCH  10  11
ENDBRANCH   9  10
ENDBRANCH   1   9
TORSDOF 10
ENDMDL
