MODEL 1
REMARK VINA RESULT:    -4.601      0.000      0.000
REMARK INTER + INTRA:          -8.848
REMARK INTER:                  -7.828
REMARK INTRA:                  -1.020
REMARK UNBOUND:                -1.020
REMARK SMILES CCCCCCCCCCCCCC(=O)[O-]
REMARK SMILES IDX 8 1 9 2 10 3 11 4 12 5 13 6 14 7 15 8 16 9 7 10 6 11 5 12
REMARK SMILES IDX 4 13 3 14 2 15 1 16
REMARK H PARENT
REMARK Flexibility Score: inf
ROOT
ATOM      1  C   UNL     1      17.462  20.933 -12.734  1.00  0.00     0.000 C 
ENDROOT
BRANCH   1   2
ATOM      2  C   UNL     1      17.990  19.976 -13.817  1.00  0.00     0.000 C 
BRANCH   2   3
ATOM      3  C   UNL     1      19.527  19.905 -13.857  1.00  0.00     0.000 C 
BRANCH   3   4
ATOM      4  C   UNL     1      20.129  18.551 -13.440  1.00  0.00     0.000 C 
BRANCH   4   5
ATOM      5  C   UNL     1      19.066  17.529 -13.009  1.00  0.00     0.006 C 
BRANCH   5   6
ATOM      6  C   UNL     1      19.396  16.941 -11.634  1.00  0.00     0.053 C 
BRANCH   6   7
ATOM      7  C   UNL     1      19.642  18.033 -10.643  1.00  0.00     0.041 C 
ATOM      8  O   UNL     1      18.693  18.768 -10.262  1.00  0.00    -0.550 OA
ATOM      9  O   UNL     1      20.909  18.210 -10.103  1.00  0.00    -0.550 OA
ENDBRANCH   6   7
ENDBRANCH   5   6
ENDBRANCH   4   5
ENDBRANCH   3   4
ENDBRANCH   2   3
ENDBRANCH   1   2
BRANCH   1  10
ATOM     10  C   UNL     1      16.190  20.403 -12.049  1.00  0.00     0.000 C 
BRANCH  10  11
ATOM     11  C   UNL     1      15.049  21.435 -12.050  1.00  0.00    -0.000 C 
BRANCH  11  12
ATOM     12  C   UNL     1      15.401  22.710 -12.840  1.00  0.00    -0.000 C 
BRANCH  12  13
ATOM     13  C   UNL     1      14.193  23.546 -13.309  1.00  0.00    -0.000 C 
BRANCH  13  14
ATOM     14  C   UNL     1      13.229  23.984 -12.192  1.00  0.00    -0.000 C 
BRANCH  14  15
ATOM     15  C   UNL     1      11.764  23.645 -12.503  1.00  0.00    -0.003 C 
ATOM     16  C   UNL     1      11.662  22.668 -13.670  1.00  0.00     0.004 C 
ENDBRANCH  14  15
ENDBRANCH  13  14
ENDBRANCH  12  13
ENDBRANCH  11  12
ENDBRANCH  10  11
ENDBRANCH   1  10
TORSDOF 12
ENDMDL
MODEL 2
REMARK VINA RESULT:    -4.535      3.456      7.802
REMARK INTER + INTRA:          -8.736
REMARK INTER:                  -7.813
REMARK INTRA:                  -0.923
REMARK UNBOUND:                -1.020
REMARK SMILES CCCCCCCCCCCCCC(=O)[O-]
REMARK SMILES IDX 8 1 9 2 10 3 11 4 12 5 13 6 14 7 15 8 16 9 7 10 6 11 5 12
REMARK SMILES IDX 4 13 3 14 2 15 1 16
REMARK H PARENT
REMARK Flexibility Score: inf
ROOT
ATOM      1  C   UNL     1      17.112  20.918 -13.222  1.00  0.00     0.000 C 
ENDROOT
BRANCH   1   2
ATOM      2  C   UNL     1      16.150  20.461 -12.111  1.00  0.00     0.000 C 
BRANCH   2   3
ATOM      3  C   UNL     1      15.034  21.483 -11.827  1.00  0.00     0.000 C 
BRANCH   3   4
ATOM      4  C   UNL     1      15.201  22.843 -12.530  1.00  0.00     0.000 C 
BRANCH   4   5
ATOM      5  C   UNL     1      13.954  23.265 -13.323  1.00  0.00     0.006 C 
BRANCH   5   6
ATOM      6  C   UNL     1      12.741  22.419 -12.927  1.00  0.00     0.053 C 
BRANCH   6   7
ATOM      7  C   UNL     1      11.754  23.244 -12.164  1.00  0.00     0.041 C 
ATOM      8  O   UNL     1      12.150  24.050 -11.281  1.00  0.00    -0.550 OA
ATOM      9  O   UNL     1      10.400  23.159 -12.460  1.00  0.00    -0.550 OA
ENDBRANCH   6   7
ENDBRANCH   5   6
ENDBRANCH   4   5
ENDBRANCH   3   4
ENDBRANCH   2   3
ENDBRANCH   1   2
BRANCH   1  10
ATOM     10  C   UNL     1      17.811  19.737 -13.917  1.00  0.00     0.000 C 
BRANCH  10  11
ATOM     11  C   UNL     1      19.343  19.803 -13.788  1.00  0.00    -0.000 C 
BRANCH  11  12
ATOM     12  C   UNL     1      19.961  18.466 -13.338  1.00  0.00    -0.000 C 
BRANCH  12  13
ATOM     13  C   UNL     1      19.204  17.741 -12.206  1.00  0.00    -0.000 C 
BRANCH  13  14
ATOM     14  C   UNL     1      19.417  18.325 -10.799  1.00  0.00    -0.000 C 
BRANCH  14  15
ATOM     15  C   UNL     1      20.687  17.793 -10.119  1.00  0.00    -0.003 C 
ATOM     16  C   UNL     1      20.871  16.303 -10.390  1.00  0.00     0.004 C 
ENDBRANCH  14  15
ENDBRANCH  13  14
ENDBRANCH  12  13
ENDBRANCH  11  12
ENDBRANCH  10  11
ENDBRANCH   1  10
TORSDOF 12
ENDMDL
MODEL 3
REMARK VINA RESULT:    -4.407      1.085      2.279
REMARK INTER + INTRA:          -8.518
REMARK INTER:                  -7.566
REMARK INTRA:                  -0.952
REMARK UNBOUND:                -1.020
REMARK SMILES CCCCCCCCCCCCCC(=O)[O-]
REMARK SMILES IDX 8 1 9 2 10 3 11 4 12 5 13 6 14 7 15 8 16 9 7 10 6 11 5 12
REMARK SMILES IDX 4 13 3 14 2 15 1 16
REMARK H PARENT
REMARK Flexibility Score: inf
ROOT
ATOM      1  C   UNL     1      15.206  21.295 -11.939  1.00  0.00     0.000 C 
ENDROOT
BRANCH   1   2
ATOM      2  C   UNL     1      16.339  20.298 -12.243  1.00  0.00     0.000 C 
BRANCH   2   3
ATOM      3  C   UNL     1      17.473  20.918 -13.078  1.00  0.00     0.000 C 
BRANCH   3   4
ATOM      4  C   UNL     1      18.445  19.905 -13.712  1.00  0.00     0.000 C 
BRANCH   4   5
ATOM      5  C   UNL     1      18.388  18.522 -13.047  1.00  0.00     0.006 C 
BRANCH   5   6
ATOM      6  C   UNL     1      19.729  18.170 -12.398  1.00  0.00     0.053 C 
BRANCH   6   7
ATOM      7  C   UNL     1      19.669  18.390 -10.919  1.00  0.00     0.041 C 
ATOM      8  O   UNL     1      18.573  18.662 -10.363  1.00  0.00    -0.550 OA
ATOM      9  O   UNL     1      20.816  18.248 -10.148  1.00  0.00    -0.550 OA
ENDBRANCH   6   7
ENDBRANCH   5   6
ENDBRANCH   4   5
ENDBRANCH   3   4
ENDBRANCH   2   3
ENDBRANCH   1   2
BRANCH   1  10
ATOM     10  C   UNL     1      15.380  22.629 -12.686  1.00  0.00     0.000 C 
BRANCH  10  11
ATOM     11  C   UNL     1      14.045  23.186 -13.212  1.00  0.00    -0.000 C 
BRANCH  11  12
ATOM     12  C   UNL     1      12.824  22.445 -12.637  1.00  0.00    -0.000 C 
BRANCH  12  13
ATOM     13  C   UNL     1      11.614  23.338 -12.295  1.00  0.00    -0.000 C 
BRANCH  13  14
ATOM     14  C   UNL     1      11.897  24.851 -12.304  1.00  0.00    -0.000 C 
BRANCH  14  15
ATOM     15  C   UNL     1      12.157  25.417 -10.900  1.00  0.00    -0.003 C 
ATOM     16  C   UNL     1      13.546  26.041 -10.809  1.00  0.00     0.004 C 
ENDBRANCH  14  15
ENDBRANCH  13  14
ENDBRANCH  12  13
ENDBRANCH  11  12
ENDBRANCH  10  11
ENDBRANCH   1  10
TORSDOF 12
ENDMDL
MODEL 4
REMARK VINA RESULT:    -4.375      1.234      1.708
REMARK INTER + INTRA:          -8.465
REMARK INTER:                  -7.651
REMARK INTRA:                  -0.813
REMARK UNBOUND:                -1.020
REMARK SMILES CCCCCCCCCCCCCC(=O)[O-]
REMARK SMILES IDX 8 1 9 2 10 3 11 4 12 5 13 6 14 7 15 8 16 9 7 10 6 11 5 12
REMARK SMILES IDX 4 13 3 14 2 15 1 16
REMARK H PARENT
REMARK Flexibility Score: inf
ROOT
ATOM      1  C   UNL     1      16.291  20.577 -12.189  1.00  0.00     0.000 C 
ENDROOT
BRANCH   1   2
ATOM      2  C   UNL     1      17.366  20.875 -13.249  1.00  0.00     0.000 C 
BRANCH   2   3
ATOM      3  C   UNL     1      18.066  19.605 -13.766  1.00  0.00     0.000 C 
BRANCH   3   4
ATOM      4  C   UNL     1      19.259  19.127 -12.919  1.00  0.00     0.000 C 
BRANCH   4   5
ATOM      5  C   UNL     1      18.877  18.037 -11.906  1.00  0.00     0.006 C 
BRANCH   5   6
ATOM      6  C   UNL     1      19.571  18.269 -10.562  1.00  0.00     0.053 C 
BRANCH   6   7
ATOM      7  C   UNL     1      20.675  17.279 -10.364  1.00  0.00     0.041 C 
ATOM      8  O   UNL     1      21.120  16.624 -11.343  1.00  0.00    -0.550 OA
ATOM      9  O   UNL     1      21.245  17.114  -9.108  1.00  0.00    -0.550 OA
ENDBRANCH   6   7
ENDBRANCH   5   6
ENDBRANCH   4   5
ENDBRANCH   3   4
ENDBRANCH   2   3
ENDBRANCH   1   2
BRANCH   1  10
ATOM     10  C   UNL     1      15.129  21.585 -12.231  1.00  0.00     0.000 C 
BRANCH  10  11
ATOM     11  C   UNL     1      15.589  22.995 -12.640  1.00  0.00    -0.000 C 
BRANCH  11  12
ATOM     12  C   UNL     1      14.931  23.480 -13.945  1.00  0.00    -0.000 C 
BRANCH  12  13
ATOM     13  C   UNL     1      13.518  24.079 -13.786  1.00  0.00    -0.000 C 
BRANCH  13  14
ATOM     14  C   UNL     1      12.362  23.122 -14.125  1.00  0.00    -0.000 C 
BRANCH  14  15
ATOM     15  C   UNL     1      11.478  22.802 -12.911  1.00  0.00    -0.003 C 
ATOM     16  C   UNL     1      11.534  23.925 -11.880  1.00  0.00     0.004 C 
ENDBRANCH  14  15
ENDBRANCH  13  14
ENDBRANCH  12  13
ENDBRANCH  11  12
ENDBRANCH  10  11
ENDBRANCH   1  10
TORSDOF 12
ENDMDL
MODEL 5
REMARK VINA RESULT:    -4.329      3.307      7.910
REMARK INTER + INTRA:          -8.386
REMARK INTER:                  -7.499
REMARK INTRA:                  -0.887
REMARK UNBOUND:                -1.020
REMARK SMILES CCCCCCCCCCCCCC(=O)[O-]
REMARK SMILES IDX 8 1 9 2 10 3 11 4 12 5 13 6 14 7 15 8 16 9 7 10 6 11 5 12
REMARK SMILES IDX 4 13 3 14 2 15 1 16
REMARK H PARENT
REMARK Flexibility Score: inf
ROOT
ATOM      1  C   UNL     1      17.661  20.226 -13.081  1.00  0.00     0.000 C 
ENDROOT
BRANCH   1   2
ATOM      2  C   UNL     1      16.389  19.952 -12.259  1.00  0.00     0.000 C 
BRANCH   2   3
ATOM      3  C   UNL     1      15.562  21.223 -11.993  1.00  0.00     0.000 C 
BRANCH   3   4
ATOM      4  C   UNL     1      15.847  22.399 -12.946  1.00  0.00     0.000 C 
BRANCH   4   5
ATOM      5  C   UNL     1      14.867  23.567 -12.767  1.00  0.00     0.006 C 
BRANCH   5   6
ATOM      6  C   UNL     1      13.716  23.476 -13.773  1.00  0.00     0.053 C 
BRANCH   6   7
ATOM      7  C   UNL     1      12.475  22.974 -13.106  1.00  0.00     0.041 C 
ATOM      8  O   UNL     1      11.515  22.544 -13.797  1.00  0.00    -0.550 OA
ATOM      9  O   UNL     1      12.398  22.937 -11.720  1.00  0.00    -0.550 OA
ENDBRANCH   6   7
ENDBRANCH   5   6
ENDBRANCH   4   5
ENDBRANCH   3   4
ENDBRANCH   2   3
ENDBRANCH   1   2
BRANCH   1  10
ATOM     10  C   UNL     1      18.835  19.323 -12.666  1.00  0.00     0.000 C 
BRANCH  10  11
ATOM     11  C   UNL     1      18.506  18.461 -11.435  1.00  0.00    -0.000 C 
BRANCH  11  12
ATOM     12  C   UNL     1      19.721  18.255 -10.511  1.00  0.00    -0.000 C 
BRANCH  12  13
ATOM     13  C   UNL     1      20.758  17.227 -11.008  1.00  0.00    -0.000 C 
BRANCH  13  14
ATOM     14  C   UNL     1      20.325  15.756 -10.894  1.00  0.00    -0.000 C 
BRANCH  14  15
ATOM     15  C   UNL     1      20.179  15.069 -12.260  1.00  0.00    -0.003 C 
ATOM     16  C   UNL     1      20.573  16.012 -13.393  1.00  0.00     0.004 C 
ENDBRANCH  14  15
ENDBRANCH  13  14
ENDBRANCH  12  13
ENDBRANCH  11  12
ENDBRANCH  10  11
ENDBRANCH   1  10
TORSDOF 12
ENDMDL
MODEL 6
REMARK VINA RESULT:    -4.311     11.070     13.581
REMARK INTER + INTRA:          -8.355
REMARK INTER:                  -6.954
REMARK INTRA:                  -1.401
REMARK UNBOUND:                -1.020
REMARK SMILES CCCCCCCCCCCCCC(=O)[O-]
REMARK SMILES IDX 8 1 9 2 10 3 11 4 12 5 13 6 14 7 15 8 16 9 7 10 6 11 5 12
REMARK SMILES IDX 4 13 3 14 2 15 1 16
REMARK H PARENT
REMARK Flexibility Score: inf
ROOT
ATOM      1  C   UNL     1       7.190  15.120  -8.578  1.00  0.00     0.000 C 
ENDROOT
BRANCH   1   2
ATOM      2  C   UNL     1       5.908  14.786  -9.361  1.00  0.00     0.000 C 
BRANCH   2   3
ATOM      3  C   UNL     1       4.626  15.195  -8.613  1.00  0.00     0.000 C 
BRANCH   3   4
ATOM      4  C   UNL     1       4.787  15.379  -7.093  1.00  0.00     0.000 C 
BRANCH   4   5
ATOM      5  C   UNL     1       4.054  16.618  -6.558  1.00  0.00     0.006 C 
BRANCH   5   6
ATOM      6  C   UNL     1       4.806  17.901  -6.923  1.00  0.00     0.053 C 
BRANCH   6   7
ATOM      7  C   UNL     1       6.094  17.986  -6.165  1.00  0.00     0.041 C 
ATOM      8  O   UNL     1       6.084  18.132  -4.915  1.00  0.00    -0.550 OA
ATOM      9  O   UNL     1       7.304  17.856  -6.835  1.00  0.00    -0.550 OA
ENDBRANCH   6   7
ENDBRANCH   5   6
ENDBRANCH   4   5
ENDBRANCH   3   4
ENDBRANCH   2   3
ENDBRANCH   1   2
BRANCH   1  10
ATOM     10  C   UNL     1       8.379  15.436  -9.503  1.00  0.00     0.000 C 
BRANCH  10  11
ATOM     11  C   UNL     1       8.216  14.814 -10.901  1.00  0.00    -0.000 C 
BRANCH  11  12
ATOM     12  C   UNL     1       8.853  13.416 -11.007  1.00  0.00    -0.000 C 
BRANCH  12  13
ATOM     13  C   UNL     1      10.020  13.150 -10.035  1.00  0.00    -0.000 C 
BRANCH  13  14
ATOM     14  C   UNL     1       9.873  11.887  -9.169  1.00  0.00    -0.000 C 
BRANCH  14  15
ATOM     15  C   UNL     1       9.258  12.177  -7.792  1.00  0.00    -0.003 C 
ATOM     16  C   UNL     1       7.863  11.568  -7.676  1.00  0.00     0.004 C 
ENDBRANCH  14  15
ENDBRANCH  13  14
ENDBRANCH  12  13
ENDBRANCH  11  12
ENDBRANCH  10  11
ENDBRANCH   1  10
TORSDOF 12
ENDMDL
MODEL 7
REMARK VINA RESULT:    -4.285     10.381     12.065
REMARK INTER + INTRA:          -8.311
REMARK INTER:                  -6.300
REMARK INTRA:                  -2.011
REMARK UNBOUND:                -1.020
REMARK SMILES CCCCCCCCCCCCCC(=O)[O-]
REMARK SMILES IDX 8 1 9 2 10 3 11 4 12 5 13 6 14 7 15 8 16 9 7 10 6 11 5 12
REMARK SMILES IDX 4 13 3 14 2 15 1 16
REMARK H PARENT
REMARK Flexibility Score: inf
ROOT
ATOM      1  C   UNL     1       7.140  16.571  -7.148  1.00  0.00     0.000 C 
ENDROOT
BRANCH   1   2
ATOM      2  C   UNL     1       7.831  16.888  -8.486  1.00  0.00     0.000 C 
BRANCH   2   3
ATOM      3  C   UNL     1       8.290  15.626  -9.238  1.00  0.00     0.000 C 
BRANCH   3   4
ATOM      4  C   UNL     1       8.026  14.298  -8.505  1.00  0.00     0.000 C 
BRANCH   4   5
ATOM      5  C   UNL     1       8.549  13.075  -9.273  1.00  0.00     0.006 C 
BRANCH   5   6
ATOM      6  C   UNL     1       9.474  13.500 -10.417  1.00  0.00     0.053 C 
BRANCH   6   7
ATOM      7  C   UNL     1      10.880  13.071 -10.141  1.00  0.00     0.041 C 
ATOM      8  O   UNL     1      11.669  12.835 -11.093  1.00  0.00    -0.550 OA
ATOM      9  O   UNL     1      11.334  12.979  -8.831  1.00  0.00    -0.550 OA
ENDBRANCH   6   7
ENDBRANCH   5   6
ENDBRANCH   4   5
ENDBRANCH   3   4
ENDBRANCH   2   3
ENDBRANCH   1   2
BRANCH   1  10
ATOM     10  C   UNL     1       5.850  17.385  -6.945  1.00  0.00     0.000 C 
BRANCH  10  11
ATOM     11  C   UNL     1       4.611  16.673  -7.517  1.00  0.00    -0.000 C 
BRANCH  11  12
ATOM     12  C   UNL     1       4.581  15.171  -7.184  1.00  0.00    -0.000 C 
BRANCH  12  13
ATOM     13  C   UNL     1       4.372  14.233  -8.390  1.00  0.00    -0.000 C 
BRANCH  13  14
ATOM     14  C   UNL     1       4.606  14.879  -9.767  1.00  0.00    -0.000 C 
BRANCH  14  15
ATOM     15  C   UNL     1       5.167  13.892 -10.801  1.00  0.00    -0.003 C 
ATOM     16  C   UNL     1       5.967  14.620 -11.877  1.00  0.00     0.004 C 
ENDBRANCH  14  15
ENDBRANCH  13  14
ENDBRANCH  12  13
ENDBRANCH  11  12
ENDBRANCH  10  11
ENDBRANCH   1  10
TORSDOF 12
ENDMDL
MODEL 8
REMARK VINA RESULT:    -4.222      4.020      8.213
REMARK INTER + INTRA:          -8.205
REMARK INTER:                  -7.472
REMARK INTRA:                  -0.732
REMARK UNBOUND:                -1.020
REMARK SMILES CCCCCCCCCCCCCC(=O)[O-]
REMARK SMILES IDX 8 1 9 2 10 3 11 4 12 5 13 6 14 7 15 8 16 9 7 10 6 11 5 12
REMARK SMILES IDX 4 13 3 14 2 15 1 16
REMARK H PARENT
REMARK Flexibility Score: inf
ROOT
ATOM      1  C   UNL     1      15.233  21.263 -11.894  1.00  0.00     0.000 C 
ENDROOT
BRANCH   1   2
ATOM      2  C   UNL     1      15.401  22.576 -12.679  1.00  0.00     0.000 C 
BRANCH   2   3
ATOM      3  C   UNL     1      14.063  23.283 -12.956  1.00  0.00     0.000 C 
BRANCH   3   4
ATOM      4  C   UNL     1      12.806  22.449 -12.645  1.00  0.00     0.000 C 
BRANCH   4   5
ATOM      5  C   UNL     1      11.602  22.830 -13.518  1.00  0.00     0.006 C 
BRANCH   5   6
ATOM      6  C   UNL     1      11.044  24.198 -13.115  1.00  0.00     0.053 C 
BRANCH   6   7
ATOM      7  C   UNL     1      10.304  24.101 -11.818  1.00  0.00     0.041 C 
ATOM      8  O   UNL     1      10.662  24.798 -10.832  1.00  0.00    -0.550 OA
ATOM      9  O   UNL     1       9.191  23.277 -11.713  1.00  0.00    -0.550 OA
ENDBRANCH   6   7
ENDBRANCH   5   6
ENDBRANCH   4   5
ENDBRANCH   3   4
ENDBRANCH   2   3
ENDBRANCH   1   2
BRANCH   1  10
ATOM     10  C   UNL     1      16.303  20.219 -12.258  1.00  0.00     0.000 C 
BRANCH  10  11
ATOM     11  C   UNL     1      17.350  20.770 -13.242  1.00  0.00    -0.000 C 
BRANCH  11  12
ATOM     12  C   UNL     1      18.157  19.657 -13.937  1.00  0.00    -0.000 C 
BRANCH  12  13
ATOM     13  C   UNL     1      19.393  19.159 -13.160  1.00  0.00    -0.000 C 
BRANCH  13  14
ATOM     14  C   UNL     1      19.136  17.972 -12.217  1.00  0.00    -0.000 C 
BRANCH  14  15
ATOM     15  C   UNL     1      19.299  18.341 -10.735  1.00  0.00    -0.003 C 
ATOM     16  C   UNL     1      20.684  17.957 -10.222  1.00  0.00     0.004 C 
ENDBRANCH  14  15
ENDBRANCH  13  14
ENDBRANCH  12  13
ENDBRANCH  11  12
ENDBRANCH  10  11
ENDBRANCH   1  10
TORSDOF 12
ENDMDL
MODEL 9
REMARK VINA RESULT:    -4.188      1.579      3.324
REMARK INTER + INTRA:          -8.145
REMARK INTER:                  -6.939
REMARK INTRA:                  -1.206
REMARK UNBOUND:                -1.020
REMARK SMILES CCCCCCCCCCCCCC(=O)[O-]
REMARK SMILES IDX 8 1 9 2 10 3 11 4 12 5 13 6 14 7 15 8 16 9 7 10 6 11 5 12
REMARK SMILES IDX 4 13 3 14 2 15 1 16
REMARK H PARENT
REMARK Flexibility Score: inf
ROOT
ATOM      1  C   UNL     1      14.161  21.987 -12.187  1.00  0.00     0.000 C 
ENDROOT
BRANCH   1   2
ATOM      2  C   UNL     1      15.357  22.762 -12.768  1.00  0.00     0.000 C 
BRANCH   2   3
ATOM      3  C   UNL     1      16.586  21.868 -13.014  1.00  0.00     0.000 C 
BRANCH   3   4
ATOM      4  C   UNL     1      16.587  20.532 -12.248  1.00  0.00     0.000 C 
BRANCH   4   5
ATOM      5  C   UNL     1      17.278  19.398 -13.019  1.00  0.00     0.006 C 
BRANCH   5   6
ATOM      6  C   UNL     1      18.752  19.283 -12.621  1.00  0.00     0.053 C 
BRANCH   6   7
ATOM      7  C   UNL     1      18.914  18.327 -11.483  1.00  0.00     0.041 C 
ATOM      8  O   UNL     1      18.755  18.720 -10.298  1.00  0.00    -0.550 OA
ATOM      9  O   UNL     1      19.194  16.989 -11.733  1.00  0.00    -0.550 OA
ENDBRANCH   6   7
ENDBRANCH   5   6
ENDBRANCH   4   5
ENDBRANCH   3   4
ENDBRANCH   2   3
ENDBRANCH   1   2
BRANCH   1  10
ATOM     10  C   UNL     1      12.828  22.386 -12.845  1.00  0.00     0.000 C 
BRANCH  10  11
ATOM     11  C   UNL     1      13.000  23.497 -13.895  1.00  0.00    -0.000 C 
BRANCH  11  12
ATOM     12  C   UNL     1      11.987  24.643 -13.719  1.00  0.00    -0.000 C 
BRANCH  12  13
ATOM     13  C   UNL     1      11.556  24.923 -12.265  1.00  0.00    -0.000 C 
BRANCH  13  14
ATOM     14  C   UNL     1      12.310  26.070 -11.570  1.00  0.00    -0.000 C 
BRANCH  14  15
ATOM     15  C   UNL     1      13.691  25.646 -11.048  1.00  0.00    -0.003 C 
ATOM     16  C   UNL     1      14.808  26.294 -11.861  1.00  0.00     0.004 C 
ENDBRANCH  14  15
ENDBRANCH  13  14
ENDBRANCH  12  13
ENDBRANCH  11  12
ENDBRANCH  10  11
ENDBRANCH   1  10
TORSDOF 12
ENDMDL
