MODEL 1
REMARK VINA RESULT:    -4.587      0.000      0.000
REMARK INTER + INTRA:          -4.721
REMARK INTER:                  -4.721
REMARK INTRA:                   0.000
REMARK UNBOUND:                 0.000
REMARK SMILES O=c1ccc2ccc(O)cc2o1
REMARK SMILES IDX 6 1 7 2 8 3 10 4 11 5 5 6 4 7 3 8 2 9 1 10 12 11 9 12
REMARK H PARENT 9 13
REMARK Flexibility Score: inf
ROOT
ATOM      1  C   UNL     1      74.496  38.384  19.637  1.00  0.00     0.016 A 
ATOM      2  C   UNL     1      74.740  38.942  20.896  1.00  0.00     0.047 A 
ATOM      3  C   UNL     1      73.740  38.940  21.877  1.00  0.00     0.119 A 
ATOM      4  C   UNL     1      72.487  38.375  21.597  1.00  0.00     0.094 A 
ATOM      5  C   UNL     1      72.233  37.815  20.340  1.00  0.00     0.142 A 
ATOM      6  C   UNL     1      73.244  37.819  19.353  1.00  0.00     0.018 A 
ATOM      7  C   UNL     1      72.961  37.252  18.107  1.00  0.00     0.019 A 
ATOM      8  C   UNL     1      71.700  36.703  17.875  1.00  0.00     0.094 A 
ATOM      9  C   UNL     1      70.748  36.735  18.901  1.00  0.00     0.336 A 
ATOM     10  O   UNL     1      69.605  36.244  18.711  1.00  0.00    -0.246 OA
ATOM     11  O   UNL     1      71.043  37.281  20.078  1.00  0.00    -0.423 OA
ENDROOT
BRANCH   3  12
ATOM     12  O   UNL     1      74.003  39.501  23.124  1.00  0.00    -0.508 OA
ATOM     13  H   UNL     1      73.873  40.491  23.298  1.00  0.00     0.293 HD
ENDBRANCH   3  12
TORSDOF 1
ENDMDL
MODEL 2
REMARK VINA RESULT:    -4.437      1.605      2.300
REMARK INTER + INTRA:          -4.566
REMARK INTER:                  -4.566
REMARK INTRA:                   0.000
REMARK UNBOUND:                 0.000
REMARK SMILES O=c1ccc2ccc(O)cc2o1
REMARK SMILES IDX 6 1 7 2 8 3 10 4 11 5 5 6 4 7 3 8 2 9 1 10 12 11 9 12
REMARK H PARENT 9 13
REMARK Flexibility Score: inf
ROOT
ATOM      1  C   UNL     1      70.603  39.370  21.114  1.00  0.00     0.016 A 
ATOM      2  C   UNL     1      71.619  39.773  21.986  1.00  0.00     0.047 A 
ATOM      3  C   UNL     1      72.792  39.016  22.105  1.00  0.00     0.119 A 
ATOM      4  C   UNL     1      72.950  37.847  21.345  1.00  0.00     0.094 A 
ATOM      5  C   UNL     1      71.938  37.436  20.470  1.00  0.00     0.142 A 
ATOM      6  C   UNL     1      70.757  38.202  20.353  1.00  0.00     0.018 A 
ATOM      7  C   UNL     1      69.764  37.767  19.470  1.00  0.00     0.019 A 
ATOM      8  C   UNL     1      69.966  36.598  18.736  1.00  0.00     0.094 A 
ATOM      9  C   UNL     1      71.162  35.891  18.903  1.00  0.00     0.336 A 
ATOM     10  O   UNL     1      71.363  34.834  18.250  1.00  0.00    -0.246 OA
ATOM     11  O   UNL     1      72.091  36.327  19.750  1.00  0.00    -0.423 OA
ENDROOT
BRANCH   3  12
ATOM     12  O   UNL     1      73.792  39.434  22.979  1.00  0.00    -0.508 OA
ATOM     13  H   UNL     1      74.091  40.402  23.018  1.00  0.00     0.293 HD
ENDBRANCH   3  12
TORSDOF 1
ENDMDL
MODEL 3
REMARK VINA RESULT:    -4.436      2.692      5.342
REMARK INTER + INTRA:          -4.565
REMARK INTER:                  -4.565
REMARK INTRA:                   0.000
REMARK UNBOUND:                 0.000
REMARK SMILES O=c1ccc2ccc(O)cc2o1
REMARK SMILES IDX 6 1 7 2 8 3 10 4 11 5 5 6 4 7 3 8 2 9 1 10 12 11 9 12
REMARK H PARENT 9 13
REMARK Flexibility Score: inf
ROOT
ATOM      1  C   UNL     1      68.042  36.050  18.186  1.00  0.00     0.016 A 
ATOM      2  C   UNL     1      66.818  36.618  18.551  1.00  0.00     0.047 A 
ATOM      3  C   UNL     1      66.755  37.568  19.578  1.00  0.00     0.119 A 
ATOM      4  C   UNL     1      67.928  37.955  20.244  1.00  0.00     0.094 A 
ATOM      5  C   UNL     1      69.158  37.392  19.887  1.00  0.00     0.142 A 
ATOM      6  C   UNL     1      69.216  36.433  18.851  1.00  0.00     0.018 A 
ATOM      7  C   UNL     1      70.459  35.888  18.515  1.00  0.00     0.019 A 
ATOM      8  C   UNL     1      71.597  36.303  19.207  1.00  0.00     0.094 A 
ATOM      9  C   UNL     1      71.463  37.258  20.222  1.00  0.00     0.336 A 
ATOM     10  O   UNL     1      72.478  37.645  20.857  1.00  0.00    -0.246 OA
ATOM     11  O   UNL     1      70.268  37.760  20.522  1.00  0.00    -0.423 OA
ENDROOT
BRANCH   3  12
ATOM     12  O   UNL     1      65.526  38.122  19.926  1.00  0.00    -0.508 OA
ATOM     13  H   UNL     1      64.656  37.627  19.761  1.00  0.00     0.293 HD
ENDBRANCH   3  12
TORSDOF 1
ENDMDL
MODEL 4
REMARK VINA RESULT:    -4.389      2.893      4.814
REMARK INTER + INTRA:          -4.517
REMARK INTER:                  -4.517
REMARK INTRA:                   0.000
REMARK UNBOUND:                 0.000
REMARK SMILES O=c1ccc2ccc(O)cc2o1
REMARK SMILES IDX 6 1 7 2 8 3 10 4 11 5 5 6 4 7 3 8 2 9 1 10 12 11 9 12
REMARK H PARENT 9 13
REMARK Flexibility Score: inf
ROOT
ATOM      1  C   UNL     1      69.257  38.945  20.825  1.00  0.00     0.016 A 
ATOM      2  C   UNL     1      67.863  39.031  20.758  1.00  0.00     0.047 A 
ATOM      3  C   UNL     1      67.128  38.083  20.034  1.00  0.00     0.119 A 
ATOM      4  C   UNL     1      67.794  37.039  19.374  1.00  0.00     0.094 A 
ATOM      5  C   UNL     1      69.189  36.945  19.435  1.00  0.00     0.142 A 
ATOM      6  C   UNL     1      69.925  37.903  20.165  1.00  0.00     0.018 A 
ATOM      7  C   UNL     1      71.318  37.783  20.209  1.00  0.00     0.019 A 
ATOM      8  C   UNL     1      71.935  36.728  19.535  1.00  0.00     0.094 A 
ATOM      9  C   UNL     1      71.139  35.816  18.832  1.00  0.00     0.336 A 
ATOM     10  O   UNL     1      71.678  34.858  18.218  1.00  0.00    -0.246 OA
ATOM     11  O   UNL     1      69.816  35.953  18.806  1.00  0.00    -0.423 OA
ENDROOT
BRANCH   3  12
ATOM     12  O   UNL     1      65.741  38.186  19.980  1.00  0.00    -0.508 OA
ATOM     13  H   UNL     1      65.285  38.993  19.567  1.00  0.00     0.293 HD
ENDBRANCH   3  12
TORSDOF 1
ENDMDL
MODEL 5
REMARK VINA RESULT:    -4.300      2.357      3.221
REMARK INTER + INTRA:          -4.426
REMARK INTER:                  -4.426
REMARK INTRA:                   0.000
REMARK UNBOUND:                 0.000
REMARK SMILES O=c1ccc2ccc(O)cc2o1
REMARK SMILES IDX 6 1 7 2 8 3 10 4 11 5 5 6 4 7 3 8 2 9 1 10 12 11 9 12
REMARK H PARENT 9 13
REMARK Flexibility Score: inf
ROOT
ATOM      1  C   UNL     1      75.760  41.636  20.283  1.00  0.00     0.016 A 
ATOM      2  C   UNL     1      75.818  41.806  21.670  1.00  0.00     0.047 A 
ATOM      3  C   UNL     1      75.268  40.843  22.525  1.00  0.00     0.119 A 
ATOM      4  C   UNL     1      74.656  39.700  21.990  1.00  0.00     0.094 A 
ATOM      5  C   UNL     1      74.592  39.521  20.604  1.00  0.00     0.142 A 
ATOM      6  C   UNL     1      75.148  40.495  19.744  1.00  0.00     0.018 A 
ATOM      7  C   UNL     1      75.069  40.288  18.364  1.00  0.00     0.019 A 
ATOM      8  C   UNL     1      74.451  39.136  17.878  1.00  0.00     0.094 A 
ATOM      9  C   UNL     1      73.923  38.215  18.790  1.00  0.00     0.336 A 
ATOM     10  O   UNL     1      73.361  37.169  18.371  1.00  0.00    -0.246 OA
ATOM     11  O   UNL     1      74.011  38.435  20.099  1.00  0.00    -0.423 OA
ENDROOT
BRANCH   3  12
ATOM     12  O   UNL     1      75.337  41.032  23.904  1.00  0.00    -0.508 OA
ATOM     13  H   UNL     1      75.581  41.931  24.304  1.00  0.00     0.293 HD
ENDBRANCH   3  12
TORSDOF 1
ENDMDL
MODEL 6
REMARK VINA RESULT:    -4.223      1.303      1.480
REMARK INTER + INTRA:          -4.346
REMARK INTER:                  -4.346
REMARK INTRA:                   0.000
REMARK UNBOUND:                 0.000
REMARK SMILES O=c1ccc2ccc(O)cc2o1
REMARK SMILES IDX 6 1 7 2 8 3 10 4 11 5 5 6 4 7 3 8 2 9 1 10 12 11 9 12
REMARK H PARENT 9 13
REMARK Flexibility Score: inf
ROOT
ATOM      1  C   UNL     1      73.706  38.019  19.841  1.00  0.00     0.016 A 
ATOM      2  C   UNL     1      74.424  38.598  20.893  1.00  0.00     0.047 A 
ATOM      3  C   UNL     1      73.750  39.184  21.972  1.00  0.00     0.119 A 
ATOM      4  C   UNL     1      72.348  39.191  22.000  1.00  0.00     0.094 A 
ATOM      5  C   UNL     1      71.621  38.614  20.952  1.00  0.00     0.142 A 
ATOM      6  C   UNL     1      72.304  38.024  19.866  1.00  0.00     0.018 A 
ATOM      7  C   UNL     1      71.551  37.455  18.834  1.00  0.00     0.019 A 
ATOM      8  C   UNL     1      70.158  37.486  18.906  1.00  0.00     0.094 A 
ATOM      9  C   UNL     1      69.551  38.088  20.014  1.00  0.00     0.336 A 
ATOM     10  O   UNL     1      68.295  38.126  20.097  1.00  0.00    -0.246 OA
ATOM     11  O   UNL     1      70.290  38.622  20.983  1.00  0.00    -0.423 OA
ENDROOT
BRANCH   3  12
ATOM     12  O   UNL     1      74.483  39.755  23.009  1.00  0.00    -0.508 OA
ATOM     13  H   UNL     1      74.447  39.382  23.951  1.00  0.00     0.293 HD
ENDBRANCH   3  12
TORSDOF 1
ENDMDL
MODEL 7
REMARK VINA RESULT:    -4.201      2.856      5.876
REMARK INTER + INTRA:          -4.324
REMARK INTER:                  -4.324
REMARK INTRA:                   0.000
REMARK UNBOUND:                 0.000
REMARK SMILES O=c1ccc2ccc(O)cc2o1
REMARK SMILES IDX 6 1 7 2 8 3 10 4 11 5 5 6 4 7 3 8 2 9 1 10 12 11 9 12
REMARK H PARENT 9 13
REMARK Flexibility Score: inf
ROOT
ATOM      1  C   UNL     1      67.031  38.167  20.068  1.00  0.00     0.016 A 
ATOM      2  C   UNL     1      66.580  37.114  19.266  1.00  0.00     0.047 A 
ATOM      3  C   UNL     1      67.491  36.207  18.710  1.00  0.00     0.119 A 
ATOM      4  C   UNL     1      68.864  36.353  18.959  1.00  0.00     0.094 A 
ATOM      5  C   UNL     1      69.324  37.403  19.761  1.00  0.00     0.142 A 
ATOM      6  C   UNL     1      68.402  38.316  20.319  1.00  0.00     0.018 A 
ATOM      7  C   UNL     1      68.892  39.355  21.116  1.00  0.00     0.019 A 
ATOM      8  C   UNL     1      70.266  39.460  21.336  1.00  0.00     0.094 A 
ATOM      9  C   UNL     1      71.119  38.518  20.750  1.00  0.00     0.336 A 
ATOM     10  O   UNL     1      72.362  38.596  20.937  1.00  0.00    -0.246 OA
ATOM     11  O   UNL     1      70.627  37.539  19.996  1.00  0.00    -0.423 OA
ENDROOT
BRANCH   3  12
ATOM     12  O   UNL     1      67.022  35.165  17.913  1.00  0.00    -0.508 OA
ATOM     13  H   UNL     1      66.697  34.294  18.318  1.00  0.00     0.293 HD
ENDBRANCH   3  12
TORSDOF 1
ENDMDL
MODEL 8
REMARK VINA RESULT:    -4.042      2.316      4.717
REMARK INTER + INTRA:          -4.160
REMARK INTER:                  -4.160
REMARK INTRA:                   0.000
REMARK UNBOUND:                 0.000
REMARK SMILES O=c1ccc2ccc(O)cc2o1
REMARK SMILES IDX 6 1 7 2 8 3 10 4 11 5 5 6 4 7 3 8 2 9 1 10 12 11 9 12
REMARK H PARENT 9 13
REMARK Flexibility Score: inf
ROOT
ATOM      1  C   UNL     1      69.717  36.924  19.338  1.00  0.00     0.016 A 
ATOM      2  C   UNL     1      68.426  37.461  19.318  1.00  0.00     0.047 A 
ATOM      3  C   UNL     1      68.121  38.601  20.071  1.00  0.00     0.119 A 
ATOM      4  C   UNL     1      69.115  39.211  20.851  1.00  0.00     0.094 A 
ATOM      5  C   UNL     1      70.410  38.681  20.878  1.00  0.00     0.142 A 
ATOM      6  C   UNL     1      70.714  37.531  20.117  1.00  0.00     0.018 A 
ATOM      7  C   UNL     1      72.016  37.025  20.164  1.00  0.00     0.019 A 
ATOM      8  C   UNL     1      72.971  37.665  20.954  1.00  0.00     0.094 A 
ATOM      9  C   UNL     1      72.597  38.801  21.681  1.00  0.00     0.336 A 
ATOM     10  O   UNL     1      73.445  39.392  22.400  1.00  0.00    -0.246 OA
ATOM     11  O   UNL     1      71.351  39.262  21.620  1.00  0.00    -0.423 OA
ENDROOT
BRANCH   3  12
ATOM     12  O   UNL     1      66.829  39.120  20.037  1.00  0.00    -0.508 OA
ATOM     13  H   UNL     1      66.098  38.762  20.642  1.00  0.00     0.293 HD
ENDBRANCH   3  12
TORSDOF 1
ENDMDL
MODEL 9
REMARK VINA RESULT:    -4.030      1.952      2.857
REMARK INTER + INTRA:          -4.148
REMARK INTER:                  -4.148
REMARK INTRA:                   0.000
REMARK UNBOUND:                 0.000
REMARK SMILES O=c1ccc2ccc(O)cc2o1
REMARK SMILES IDX 6 1 7 2 8 3 10 4 11 5 5 6 4 7 3 8 2 9 1 10 12 11 9 12
REMARK H PARENT 9 13
REMARK Flexibility Score: inf
ROOT
ATOM      1  C   UNL     1      71.345  39.847  21.966  1.00  0.00     0.016 A 
ATOM      2  C   UNL     1      72.714  39.575  22.055  1.00  0.00     0.047 A 
ATOM      3  C   UNL     1      73.263  38.474  21.385  1.00  0.00     0.119 A 
ATOM      4  C   UNL     1      72.437  37.639  20.618  1.00  0.00     0.094 A 
ATOM      5  C   UNL     1      71.065  37.903  20.523  1.00  0.00     0.142 A 
ATOM      6  C   UNL     1      70.516  39.014  21.200  1.00  0.00     0.018 A 
ATOM      7  C   UNL     1      69.143  39.253  21.086  1.00  0.00     0.019 A 
ATOM      8  C   UNL     1      68.361  38.394  20.312  1.00  0.00     0.094 A 
ATOM      9  C   UNL     1      68.976  37.313  19.669  1.00  0.00     0.336 A 
ATOM     10  O   UNL     1      68.287  36.528  18.967  1.00  0.00    -0.246 OA
ATOM     11  O   UNL     1      70.284  37.109  19.795  1.00  0.00    -0.423 OA
ENDROOT
BRANCH   3  12
ATOM     12  O   UNL     1      74.628  38.221  21.487  1.00  0.00    -0.508 OA
ATOM     13  H   UNL     1      75.058  37.983  22.375  1.00  0.00     0.293 HD
ENDBRANCH   3  12
TORSDOF 1
ENDMDL
