MODEL 1
REMARK VINA RESULT:    -8.418      0.000      0.000
REMARK INTER + INTRA:         -10.383
REMARK INTER:                 -10.140
REMARK INTRA:                  -0.242
REMARK UNBOUND:                -0.242
REMARK SMILES O=c1c(O)c(-c2ccc(O)c(O)c2)oc2cc(O)cc(O)c12
REMARK SMILES IDX 5 1 3 2 2 3 1 4 22 5 20 6 19 7 17 8 16 9 15 10 14 11 6 12
REMARK SMILES IDX 7 13 8 14 9 15 13 16 11 17 10 18 12 20 4 22 21 24 18 26
REMARK H PARENT 10 19 12 21 4 23 21 25 18 27
REMARK Flexibility Score: inf
ROOT
ATOM      1  C   UNL     1      -2.053   3.005 -10.963  1.00  0.00     0.180 A 
ATOM      2  C   UNL     1      -3.378   2.684 -11.306  1.00  0.00     0.208 A 
ATOM      3  C   UNL     1      -3.743   2.658 -12.662  1.00  0.00     0.238 A 
ATOM      4  O   UNL     1      -4.947   2.443 -12.957  1.00  0.00    -0.285 OA
ATOM      5  C   UNL     1      -2.767   2.898 -13.659  1.00  0.00     0.111 A 
ATOM      6  C   UNL     1      -3.016   2.852 -15.065  1.00  0.00     0.134 A 
ATOM      7  C   UNL     1      -1.997   3.211 -15.958  1.00  0.00     0.093 A 
ATOM      8  C   UNL     1      -0.725   3.551 -15.501  1.00  0.00     0.123 A 
ATOM      9  C   UNL     1      -0.455   3.546 -14.132  1.00  0.00     0.094 A 
ATOM     10  C   UNL     1      -1.461   3.229 -13.215  1.00  0.00     0.146 A 
ATOM     11  O   UNL     1      -1.167   3.257 -11.921  1.00  0.00    -0.452 OA
ENDROOT
BRANCH   1  12
ATOM     12  C   UNL     1      -1.596   3.067  -9.557  1.00  0.00     0.025 A 
ATOM     13  C   UNL     1      -2.001   4.139  -8.746  1.00  0.00     0.016 A 
ATOM     14  C   UNL     1      -1.601   4.207  -7.409  1.00  0.00     0.051 A 
ATOM     15  C   UNL     1      -0.800   3.197  -6.860  1.00  0.00     0.157 A 
ATOM     16  C   UNL     1      -0.810   2.045  -8.995  1.00  0.00     0.062 A 
ATOM     17  C   UNL     1      -0.408   2.112  -7.653  1.00  0.00     0.158 A 
BRANCH  15  18
ATOM     18  O   UNL     1      -0.397   3.263  -5.528  1.00  0.00    -0.504 OA
ATOM     19  H   UNL     1       0.577   3.171  -5.263  1.00  0.00     0.293 HD
ENDBRANCH  15  18
BRANCH  17  20
ATOM     20  O   UNL     1       0.376   1.101  -7.100  1.00  0.00    -0.504 OA
ATOM     21  H   UNL     1      -0.010   0.189  -6.882  1.00  0.00     0.293 HD
ENDBRANCH  17  20
ENDBRANCH   1  12
BRANCH   2  22
ATOM     22  O   UNL     1      -4.307   2.375 -10.309  1.00  0.00    -0.502 OA
ATOM     23  H   UNL     1      -4.246   2.757  -9.373  1.00  0.00     0.293 HD
ENDBRANCH   2  22
BRANCH   6  24
ATOM     24  O   UNL     1      -4.224   2.441 -15.635  1.00  0.00    -0.507 OA
ATOM     25  H   UNL     1      -4.309   1.906 -16.485  1.00  0.00     0.293 HD
ENDBRANCH   6  24
BRANCH   8  26
ATOM     26  O   UNL     1       0.268   3.886 -16.420  1.00  0.00    -0.508 OA
ATOM     27  H   UNL     1       1.172   3.427 -16.413  1.00  0.00     0.293 HD
ENDBRANCH   8  26
TORSDOF 6
ENDMDL
MODEL 2
REMARK VINA RESULT:    -8.203      0.951      1.536
REMARK INTER + INTRA:         -10.124
REMARK INTER:                  -9.800
REMARK INTRA:                  -0.324
REMARK UNBOUND:                -0.242
REMARK SMILES O=c1c(O)c(-c2ccc(O)c(O)c2)oc2cc(O)cc(O)c12
REMARK SMILES IDX 5 1 3 2 2 3 1 4 22 5 20 6 19 7 17 8 16 9 15 10 14 11 6 12
REMARK SMILES IDX 7 13 8 14 9 15 13 16 11 17 10 18 12 20 4 22 21 24 18 26
REMARK H PARENT 10 19 12 21 4 23 21 25 18 27
REMARK Flexibility Score: inf
ROOT
ATOM      1  C   UNL     1      -2.215   2.689 -11.609  1.00  0.00     0.180 A 
ATOM      2  C   UNL     1      -3.590   2.594 -11.889  1.00  0.00     0.208 A 
ATOM      3  C   UNL     1      -4.023   2.709 -13.219  1.00  0.00     0.238 A 
ATOM      4  O   UNL     1      -5.259   2.699 -13.454  1.00  0.00    -0.285 OA
ATOM      5  C   UNL     1      -3.073   2.860 -14.259  1.00  0.00     0.111 A 
ATOM      6  C   UNL     1      -3.396   2.941 -15.648  1.00  0.00     0.134 A 
ATOM      7  C   UNL     1      -2.381   3.196 -16.579  1.00  0.00     0.093 A 
ATOM      8  C   UNL     1      -1.051   3.309 -16.181  1.00  0.00     0.123 A 
ATOM      9  C   UNL     1      -0.716   3.178 -14.833  1.00  0.00     0.094 A 
ATOM     10  C   UNL     1      -1.711   2.961 -13.876  1.00  0.00     0.146 A 
ATOM     11  O   UNL     1      -1.351   2.862 -12.602  1.00  0.00    -0.452 OA
ENDROOT
BRANCH   1  12
ATOM     12  C   UNL     1      -1.684   2.592 -10.230  1.00  0.00     0.025 A 
ATOM     13  C   UNL     1      -1.361   1.332  -9.702  1.00  0.00     0.016 A 
ATOM     14  C   UNL     1      -0.837   1.218  -8.411  1.00  0.00     0.051 A 
ATOM     15  C   UNL     1      -0.615   2.364  -7.636  1.00  0.00     0.157 A 
ATOM     16  C   UNL     1      -1.439   3.741  -9.457  1.00  0.00     0.062 A 
ATOM     17  C   UNL     1      -0.913   3.628  -8.161  1.00  0.00     0.158 A 
BRANCH  15  18
ATOM     18  O   UNL     1      -0.095   2.255  -6.349  1.00  0.00    -0.504 OA
ATOM     19  H   UNL     1       0.898   2.132  -6.186  1.00  0.00     0.293 HD
ENDBRANCH  15  18
BRANCH  17  20
ATOM     20  O   UNL     1      -0.677   4.766  -7.393  1.00  0.00    -0.504 OA
ATOM     21  H   UNL     1       0.142   4.846  -6.800  1.00  0.00     0.293 HD
ENDBRANCH  17  20
ENDBRANCH   1  12
BRANCH   2  22
ATOM     22  O   UNL     1      -4.504   2.369 -10.856  1.00  0.00    -0.502 OA
ATOM     23  H   UNL     1      -4.303   1.753 -10.078  1.00  0.00     0.293 HD
ENDBRANCH   2  22
BRANCH   6  24
ATOM     24  O   UNL     1      -4.681   2.754 -16.166  1.00  0.00    -0.507 OA
ATOM     25  H   UNL     1      -5.222   3.462 -16.638  1.00  0.00     0.293 HD
ENDBRANCH   6  24
BRANCH   8  26
ATOM     26  O   UNL     1      -0.065   3.546 -17.138  1.00  0.00    -0.508 OA
ATOM     27  H   UNL     1      -0.101   4.356 -17.747  1.00  0.00     0.293 HD
ENDBRANCH   8  26
TORSDOF 6
ENDMDL
MODEL 3
REMARK VINA RESULT:    -8.165      1.671      6.676
REMARK INTER + INTRA:         -10.078
REMARK INTER:                  -9.952
REMARK INTRA:                  -0.126
REMARK UNBOUND:                -0.242
REMARK SMILES O=c1c(O)c(-c2ccc(O)c(O)c2)oc2cc(O)cc(O)c12
REMARK SMILES IDX 5 1 3 2 2 3 1 4 22 5 20 6 19 7 17 8 16 9 15 10 14 11 6 12
REMARK SMILES IDX 7 13 8 14 9 15 13 16 11 17 10 18 12 20 4 22 21 24 18 26
REMARK H PARENT 10 19 12 21 4 23 21 25 18 27
REMARK Flexibility Score: inf
ROOT
ATOM      1  C   UNL     1      -1.124   2.833 -12.388  1.00  0.00     0.180 A 
ATOM      2  C   UNL     1      -2.514   3.013 -12.270  1.00  0.00     0.208 A 
ATOM      3  C   UNL     1      -3.051   3.371 -11.024  1.00  0.00     0.238 A 
ATOM      4  O   UNL     1      -4.301   3.456 -10.908  1.00  0.00    -0.285 OA
ATOM      5  C   UNL     1      -2.187   3.599  -9.924  1.00  0.00     0.111 A 
ATOM      6  C   UNL     1      -2.619   4.010  -8.626  1.00  0.00     0.134 A 
ATOM      7  C   UNL     1      -1.685   4.104  -7.586  1.00  0.00     0.093 A 
ATOM      8  C   UNL     1      -0.331   3.865  -7.810  1.00  0.00     0.123 A 
ATOM      9  C   UNL     1       0.110   3.516  -9.087  1.00  0.00     0.094 A 
ATOM     10  C   UNL     1      -0.803   3.378 -10.137  1.00  0.00     0.146 A 
ATOM     11  O   UNL     1      -0.344   3.024 -11.331  1.00  0.00    -0.452 OA
ENDROOT
BRANCH   1  12
ATOM     12  C   UNL     1      -0.486   2.442 -13.665  1.00  0.00     0.025 A 
ATOM     13  C   UNL     1       0.181   1.209 -13.754  1.00  0.00     0.016 A 
ATOM     14  C   UNL     1       0.772   0.809 -14.955  1.00  0.00     0.051 A 
ATOM     15  C   UNL     1       0.693   1.629 -16.089  1.00  0.00     0.157 A 
ATOM     16  C   UNL     1      -0.582   3.251 -14.811  1.00  0.00     0.062 A 
ATOM     17  C   UNL     1       0.011   2.850 -16.018  1.00  0.00     0.158 A 
BRANCH  15  18
ATOM     18  O   UNL     1       1.283   1.234 -17.288  1.00  0.00    -0.504 OA
ATOM     19  H   UNL     1       2.251   1.448 -17.498  1.00  0.00     0.293 HD
ENDBRANCH  15  18
BRANCH  17  20
ATOM     20  O   UNL     1      -0.078   3.656 -17.150  1.00  0.00    -0.504 OA
ATOM     21  H   UNL     1      -0.559   4.549 -17.130  1.00  0.00     0.293 HD
ENDBRANCH  17  20
ENDBRANCH   1  12
BRANCH   2  22
ATOM     22  O   UNL     1      -3.340   2.856 -13.387  1.00  0.00    -0.502 OA
ATOM     23  H   UNL     1      -3.081   3.194 -14.305  1.00  0.00     0.293 HD
ENDBRANCH   2  22
BRANCH   6  24
ATOM     24  O   UNL     1      -3.935   4.360  -8.311  1.00  0.00    -0.507 OA
ATOM     25  H   UNL     1      -4.205   4.984  -7.567  1.00  0.00     0.293 HD
ENDBRANCH   6  24
BRANCH   8  26
ATOM     26  O   UNL     1       0.572   3.984  -6.756  1.00  0.00    -0.508 OA
ATOM     27  H   UNL     1       0.268   3.938  -5.789  1.00  0.00     0.293 HD
ENDBRANCH   8  26
TORSDOF 6
ENDMDL
MODEL 4
REMARK VINA RESULT:    -8.011      2.165      7.033
REMARK INTER + INTRA:          -9.893
REMARK INTER:                  -9.571
REMARK INTRA:                  -0.322
REMARK UNBOUND:                -0.242
REMARK SMILES O=c1c(O)c(-c2ccc(O)c(O)c2)oc2cc(O)cc(O)c12
REMARK SMILES IDX 5 1 3 2 2 3 1 4 22 5 20 6 19 7 17 8 16 9 15 10 14 11 6 12
REMARK SMILES IDX 7 13 8 14 9 15 13 16 11 17 10 18 12 20 4 22 21 24 18 26
REMARK H PARENT 10 19 12 21 4 23 21 25 18 27
REMARK Flexibility Score: inf
ROOT
ATOM      1  C   UNL     1      -1.146   2.126 -12.601  1.00  0.00     0.180 A 
ATOM      2  C   UNL     1      -0.341   0.986 -12.773  1.00  0.00     0.208 A 
ATOM      3  C   UNL     1       0.522   0.598 -11.736  1.00  0.00     0.238 A 
ATOM      4  O   UNL     1       1.293  -0.378 -11.927  1.00  0.00    -0.285 OA
ATOM      5  C   UNL     1       0.529   1.322 -10.518  1.00  0.00     0.111 A 
ATOM      6  C   UNL     1       1.331   0.991  -9.383  1.00  0.00     0.134 A 
ATOM      7  C   UNL     1       1.334   1.840  -8.269  1.00  0.00     0.093 A 
ATOM      8  C   UNL     1       0.519   2.970  -8.222  1.00  0.00     0.123 A 
ATOM      9  C   UNL     1      -0.309   3.273  -9.304  1.00  0.00     0.094 A 
ATOM     10  C   UNL     1      -0.306   2.466 -10.445  1.00  0.00     0.146 A 
ATOM     11  O   UNL     1      -1.094   2.802 -11.459  1.00  0.00    -0.452 OA
ENDROOT
BRANCH   1  12
ATOM     12  C   UNL     1      -2.069   2.605 -13.654  1.00  0.00     0.025 A 
ATOM     13  C   UNL     1      -3.435   2.290 -13.570  1.00  0.00     0.016 A 
ATOM     14  C   UNL     1      -4.329   2.749 -14.540  1.00  0.00     0.051 A 
ATOM     15  C   UNL     1      -3.873   3.544 -15.600  1.00  0.00     0.157 A 
ATOM     16  C   UNL     1      -1.620   3.421 -14.708  1.00  0.00     0.062 A 
ATOM     17  C   UNL     1      -2.517   3.883 -15.682  1.00  0.00     0.158 A 
BRANCH  15  18
ATOM     18  O   UNL     1      -4.761   4.002 -16.571  1.00  0.00    -0.504 OA
ATOM     19  H   UNL     1      -5.500   4.658 -16.346  1.00  0.00     0.293 HD
ENDBRANCH  15  18
BRANCH  17  20
ATOM     20  O   UNL     1      -2.069   4.685 -16.730  1.00  0.00    -0.504 OA
ATOM     21  H   UNL     1      -1.935   4.313 -17.663  1.00  0.00     0.293 HD
ENDBRANCH  17  20
ENDBRANCH   1  12
BRANCH   2  22
ATOM     22  O   UNL     1      -0.419   0.243 -13.954  1.00  0.00    -0.502 OA
ATOM     23  H   UNL     1      -0.482   0.677 -14.867  1.00  0.00     0.293 HD
ENDBRANCH   2  22
BRANCH   6  24
ATOM     24  O   UNL     1       2.115  -0.162  -9.286  1.00  0.00    -0.507 OA
ATOM     25  H   UNL     1       3.072  -0.185  -8.969  1.00  0.00     0.293 HD
ENDBRANCH   6  24
BRANCH   8  26
ATOM     26  O   UNL     1       0.535   3.783  -7.091  1.00  0.00    -0.508 OA
ATOM     27  H   UNL     1       0.939   3.466  -6.216  1.00  0.00     0.293 HD
ENDBRANCH   8  26
TORSDOF 6
ENDMDL
MODEL 5
REMARK VINA RESULT:    -7.988      1.771      6.432
REMARK INTER + INTRA:          -9.865
REMARK INTER:                  -9.546
REMARK INTRA:                  -0.319
REMARK UNBOUND:                -0.242
REMARK SMILES O=c1c(O)c(-c2ccc(O)c(O)c2)oc2cc(O)cc(O)c12
REMARK SMILES IDX 5 1 3 2 2 3 1 4 22 5 20 6 19 7 17 8 16 9 15 10 14 11 6 12
REMARK SMILES IDX 7 13 8 14 9 15 13 16 11 17 10 18 12 20 4 22 21 24 18 26
REMARK H PARENT 10 19 12 21 4 23 21 25 18 27
REMARK Flexibility Score: inf
ROOT
ATOM      1  C   UNL     1      -1.929   2.676 -13.417  1.00  0.00     0.180 A 
ATOM      2  C   UNL     1      -3.303   2.383 -13.471  1.00  0.00     0.208 A 
ATOM      3  C   UNL     1      -4.091   2.596 -12.328  1.00  0.00     0.238 A 
ATOM      4  O   UNL     1      -5.303   2.261 -12.361  1.00  0.00    -0.285 OA
ATOM      5  C   UNL     1      -3.506   3.151 -11.163  1.00  0.00     0.111 A 
ATOM      6  C   UNL     1      -4.219   3.451  -9.962  1.00  0.00     0.134 A 
ATOM      7  C   UNL     1      -3.516   3.899  -8.837  1.00  0.00     0.093 A 
ATOM      8  C   UNL     1      -2.141   4.120  -8.886  1.00  0.00     0.123 A 
ATOM      9  C   UNL     1      -1.443   3.882 -10.071  1.00  0.00     0.094 A 
ATOM     10  C   UNL     1      -2.110   3.398 -11.200  1.00  0.00     0.146 A 
ATOM     11  O   UNL     1      -1.404   3.166 -12.300  1.00  0.00    -0.452 OA
ENDROOT
BRANCH   1  12
ATOM     12  C   UNL     1      -1.032   2.464 -14.575  1.00  0.00     0.025 A 
ATOM     13  C   UNL     1      -0.668   3.559 -15.375  1.00  0.00     0.016 A 
ATOM     14  C   UNL     1       0.195   3.388 -16.460  1.00  0.00     0.051 A 
ATOM     15  C   UNL     1       0.718   2.122 -16.753  1.00  0.00     0.157 A 
ATOM     16  C   UNL     1      -0.488   1.199 -14.860  1.00  0.00     0.062 A 
ATOM     17  C   UNL     1       0.379   1.026 -15.950  1.00  0.00     0.158 A 
BRANCH  15  18
ATOM     18  O   UNL     1       1.577   1.946 -17.836  1.00  0.00    -0.504 OA
ATOM     19  H   UNL     1       1.241   1.610 -18.730  1.00  0.00     0.293 HD
ENDBRANCH  15  18
BRANCH  17  20
ATOM     20  O   UNL     1       0.912  -0.229 -16.235  1.00  0.00    -0.504 OA
ATOM     21  H   UNL     1       1.392  -0.775 -15.528  1.00  0.00     0.293 HD
ENDBRANCH  17  20
ENDBRANCH   1  12
BRANCH   2  22
ATOM     22  O   UNL     1      -3.874   1.908 -14.655  1.00  0.00    -0.502 OA
ATOM     23  H   UNL     1      -3.464   1.153 -15.191  1.00  0.00     0.293 HD
ENDBRANCH   2  22
BRANCH   6  24
ATOM     24  O   UNL     1      -5.607   3.352  -9.829  1.00  0.00    -0.507 OA
ATOM     25  H   UNL     1      -6.087   2.641  -9.299  1.00  0.00     0.293 HD
ENDBRANCH   6  24
BRANCH   8  26
ATOM     26  O   UNL     1      -1.478   4.583  -7.752  1.00  0.00    -0.508 OA
ATOM     27  H   UNL     1      -1.028   5.492  -7.735  1.00  0.00     0.293 HD
ENDBRANCH   8  26
TORSDOF 6
ENDMDL
MODEL 6
REMARK VINA RESULT:    -7.876     13.362     14.571
REMARK INTER + INTRA:          -9.730
REMARK INTER:                  -9.403
REMARK INTRA:                  -0.327
REMARK UNBOUND:                -0.242
REMARK SMILES O=c1c(O)c(-c2ccc(O)c(O)c2)oc2cc(O)cc(O)c12
REMARK SMILES IDX 5 1 3 2 2 3 1 4 22 5 20 6 19 7 17 8 16 9 15 10 14 11 6 12
REMARK SMILES IDX 7 13 8 14 9 15 13 16 11 17 10 18 12 20 4 22 21 24 18 26
REMARK H PARENT 10 19 12 21 4 23 21 25 18 27
REMARK Flexibility Score: inf
ROOT
ATOM      1  C   UNL     1     -13.249  11.204 -10.658  1.00  0.00     0.180 A 
ATOM      2  C   UNL     1     -12.203  12.022 -10.195  1.00  0.00     0.208 A 
ATOM      3  C   UNL     1     -11.622  12.948 -11.076  1.00  0.00     0.238 A 
ATOM      4  O   UNL     1     -10.638  13.623 -10.678  1.00  0.00    -0.285 OA
ATOM      5  C   UNL     1     -12.131  13.085 -12.391  1.00  0.00     0.111 A 
ATOM      6  C   UNL     1     -11.648  14.023 -13.354  1.00  0.00     0.134 A 
ATOM      7  C   UNL     1     -12.157  13.996 -14.659  1.00  0.00     0.093 A 
ATOM      8  C   UNL     1     -13.173  13.112 -15.018  1.00  0.00     0.123 A 
ATOM      9  C   UNL     1     -13.690  12.228 -14.070  1.00  0.00     0.094 A 
ATOM     10  C   UNL     1     -13.176  12.205 -12.771  1.00  0.00     0.146 A 
ATOM     11  O   UNL     1     -13.683  11.334 -11.906  1.00  0.00    -0.452 OA
ENDROOT
BRANCH   1  12
ATOM     12  C   UNL     1     -13.901  10.195  -9.794  1.00  0.00     0.025 A 
ATOM     13  C   UNL     1     -15.112  10.511  -9.156  1.00  0.00     0.016 A 
ATOM     14  C   UNL     1     -15.757   9.568  -8.353  1.00  0.00     0.051 A 
ATOM     15  C   UNL     1     -15.209   8.289  -8.188  1.00  0.00     0.157 A 
ATOM     16  C   UNL     1     -13.367   8.903  -9.642  1.00  0.00     0.062 A 
ATOM     17  C   UNL     1     -14.014   7.954  -8.836  1.00  0.00     0.158 A 
BRANCH  15  18
ATOM     18  O   UNL     1     -15.849   7.346  -7.386  1.00  0.00    -0.504 OA
ATOM     19  H   UNL     1     -15.748   6.351  -7.554  1.00  0.00     0.293 HD
ENDBRANCH  15  18
BRANCH  17  20
ATOM     20  O   UNL     1     -13.479   6.677  -8.682  1.00  0.00    -0.504 OA
ATOM     21  H   UNL     1     -13.338   6.269  -7.765  1.00  0.00     0.293 HD
ENDBRANCH  17  20
ENDBRANCH   1  12
BRANCH   2  22
ATOM     22  O   UNL     1     -11.767  11.924  -8.871  1.00  0.00    -0.502 OA
ATOM     23  H   UNL     1     -11.308  11.097  -8.510  1.00  0.00     0.293 HD
ENDBRANCH   2  22
BRANCH   6  24
ATOM     24  O   UNL     1     -10.697  15.010 -13.079  1.00  0.00    -0.507 OA
ATOM     25  H   UNL     1      -9.709  14.845 -12.966  1.00  0.00     0.293 HD
ENDBRANCH   6  24
BRANCH   8  26
ATOM     26  O   UNL     1     -13.667  13.125 -16.321  1.00  0.00    -0.508 OA
ATOM     27  H   UNL     1     -13.226  13.675 -17.050  1.00  0.00     0.293 HD
ENDBRANCH   8  26
TORSDOF 6
ENDMDL
MODEL 7
REMARK VINA RESULT:    -7.790      3.206      4.741
REMARK INTER + INTRA:          -9.626
REMARK INTER:                  -9.441
REMARK INTRA:                  -0.185
REMARK UNBOUND:                -0.242
REMARK SMILES O=c1c(O)c(-c2ccc(O)c(O)c2)oc2cc(O)cc(O)c12
REMARK SMILES IDX 5 1 3 2 2 3 1 4 22 5 20 6 19 7 17 8 16 9 15 10 14 11 6 12
REMARK SMILES IDX 7 13 8 14 9 15 13 16 11 17 10 18 12 20 4 22 21 24 18 26
REMARK H PARENT 10 19 12 21 4 23 21 25 18 27
REMARK Flexibility Score: inf
ROOT
ATOM      1  C   UNL     1      -3.130   2.410 -13.543  1.00  0.00     0.180 A 
ATOM      2  C   UNL     1      -3.159   3.070 -14.784  1.00  0.00     0.208 A 
ATOM      3  C   UNL     1      -2.086   2.897 -15.673  1.00  0.00     0.238 A 
ATOM      4  O   UNL     1      -2.083   3.549 -16.749  1.00  0.00    -0.285 OA
ATOM      5  C   UNL     1      -1.024   2.023 -15.334  1.00  0.00     0.111 A 
ATOM      6  C   UNL     1       0.093   1.738 -16.178  1.00  0.00     0.134 A 
ATOM      7  C   UNL     1       1.136   0.938 -15.693  1.00  0.00     0.093 A 
ATOM      8  C   UNL     1       1.076   0.364 -14.426  1.00  0.00     0.123 A 
ATOM      9  C   UNL     1      -0.036   0.591 -13.613  1.00  0.00     0.094 A 
ATOM     10  C   UNL     1      -1.076   1.415 -14.053  1.00  0.00     0.146 A 
ATOM     11  O   UNL     1      -2.105   1.622 -13.241  1.00  0.00    -0.452 OA
ENDROOT
BRANCH   1  12
ATOM     12  C   UNL     1      -4.217   2.554 -12.548  1.00  0.00     0.025 A 
ATOM     13  C   UNL     1      -5.481   2.008 -12.823  1.00  0.00     0.016 A 
ATOM     14  C   UNL     1      -6.515   2.113 -11.890  1.00  0.00     0.051 A 
ATOM     15  C   UNL     1      -6.297   2.753 -10.663  1.00  0.00     0.157 A 
ATOM     16  C   UNL     1      -3.996   3.177 -11.307  1.00  0.00     0.062 A 
ATOM     17  C   UNL     1      -5.034   3.282 -10.369  1.00  0.00     0.158 A 
BRANCH  15  18
ATOM     18  O   UNL     1      -7.327   2.861  -9.731  1.00  0.00    -0.504 OA
ATOM     19  H   UNL     1      -7.137   2.976  -8.742  1.00  0.00     0.293 HD
ENDBRANCH  15  18
BRANCH  17  20
ATOM     20  O   UNL     1      -4.816   3.905  -9.142  1.00  0.00    -0.504 OA
ATOM     21  H   UNL     1      -4.248   3.473  -8.421  1.00  0.00     0.293 HD
ENDBRANCH  17  20
ENDBRANCH   1  12
BRANCH   2  22
ATOM     22  O   UNL     1      -4.253   3.868 -15.131  1.00  0.00    -0.502 OA
ATOM     23  H   UNL     1      -4.859   3.649 -15.912  1.00  0.00     0.293 HD
ENDBRANCH   2  22
BRANCH   6  24
ATOM     24  O   UNL     1       0.215   2.187 -17.496  1.00  0.00    -0.507 OA
ATOM     25  H   UNL     1       1.068   2.178 -18.032  1.00  0.00     0.293 HD
ENDBRANCH   6  24
BRANCH   8  26
ATOM     26  O   UNL     1       2.125  -0.440 -13.984  1.00  0.00    -0.508 OA
ATOM     27  H   UNL     1       2.936  -0.620 -14.566  1.00  0.00     0.293 HD
ENDBRANCH   8  26
TORSDOF 6
ENDMDL
MODEL 8
REMARK VINA RESULT:    -7.634      1.682      3.358
REMARK INTER + INTRA:          -9.438
REMARK INTER:                  -9.180
REMARK INTRA:                  -0.258
REMARK UNBOUND:                -0.242
REMARK SMILES O=c1c(O)c(-c2ccc(O)c(O)c2)oc2cc(O)cc(O)c12
REMARK SMILES IDX 5 1 3 2 2 3 1 4 22 5 20 6 19 7 17 8 16 9 15 10 14 11 6 12
REMARK SMILES IDX 7 13 8 14 9 15 13 16 11 17 10 18 12 20 4 22 21 24 18 26
REMARK H PARENT 10 19 12 21 4 23 21 25 18 27
REMARK Flexibility Score: inf
ROOT
ATOM      1  C   UNL     1      -1.383   2.353 -12.457  1.00  0.00     0.180 A 
ATOM      2  C   UNL     1      -0.275   2.006 -13.248  1.00  0.00     0.208 A 
ATOM      3  C   UNL     1      -0.394   2.057 -14.646  1.00  0.00     0.238 A 
ATOM      4  O   UNL     1       0.577   1.673 -15.349  1.00  0.00    -0.285 OA
ATOM      5  C   UNL     1      -1.601   2.507 -15.235  1.00  0.00     0.111 A 
ATOM      6  C   UNL     1      -1.818   2.641 -16.640  1.00  0.00     0.134 A 
ATOM      7  C   UNL     1      -3.089   2.996 -17.111  1.00  0.00     0.093 A 
ATOM      8  C   UNL     1      -4.130   3.283 -16.231  1.00  0.00     0.123 A 
ATOM      9  C   UNL     1      -3.915   3.208 -14.854  1.00  0.00     0.094 A 
ATOM     10  C   UNL     1      -2.668   2.820 -14.354  1.00  0.00     0.146 A 
ATOM     11  O   UNL     1      -2.512   2.742 -13.038  1.00  0.00    -0.452 OA
ENDROOT
BRANCH   1  12
ATOM     12  C   UNL     1      -1.339   2.311 -10.977  1.00  0.00     0.025 A 
ATOM     13  C   UNL     1      -1.365   1.070 -10.321  1.00  0.00     0.016 A 
ATOM     14  C   UNL     1      -1.302   1.004  -8.927  1.00  0.00     0.051 A 
ATOM     15  C   UNL     1      -1.198   2.178  -8.169  1.00  0.00     0.157 A 
ATOM     16  C   UNL     1      -1.213   3.485 -10.213  1.00  0.00     0.062 A 
ATOM     17  C   UNL     1      -1.149   3.420  -8.813  1.00  0.00     0.158 A 
BRANCH  15  18
ATOM     18  O   UNL     1      -1.137   2.116  -6.779  1.00  0.00    -0.504 OA
ATOM     19  H   UNL     1      -1.948   1.873  -6.223  1.00  0.00     0.293 HD
ENDBRANCH  15  18
BRANCH  17  20
ATOM     20  O   UNL     1      -1.031   4.584  -8.058  1.00  0.00    -0.504 OA
ATOM     21  H   UNL     1      -1.512   5.438  -8.319  1.00  0.00     0.293 HD
ENDBRANCH  17  20
ENDBRANCH   1  12
BRANCH   2  22
ATOM     22  O   UNL     1       0.932   1.638 -12.646  1.00  0.00    -0.502 OA
ATOM     23  H   UNL     1       1.657   1.137 -13.145  1.00  0.00     0.293 HD
ENDBRANCH   2  22
BRANCH   6  24
ATOM     24  O   UNL     1      -0.824   2.466 -17.607  1.00  0.00    -0.507 OA
ATOM     25  H   UNL     1      -0.994   2.331 -18.592  1.00  0.00     0.293 HD
ENDBRANCH   6  24
BRANCH   8  26
ATOM     26  O   UNL     1      -5.376   3.649 -16.735  1.00  0.00    -0.508 OA
ATOM     27  H   UNL     1      -5.688   4.614 -16.729  1.00  0.00     0.293 HD
ENDBRANCH   8  26
TORSDOF 6
ENDMDL
MODEL 9
REMARK VINA RESULT:    -7.579      2.308      3.334
REMARK INTER + INTRA:          -9.372
REMARK INTER:                  -9.393
REMARK INTRA:                   0.021
REMARK UNBOUND:                -0.242
REMARK SMILES O=c1c(O)c(-c2ccc(O)c(O)c2)oc2cc(O)cc(O)c12
REMARK SMILES IDX 5 1 3 2 2 3 1 4 22 5 20 6 19 7 17 8 16 9 15 10 14 11 6 12
REMARK SMILES IDX 7 13 8 14 9 15 13 16 11 17 10 18 12 20 4 22 21 24 18 26
REMARK H PARENT 10 19 12 21 4 23 21 25 18 27
REMARK Flexibility Score: inf
ROOT
ATOM      1  C   UNL     1       0.083   2.351 -11.878  1.00  0.00     0.180 A 
ATOM      2  C   UNL     1       0.691   1.181 -12.365  1.00  0.00     0.208 A 
ATOM      3  C   UNL     1       0.630   0.903 -13.740  1.00  0.00     0.238 A 
ATOM      4  O   UNL     1       1.110  -0.183 -14.157  1.00  0.00    -0.285 OA
ATOM      5  C   UNL     1       0.011   1.826 -14.618  1.00  0.00     0.111 A 
ATOM      6  C   UNL     1      -0.069   1.668 -16.036  1.00  0.00     0.134 A 
ATOM      7  C   UNL     1      -0.799   2.594 -16.793  1.00  0.00     0.093 A 
ATOM      8  C   UNL     1      -1.395   3.703 -16.196  1.00  0.00     0.123 A 
ATOM      9  C   UNL     1      -1.277   3.897 -14.819  1.00  0.00     0.094 A 
ATOM     10  C   UNL     1      -0.588   2.970 -14.031  1.00  0.00     0.146 A 
ATOM     11  O   UNL     1      -0.517   3.182 -12.723  1.00  0.00    -0.452 OA
ENDROOT
BRANCH   1  12
ATOM     12  C   UNL     1       0.094   2.705 -10.441  1.00  0.00     0.025 A 
ATOM     13  C   UNL     1       1.312   2.724  -9.743  1.00  0.00     0.016 A 
ATOM     14  C   UNL     1       1.349   3.076  -8.392  1.00  0.00     0.051 A 
ATOM     15  C   UNL     1       0.170   3.428  -7.722  1.00  0.00     0.157 A 
ATOM     16  C   UNL     1      -1.084   3.080  -9.769  1.00  0.00     0.062 A 
ATOM     17  C   UNL     1      -1.048   3.434  -8.412  1.00  0.00     0.158 A 
BRANCH  15  18
ATOM     18  O   UNL     1       0.203   3.778  -6.373  1.00  0.00    -0.504 OA
ATOM     19  H   UNL     1       0.519   4.692  -6.070  1.00  0.00     0.293 HD
ENDBRANCH  15  18
BRANCH  17  20
ATOM     20  O   UNL     1      -2.216   3.799  -7.747  1.00  0.00    -0.504 OA
ATOM     21  H   UNL     1      -2.220   4.001  -6.753  1.00  0.00     0.293 HD
ENDBRANCH  17  20
ENDBRANCH   1  12
BRANCH   2  22
ATOM     22  O   UNL     1       1.363   0.322 -11.491  1.00  0.00    -0.502 OA
ATOM     23  H   UNL     1       1.614   0.593 -10.549  1.00  0.00     0.293 HD
ENDBRANCH   2  22
BRANCH   6  24
ATOM     24  O   UNL     1       0.563   0.645 -16.748  1.00  0.00    -0.507 OA
ATOM     25  H   UNL     1       0.638   0.600 -17.752  1.00  0.00     0.293 HD
ENDBRANCH   6  24
BRANCH   8  26
ATOM     26  O   UNL     1      -2.098   4.612 -16.983  1.00  0.00    -0.508 OA
ATOM     27  H   UNL     1      -1.710   5.518 -17.221  1.00  0.00     0.293 HD
ENDBRANCH   8  26
TORSDOF 6
ENDMDL
