MODEL 1
REMARK VINA RESULT:    -3.094      0.000      0.000
REMARK INTER + INTRA:          -8.826
REMARK INTER:                  -5.987
REMARK INTRA:                  -2.839
REMARK UNBOUND:                -2.839
REMARK SMILES CCCCCCCCCCCCCCCCCC(=O)[O-]
REMARK SMILES IDX 10 1 11 2 12 3 13 4 14 5 15 6 16 7 17 8 18 9 19 10 20 11
REMARK SMILES IDX 9 12 8 13 7 14 6 15 5 16 4 17 3 18 2 19 1 20
REMARK H PARENT
REMARK Flexibility Score: inf
ROOT
ATOM      1  C   UNL     1      25.021  -2.723 -28.693  1.00  0.00     0.000 C 
ENDROOT
BRANCH   1   2
ATOM      2  C   UNL     1      24.178  -4.014 -28.731  1.00  0.00     0.000 C 
BRANCH   2   3
ATOM      3  C   UNL     1      23.472  -4.299 -30.072  1.00  0.00     0.000 C 
BRANCH   3   4
ATOM      4  C   UNL     1      23.825  -5.651 -30.718  1.00  0.00     0.000 C 
BRANCH   4   5
ATOM      5  C   UNL     1      24.373  -5.505 -32.145  1.00  0.00     0.000 C 
BRANCH   5   6
ATOM      6  C   UNL     1      23.885  -4.201 -32.791  1.00  0.00     0.000 C 
BRANCH   6   7
ATOM      7  C   UNL     1      24.675  -3.823 -34.058  1.00  0.00     0.006 C 
BRANCH   7   8
ATOM      8  C   UNL     1      25.764  -4.840 -34.442  1.00  0.00     0.053 C 
BRANCH   8   9
ATOM      9  C   UNL     1      26.539  -4.422 -35.655  1.00  0.00     0.041 C 
ATOM     10  O   UNL     1      27.066  -3.279 -35.707  1.00  0.00    -0.550 OA
ATOM     11  O   UNL     1      26.652  -5.280 -36.742  1.00  0.00    -0.550 OA
ENDBRANCH   8   9
ENDBRANCH   7   8
ENDBRANCH   6   7
ENDBRANCH   5   6
ENDBRANCH   4   5
ENDBRANCH   3   4
ENDBRANCH   2   3
ENDBRANCH   1   2
BRANCH   1  12
ATOM     12  C   UNL     1      25.301  -2.086 -30.067  1.00  0.00     0.000 C 
BRANCH  12  13
ATOM     13  C   UNL     1      26.796  -2.081 -30.428  1.00  0.00    -0.000 C 
BRANCH  13  14
ATOM     14  C   UNL     1      27.223  -3.346 -31.190  1.00  0.00    -0.000 C 
BRANCH  14  15
ATOM     15  C   UNL     1      28.080  -4.294 -30.336  1.00  0.00    -0.000 C 
BRANCH  15  16
ATOM     16  C   UNL     1      27.385  -5.649 -30.154  1.00  0.00    -0.000 C 
BRANCH  16  17
ATOM     17  C   UNL     1      27.992  -6.426 -28.977  1.00  0.00    -0.000 C 
BRANCH  17  18
ATOM     18  C   UNL     1      27.119  -7.630 -28.561  1.00  0.00    -0.000 C 
BRANCH  18  19
ATOM     19  C   UNL     1      25.875  -7.237 -27.745  1.00  0.00    -0.003 C 
ATOM     20  C   UNL     1      24.642  -8.063 -28.101  1.00  0.00     0.004 C 
ENDBRANCH  18  19
ENDBRANCH  17  18
ENDBRANCH  16  17
ENDBRANCH  15  16
ENDBRANCH  14  15
ENDBRANCH  13  14
ENDBRANCH  12  13
ENDBRANCH   1  12
TORSDOF 16
ENDMDL
MODEL 2
REMARK VINA RESULT:    -3.067      8.349     10.661
REMARK INTER + INTRA:          -8.776
REMARK INTER:                  -5.824
REMARK INTRA:                  -2.952
REMARK UNBOUND:                -2.839
REMARK SMILES CCCCCCCCCCCCCCCCCC(=O)[O-]
REMARK SMILES IDX 10 1 11 2 12 3 13 4 14 5 15 6 16 7 17 8 18 9 19 10 20 11
REMARK SMILES IDX 9 12 8 13 7 14 6 15 5 16 4 17 3 18 2 19 1 20
REMARK H PARENT
REMARK Flexibility Score: inf
ROOT
ATOM      1  C   UNL     1      30.934   0.431 -38.982  1.00  0.00     0.000 C 
ENDROOT
BRANCH   1   2
ATOM      2  C   UNL     1      29.843   0.938 -38.017  1.00  0.00     0.000 C 
BRANCH   2   3
ATOM      3  C   UNL     1      29.651   0.095 -36.740  1.00  0.00     0.000 C 
BRANCH   3   4
ATOM      4  C   UNL     1      29.984   0.823 -35.425  1.00  0.00     0.000 C 
BRANCH   4   5
ATOM      5  C   UNL     1      31.098   1.867 -35.587  1.00  0.00     0.000 C 
BRANCH   5   6
ATOM      6  C   UNL     1      31.493   2.466 -34.229  1.00  0.00     0.000 C 
BRANCH   6   7
ATOM      7  C   UNL     1      33.004   2.376 -33.947  1.00  0.00     0.006 C 
BRANCH   7   8
ATOM      8  C   UNL     1      33.430   3.012 -32.613  1.00  0.00     0.053 C 
BRANCH   8   9
ATOM      9  C   UNL     1      33.832   4.449 -32.763  1.00  0.00     0.041 C 
ATOM     10  O   UNL     1      34.780   4.764 -33.531  1.00  0.00    -0.550 OA
ATOM     11  O   UNL     1      33.185   5.436 -32.031  1.00  0.00    -0.550 OA
ENDBRANCH   8   9
ENDBRANCH   7   8
ENDBRANCH   6   7
ENDBRANCH   5   6
ENDBRANCH   4   5
ENDBRANCH   3   4
ENDBRANCH   2   3
ENDBRANCH   1   2
BRANCH   1  12
ATOM     12  C   UNL     1      31.227  -1.079 -38.900  1.00  0.00     0.000 C 
BRANCH  12  13
ATOM     13  C   UNL     1      32.696  -1.383 -38.562  1.00  0.00    -0.000 C 
BRANCH  13  14
ATOM     14  C   UNL     1      33.460  -0.139 -38.079  1.00  0.00    -0.000 C 
BRANCH  14  15
ATOM     15  C   UNL     1      33.849  -0.221 -36.594  1.00  0.00    -0.000 C 
BRANCH  15  16
ATOM     16  C   UNL     1      33.488  -1.591 -36.007  1.00  0.00    -0.000 C 
BRANCH  16  17
ATOM     17  C   UNL     1      32.687  -1.440 -34.705  1.00  0.00    -0.000 C 
BRANCH  17  18
ATOM     18  C   UNL     1      31.700  -2.606 -34.489  1.00  0.00    -0.000 C 
BRANCH  18  19
ATOM     19  C   UNL     1      31.611  -3.569 -35.686  1.00  0.00    -0.003 C 
ATOM     20  C   UNL     1      30.237  -3.570 -36.351  1.00  0.00     0.004 C 
ENDBRANCH  18  19
ENDBRANCH  17  18
ENDBRANCH  16  17
ENDBRANCH  15  16
ENDBRANCH  14  15
ENDBRANCH  13  14
ENDBRANCH  12  13
ENDBRANCH   1  12
TORSDOF 16
ENDMDL
MODEL 3
REMARK VINA RESULT:    -3.058      3.541      6.518
REMARK INTER + INTRA:          -8.758
REMARK INTER:                  -5.768
REMARK INTRA:                  -2.990
REMARK UNBOUND:                -2.839
REMARK SMILES CCCCCCCCCCCCCCCCCC(=O)[O-]
REMARK SMILES IDX 10 1 11 2 12 3 13 4 14 5 15 6 16 7 17 8 18 9 19 10 20 11
REMARK SMILES IDX 9 12 8 13 7 14 6 15 5 16 4 17 3 18 2 19 1 20
REMARK H PARENT
REMARK Flexibility Score: inf
ROOT
ATOM      1  C   UNL     1      26.022  -2.937 -29.767  1.00  0.00     0.000 C 
ENDROOT
BRANCH   1   2
ATOM      2  C   UNL     1      27.279  -3.503 -30.458  1.00  0.00     0.000 C 
BRANCH   2   3
ATOM      3  C   UNL     1      27.408  -5.040 -30.431  1.00  0.00     0.000 C 
BRANCH   3   4
ATOM      4  C   UNL     1      28.323  -5.597 -29.326  1.00  0.00     0.000 C 
BRANCH   4   5
ATOM      5  C   UNL     1      27.590  -6.545 -28.366  1.00  0.00     0.000 C 
BRANCH   5   6
ATOM      6  C   UNL     1      26.801  -7.610 -29.141  1.00  0.00     0.000 C 
BRANCH   6   7
ATOM      7  C   UNL     1      25.339  -7.736 -28.673  1.00  0.00     0.006 C 
BRANCH   7   8
ATOM      8  C   UNL     1      25.187  -8.039 -27.172  1.00  0.00     0.053 C 
BRANCH   8   9
ATOM      9  C   UNL     1      24.663  -6.867 -26.398  1.00  0.00     0.041 C 
ATOM     10  O   UNL     1      25.158  -6.577 -25.277  1.00  0.00    -0.550 OA
ATOM     11  O   UNL     1      23.608  -6.115 -26.898  1.00  0.00    -0.550 OA
ENDBRANCH   8   9
ENDBRANCH   7   8
ENDBRANCH   6   7
ENDBRANCH   5   6
ENDBRANCH   4   5
ENDBRANCH   3   4
ENDBRANCH   2   3
ENDBRANCH   1   2
BRANCH   1  12
ATOM     12  C   UNL     1      25.060  -3.994 -29.195  1.00  0.00     0.000 C 
BRANCH  12  13
ATOM     13  C   UNL     1      23.775  -4.142 -30.026  1.00  0.00    -0.000 C 
BRANCH  13  14
ATOM     14  C   UNL     1      23.694  -5.495 -30.751  1.00  0.00    -0.000 C 
BRANCH  14  15
ATOM     15  C   UNL     1      24.326  -5.458 -32.151  1.00  0.00    -0.000 C 
BRANCH  15  16
ATOM     16  C   UNL     1      23.843  -4.234 -32.939  1.00  0.00    -0.000 C 
BRANCH  16  17
ATOM     17  C   UNL     1      25.027  -3.460 -33.537  1.00  0.00    -0.000 C 
BRANCH  17  18
ATOM     18  C   UNL     1      24.967  -1.954 -33.203  1.00  0.00    -0.000 C 
BRANCH  18  19
ATOM     19  C   UNL     1      23.599  -1.495 -32.670  1.00  0.00    -0.003 C 
ATOM     20  C   UNL     1      23.708  -0.576 -31.456  1.00  0.00     0.004 C 
ENDBRANCH  18  19
ENDBRANCH  17  18
ENDBRANCH  16  17
ENDBRANCH  15  16
ENDBRANCH  14  15
ENDBRANCH  13  14
ENDBRANCH  12  13
ENDBRANCH   1  12
TORSDOF 16
ENDMDL
MODEL 4
REMARK VINA RESULT:    -3.044      5.377      9.014
REMARK INTER + INTRA:          -8.731
REMARK INTER:                  -6.390
REMARK INTRA:                  -2.341
REMARK UNBOUND:                -2.839
REMARK SMILES CCCCCCCCCCCCCCCCCC(=O)[O-]
REMARK SMILES IDX 10 1 11 2 12 3 13 4 14 5 15 6 16 7 17 8 18 9 19 10 20 11
REMARK SMILES IDX 9 12 8 13 7 14 6 15 5 16 4 17 3 18 2 19 1 20
REMARK H PARENT
REMARK Flexibility Score: inf
ROOT
ATOM      1  C   UNL     1      28.678   0.044 -39.014  1.00  0.00     0.000 C 
ENDROOT
BRANCH   1   2
ATOM      2  C   UNL     1      28.741  -1.166 -39.968  1.00  0.00     0.000 C 
BRANCH   2   3
ATOM      3  C   UNL     1      29.761  -2.255 -39.582  1.00  0.00     0.000 C 
BRANCH   3   4
ATOM      4  C   UNL     1      29.147  -3.611 -39.187  1.00  0.00     0.000 C 
BRANCH   4   5
ATOM      5  C   UNL     1      28.325  -3.538 -37.892  1.00  0.00     0.000 C 
BRANCH   5   6
ATOM      6  C   UNL     1      27.803  -4.925 -37.493  1.00  0.00     0.000 C 
BRANCH   6   7
ATOM      7  C   UNL     1      26.512  -4.866 -36.655  1.00  0.00     0.006 C 
BRANCH   7   8
ATOM      8  C   UNL     1      26.710  -4.286 -35.243  1.00  0.00     0.053 C 
BRANCH   8   9
ATOM      9  C   UNL     1      25.459  -4.341 -34.418  1.00  0.00     0.041 C 
ATOM     10  O   UNL     1      25.350  -5.183 -33.489  1.00  0.00    -0.550 OA
ATOM     11  O   UNL     1      24.401  -3.485 -34.698  1.00  0.00    -0.550 OA
ENDBRANCH   8   9
ENDBRANCH   7   8
ENDBRANCH   6   7
ENDBRANCH   5   6
ENDBRANCH   4   5
ENDBRANCH   3   4
ENDBRANCH   2   3
ENDBRANCH   1   2
BRANCH   1  12
ATOM     12  C   UNL     1      29.528  -0.088 -37.736  1.00  0.00     0.000 C 
BRANCH  12  13
ATOM     13  C   UNL     1      30.600   1.008 -37.619  1.00  0.00    -0.000 C 
BRANCH  13  14
ATOM     14  C   UNL     1      31.739   0.830 -38.636  1.00  0.00    -0.000 C 
BRANCH  14  15
ATOM     15  C   UNL     1      32.942   0.071 -38.054  1.00  0.00    -0.000 C 
BRANCH  15  16
ATOM     16  C   UNL     1      33.096  -1.303 -38.717  1.00  0.00    -0.000 C 
BRANCH  16  17
ATOM     17  C   UNL     1      33.231  -2.412 -37.663  1.00  0.00    -0.000 C 
BRANCH  17  18
ATOM     18  C   UNL     1      32.167  -2.293 -36.551  1.00  0.00    -0.000 C 
BRANCH  18  19
ATOM     19  C   UNL     1      31.533  -3.639 -36.158  1.00  0.00    -0.003 C 
ATOM     20  C   UNL     1      32.046  -4.809 -36.995  1.00  0.00     0.004 C 
ENDBRANCH  18  19
ENDBRANCH  17  18
ENDBRANCH  16  17
ENDBRANCH  15  16
ENDBRANCH  14  15
ENDBRANCH  13  14
ENDBRANCH  12  13
ENDBRANCH   1  12
TORSDOF 16
ENDMDL
MODEL 5
REMARK VINA RESULT:    -3.010      1.898      3.883
REMARK INTER + INTRA:          -8.666
REMARK INTER:                  -5.932
REMARK INTRA:                  -2.734
REMARK UNBOUND:                -2.839
REMARK SMILES CCCCCCCCCCCCCCCCCC(=O)[O-]
REMARK SMILES IDX 10 1 11 2 12 3 13 4 14 5 15 6 16 7 17 8 18 9 19 10 20 11
REMARK SMILES IDX 9 12 8 13 7 14 6 15 5 16 4 17 3 18 2 19 1 20
REMARK H PARENT
REMARK Flexibility Score: inf
ROOT
ATOM      1  C   UNL     1      27.074  -6.370 -29.043  1.00  0.00     0.000 C 
ENDROOT
BRANCH   1   2
ATOM      2  C   UNL     1      26.666  -5.418 -30.186  1.00  0.00     0.000 C 
BRANCH   2   3
ATOM      3  C   UNL     1      25.641  -4.332 -29.801  1.00  0.00     0.000 C 
BRANCH   3   4
ATOM      4  C   UNL     1      24.193  -4.621 -30.238  1.00  0.00     0.000 C 
BRANCH   4   5
ATOM      5  C   UNL     1      24.113  -5.486 -31.504  1.00  0.00     0.000 C 
BRANCH   5   6
ATOM      6  C   UNL     1      24.182  -4.618 -32.769  1.00  0.00     0.000 C 
BRANCH   6   7
ATOM      7  C   UNL     1      25.453  -4.866 -33.602  1.00  0.00     0.006 C 
BRANCH   7   8
ATOM      8  C   UNL     1      25.853  -3.681 -34.499  1.00  0.00     0.053 C 
BRANCH   8   9
ATOM      9  C   UNL     1      25.427  -3.870 -35.925  1.00  0.00     0.041 C 
ATOM     10  O   UNL     1      24.274  -3.523 -36.292  1.00  0.00    -0.550 OA
ATOM     11  O   UNL     1      26.290  -4.461 -36.839  1.00  0.00    -0.550 OA
ENDBRANCH   8   9
ENDBRANCH   7   8
ENDBRANCH   6   7
ENDBRANCH   5   6
ENDBRANCH   4   5
ENDBRANCH   3   4
ENDBRANCH   2   3
ENDBRANCH   1   2
BRANCH   1  12
ATOM     12  C   UNL     1      26.526  -7.804 -29.161  1.00  0.00     0.000 C 
BRANCH  12  13
ATOM     13  C   UNL     1      25.040  -7.906 -28.778  1.00  0.00    -0.000 C 
BRANCH  13  14
ATOM     14  C   UNL     1      24.788  -7.575 -27.298  1.00  0.00    -0.000 C 
BRANCH  14  15
ATOM     15  C   UNL     1      23.920  -6.321 -27.109  1.00  0.00    -0.000 C 
BRANCH  15  16
ATOM     16  C   UNL     1      24.650  -5.270 -26.263  1.00  0.00    -0.000 C 
BRANCH  16  17
ATOM     17  C   UNL     1      25.871  -5.880 -25.559  1.00  0.00    -0.000 C 
BRANCH  17  18
ATOM     18  C   UNL     1      27.090  -4.933 -25.581  1.00  0.00    -0.000 C 
BRANCH  18  19
ATOM     19  C   UNL     1      26.851  -3.639 -26.378  1.00  0.00    -0.003 C 
ATOM     20  C   UNL     1      28.063  -3.210 -27.201  1.00  0.00     0.004 C 
ENDBRANCH  18  19
ENDBRANCH  17  18
ENDBRANCH  16  17
ENDBRANCH  15  16
ENDBRANCH  14  15
ENDBRANCH  13  14
ENDBRANCH  12  13
ENDBRANCH   1  12
TORSDOF 16
ENDMDL
MODEL 6
REMARK VINA RESULT:    -3.009      5.452      8.727
REMARK INTER + INTRA:          -8.663
REMARK INTER:                  -6.157
REMARK INTRA:                  -2.506
REMARK UNBOUND:                -2.839
REMARK SMILES CCCCCCCCCCCCCCCCCC(=O)[O-]
REMARK SMILES IDX 10 1 11 2 12 3 13 4 14 5 15 6 16 7 17 8 18 9 19 10 20 11
REMARK SMILES IDX 9 12 8 13 7 14 6 15 5 16 4 17 3 18 2 19 1 20
REMARK H PARENT
REMARK Flexibility Score: inf
ROOT
ATOM      1  C   UNL     1      29.553  -1.383 -35.966  1.00  0.00     0.000 C 
ENDROOT
BRANCH   1   2
ATOM      2  C   UNL     1      30.080  -2.689 -36.597  1.00  0.00     0.000 C 
BRANCH   2   3
ATOM      3  C   UNL     1      29.820  -2.839 -38.109  1.00  0.00     0.000 C 
BRANCH   3   4
ATOM      4  C   UNL     1      28.539  -3.610 -38.476  1.00  0.00     0.000 C 
BRANCH   4   5
ATOM      5  C   UNL     1      28.262  -4.789 -37.531  1.00  0.00     0.000 C 
BRANCH   5   6
ATOM      6  C   UNL     1      26.843  -4.707 -36.951  1.00  0.00     0.000 C 
BRANCH   6   7
ATOM      7  C   UNL     1      26.805  -4.093 -35.539  1.00  0.00     0.006 C 
BRANCH   7   8
ATOM      8  C   UNL     1      26.070  -4.960 -34.501  1.00  0.00     0.053 C 
BRANCH   8   9
ATOM      9  C   UNL     1      24.877  -4.267 -33.913  1.00  0.00     0.041 C 
ATOM     10  O   UNL     1      24.296  -4.752 -32.907  1.00  0.00    -0.550 OA
ATOM     11  O   UNL     1      24.386  -3.106 -34.497  1.00  0.00    -0.550 OA
ENDBRANCH   8   9
ENDBRANCH   7   8
ENDBRANCH   6   7
ENDBRANCH   5   6
ENDBRANCH   4   5
ENDBRANCH   3   4
ENDBRANCH   2   3
ENDBRANCH   1   2
BRANCH   1  12
ATOM     12  C   UNL     1      29.174  -0.280 -36.971  1.00  0.00     0.000 C 
BRANCH  12  13
ATOM     13  C   UNL     1      30.303   0.742 -37.186  1.00  0.00    -0.000 C 
BRANCH  13  14
ATOM     14  C   UNL     1      30.972   0.601 -38.562  1.00  0.00    -0.000 C 
BRANCH  14  15
ATOM     15  C   UNL     1      32.507   0.573 -38.477  1.00  0.00    -0.000 C 
BRANCH  15  16
ATOM     16  C   UNL     1      33.035  -0.864 -38.570  1.00  0.00    -0.000 C 
BRANCH  16  17
ATOM     17  C   UNL     1      33.494  -1.373 -37.196  1.00  0.00    -0.000 C 
BRANCH  17  18
ATOM     18  C   UNL     1      33.934  -0.224 -36.265  1.00  0.00    -0.000 C 
BRANCH  18  19
ATOM     19  C   UNL     1      33.194  -0.207 -34.916  1.00  0.00    -0.003 C 
ATOM     20  C   UNL     1      32.982  -1.602 -34.332  1.00  0.00     0.004 C 
ENDBRANCH  18  19
ENDBRANCH  17  18
ENDBRANCH  16  17
ENDBRANCH  15  16
ENDBRANCH  14  15
ENDBRANCH  13  14
ENDBRANCH  12  13
ENDBRANCH   1  12
TORSDOF 16
ENDMDL
MODEL 7
REMARK VINA RESULT:    -2.987      8.988     11.056
REMARK INTER + INTRA:          -8.621
REMARK INTER:                  -5.897
REMARK INTRA:                  -2.724
REMARK UNBOUND:                -2.839
REMARK SMILES CCCCCCCCCCCCCCCCCC(=O)[O-]
REMARK SMILES IDX 10 1 11 2 12 3 13 4 14 5 15 6 16 7 17 8 18 9 19 10 20 11
REMARK SMILES IDX 9 12 8 13 7 14 6 15 5 16 4 17 3 18 2 19 1 20
REMARK H PARENT
REMARK Flexibility Score: inf
ROOT
ATOM      1  C   UNL     1      32.381  -0.223 -34.588  1.00  0.00     0.000 C 
ENDROOT
BRANCH   1   2
ATOM      2  C   UNL     1      30.893  -0.157 -34.986  1.00  0.00     0.000 C 
BRANCH   2   3
ATOM      3  C   UNL     1      30.153   1.125 -34.553  1.00  0.00     0.000 C 
BRANCH   3   4
ATOM      4  C   UNL     1      30.634   2.417 -35.239  1.00  0.00     0.000 C 
BRANCH   4   5
ATOM      5  C   UNL     1      31.135   3.471 -34.242  1.00  0.00     0.000 C 
BRANCH   5   6
ATOM      6  C   UNL     1      31.364   2.851 -32.856  1.00  0.00     0.000 C 
BRANCH   6   7
ATOM      7  C   UNL     1      32.771   3.132 -32.296  1.00  0.00     0.006 C 
BRANCH   7   8
ATOM      8  C   UNL     1      33.790   3.576 -33.360  1.00  0.00     0.053 C 
BRANCH   8   9
ATOM      9  C   UNL     1      34.339   4.946 -33.094  1.00  0.00     0.041 C 
ATOM     10  O   UNL     1      33.741   5.726 -32.306  1.00  0.00    -0.550 OA
ATOM     11  O   UNL     1      35.492   5.374 -33.740  1.00  0.00    -0.550 OA
ENDBRANCH   8   9
ENDBRANCH   7   8
ENDBRANCH   6   7
ENDBRANCH   5   6
ENDBRANCH   4   5
ENDBRANCH   3   4
ENDBRANCH   2   3
ENDBRANCH   1   2
BRANCH   1  12
ATOM     12  C   UNL     1      33.284  -0.998 -35.566  1.00  0.00     0.000 C 
BRANCH  12  13
ATOM     13  C   UNL     1      33.950  -0.086 -36.610  1.00  0.00    -0.000 C 
BRANCH  13  14
ATOM     14  C   UNL     1      33.402  -0.316 -38.028  1.00  0.00    -0.000 C 
BRANCH  14  15
ATOM     15  C   UNL     1      32.247   0.634 -38.380  1.00  0.00    -0.000 C 
BRANCH  15  16
ATOM     16  C   UNL     1      30.960  -0.149 -38.669  1.00  0.00    -0.000 C 
BRANCH  16  17
ATOM     17  C   UNL     1      31.223  -1.663 -38.663  1.00  0.00    -0.000 C 
BRANCH  17  18
ATOM     18  C   UNL     1      30.272  -2.416 -37.709  1.00  0.00    -0.000 C 
BRANCH  18  19
ATOM     19  C   UNL     1      30.930  -3.615 -37.003  1.00  0.00    -0.003 C 
ATOM     20  C   UNL     1      32.328  -3.927 -37.532  1.00  0.00     0.004 C 
ENDBRANCH  18  19
ENDBRANCH  17  18
ENDBRANCH  16  17
ENDBRANCH  15  16
ENDBRANCH  14  15
ENDBRANCH  13  14
ENDBRANCH  12  13
ENDBRANCH   1  12
TORSDOF 16
ENDMDL
MODEL 8
REMARK VINA RESULT:    -2.934      9.572     12.497
REMARK INTER + INTRA:          -8.518
REMARK INTER:                  -6.427
REMARK INTRA:                  -2.091
REMARK UNBOUND:                -2.839
REMARK SMILES CCCCCCCCCCCCCCCCCC(=O)[O-]
REMARK SMILES IDX 10 1 11 2 12 3 13 4 14 5 15 6 16 7 17 8 18 9 19 10 20 11
REMARK SMILES IDX 9 12 8 13 7 14 6 15 5 16 4 17 3 18 2 19 1 20
REMARK H PARENT
REMARK Flexibility Score: inf
ROOT
ATOM      1  C   UNL     1      31.663   2.664 -34.431  1.00  0.00     0.000 C 
ENDROOT
BRANCH   1   2
ATOM      2  C   UNL     1      31.692   3.619 -33.221  1.00  0.00     0.000 C 
BRANCH   2   3
ATOM      3  C   UNL     1      33.047   3.713 -32.490  1.00  0.00     0.000 C 
BRANCH   3   4
ATOM      4  C   UNL     1      34.270   3.888 -33.408  1.00  0.00     0.000 C 
BRANCH   4   5
ATOM      5  C   UNL     1      34.925   5.270 -33.270  1.00  0.00     0.000 C 
BRANCH   5   6
ATOM      6  C   UNL     1      34.921   5.738 -31.808  1.00  0.00     0.000 C 
BRANCH   6   7
ATOM      7  C   UNL     1      34.623   7.241 -31.656  1.00  0.00     0.006 C 
BRANCH   7   8
ATOM      8  C   UNL     1      33.675   7.576 -30.491  1.00  0.00     0.053 C 
BRANCH   8   9
ATOM      9  C   UNL     1      32.448   6.713 -30.481  1.00  0.00     0.041 C 
ATOM     10  O   UNL     1      32.268   5.879 -29.555  1.00  0.00    -0.550 OA
ATOM     11  O   UNL     1      31.522   6.806 -31.512  1.00  0.00    -0.550 OA
ENDBRANCH   8   9
ENDBRANCH   7   8
ENDBRANCH   6   7
ENDBRANCH   5   6
ENDBRANCH   4   5
ENDBRANCH   3   4
ENDBRANCH   2   3
ENDBRANCH   1   2
BRANCH   1  12
ATOM     12  C   UNL     1      30.932   1.330 -34.193  1.00  0.00     0.000 C 
BRANCH  12  13
ATOM     13  C   UNL     1      31.848   0.109 -34.372  1.00  0.00    -0.000 C 
BRANCH  13  14
ATOM     14  C   UNL     1      33.337   0.489 -34.411  1.00  0.00    -0.000 C 
BRANCH  14  15
ATOM     15  C   UNL     1      34.011   0.118 -35.741  1.00  0.00    -0.000 C 
BRANCH  15  16
ATOM     16  C   UNL     1      33.511  -1.240 -36.250  1.00  0.00    -0.000 C 
BRANCH  16  17
ATOM     17  C   UNL     1      33.055  -1.148 -37.713  1.00  0.00    -0.000 C 
BRANCH  17  18
ATOM     18  C   UNL     1      32.916   0.314 -38.189  1.00  0.00    -0.000 C 
BRANCH  18  19
ATOM     19  C   UNL     1      31.496   0.677 -38.658  1.00  0.00    -0.003 C 
ATOM     20  C   UNL     1      30.405   0.121 -37.745  1.00  0.00     0.004 C 
ENDBRANCH  18  19
ENDBRANCH  17  18
ENDBRANCH  16  17
ENDBRANCH  15  16
ENDBRANCH  14  15
ENDBRANCH  13  14
ENDBRANCH  12  13
ENDBRANCH   1  12
TORSDOF 16
ENDMDL
MODEL 9
REMARK VINA RESULT:    -2.906      5.682      8.881
REMARK INTER + INTRA:          -8.463
REMARK INTER:                  -5.911
REMARK INTRA:                  -2.552
REMARK UNBOUND:                -2.839
REMARK SMILES CCCCCCCCCCCCCCCCCC(=O)[O-]
REMARK SMILES IDX 10 1 11 2 12 3 13 4 14 5 15 6 16 7 17 8 18 9 19 10 20 11
REMARK SMILES IDX 9 12 8 13 7 14 6 15 5 16 4 17 3 18 2 19 1 20
REMARK H PARENT
REMARK Flexibility Score: inf
ROOT
ATOM      1  C   UNL     1      30.639   0.393 -37.340  1.00  0.00     0.000 C 
ENDROOT
BRANCH   1   2
ATOM      2  C   UNL     1      29.589  -0.733 -37.256  1.00  0.00     0.000 C 
BRANCH   2   3
ATOM      3  C   UNL     1      29.388  -1.543 -38.553  1.00  0.00     0.000 C 
BRANCH   3   4
ATOM      4  C   UNL     1      29.690  -3.048 -38.434  1.00  0.00     0.000 C 
BRANCH   4   5
ATOM      5  C   UNL     1      29.117  -3.670 -37.152  1.00  0.00     0.000 C 
BRANCH   5   6
ATOM      6  C   UNL     1      27.894  -4.545 -37.464  1.00  0.00     0.000 C 
BRANCH   6   7
ATOM      7  C   UNL     1      26.652  -4.161 -36.640  1.00  0.00     0.006 C 
BRANCH   7   8
ATOM      8  C   UNL     1      26.417  -5.056 -35.410  1.00  0.00     0.053 C 
BRANCH   8   9
ATOM      9  C   UNL     1      25.533  -4.407 -34.387  1.00  0.00     0.041 C 
ATOM     10  O   UNL     1      25.104  -3.237 -34.572  1.00  0.00    -0.550 OA
ATOM     11  O   UNL     1      25.211  -5.079 -33.215  1.00  0.00    -0.550 OA
ENDBRANCH   8   9
ENDBRANCH   7   8
ENDBRANCH   6   7
ENDBRANCH   5   6
ENDBRANCH   4   5
ENDBRANCH   3   4
ENDBRANCH   2   3
ENDBRANCH   1   2
BRANCH   1  12
ATOM     12  C   UNL     1      31.544   0.350 -38.586  1.00  0.00     0.000 C 
BRANCH  12  13
ATOM     13  C   UNL     1      32.969  -0.131 -38.270  1.00  0.00    -0.000 C 
BRANCH  13  14
ATOM     14  C   UNL     1      33.136  -1.648 -38.459  1.00  0.00    -0.000 C 
BRANCH  14  15
ATOM     15  C   UNL     1      33.924  -2.307 -37.316  1.00  0.00    -0.000 C 
BRANCH  15  16
ATOM     16  C   UNL     1      33.027  -3.247 -36.501  1.00  0.00    -0.000 C 
BRANCH  16  17
ATOM     17  C   UNL     1      32.317  -2.489 -35.370  1.00  0.00    -0.000 C 
BRANCH  17  18
ATOM     18  C   UNL     1      33.254  -1.490 -34.659  1.00  0.00    -0.000 C 
BRANCH  18  19
ATOM     19  C   UNL     1      32.621  -0.105 -34.433  1.00  0.00    -0.003 C 
ATOM     20  C   UNL     1      33.630   1.036 -34.532  1.00  0.00     0.004 C 
ENDBRANCH  18  19
ENDBRANCH  17  18
ENDBRANCH  16  17
ENDBRANCH  15  16
ENDBRANCH  14  15
ENDBRANCH  13  14
ENDBRANCH  12  13
ENDBRANCH   1  12
TORSDOF 16
ENDMDL
