MODEL 1
REMARK VINA RESULT:    -6.707      0.000      0.000
REMARK INTER + INTRA:          -8.165
REMARK INTER:                  -7.883
REMARK INTRA:                  -0.282
REMARK UNBOUND:                -0.282
REMARK SMILES O=c1cc(-c2ccc(O)c(O)c2)oc2cc(O)cc(O)c12
REMARK SMILES IDX 4 1 3 2 2 3 1 4 21 5 19 6 18 7 16 8 15 9 14 10 13 11 5 12
REMARK SMILES IDX 6 13 7 14 8 15 12 16 10 17 9 18 11 20 20 22 17 24
REMARK H PARENT 9 19 11 21 20 23 17 25
REMARK Flexibility Score: inf
ROOT
ATOM      1  C   UNL     1     129.356 125.740 125.248  1.00  0.00     0.138 A 
ATOM      2  C   UNL     1     129.169 124.915 126.369  1.00  0.00     0.100 A 
ATOM      3  C   UNL     1     129.827 123.687 126.435  1.00  0.00     0.197 A 
ATOM      4  O   UNL     1     129.652 122.952 127.445  1.00  0.00    -0.289 OA
ATOM      5  C   UNL     1     130.668 123.290 125.375  1.00  0.00     0.107 A 
ATOM      6  C   UNL     1     131.373 122.064 125.363  1.00  0.00     0.134 A 
ATOM      7  C   UNL     1     132.186 121.740 124.266  1.00  0.00     0.093 A 
ATOM      8  C   UNL     1     132.306 122.620 123.185  1.00  0.00     0.123 A 
ATOM      9  C   UNL     1     131.611 123.830 123.192  1.00  0.00     0.094 A 
ATOM     10  C   UNL     1     130.797 124.172 124.276  1.00  0.00     0.146 A 
ATOM     11  O   UNL     1     130.148 125.332 124.260  1.00  0.00    -0.456 OA
ENDROOT
BRANCH   1  12
ATOM     12  C   UNL     1     128.679 127.057 125.123  1.00  0.00     0.021 A 
ATOM     13  C   UNL     1     128.205 127.531 123.885  1.00  0.00     0.016 A 
ATOM     14  C   UNL     1     127.563 128.769 123.800  1.00  0.00     0.051 A 
ATOM     15  C   UNL     1     127.379 129.550 124.947  1.00  0.00     0.157 A 
ATOM     16  C   UNL     1     128.477 127.842 126.273  1.00  0.00     0.062 A 
ATOM     17  C   UNL     1     127.835 129.085 126.186  1.00  0.00     0.158 A 
BRANCH  15  18
ATOM     18  O   UNL     1     126.741 130.786 124.865  1.00  0.00    -0.504 OA
ATOM     19  H   UNL     1     126.338 131.231 125.681  1.00  0.00     0.293 HD
ENDBRANCH  15  18
BRANCH  17  20
ATOM     20  O   UNL     1     127.646 129.863 127.328  1.00  0.00    -0.504 OA
ATOM     21  H   UNL     1     128.179 129.701 128.174  1.00  0.00     0.293 HD
ENDBRANCH  17  20
ENDBRANCH   1  12
BRANCH   6  22
ATOM     22  O   UNL     1     131.273 121.168 126.428  1.00  0.00    -0.507 OA
ATOM     23  H   UNL     1     131.348 120.167 126.292  1.00  0.00     0.293 HD
ENDBRANCH   6  22
BRANCH   8  24
ATOM     24  O   UNL     1     133.112 122.299 122.095  1.00  0.00    -0.508 OA
ATOM     25  H   UNL     1     133.786 122.958 121.721  1.00  0.00     0.293 HD
ENDBRANCH   8  24
TORSDOF 5
ENDMDL
MODEL 2
REMARK VINA RESULT:    -6.701      5.527     10.710
REMARK INTER + INTRA:          -8.159
REMARK INTER:                  -7.875
REMARK INTRA:                  -0.283
REMARK UNBOUND:                -0.282
REMARK SMILES O=c1cc(-c2ccc(O)c(O)c2)oc2cc(O)cc(O)c12
REMARK SMILES IDX 4 1 3 2 2 3 1 4 21 5 19 6 18 7 16 8 15 9 14 10 13 11 5 12
REMARK SMILES IDX 6 13 7 14 8 15 12 16 10 17 9 18 11 20 20 22 17 24
REMARK H PARENT 9 19 11 21 20 23 17 25
REMARK Flexibility Score: inf
ROOT
ATOM      1  C   UNL     1     129.785 133.329 125.318  1.00  0.00     0.138 A 
ATOM      2  C   UNL     1     130.003 134.159 126.431  1.00  0.00     0.100 A 
ATOM      3  C   UNL     1     129.362 135.395 126.501  1.00  0.00     0.197 A 
ATOM      4  O   UNL     1     129.565 136.133 127.504  1.00  0.00    -0.289 OA
ATOM      5  C   UNL     1     128.507 135.797 125.455  1.00  0.00     0.107 A 
ATOM      6  C   UNL     1     127.818 137.032 125.449  1.00  0.00     0.134 A 
ATOM      7  C   UNL     1     126.988 137.360 124.365  1.00  0.00     0.093 A 
ATOM      8  C   UNL     1     126.838 136.476 123.291  1.00  0.00     0.123 A 
ATOM      9  C   UNL     1     127.516 135.256 123.292  1.00  0.00     0.094 A 
ATOM     10  C   UNL     1     128.346 134.911 124.363  1.00  0.00     0.146 A 
ATOM     11  O   UNL     1     128.980 133.742 124.342  1.00  0.00    -0.456 OA
ENDROOT
BRANCH   1  12
ATOM     12  C   UNL     1     130.442 132.004 125.189  1.00  0.00     0.021 A 
ATOM     13  C   UNL     1     130.848 131.497 123.938  1.00  0.00     0.016 A 
ATOM     14  C   UNL     1     131.473 130.251 123.849  1.00  0.00     0.051 A 
ATOM     15  C   UNL     1     131.710 129.494 125.002  1.00  0.00     0.157 A 
ATOM     16  C   UNL     1     130.697 131.242 126.344  1.00  0.00     0.062 A 
ATOM     17  C   UNL     1     131.323 129.991 126.252  1.00  0.00     0.158 A 
BRANCH  15  18
ATOM     18  O   UNL     1     132.332 128.250 124.915  1.00  0.00    -0.504 OA
ATOM     19  H   UNL     1     131.945 127.431 125.369  1.00  0.00     0.293 HD
ENDBRANCH  15  18
BRANCH  17  20
ATOM     20  O   UNL     1     131.564 129.237 127.400  1.00  0.00    -0.504 OA
ATOM     21  H   UNL     1     130.870 129.152 128.134  1.00  0.00     0.293 HD
ENDBRANCH  17  20
ENDBRANCH   1  12
BRANCH   6  22
ATOM     22  O   UNL     1     127.949 137.933 126.506  1.00  0.00    -0.507 OA
ATOM     23  H   UNL     1     128.105 138.921 126.349  1.00  0.00     0.293 HD
ENDBRANCH   6  22
BRANCH   8  24
ATOM     24  O   UNL     1     126.015 136.801 122.215  1.00  0.00    -0.508 OA
ATOM     25  H   UNL     1     125.527 137.688 122.170  1.00  0.00     0.293 HD
ENDBRANCH   8  24
TORSDOF 5
ENDMDL
MODEL 3
REMARK VINA RESULT:    -6.566      1.659      6.821
REMARK INTER + INTRA:          -7.999
REMARK INTER:                  -7.716
REMARK INTRA:                  -0.283
REMARK UNBOUND:                -0.282
REMARK SMILES O=c1cc(-c2ccc(O)c(O)c2)oc2cc(O)cc(O)c12
REMARK SMILES IDX 4 1 3 2 2 3 1 4 21 5 19 6 18 7 16 8 15 9 14 10 13 11 5 12
REMARK SMILES IDX 6 13 7 14 8 15 12 16 10 17 9 18 11 20 20 22 17 24
REMARK H PARENT 9 19 11 21 20 23 17 25
REMARK Flexibility Score: inf
ROOT
ATOM      1  C   UNL     1     130.372 124.371 125.414  1.00  0.00     0.138 A 
ATOM      2  C   UNL     1     130.182 124.103 126.780  1.00  0.00     0.100 A 
ATOM      3  C   UNL     1     129.488 125.020 127.569  1.00  0.00     0.197 A 
ATOM      4  O   UNL     1     129.324 124.772 128.795  1.00  0.00    -0.289 OA
ATOM      5  C   UNL     1     128.988 126.202 126.986  1.00  0.00     0.107 A 
ATOM      6  C   UNL     1     128.272 127.182 127.713  1.00  0.00     0.134 A 
ATOM      7  C   UNL     1     127.812 128.335 127.059  1.00  0.00     0.093 A 
ATOM      8  C   UNL     1     128.056 128.525 125.694  1.00  0.00     0.123 A 
ATOM      9  C   UNL     1     128.763 127.561 124.973  1.00  0.00     0.094 A 
ATOM     10  C   UNL     1     129.228 126.405 125.606  1.00  0.00     0.146 A 
ATOM     11  O   UNL     1     129.897 125.501 124.896  1.00  0.00    -0.456 OA
ENDROOT
BRANCH   1  12
ATOM     12  C   UNL     1     131.105 123.432 124.527  1.00  0.00     0.021 A 
ATOM     13  C   UNL     1     132.407 122.988 124.833  1.00  0.00     0.016 A 
ATOM     14  C   UNL     1     133.068 122.096 123.984  1.00  0.00     0.051 A 
ATOM     15  C   UNL     1     132.441 121.629 122.822  1.00  0.00     0.157 A 
ATOM     16  C   UNL     1     130.479 122.946 123.365  1.00  0.00     0.062 A 
ATOM     17  C   UNL     1     131.144 122.053 122.513  1.00  0.00     0.158 A 
BRANCH  15  18
ATOM     18  O   UNL     1     133.099 120.741 121.974  1.00  0.00    -0.504 OA
ATOM     19  H   UNL     1     132.674 119.867 121.688  1.00  0.00     0.293 HD
ENDBRANCH  15  18
BRANCH  17  20
ATOM     20  O   UNL     1     130.520 121.583 121.359  1.00  0.00    -0.504 OA
ATOM     21  H   UNL     1     131.040 121.107 120.631  1.00  0.00     0.293 HD
ENDBRANCH  17  20
ENDBRANCH   1  12
BRANCH   6  22
ATOM     22  O   UNL     1     128.014 127.019 129.075  1.00  0.00    -0.507 OA
ATOM     23  H   UNL     1     127.787 127.805 129.672  1.00  0.00     0.293 HD
ENDBRANCH   6  22
BRANCH   8  24
ATOM     24  O   UNL     1     127.601 129.670 125.045  1.00  0.00    -0.508 OA
ATOM     25  H   UNL     1     128.097 130.551 125.113  1.00  0.00     0.293 HD
ENDBRANCH   8  24
TORSDOF 5
ENDMDL
MODEL 4
REMARK VINA RESULT:    -6.552      6.441      9.124
REMARK INTER + INTRA:          -7.983
REMARK INTER:                  -7.693
REMARK INTRA:                  -0.290
REMARK UNBOUND:                -0.282
REMARK SMILES O=c1cc(-c2ccc(O)c(O)c2)oc2cc(O)cc(O)c12
REMARK SMILES IDX 4 1 3 2 2 3 1 4 21 5 19 6 18 7 16 8 15 9 14 10 13 11 5 12
REMARK SMILES IDX 6 13 7 14 8 15 12 16 10 17 9 18 11 20 20 22 17 24
REMARK H PARENT 9 19 11 21 20 23 17 25
REMARK Flexibility Score: inf
ROOT
ATOM      1  C   UNL     1     128.879 134.652 125.282  1.00  0.00     0.138 A 
ATOM      2  C   UNL     1     129.005 134.819 126.671  1.00  0.00     0.100 A 
ATOM      3  C   UNL     1     129.753 133.901 127.408  1.00  0.00     0.197 A 
ATOM      4  O   UNL     1     129.858 134.059 128.655  1.00  0.00    -0.289 OA
ATOM      5  C   UNL     1     130.370 132.818 126.751  1.00  0.00     0.107 A 
ATOM      6  C   UNL     1     131.146 131.845 127.422  1.00  0.00     0.134 A 
ATOM      7  C   UNL     1     131.723 130.792 126.695  1.00  0.00     0.093 A 
ATOM      8  C   UNL     1     131.537 130.698 125.311  1.00  0.00     0.123 A 
ATOM      9  C   UNL     1     130.771 131.655 124.644  1.00  0.00     0.094 A 
ATOM     10  C   UNL     1     130.189 132.712 125.351  1.00  0.00     0.146 A 
ATOM     11  O   UNL     1     129.466 133.613 124.692  1.00  0.00    -0.456 OA
ENDROOT
BRANCH   1  12
ATOM     12  C   UNL     1     128.094 135.596 124.447  1.00  0.00     0.021 A 
ATOM     13  C   UNL     1     126.803 136.018 124.820  1.00  0.00     0.016 A 
ATOM     14  C   UNL     1     126.092 136.915 124.020  1.00  0.00     0.051 A 
ATOM     15  C   UNL     1     126.659 137.412 122.839  1.00  0.00     0.157 A 
ATOM     16  C   UNL     1     128.660 136.111 123.266  1.00  0.00     0.062 A 
ATOM     17  C   UNL     1     127.946 137.011 122.463  1.00  0.00     0.158 A 
BRANCH  15  18
ATOM     18  O   UNL     1     125.951 138.306 122.038  1.00  0.00    -0.504 OA
ATOM     19  H   UNL     1     125.929 138.212 121.030  1.00  0.00     0.293 HD
ENDBRANCH  15  18
BRANCH  17  20
ATOM     20  O   UNL     1     128.509 137.510 121.290  1.00  0.00    -0.504 OA
ATOM     21  H   UNL     1     128.208 137.188 120.377  1.00  0.00     0.293 HD
ENDBRANCH  17  20
ENDBRANCH   1  12
BRANCH   6  22
ATOM     22  O   UNL     1     131.349 131.914 128.801  1.00  0.00    -0.507 OA
ATOM     23  H   UNL     1     131.523 131.086 129.357  1.00  0.00     0.293 HD
ENDBRANCH   6  22
BRANCH   8  24
ATOM     24  O   UNL     1     132.109 129.653 124.588  1.00  0.00    -0.508 OA
ATOM     25  H   UNL     1     133.068 129.696 124.263  1.00  0.00     0.293 HD
ENDBRANCH   8  24
TORSDOF 5
ENDMDL
MODEL 5
REMARK VINA RESULT:    -6.425      7.869     11.436
REMARK INTER + INTRA:          -7.833
REMARK INTER:                  -7.564
REMARK INTRA:                  -0.269
REMARK UNBOUND:                -0.282
REMARK SMILES O=c1cc(-c2ccc(O)c(O)c2)oc2cc(O)cc(O)c12
REMARK SMILES IDX 4 1 3 2 2 3 1 4 21 5 19 6 18 7 16 8 15 9 14 10 13 11 5 12
REMARK SMILES IDX 6 13 7 14 8 15 12 16 10 17 9 18 11 20 20 22 17 24
REMARK H PARENT 9 19 11 21 20 23 17 25
REMARK Flexibility Score: inf
ROOT
ATOM      1  C   UNL     1     130.933 133.805 125.909  1.00  0.00     0.138 A 
ATOM      2  C   UNL     1     130.024 133.290 124.970  1.00  0.00     0.100 A 
ATOM      3  C   UNL     1     128.895 134.033 124.628  1.00  0.00     0.197 A 
ATOM      4  O   UNL     1     128.084 133.560 123.786  1.00  0.00    -0.289 OA
ATOM      5  C   UNL     1     128.680 135.289 125.229  1.00  0.00     0.107 A 
ATOM      6  C   UNL     1     127.563 136.107 124.938  1.00  0.00     0.134 A 
ATOM      7  C   UNL     1     127.419 137.344 125.585  1.00  0.00     0.093 A 
ATOM      8  C   UNL     1     128.370 137.775 126.516  1.00  0.00     0.123 A 
ATOM      9  C   UNL     1     129.473 136.971 126.808  1.00  0.00     0.094 A 
ATOM     10  C   UNL     1     129.636 135.736 126.173  1.00  0.00     0.146 A 
ATOM     11  O   UNL     1     130.696 134.991 126.466  1.00  0.00    -0.456 OA
ENDROOT
BRANCH   1  12
ATOM     12  C   UNL     1     132.152 133.058 126.312  1.00  0.00     0.021 A 
ATOM     13  C   UNL     1     132.086 131.942 127.169  1.00  0.00     0.016 A 
ATOM     14  C   UNL     1     133.248 131.252 127.523  1.00  0.00     0.051 A 
ATOM     15  C   UNL     1     134.491 131.658 127.025  1.00  0.00     0.157 A 
ATOM     16  C   UNL     1     133.404 133.450 125.805  1.00  0.00     0.062 A 
ATOM     17  C   UNL     1     134.570 132.758 126.163  1.00  0.00     0.158 A 
BRANCH  15  18
ATOM     18  O   UNL     1     135.652 130.972 127.378  1.00  0.00    -0.504 OA
ATOM     19  H   UNL     1     136.533 131.453 127.508  1.00  0.00     0.293 HD
ENDBRANCH  15  18
BRANCH  17  20
ATOM     20  O   UNL     1     135.808 133.158 125.664  1.00  0.00    -0.504 OA
ATOM     21  H   UNL     1     136.331 132.580 125.015  1.00  0.00     0.293 HD
ENDBRANCH  17  20
ENDBRANCH   1  12
BRANCH   6  22
ATOM     22  O   UNL     1     126.599 135.702 124.013  1.00  0.00    -0.507 OA
ATOM     23  H   UNL     1     125.900 136.343 123.657  1.00  0.00     0.293 HD
ENDBRANCH   6  22
BRANCH   8  24
ATOM     24  O   UNL     1     128.227 139.003 127.159  1.00  0.00    -0.508 OA
ATOM     25  H   UNL     1     128.784 139.807 126.896  1.00  0.00     0.293 HD
ENDBRANCH   8  24
TORSDOF 5
ENDMDL
MODEL 6
REMARK VINA RESULT:    -6.394      7.526     10.670
REMARK INTER + INTRA:          -7.797
REMARK INTER:                  -7.527
REMARK INTRA:                  -0.270
REMARK UNBOUND:                -0.282
REMARK SMILES O=c1cc(-c2ccc(O)c(O)c2)oc2cc(O)cc(O)c12
REMARK SMILES IDX 4 1 3 2 2 3 1 4 21 5 19 6 18 7 16 8 15 9 14 10 13 11 5 12
REMARK SMILES IDX 6 13 7 14 8 15 12 16 10 17 9 18 11 20 20 22 17 24
REMARK H PARENT 9 19 11 21 20 23 17 25
REMARK Flexibility Score: inf
ROOT
ATOM      1  C   UNL     1     132.530 132.939 125.703  1.00  0.00     0.138 A 
ATOM      2  C   UNL     1     131.699 132.084 124.959  1.00  0.00     0.100 A 
ATOM      3  C   UNL     1     130.320 132.292 124.964  1.00  0.00     0.197 A 
ATOM      4  O   UNL     1     129.583 131.518 124.294  1.00  0.00    -0.289 OA
ATOM      5  C   UNL     1     129.778 133.353 125.716  1.00  0.00     0.107 A 
ATOM      6  C   UNL     1     128.393 133.634 125.773  1.00  0.00     0.134 A 
ATOM      7  C   UNL     1     127.932 134.707 126.551  1.00  0.00     0.093 A 
ATOM      8  C   UNL     1     128.832 135.502 127.270  1.00  0.00     0.123 A 
ATOM      9  C   UNL     1     130.199 135.229 127.217  1.00  0.00     0.094 A 
ATOM     10  C   UNL     1     130.678 134.165 126.447  1.00  0.00     0.146 A 
ATOM     11  O   UNL     1     131.985 133.926 126.411  1.00  0.00    -0.456 OA
ENDROOT
BRANCH   1  12
ATOM     12  C   UNL     1     134.004 132.765 125.737  1.00  0.00     0.021 A 
ATOM     13  C   UNL     1     134.609 131.701 126.434  1.00  0.00     0.016 A 
ATOM     14  C   UNL     1     135.998 131.557 126.440  1.00  0.00     0.051 A 
ATOM     15  C   UNL     1     136.806 132.466 125.746  1.00  0.00     0.157 A 
ATOM     16  C   UNL     1     134.824 133.666 125.032  1.00  0.00     0.062 A 
ATOM     17  C   UNL     1     136.218 133.521 125.039  1.00  0.00     0.158 A 
BRANCH  15  18
ATOM     18  O   UNL     1     138.193 132.326 125.751  1.00  0.00    -0.504 OA
ATOM     19  H   UNL     1     138.675 131.859 126.510  1.00  0.00     0.293 HD
ENDBRANCH  15  18
BRANCH  17  20
ATOM     20  O   UNL     1     137.024 134.422 124.346  1.00  0.00    -0.504 OA
ATOM     21  H   UNL     1     137.766 134.107 123.732  1.00  0.00     0.293 HD
ENDBRANCH  17  20
ENDBRANCH   1  12
BRANCH   6  22
ATOM     22  O   UNL     1     127.474 132.858 125.066  1.00  0.00    -0.507 OA
ATOM     23  H   UNL     1     127.605 131.861 124.936  1.00  0.00     0.293 HD
ENDBRANCH   6  22
BRANCH   8  24
ATOM     24  O   UNL     1     128.375 136.568 128.043  1.00  0.00    -0.508 OA
ATOM     25  H   UNL     1     127.711 136.430 128.797  1.00  0.00     0.293 HD
ENDBRANCH   8  24
TORSDOF 5
ENDMDL
MODEL 7
REMARK VINA RESULT:    -6.329      3.972      4.892
REMARK INTER + INTRA:          -7.721
REMARK INTER:                  -7.456
REMARK INTRA:                  -0.265
REMARK UNBOUND:                -0.282
REMARK SMILES O=c1cc(-c2ccc(O)c(O)c2)oc2cc(O)cc(O)c12
REMARK SMILES IDX 4 1 3 2 2 3 1 4 21 5 19 6 18 7 16 8 15 9 14 10 13 11 5 12
REMARK SMILES IDX 6 13 7 14 8 15 12 16 10 17 9 18 11 20 20 22 17 24
REMARK H PARENT 9 19 11 21 20 23 17 25
REMARK Flexibility Score: inf
ROOT
ATOM      1  C   UNL     1     132.454 126.957 123.380  1.00  0.00     0.138 A 
ATOM      2  C   UNL     1     131.959 126.626 122.107  1.00  0.00     0.100 A 
ATOM      3  C   UNL     1     131.485 125.335 121.870  1.00  0.00     0.197 A 
ATOM      4  O   UNL     1     131.044 125.047 120.724  1.00  0.00    -0.289 OA
ATOM      5  C   UNL     1     131.511 124.382 122.908  1.00  0.00     0.107 A 
ATOM      6  C   UNL     1     131.049 123.054 122.753  1.00  0.00     0.134 A 
ATOM      7  C   UNL     1     131.116 122.164 123.835  1.00  0.00     0.093 A 
ATOM      8  C   UNL     1     131.635 122.578 125.067  1.00  0.00     0.123 A 
ATOM      9  C   UNL     1     132.093 123.887 125.225  1.00  0.00     0.094 A 
ATOM     10  C   UNL     1     132.034 124.790 124.159  1.00  0.00     0.146 A 
ATOM     11  O   UNL     1     132.474 126.032 124.336  1.00  0.00    -0.456 OA
ENDROOT
BRANCH   1  12
ATOM     12  C   UNL     1     132.972 128.315 123.689  1.00  0.00     0.021 A 
ATOM     13  C   UNL     1     134.339 128.545 123.942  1.00  0.00     0.016 A 
ATOM     14  C   UNL     1     134.799 129.834 124.221  1.00  0.00     0.051 A 
ATOM     15  C   UNL     1     133.908 130.914 124.244  1.00  0.00     0.157 A 
ATOM     16  C   UNL     1     132.087 129.408 123.701  1.00  0.00     0.062 A 
ATOM     17  C   UNL     1     132.550 130.701 123.982  1.00  0.00     0.158 A 
BRANCH  15  18
ATOM     18  O   UNL     1     134.365 132.201 124.523  1.00  0.00    -0.504 OA
ATOM     19  H   UNL     1     134.294 132.947 123.842  1.00  0.00     0.293 HD
ENDBRANCH  15  18
BRANCH  17  20
ATOM     20  O   UNL     1     131.665 131.778 124.001  1.00  0.00    -0.504 OA
ATOM     21  H   UNL     1     130.785 131.750 123.500  1.00  0.00     0.293 HD
ENDBRANCH  17  20
ENDBRANCH   1  12
BRANCH   6  22
ATOM     22  O   UNL     1     130.526 122.614 121.536  1.00  0.00    -0.507 OA
ATOM     23  H   UNL     1     130.151 121.680 121.424  1.00  0.00     0.293 HD
ENDBRANCH   6  22
BRANCH   8  24
ATOM     24  O   UNL     1     131.701 121.694 126.142  1.00  0.00    -0.508 OA
ATOM     25  H   UNL     1     131.023 120.951 126.259  1.00  0.00     0.293 HD
ENDBRANCH   8  24
TORSDOF 5
ENDMDL
MODEL 8
REMARK VINA RESULT:    -6.288      2.361      7.296
REMARK INTER + INTRA:          -7.673
REMARK INTER:                  -7.390
REMARK INTRA:                  -0.283
REMARK UNBOUND:                -0.282
REMARK SMILES O=c1cc(-c2ccc(O)c(O)c2)oc2cc(O)cc(O)c12
REMARK SMILES IDX 4 1 3 2 2 3 1 4 21 5 19 6 18 7 16 8 15 9 14 10 13 11 5 12
REMARK SMILES IDX 6 13 7 14 8 15 12 16 10 17 9 18 11 20 20 22 17 24
REMARK H PARENT 9 19 11 21 20 23 17 25
REMARK Flexibility Score: inf
ROOT
ATOM      1  C   UNL     1     128.983 124.809 125.773  1.00  0.00     0.138 A 
ATOM      2  C   UNL     1     129.543 125.595 124.752  1.00  0.00     0.100 A 
ATOM      3  C   UNL     1     128.878 126.746 124.329  1.00  0.00     0.197 A 
ATOM      4  O   UNL     1     129.388 127.444 123.410  1.00  0.00    -0.289 OA
ATOM      5  C   UNL     1     127.654 127.103 124.928  1.00  0.00     0.107 A 
ATOM      6  C   UNL     1     126.917 128.253 124.560  1.00  0.00     0.134 A 
ATOM      7  C   UNL     1     125.702 128.536 125.202  1.00  0.00     0.093 A 
ATOM      8  C   UNL     1     125.213 127.690 126.204  1.00  0.00     0.123 A 
ATOM      9  C   UNL     1     125.936 126.554 126.571  1.00  0.00     0.094 A 
ATOM     10  C   UNL     1     127.149 126.255 125.943  1.00  0.00     0.146 A 
ATOM     11  O   UNL     1     127.820 125.168 126.312  1.00  0.00    -0.456 OA
ENDROOT
BRANCH   1  12
ATOM     12  C   UNL     1     129.645 123.573 126.263  1.00  0.00     0.021 A 
ATOM     13  C   UNL     1     130.017 122.535 125.386  1.00  0.00     0.016 A 
ATOM     14  C   UNL     1     130.648 121.388 125.875  1.00  0.00     0.051 A 
ATOM     15  C   UNL     1     130.923 121.260 127.241  1.00  0.00     0.157 A 
ATOM     16  C   UNL     1     129.939 123.442 127.633  1.00  0.00     0.062 A 
ATOM     17  C   UNL     1     130.570 122.290 128.122  1.00  0.00     0.158 A 
BRANCH  15  18
ATOM     18  O   UNL     1     131.551 120.117 127.731  1.00  0.00    -0.504 OA
ATOM     19  H   UNL     1     132.176 120.155 128.527  1.00  0.00     0.293 HD
ENDBRANCH  15  18
BRANCH  17  20
ATOM     20  O   UNL     1     130.850 122.162 129.481  1.00  0.00    -0.504 OA
ATOM     21  H   UNL     1     131.058 121.262 129.898  1.00  0.00     0.293 HD
ENDBRANCH  17  20
ENDBRANCH   1  12
BRANCH   6  22
ATOM     22  O   UNL     1     127.381 129.114 123.565  1.00  0.00    -0.507 OA
ATOM     23  H   UNL     1     128.163 128.869 122.970  1.00  0.00     0.293 HD
ENDBRANCH   6  22
BRANCH   8  24
ATOM     24  O   UNL     1     124.006 127.970 126.842  1.00  0.00    -0.508 OA
ATOM     25  H   UNL     1     123.928 128.714 127.525  1.00  0.00     0.293 HD
ENDBRANCH   8  24
TORSDOF 5
ENDMDL
MODEL 9
REMARK VINA RESULT:    -6.272      5.807     11.174
REMARK INTER + INTRA:          -7.654
REMARK INTER:                  -7.344
REMARK INTRA:                  -0.310
REMARK UNBOUND:                -0.282
REMARK SMILES O=c1cc(-c2ccc(O)c(O)c2)oc2cc(O)cc(O)c12
REMARK SMILES IDX 4 1 3 2 2 3 1 4 21 5 19 6 18 7 16 8 15 9 14 10 13 11 5 12
REMARK SMILES IDX 6 13 7 14 8 15 12 16 10 17 9 18 11 20 20 22 17 24
REMARK H PARENT 9 19 11 21 20 23 17 25
REMARK Flexibility Score: inf
ROOT
ATOM      1  C   UNL     1     129.332 133.412 125.893  1.00  0.00     0.138 A 
ATOM      2  C   UNL     1     128.906 133.732 124.593  1.00  0.00     0.100 A 
ATOM      3  C   UNL     1     128.465 135.025 124.314  1.00  0.00     0.197 A 
ATOM      4  O   UNL     1     128.082 135.302 123.144  1.00  0.00    -0.289 OA
ATOM      5  C   UNL     1     128.451 135.993 125.339  1.00  0.00     0.107 A 
ATOM      6  C   UNL     1     128.021 137.326 125.141  1.00  0.00     0.134 A 
ATOM      7  C   UNL     1     128.032 138.227 126.216  1.00  0.00     0.093 A 
ATOM      8  C   UNL     1     128.465 137.819 127.483  1.00  0.00     0.123 A 
ATOM      9  C   UNL     1     128.889 136.504 127.683  1.00  0.00     0.094 A 
ATOM     10  C   UNL     1     128.886 135.591 126.624  1.00  0.00     0.146 A 
ATOM     11  O   UNL     1     129.297 134.346 126.841  1.00  0.00    -0.456 OA
ENDROOT
BRANCH   1  12
ATOM     12  C   UNL     1     129.810 132.051 126.248  1.00  0.00     0.021 A 
ATOM     13  C   UNL     1     129.427 130.916 125.508  1.00  0.00     0.016 A 
ATOM     14  C   UNL     1     129.901 129.649 125.859  1.00  0.00     0.051 A 
ATOM     15  C   UNL     1     130.768 129.495 126.948  1.00  0.00     0.157 A 
ATOM     16  C   UNL     1     130.692 131.889 127.331  1.00  0.00     0.062 A 
ATOM     17  C   UNL     1     131.166 130.617 127.684  1.00  0.00     0.158 A 
BRANCH  15  18
ATOM     18  O   UNL     1     131.240 128.233 127.301  1.00  0.00    -0.504 OA
ATOM     19  H   UNL     1     132.231 128.022 127.313  1.00  0.00     0.293 HD
ENDBRANCH  15  18
BRANCH  17  20
ATOM     20  O   UNL     1     132.032 130.462 128.765  1.00  0.00    -0.504 OA
ATOM     21  H   UNL     1     132.985 130.805 128.734  1.00  0.00     0.293 HD
ENDBRANCH  17  20
ENDBRANCH   1  12
BRANCH   6  22
ATOM     22  O   UNL     1     127.585 137.760 123.888  1.00  0.00    -0.507 OA
ATOM     23  H   UNL     1     128.223 138.162 123.211  1.00  0.00     0.293 HD
ENDBRANCH   6  22
BRANCH   8  24
ATOM     24  O   UNL     1     128.476 138.713 128.551  1.00  0.00    -0.508 OA
ATOM     25  H   UNL     1     129.111 139.503 128.574  1.00  0.00     0.293 HD
ENDBRANCH   8  24
TORSDOF 5
ENDMDL
