MODEL 1
REMARK VINA RESULT:    -4.960      0.000      0.000
REMARK INTER + INTRA:          -5.250
REMARK INTER:                  -5.250
REMARK INTRA:                   0.000
REMARK UNBOUND:                 0.000
REMARK SMILES O=c1ccc2cc(O)c(O)cc2o1
REMARK SMILES IDX 4 1 3 2 2 3 1 4 13 5 12 6 11 7 9 8 7 9 6 10 5 11 8 12 10 14
REMARK H PARENT 8 13 10 15
REMARK Flexibility Score: inf
ROOT
ATOM      1  C   UNL     1      13.359  14.422  20.863  1.00  0.00     0.019 A 
ATOM      2  C   UNL     1      14.096  13.748  21.836  1.00  0.00     0.094 A 
ATOM      3  C   UNL     1      13.649  12.500  22.282  1.00  0.00     0.336 A 
ATOM      4  O   UNL     1      14.301  11.876  23.159  1.00  0.00    -0.246 OA
ATOM      5  O   UNL     1      12.538  11.964  21.782  1.00  0.00    -0.423 OA
ATOM      6  C   UNL     1      11.806  12.573  20.853  1.00  0.00     0.142 A 
ATOM      7  C   UNL     1      10.646  11.962  20.365  1.00  0.00     0.098 A 
ATOM      8  C   UNL     1       9.871  12.600  19.385  1.00  0.00     0.161 A 
ATOM      9  C   UNL     1      10.257  13.855  18.891  1.00  0.00     0.158 A 
ATOM     10  C   UNL     1      11.419  14.472  19.377  1.00  0.00     0.062 A 
ATOM     11  C   UNL     1      12.195  13.836  20.356  1.00  0.00     0.022 A 
ENDROOT
BRANCH   9  12
ATOM     12  O   UNL     1       9.481  14.481  17.918  1.00  0.00    -0.504 OA
ATOM     13  H   UNL     1       9.811  14.591  16.966  1.00  0.00     0.293 HD
ENDBRANCH   9  12
BRANCH   8  14
ATOM     14  O   UNL     1       8.715  11.993  18.897  1.00  0.00    -0.504 OA
ATOM     15  H   UNL     1       8.737  11.388  18.084  1.00  0.00     0.293 HD
ENDBRANCH   8  14
TORSDOF 2
ENDMDL
MODEL 2
REMARK VINA RESULT:    -4.845      1.510      2.423
REMARK INTER + INTRA:          -5.129
REMARK INTER:                  -5.129
REMARK INTRA:                   0.000
REMARK UNBOUND:                 0.000
REMARK SMILES O=c1ccc2cc(O)c(O)cc2o1
REMARK SMILES IDX 4 1 3 2 2 3 1 4 13 5 12 6 11 7 9 8 7 9 6 10 5 11 8 12 10 14
REMARK H PARENT 8 13 10 15
REMARK Flexibility Score: inf
ROOT
ATOM      1  C   UNL     1      12.529  12.727  22.190  1.00  0.00     0.019 A 
ATOM      2  C   UNL     1      13.568  13.554  22.616  1.00  0.00     0.094 A 
ATOM      3  C   UNL     1      13.808  14.750  21.931  1.00  0.00     0.336 A 
ATOM      4  O   UNL     1      14.741  15.510  22.301  1.00  0.00    -0.246 OA
ATOM      5  O   UNL     1      13.054  15.092  20.889  1.00  0.00    -0.423 OA
ATOM      6  C   UNL     1      12.054  14.333  20.450  1.00  0.00     0.142 A 
ATOM      7  C   UNL     1      11.296  14.744  19.349  1.00  0.00     0.098 A 
ATOM      8  C   UNL     1      10.240  13.947  18.882  1.00  0.00     0.161 A 
ATOM      9  C   UNL     1       9.941  12.733  19.519  1.00  0.00     0.158 A 
ATOM     10  C   UNL     1      10.698  12.316  20.623  1.00  0.00     0.062 A 
ATOM     11  C   UNL     1      11.753  13.111  21.091  1.00  0.00     0.022 A 
ENDROOT
BRANCH   9  12
ATOM     12  O   UNL     1       8.890  11.948  19.048  1.00  0.00    -0.504 OA
ATOM     13  H   UNL     1       8.874  11.599  18.097  1.00  0.00     0.293 HD
ENDBRANCH   9  12
BRANCH   8  14
ATOM     14  O   UNL     1       9.482  14.354  17.785  1.00  0.00    -0.504 OA
ATOM     15  H   UNL     1       8.595  13.916  17.562  1.00  0.00     0.293 HD
ENDBRANCH   8  14
TORSDOF 2
ENDMDL
MODEL 3
REMARK VINA RESULT:    -4.746      2.057      2.359
REMARK INTER + INTRA:          -5.023
REMARK INTER:                  -5.023
REMARK INTRA:                   0.000
REMARK UNBOUND:                 0.000
REMARK SMILES O=c1ccc2cc(O)c(O)cc2o1
REMARK SMILES IDX 4 1 3 2 2 3 1 4 13 5 12 6 11 7 9 8 7 9 6 10 5 11 8 12 10 14
REMARK H PARENT 8 13 10 15
REMARK Flexibility Score: inf
ROOT
ATOM      1  C   UNL     1      13.701  15.668  19.663  1.00  0.00     0.019 A 
ATOM      2  C   UNL     1      14.371  16.231  20.749  1.00  0.00     0.094 A 
ATOM      3  C   UNL     1      13.990  15.866  22.044  1.00  0.00     0.336 A 
ATOM      4  O   UNL     1      14.583  16.363  23.037  1.00  0.00    -0.246 OA
ATOM      5  O   UNL     1      13.002  14.994  22.236  1.00  0.00    -0.423 OA
ATOM      6  C   UNL     1      12.337  14.435  21.229  1.00  0.00     0.142 A 
ATOM      7  C   UNL     1      11.307  13.526  21.491  1.00  0.00     0.098 A 
ATOM      8  C   UNL     1      10.603  12.932  20.433  1.00  0.00     0.161 A 
ATOM      9  C   UNL     1      10.930  13.251  19.106  1.00  0.00     0.158 A 
ATOM     10  C   UNL     1      11.961  14.162  18.837  1.00  0.00     0.062 A 
ATOM     11  C   UNL     1      12.666  14.756  19.894  1.00  0.00     0.022 A 
ENDROOT
BRANCH   9  12
ATOM     12  O   UNL     1      10.225  12.657  18.061  1.00  0.00    -0.504 OA
ATOM     13  H   UNL     1      10.532  12.740  17.099  1.00  0.00     0.293 HD
ENDBRANCH   9  12
BRANCH   8  14
ATOM     14  O   UNL     1       9.577  12.025  20.691  1.00  0.00    -0.504 OA
ATOM     15  H   UNL     1       8.603  12.276  20.562  1.00  0.00     0.293 HD
ENDBRANCH   8  14
TORSDOF 2
ENDMDL
MODEL 4
REMARK VINA RESULT:    -4.541      1.335      2.365
REMARK INTER + INTRA:          -4.806
REMARK INTER:                  -4.806
REMARK INTRA:                   0.000
REMARK UNBOUND:                 0.000
REMARK SMILES O=c1ccc2cc(O)c(O)cc2o1
REMARK SMILES IDX 4 1 3 2 2 3 1 4 13 5 12 6 11 7 9 8 7 9 6 10 5 11 8 12 10 14
REMARK H PARENT 8 13 10 15
REMARK Flexibility Score: inf
ROOT
ATOM      1  C   UNL     1      11.035  12.158  22.535  1.00  0.00     0.019 A 
ATOM      2  C   UNL     1      12.092  11.877  23.401  1.00  0.00     0.094 A 
ATOM      3  C   UNL     1      13.382  12.290  23.052  1.00  0.00     0.336 A 
ATOM      4  O   UNL     1      14.349  12.047  23.821  1.00  0.00    -0.246 OA
ATOM      5  O   UNL     1      13.596  12.941  21.911  1.00  0.00    -0.423 OA
ATOM      6  C   UNL     1      12.617  13.228  21.058  1.00  0.00     0.142 A 
ATOM      7  C   UNL     1      12.902  13.914  19.873  1.00  0.00     0.098 A 
ATOM      8  C   UNL     1      11.873  14.220  18.969  1.00  0.00     0.161 A 
ATOM      9  C   UNL     1      10.554  13.838  19.252  1.00  0.00     0.158 A 
ATOM     10  C   UNL     1      10.262  13.149  20.438  1.00  0.00     0.062 A 
ATOM     11  C   UNL     1      11.289  12.843  21.342  1.00  0.00     0.022 A 
ENDROOT
BRANCH   9  12
ATOM     12  O   UNL     1       9.538  14.145  18.348  1.00  0.00    -0.504 OA
ATOM     13  H   UNL     1       9.679  14.072  17.347  1.00  0.00     0.293 HD
ENDBRANCH   9  12
BRANCH   8  14
ATOM     14  O   UNL     1      12.154  14.905  17.788  1.00  0.00    -0.504 OA
ATOM     15  H   UNL     1      12.366  15.896  17.787  1.00  0.00     0.293 HD
ENDBRANCH   8  14
TORSDOF 2
ENDMDL
MODEL 5
REMARK VINA RESULT:    -4.482      2.654      3.364
REMARK INTER + INTRA:          -4.744
REMARK INTER:                  -4.744
REMARK INTRA:                   0.000
REMARK UNBOUND:                 0.000
REMARK SMILES O=c1ccc2cc(O)c(O)cc2o1
REMARK SMILES IDX 4 1 3 2 2 3 1 4 13 5 12 6 11 7 9 8 7 9 6 10 5 11 8 12 10 14
REMARK H PARENT 8 13 10 15
REMARK Flexibility Score: inf
ROOT
ATOM      1  C   UNL     1      12.572  14.599  23.827  1.00  0.00     0.019 A 
ATOM      2  C   UNL     1      13.516  15.582  24.125  1.00  0.00     0.094 A 
ATOM      3  C   UNL     1      14.020  16.374  23.088  1.00  0.00     0.336 A 
ATOM      4  O   UNL     1      14.872  17.267  23.337  1.00  0.00    -0.246 OA
ATOM      5  O   UNL     1      13.605  16.191  21.837  1.00  0.00    -0.423 OA
ATOM      6  C   UNL     1      12.708  15.265  21.510  1.00  0.00     0.142 A 
ATOM      7  C   UNL     1      12.310  15.118  20.177  1.00  0.00     0.098 A 
ATOM      8  C   UNL     1      11.364  14.143  19.826  1.00  0.00     0.161 A 
ATOM      9  C   UNL     1      10.814  13.312  20.813  1.00  0.00     0.158 A 
ATOM     10  C   UNL     1      11.209  13.454  22.151  1.00  0.00     0.062 A 
ATOM     11  C   UNL     1      12.155  14.428  22.503  1.00  0.00     0.022 A 
ENDROOT
BRANCH   9  12
ATOM     12  O   UNL     1       9.875  12.346  20.456  1.00  0.00    -0.504 OA
ATOM     13  H   UNL     1       9.081  12.570  19.866  1.00  0.00     0.293 HD
ENDBRANCH   9  12
BRANCH   8  14
ATOM     14  O   UNL     1      10.965  13.994  18.499  1.00  0.00    -0.504 OA
ATOM     15  H   UNL     1      10.820  14.796  17.896  1.00  0.00     0.293 HD
ENDBRANCH   8  14
TORSDOF 2
ENDMDL
MODEL 6
REMARK VINA RESULT:    -4.469      2.680      3.589
REMARK INTER + INTRA:          -4.730
REMARK INTER:                  -4.730
REMARK INTRA:                   0.000
REMARK UNBOUND:                 0.000
REMARK SMILES O=c1ccc2cc(O)c(O)cc2o1
REMARK SMILES IDX 4 1 3 2 2 3 1 4 13 5 12 6 11 7 9 8 7 9 6 10 5 11 8 12 10 14
REMARK H PARENT 8 13 10 15
REMARK Flexibility Score: inf
ROOT
ATOM      1  C   UNL     1      11.930  14.259  23.646  1.00  0.00     0.019 A 
ATOM      2  C   UNL     1      10.910  13.437  24.125  1.00  0.00     0.094 A 
ATOM      3  C   UNL     1      10.065  12.801  23.209  1.00  0.00     0.336 A 
ATOM      4  O   UNL     1       9.139  12.056  23.623  1.00  0.00    -0.246 OA
ATOM      5  O   UNL     1      10.234  12.978  21.901  1.00  0.00    -0.423 OA
ATOM      6  C   UNL     1      11.194  13.753  21.402  1.00  0.00     0.142 A 
ATOM      7  C   UNL     1      11.322  13.902  20.018  1.00  0.00     0.098 A 
ATOM      8  C   UNL     1      12.333  14.718  19.486  1.00  0.00     0.161 A 
ATOM      9  C   UNL     1      13.218  15.387  20.344  1.00  0.00     0.158 A 
ATOM     10  C   UNL     1      13.093  15.242  21.733  1.00  0.00     0.062 A 
ATOM     11  C   UNL     1      12.084  14.427  22.266  1.00  0.00     0.022 A 
ENDROOT
BRANCH   9  12
ATOM     12  O   UNL     1      14.219  16.195  19.807  1.00  0.00    -0.504 OA
ATOM     13  H   UNL     1      15.192  15.914  19.821  1.00  0.00     0.293 HD
ENDBRANCH   9  12
BRANCH   8  14
ATOM     14  O   UNL     1      12.464  14.868  18.107  1.00  0.00    -0.504 OA
ATOM     15  H   UNL     1      11.659  15.030  17.513  1.00  0.00     0.293 HD
ENDBRANCH   8  14
TORSDOF 2
ENDMDL
MODEL 7
REMARK VINA RESULT:    -4.024      2.687      4.469
REMARK INTER + INTRA:          -4.259
REMARK INTER:                  -4.259
REMARK INTRA:                   0.000
REMARK UNBOUND:                 0.000
REMARK SMILES O=c1ccc2cc(O)c(O)cc2o1
REMARK SMILES IDX 4 1 3 2 2 3 1 4 13 5 12 6 11 7 9 8 7 9 6 10 5 11 8 12 10 14
REMARK H PARENT 8 13 10 15
REMARK Flexibility Score: inf
ROOT
ATOM      1  C   UNL     1      11.513  13.509  19.693  1.00  0.00     0.019 A 
ATOM      2  C   UNL     1      10.633  12.745  20.460  1.00  0.00     0.094 A 
ATOM      3  C   UNL     1      10.658  12.875  21.852  1.00  0.00     0.336 A 
ATOM      4  O   UNL     1       9.870  12.195  22.561  1.00  0.00    -0.246 OA
ATOM      5  O   UNL     1      11.508  13.717  22.436  1.00  0.00    -0.423 OA
ATOM      6  C   UNL     1      12.364  14.463  21.742  1.00  0.00     0.142 A 
ATOM      7  C   UNL     1      13.236  15.329  22.410  1.00  0.00     0.098 A 
ATOM      8  C   UNL     1      14.140  16.119  21.684  1.00  0.00     0.161 A 
ATOM      9  C   UNL     1      14.173  16.041  20.284  1.00  0.00     0.158 A 
ATOM     10  C   UNL     1      13.302  15.174  19.609  1.00  0.00     0.062 A 
ATOM     11  C   UNL     1      12.397  14.384  20.333  1.00  0.00     0.022 A 
ENDROOT
BRANCH   9  12
ATOM     12  O   UNL     1      15.075  16.829  19.571  1.00  0.00    -0.504 OA
ATOM     13  H   UNL     1      14.821  17.750  19.231  1.00  0.00     0.293 HD
ENDBRANCH   9  12
BRANCH   8  14
ATOM     14  O   UNL     1      15.010  16.983  22.347  1.00  0.00    -0.504 OA
ATOM     15  H   UNL     1      15.983  17.065  22.076  1.00  0.00     0.293 HD
ENDBRANCH   8  14
TORSDOF 2
ENDMDL
MODEL 8
REMARK VINA RESULT:    -3.807     24.687     26.225
REMARK INTER + INTRA:          -4.030
REMARK INTER:                  -4.030
REMARK INTRA:                   0.000
REMARK UNBOUND:                 0.000
REMARK SMILES O=c1ccc2cc(O)c(O)cc2o1
REMARK SMILES IDX 4 1 3 2 2 3 1 4 13 5 12 6 11 7 9 8 7 9 6 10 5 11 8 12 10 14
REMARK H PARENT 8 13 10 15
REMARK Flexibility Score: inf
ROOT
ATOM      1  C   UNL     1      -0.623  31.034   4.613  1.00  0.00     0.019 A 
ATOM      2  C   UNL     1      -1.650  30.445   3.875  1.00  0.00     0.094 A 
ATOM      3  C   UNL     1      -2.716  29.846   4.554  1.00  0.00     0.336 A 
ATOM      4  O   UNL     1      -3.652  29.309   3.905  1.00  0.00    -0.246 OA
ATOM      5  O   UNL     1      -2.749  29.840   5.884  1.00  0.00    -0.423 OA
ATOM      6  C   UNL     1      -1.792  30.390   6.626  1.00  0.00     0.142 A 
ATOM      7  C   UNL     1      -1.880  30.352   8.022  1.00  0.00     0.098 A 
ATOM      8  C   UNL     1      -0.873  30.931   8.809  1.00  0.00     0.161 A 
ATOM      9  C   UNL     1       0.227  31.550   8.197  1.00  0.00     0.158 A 
ATOM     10  C   UNL     1       0.321  31.590   6.799  1.00  0.00     0.062 A 
ATOM     11  C   UNL     1      -0.684  31.012   6.011  1.00  0.00     0.022 A 
ENDROOT
BRANCH   9  12
ATOM     12  O   UNL     1       1.223  32.122   8.987  1.00  0.00    -0.504 OA
ATOM     13  H   UNL     1       1.671  32.993   8.727  1.00  0.00     0.293 HD
ENDBRANCH   9  12
BRANCH   8  14
ATOM     14  O   UNL     1      -0.959  30.896  10.200  1.00  0.00    -0.504 OA
ATOM     15  H   UNL     1      -0.623  31.663  10.771  1.00  0.00     0.293 HD
ENDBRANCH   8  14
TORSDOF 2
ENDMDL
MODEL 9
REMARK VINA RESULT:    -3.340      2.793      3.627
REMARK INTER + INTRA:          -3.535
REMARK INTER:                  -3.535
REMARK INTRA:                   0.000
REMARK UNBOUND:                 0.000
REMARK SMILES O=c1ccc2cc(O)c(O)cc2o1
REMARK SMILES IDX 4 1 3 2 2 3 1 4 13 5 12 6 11 7 9 8 7 9 6 10 5 11 8 12 10 14
REMARK H PARENT 8 13 10 15
REMARK Flexibility Score: inf
ROOT
ATOM      1  C   UNL     1      13.034  15.326  20.731  1.00  0.00     0.019 A 
ATOM      2  C   UNL     1      13.920  16.236  21.307  1.00  0.00     0.094 A 
ATOM      3  C   UNL     1      13.986  16.329  22.702  1.00  0.00     0.336 A 
ATOM      4  O   UNL     1      14.781  17.143  23.240  1.00  0.00    -0.246 OA
ATOM      5  O   UNL     1      13.215  15.559  23.465  1.00  0.00    -0.423 OA
ATOM      6  C   UNL     1      12.356  14.679  22.957  1.00  0.00     0.142 A 
ATOM      7  C   UNL     1      11.569  13.897  23.809  1.00  0.00     0.098 A 
ATOM      8  C   UNL     1      10.663  12.968  23.278  1.00  0.00     0.161 A 
ATOM      9  C   UNL     1      10.542  12.820  21.889  1.00  0.00     0.158 A 
ATOM     10  C   UNL     1      11.327  13.601  21.029  1.00  0.00     0.062 A 
ATOM     11  C   UNL     1      12.234  14.530  21.558  1.00  0.00     0.022 A 
ENDROOT
BRANCH   9  12
ATOM     12  O   UNL     1       9.638  11.894  21.370  1.00  0.00    -0.504 OA
ATOM     13  H   UNL     1       9.123  11.261  21.971  1.00  0.00     0.293 HD
ENDBRANCH   9  12
BRANCH   8  14
ATOM     14  O   UNL     1       9.878  12.187  24.125  1.00  0.00    -0.504 OA
ATOM     15  H   UNL     1       9.165  11.564  23.762  1.00  0.00     0.293 HD
ENDBRANCH   8  14
TORSDOF 2
ENDMDL
