MODEL 1
REMARK VINA RESULT:    19.912      0.000      0.000
REMARK INTER + INTRA:          41.254
REMARK INTER:                  43.193
REMARK INTRA:                  -1.939
REMARK UNBOUND:                -1.939
REMARK SMILES CCCCCCCCCCCCCCCCCCCCCC(=O)[O-]
REMARK SMILES IDX 12 1 11 2 10 3 9 4 8 5 7 6 6 7 5 8 4 9 3 10 2 11 1 12 13 13
REMARK SMILES IDX 14 14 15 15 16 16 17 17 18 18 19 19 20 20 21 21 22 22 23 23
REMARK SMILES IDX 24 24
REMARK H PARENT
REMARK Flexibility Score: inf
ROOT
ATOM      1  C   UNL     1     -12.928   3.204 -18.650  1.00  0.00     0.000 C 
ENDROOT
BRANCH   1   2
ATOM      2  C   UNL     1     -14.071   3.847 -17.844  1.00  0.00     0.000 C 
BRANCH   2   3
ATOM      3  C   UNL     1     -15.103   4.548 -18.743  1.00  0.00     0.000 C 
BRANCH   3   4
ATOM      4  C   UNL     1     -14.442   5.407 -19.836  1.00  0.00    -0.000 C 
BRANCH   4   5
ATOM      5  C   UNL     1     -15.355   6.540 -20.330  1.00  0.00    -0.000 C 
BRANCH   5   6
ATOM      6  C   UNL     1     -14.883   7.926 -19.864  1.00  0.00    -0.000 C 
BRANCH   6   7
ATOM      7  C   UNL     1     -15.425   8.248 -18.462  1.00  0.00    -0.000 C 
BRANCH   7   8
ATOM      8  C   UNL     1     -14.332   8.753 -17.505  1.00  0.00    -0.000 C 
BRANCH   8   9
ATOM      9  C   UNL     1     -14.617   8.387 -16.038  1.00  0.00    -0.000 C 
BRANCH   9  10
ATOM     10  C   UNL     1     -13.512   7.518 -15.413  1.00  0.00    -0.000 C 
BRANCH  10  11
ATOM     11  C   UNL     1     -12.550   6.865 -16.421  1.00  0.00    -0.003 C 
ATOM     12  C   UNL     1     -11.701   5.755 -15.807  1.00  0.00     0.004 C 
ENDBRANCH  10  11
ENDBRANCH   9  10
ENDBRANCH   8   9
ENDBRANCH   7   8
ENDBRANCH   6   7
ENDBRANCH   5   6
ENDBRANCH   4   5
ENDBRANCH   3   4
ENDBRANCH   2   3
ENDBRANCH   1   2
BRANCH   1  13
ATOM     13  C   UNL     1     -12.132   2.177 -17.827  1.00  0.00     0.000 C 
BRANCH  13  14
ATOM     14  C   UNL     1     -13.033   1.158 -17.115  1.00  0.00     0.000 C 
BRANCH  14  15
ATOM     15  C   UNL     1     -12.425  -0.251 -17.184  1.00  0.00     0.000 C 
BRANCH  15  16
ATOM     16  C   UNL     1     -11.810  -0.561 -18.558  1.00  0.00     0.000 C 
BRANCH  16  17
ATOM     17  C   UNL     1     -10.561  -1.454 -18.458  1.00  0.00     0.000 C 
BRANCH  17  18
ATOM     18  C   UNL     1      -9.608  -1.001 -17.339  1.00  0.00     0.000 C 
BRANCH  18  19
ATOM     19  C   UNL     1      -8.397  -0.224 -17.876  1.00  0.00     0.000 C 
BRANCH  19  20
ATOM     20  C   UNL     1      -7.094  -0.745 -17.259  1.00  0.00     0.006 C 
BRANCH  20  21
ATOM     21  C   UNL     1      -7.375  -1.801 -16.185  1.00  0.00     0.053 C 
BRANCH  21  22
ATOM     22  C   UNL     1      -7.300  -1.192 -14.820  1.00  0.00     0.041 C 
ATOM     23  O   UNL     1      -7.328   0.060 -14.682  1.00  0.00    -0.550 OA
ATOM     24  O   UNL     1      -7.261  -2.008 -13.697  1.00  0.00    -0.550 OA
ENDBRANCH  21  22
ENDBRANCH  20  21
ENDBRANCH  19  20
ENDBRANCH  18  19
ENDBRANCH  17  18
ENDBRANCH  16  17
ENDBRANCH  15  16
ENDBRANCH  14  15
ENDBRANCH  13  14
ENDBRANCH   1  13
TORSDOF 20
ENDMDL
MODEL 2
REMARK VINA RESULT:    20.034      5.331      9.393
REMARK INTER + INTRA:          41.518
REMARK INTER:                  42.723
REMARK INTRA:                  -1.205
REMARK UNBOUND:                -1.939
REMARK SMILES CCCCCCCCCCCCCCCCCCCCCC(=O)[O-]
REMARK SMILES IDX 12 1 11 2 10 3 9 4 8 5 7 6 6 7 5 8 4 9 3 10 2 11 1 12 13 13
REMARK SMILES IDX 14 14 15 15 16 16 17 17 18 18 19 19 20 20 21 21 22 22 23 23
REMARK SMILES IDX 24 24
REMARK H PARENT
REMARK Flexibility Score: inf
ROOT
ATOM      1  C   UNL     1     -12.243  -1.683 -17.506  1.00  0.00     0.000 C 
ENDROOT
BRANCH   1   2
ATOM      2  C   UNL     1     -13.285  -1.610 -16.376  1.00  0.00     0.000 C 
BRANCH   2   3
ATOM      3  C   UNL     1     -14.360  -2.705 -16.494  1.00  0.00     0.000 C 
BRANCH   3   4
ATOM      4  C   UNL     1     -14.343  -3.674 -15.298  1.00  0.00    -0.000 C 
BRANCH   4   5
ATOM      5  C   UNL     1     -14.812  -3.012 -13.993  1.00  0.00    -0.000 C 
BRANCH   5   6
ATOM      6  C   UNL     1     -14.506  -3.865 -12.752  1.00  0.00    -0.000 C 
BRANCH   6   7
ATOM      7  C   UNL     1     -15.190  -3.283 -11.505  1.00  0.00    -0.000 C 
BRANCH   7   8
ATOM      8  C   UNL     1     -14.204  -3.024 -10.353  1.00  0.00    -0.000 C 
BRANCH   8   9
ATOM      9  C   UNL     1     -14.476  -1.694  -9.631  1.00  0.00    -0.000 C 
BRANCH   9  10
ATOM     10  C   UNL     1     -13.327  -0.682  -9.784  1.00  0.00    -0.000 C 
BRANCH  10  11
ATOM     11  C   UNL     1     -13.763   0.743 -10.165  1.00  0.00    -0.003 C 
ATOM     12  C   UNL     1     -14.489   0.809 -11.508  1.00  0.00     0.004 C 
ENDBRANCH  10  11
ENDBRANCH   9  10
ENDBRANCH   8   9
ENDBRANCH   7   8
ENDBRANCH   6   7
ENDBRANCH   5   6
ENDBRANCH   4   5
ENDBRANCH   3   4
ENDBRANCH   2   3
ENDBRANCH   1   2
BRANCH   1  13
ATOM     13  C   UNL     1     -11.742  -0.294 -17.935  1.00  0.00     0.000 C 
BRANCH  13  14
ATOM     14  C   UNL     1     -12.405   0.847 -17.150  1.00  0.00     0.000 C 
BRANCH  14  15
ATOM     15  C   UNL     1     -13.097   1.835 -18.101  1.00  0.00     0.000 C 
BRANCH  15  16
ATOM     16  C   UNL     1     -12.659   3.289 -17.862  1.00  0.00     0.000 C 
BRANCH  16  17
ATOM     17  C   UNL     1     -11.527   3.401 -16.826  1.00  0.00     0.000 C 
BRANCH  17  18
ATOM     18  C   UNL     1     -11.339   4.841 -16.319  1.00  0.00     0.000 C 
BRANCH  18  19
ATOM     19  C   UNL     1     -12.637   5.660 -16.382  1.00  0.00     0.000 C 
BRANCH  19  20
ATOM     20  C   UNL     1     -12.391   7.110 -15.949  1.00  0.00     0.006 C 
BRANCH  20  21
ATOM     21  C   UNL     1     -13.426   8.055 -16.567  1.00  0.00     0.053 C 
BRANCH  21  22
ATOM     22  C   UNL     1     -14.380   8.542 -15.522  1.00  0.00     0.041 C 
ATOM     23  O   UNL     1     -14.223   8.211 -14.316  1.00  0.00    -0.550 OA
ATOM     24  O   UNL     1     -15.407   9.410 -15.869  1.00  0.00    -0.550 OA
ENDBRANCH  21  22
ENDBRANCH  20  21
ENDBRANCH  19  20
ENDBRANCH  18  19
ENDBRANCH  17  18
ENDBRANCH  16  17
ENDBRANCH  15  16
ENDBRANCH  14  15
ENDBRANCH  13  14
ENDBRANCH   1  13
TORSDOF 20
ENDMDL
MODEL 3
REMARK VINA RESULT:    20.079      4.744      6.852
REMARK INTER + INTRA:          41.616
REMARK INTER:                  42.497
REMARK INTRA:                  -0.881
REMARK UNBOUND:                -1.939
REMARK SMILES CCCCCCCCCCCCCCCCCCCCCC(=O)[O-]
REMARK SMILES IDX 12 1 11 2 10 3 9 4 8 5 7 6 6 7 5 8 4 9 3 10 2 11 1 12 13 13
REMARK SMILES IDX 14 14 15 15 16 16 17 17 18 18 19 19 20 20 21 21 22 22 23 23
REMARK SMILES IDX 24 24
REMARK H PARENT
REMARK Flexibility Score: inf
ROOT
ATOM      1  C   UNL     1     -13.365  -1.556 -16.711  1.00  0.00     0.000 C 
ENDROOT
BRANCH   1   2
ATOM      2  C   UNL     1     -12.062  -1.722 -17.513  1.00  0.00     0.000 C 
BRANCH   2   3
ATOM      3  C   UNL     1     -11.498  -0.379 -18.006  1.00  0.00     0.000 C 
BRANCH   3   4
ATOM      4  C   UNL     1     -12.461   0.793 -17.746  1.00  0.00    -0.000 C 
BRANCH   4   5
ATOM      5  C   UNL     1     -11.767   1.993 -17.083  1.00  0.00    -0.000 C 
BRANCH   5   6
ATOM      6  C   UNL     1     -12.406   3.335 -17.472  1.00  0.00    -0.000 C 
BRANCH   6   7
ATOM      7  C   UNL     1     -13.291   3.182 -18.719  1.00  0.00    -0.000 C 
BRANCH   7   8
ATOM      8  C   UNL     1     -14.548   4.065 -18.667  1.00  0.00    -0.000 C 
BRANCH   8   9
ATOM      9  C   UNL     1     -14.250   5.537 -19.000  1.00  0.00    -0.000 C 
BRANCH   9  10
ATOM     10  C   UNL     1     -15.196   6.113 -20.068  1.00  0.00    -0.000 C 
BRANCH  10  11
ATOM     11  C   UNL     1     -15.152   7.644 -20.216  1.00  0.00    -0.003 C 
ATOM     12  C   UNL     1     -15.711   8.380 -19.000  1.00  0.00     0.004 C 
ENDBRANCH  10  11
ENDBRANCH   9  10
ENDBRANCH   8   9
ENDBRANCH   7   8
ENDBRANCH   6   7
ENDBRANCH   5   6
ENDBRANCH   4   5
ENDBRANCH   3   4
ENDBRANCH   2   3
ENDBRANCH   1   2
BRANCH   1  13
ATOM     13  C   UNL     1     -14.151  -2.872 -16.585  1.00  0.00     0.000 C 
BRANCH  13  14
ATOM     14  C   UNL     1     -14.727  -3.089 -15.177  1.00  0.00     0.000 C 
BRANCH  14  15
ATOM     15  C   UNL     1     -14.183  -4.385 -14.559  1.00  0.00     0.000 C 
BRANCH  15  16
ATOM     16  C   UNL     1     -13.960  -4.267 -13.043  1.00  0.00     0.000 C 
BRANCH  16  17
ATOM     17  C   UNL     1     -15.029  -3.399 -12.356  1.00  0.00     0.000 C 
BRANCH  17  18
ATOM     18  C   UNL     1     -15.040  -3.586 -10.829  1.00  0.00     0.000 C 
BRANCH  18  19
ATOM     19  C   UNL     1     -13.794  -2.994 -10.155  1.00  0.00     0.000 C 
BRANCH  19  20
ATOM     20  C   UNL     1     -14.100  -1.619  -9.550  1.00  0.00     0.006 C 
BRANCH  20  21
ATOM     21  C   UNL     1     -15.016  -0.803 -10.468  1.00  0.00     0.053 C 
BRANCH  21  22
ATOM     22  C   UNL     1     -14.389   0.516 -10.794  1.00  0.00     0.041 C 
ATOM     23  O   UNL     1     -13.376   0.911 -10.158  1.00  0.00    -0.550 OA
ATOM     24  O   UNL     1     -14.888   1.283 -11.840  1.00  0.00    -0.550 OA
ENDBRANCH  21  22
ENDBRANCH  20  21
ENDBRANCH  19  20
ENDBRANCH  18  19
ENDBRANCH  17  18
ENDBRANCH  16  17
ENDBRANCH  15  16
ENDBRANCH  14  15
ENDBRANCH  13  14
ENDBRANCH   1  13
TORSDOF 20
ENDMDL
MODEL 4
REMARK VINA RESULT:    20.117      4.728      6.589
REMARK INTER + INTRA:          41.699
REMARK INTER:                  42.372
REMARK INTRA:                  -0.672
REMARK UNBOUND:                -1.939
REMARK SMILES CCCCCCCCCCCCCCCCCCCCCC(=O)[O-]
REMARK SMILES IDX 12 1 11 2 10 3 9 4 8 5 7 6 6 7 5 8 4 9 3 10 2 11 1 12 13 13
REMARK SMILES IDX 14 14 15 15 16 16 17 17 18 18 19 19 20 20 21 21 22 22 23 23
REMARK SMILES IDX 24 24
REMARK H PARENT
REMARK Flexibility Score: inf
ROOT
ATOM      1  C   UNL     1     -13.237  -1.470 -16.604  1.00  0.00     0.000 C 
ENDROOT
BRANCH   1   2
ATOM      2  C   UNL     1     -12.213  -1.565 -17.748  1.00  0.00     0.000 C 
BRANCH   2   3
ATOM      3  C   UNL     1     -11.724  -0.185 -18.218  1.00  0.00     0.000 C 
BRANCH   3   4
ATOM      4  C   UNL     1     -12.220   0.954 -17.309  1.00  0.00    -0.000 C 
BRANCH   4   5
ATOM      5  C   UNL     1     -13.099   1.968 -18.058  1.00  0.00    -0.000 C 
BRANCH   5   6
ATOM      6  C   UNL     1     -12.652   3.420 -17.832  1.00  0.00    -0.000 C 
BRANCH   6   7
ATOM      7  C   UNL     1     -11.624   3.507 -16.693  1.00  0.00    -0.000 C 
BRANCH   7   8
ATOM      8  C   UNL     1     -11.416   4.945 -16.189  1.00  0.00    -0.000 C 
BRANCH   8   9
ATOM      9  C   UNL     1     -12.575   5.880 -16.577  1.00  0.00    -0.000 C 
BRANCH   9  10
ATOM     10  C   UNL     1     -12.480   7.261 -15.904  1.00  0.00    -0.000 C 
BRANCH  10  11
ATOM     11  C   UNL     1     -13.722   7.675 -15.096  1.00  0.00    -0.003 C 
ATOM     12  C   UNL     1     -14.600   8.691 -15.825  1.00  0.00     0.004 C 
ENDBRANCH  10  11
ENDBRANCH   9  10
ENDBRANCH   8   9
ENDBRANCH   7   8
ENDBRANCH   6   7
ENDBRANCH   5   6
ENDBRANCH   4   5
ENDBRANCH   3   4
ENDBRANCH   2   3
ENDBRANCH   1   2
BRANCH   1  13
ATOM     13  C   UNL     1     -14.211  -2.660 -16.585  1.00  0.00     0.000 C 
BRANCH  13  14
ATOM     14  C   UNL     1     -14.726  -2.985 -15.175  1.00  0.00     0.000 C 
BRANCH  14  15
ATOM     15  C   UNL     1     -14.149  -4.319 -14.677  1.00  0.00     0.000 C 
BRANCH  15  16
ATOM     16  C   UNL     1     -13.971  -4.351 -13.151  1.00  0.00     0.000 C 
BRANCH  16  17
ATOM     17  C   UNL     1     -14.883  -3.343 -12.430  1.00  0.00     0.000 C 
BRANCH  17  18
ATOM     18  C   UNL     1     -15.054  -3.673 -10.937  1.00  0.00     0.000 C 
BRANCH  18  19
ATOM     19  C   UNL     1     -13.933  -3.081 -10.071  1.00  0.00     0.000 C 
BRANCH  19  20
ATOM     20  C   UNL     1     -14.277  -1.653  -9.632  1.00  0.00     0.006 C 
BRANCH  20  21
ATOM     21  C   UNL     1     -15.015  -0.896 -10.740  1.00  0.00     0.053 C 
BRANCH  21  22
ATOM     22  C   UNL     1     -14.451   0.480 -10.901  1.00  0.00     0.041 C 
ATOM     23  O   UNL     1     -14.983   1.294 -11.701  1.00  0.00    -0.550 OA
ATOM     24  O   UNL     1     -13.374   0.884 -10.122  1.00  0.00    -0.550 OA
ENDBRANCH  21  22
ENDBRANCH  20  21
ENDBRANCH  19  20
ENDBRANCH  18  19
ENDBRANCH  17  18
ENDBRANCH  16  17
ENDBRANCH  15  16
ENDBRANCH  14  15
ENDBRANCH  13  14
ENDBRANCH   1  13
TORSDOF 20
ENDMDL
MODEL 5
REMARK VINA RESULT:    20.282      5.574      9.781
REMARK INTER + INTRA:          42.057
REMARK INTER:                  42.927
REMARK INTRA:                  -0.870
REMARK UNBOUND:                -1.939
REMARK SMILES CCCCCCCCCCCCCCCCCCCCCC(=O)[O-]
REMARK SMILES IDX 12 1 11 2 10 3 9 4 8 5 7 6 6 7 5 8 4 9 3 10 2 11 1 12 13 13
REMARK SMILES IDX 14 14 15 15 16 16 17 17 18 18 19 19 20 20 21 21 22 22 23 23
REMARK SMILES IDX 24 24
REMARK H PARENT
REMARK Flexibility Score: inf
ROOT
ATOM      1  C   UNL     1     -13.054  -1.584 -16.566  1.00  0.00     0.000 C 
ENDROOT
BRANCH   1   2
ATOM      2  C   UNL     1     -14.249  -2.549 -16.661  1.00  0.00     0.000 C 
BRANCH   2   3
ATOM      3  C   UNL     1     -14.743  -3.013 -15.281  1.00  0.00     0.000 C 
BRANCH   3   4
ATOM      4  C   UNL     1     -14.065  -4.316 -14.823  1.00  0.00    -0.000 C 
BRANCH   4   5
ATOM      5  C   UNL     1     -13.997  -4.442 -13.293  1.00  0.00    -0.000 C 
BRANCH   5   6
ATOM      6  C   UNL     1     -14.768  -3.325 -12.572  1.00  0.00    -0.000 C 
BRANCH   6   7
ATOM      7  C   UNL     1     -15.092  -3.729 -11.124  1.00  0.00    -0.000 C 
BRANCH   7   8
ATOM      8  C   UNL     1     -14.264  -2.947 -10.091  1.00  0.00    -0.000 C 
BRANCH   8   9
ATOM      9  C   UNL     1     -14.658  -1.462 -10.020  1.00  0.00    -0.000 C 
BRANCH   9  10
ATOM     10  C   UNL     1     -13.461  -0.538  -9.730  1.00  0.00    -0.000 C 
BRANCH  10  11
ATOM     11  C   UNL     1     -13.573   0.875 -10.327  1.00  0.00    -0.003 C 
ATOM     12  C   UNL     1     -14.529   0.950 -11.515  1.00  0.00     0.004 C 
ENDBRANCH  10  11
ENDBRANCH   9  10
ENDBRANCH   8   9
ENDBRANCH   7   8
ENDBRANCH   6   7
ENDBRANCH   5   6
ENDBRANCH   4   5
ENDBRANCH   3   4
ENDBRANCH   2   3
ENDBRANCH   1   2
BRANCH   1  13
ATOM     13  C   UNL     1     -12.437  -1.273 -17.940  1.00  0.00     0.000 C 
BRANCH  13  14
ATOM     14  C   UNL     1     -11.260  -0.290 -17.855  1.00  0.00     0.000 C 
BRANCH  14  15
ATOM     15  C   UNL     1     -11.683   1.011 -17.156  1.00  0.00     0.000 C 
BRANCH  15  16
ATOM     16  C   UNL     1     -13.055   1.515 -17.630  1.00  0.00     0.000 C 
BRANCH  16  17
ATOM     17  C   UNL     1     -12.984   2.923 -18.249  1.00  0.00     0.000 C 
BRANCH  17  18
ATOM     18  C   UNL     1     -14.375   3.560 -18.411  1.00  0.00     0.000 C 
BRANCH  18  19
ATOM     19  C   UNL     1     -14.300   5.041 -18.810  1.00  0.00     0.000 C 
BRANCH  19  20
ATOM     20  C   UNL     1     -15.404   5.395 -19.813  1.00  0.00     0.006 C 
BRANCH  20  21
ATOM     21  C   UNL     1     -14.986   6.568 -20.704  1.00  0.00     0.053 C 
BRANCH  21  22
ATOM     22  C   UNL     1     -14.940   7.837 -19.912  1.00  0.00     0.041 C 
ATOM     23  O   UNL     1     -15.864   8.112 -19.101  1.00  0.00    -0.550 OA
ATOM     24  O   UNL     1     -13.847   8.687 -20.024  1.00  0.00    -0.550 OA
ENDBRANCH  21  22
ENDBRANCH  20  21
ENDBRANCH  19  20
ENDBRANCH  18  19
ENDBRANCH  17  18
ENDBRANCH  16  17
ENDBRANCH  15  16
ENDBRANCH  14  15
ENDBRANCH  13  14
ENDBRANCH   1  13
TORSDOF 20
ENDMDL
MODEL 6
REMARK VINA RESULT:    20.395      4.426      6.050
REMARK INTER + INTRA:          42.302
REMARK INTER:                  43.322
REMARK INTRA:                  -1.021
REMARK UNBOUND:                -1.939
REMARK SMILES CCCCCCCCCCCCCCCCCCCCCC(=O)[O-]
REMARK SMILES IDX 12 1 11 2 10 3 9 4 8 5 7 6 6 7 5 8 4 9 3 10 2 11 1 12 13 13
REMARK SMILES IDX 14 14 15 15 16 16 17 17 18 18 19 19 20 20 21 21 22 22 23 23
REMARK SMILES IDX 24 24
REMARK H PARENT
REMARK Flexibility Score: inf
ROOT
ATOM      1  C   UNL     1     -12.343  -1.372 -17.691  1.00  0.00     0.000 C 
ENDROOT
BRANCH   1   2
ATOM      2  C   UNL     1     -11.713   0.006 -17.964  1.00  0.00     0.000 C 
BRANCH   2   3
ATOM      3  C   UNL     1     -12.396   1.133 -17.171  1.00  0.00     0.000 C 
BRANCH   3   4
ATOM      4  C   UNL     1     -13.485   1.850 -17.990  1.00  0.00    -0.000 C 
BRANCH   4   5
ATOM      5  C   UNL     1     -13.115   3.304 -18.320  1.00  0.00    -0.000 C 
BRANCH   5   6
ATOM      6  C   UNL     1     -14.347   4.193 -18.547  1.00  0.00    -0.000 C 
BRANCH   6   7
ATOM      7  C   UNL     1     -14.091   5.213 -19.667  1.00  0.00    -0.000 C 
BRANCH   7   8
ATOM      8  C   UNL     1     -15.280   6.162 -19.890  1.00  0.00    -0.000 C 
BRANCH   8   9
ATOM      9  C   UNL     1     -14.874   7.644 -19.815  1.00  0.00    -0.000 C 
BRANCH   9  10
ATOM     10  C   UNL     1     -15.160   8.274 -18.441  1.00  0.00    -0.000 C 
BRANCH  10  11
ATOM     11  C   UNL     1     -13.930   8.429 -17.529  1.00  0.00    -0.003 C 
ATOM     12  C   UNL     1     -14.288   8.854 -16.107  1.00  0.00     0.004 C 
ENDBRANCH  10  11
ENDBRANCH   9  10
ENDBRANCH   8   9
ENDBRANCH   7   8
ENDBRANCH   6   7
ENDBRANCH   5   6
ENDBRANCH   4   5
ENDBRANCH   3   4
ENDBRANCH   2   3
ENDBRANCH   1   2
BRANCH   1  13
ATOM     13  C   UNL     1     -13.310  -1.351 -16.495  1.00  0.00     0.000 C 
BRANCH  13  14
ATOM     14  C   UNL     1     -14.185  -2.610 -16.416  1.00  0.00     0.000 C 
BRANCH  14  15
ATOM     15  C   UNL     1     -14.656  -2.858 -14.974  1.00  0.00     0.000 C 
BRANCH  15  16
ATOM     16  C   UNL     1     -14.236  -4.238 -14.446  1.00  0.00     0.000 C 
BRANCH  16  17
ATOM     17  C   UNL     1     -13.957  -4.231 -12.933  1.00  0.00     0.000 C 
BRANCH  17  18
ATOM     18  C   UNL     1     -15.024  -3.450 -12.146  1.00  0.00     0.000 C 
BRANCH  18  19
ATOM     19  C   UNL     1     -14.753  -3.444 -10.634  1.00  0.00     0.000 C 
BRANCH  19  20
ATOM     20  C   UNL     1     -14.260  -2.068 -10.172  1.00  0.00     0.006 C 
BRANCH  20  21
ATOM     21  C   UNL     1     -15.154  -0.949 -10.715  1.00  0.00     0.053 C 
BRANCH  21  22
ATOM     22  C   UNL     1     -14.394   0.337 -10.792  1.00  0.00     0.041 C 
ATOM     23  O   UNL     1     -14.741   1.230 -11.610  1.00  0.00    -0.550 OA
ATOM     24  O   UNL     1     -13.339   0.575  -9.919  1.00  0.00    -0.550 OA
ENDBRANCH  21  22
ENDBRANCH  20  21
ENDBRANCH  19  20
ENDBRANCH  18  19
ENDBRANCH  17  18
ENDBRANCH  16  17
ENDBRANCH  15  16
ENDBRANCH  14  15
ENDBRANCH  13  14
ENDBRANCH   1  13
TORSDOF 20
ENDMDL
MODEL 7
REMARK VINA RESULT:    20.416      3.039      9.210
REMARK INTER + INTRA:          42.347
REMARK INTER:                  43.373
REMARK INTRA:                  -1.025
REMARK UNBOUND:                -1.939
REMARK SMILES CCCCCCCCCCCCCCCCCCCCCC(=O)[O-]
REMARK SMILES IDX 12 1 11 2 10 3 9 4 8 5 7 6 6 7 5 8 4 9 3 10 2 11 1 12 13 13
REMARK SMILES IDX 14 14 15 15 16 16 17 17 18 18 19 19 20 20 21 21 22 22 23 23
REMARK SMILES IDX 24 24
REMARK H PARENT
REMARK Flexibility Score: inf
ROOT
ATOM      1  C   UNL     1     -12.134   2.935 -17.336  1.00  0.00     0.000 C 
ENDROOT
BRANCH   1   2
ATOM      2  C   UNL     1     -11.899   1.469 -17.738  1.00  0.00     0.000 C 
BRANCH   2   3
ATOM      3  C   UNL     1     -12.894   0.507 -17.066  1.00  0.00     0.000 C 
BRANCH   3   4
ATOM      4  C   UNL     1     -12.868  -0.897 -17.695  1.00  0.00    -0.000 C 
BRANCH   4   5
ATOM      5  C   UNL     1     -11.525  -1.614 -17.485  1.00  0.00    -0.000 C 
BRANCH   5   6
ATOM      6  C   UNL     1     -10.501  -1.288 -18.583  1.00  0.00    -0.000 C 
BRANCH   6   7
ATOM      7  C   UNL     1      -9.079  -1.670 -18.139  1.00  0.00    -0.000 C 
BRANCH   7   8
ATOM      8  C   UNL     1      -8.093  -0.494 -18.231  1.00  0.00    -0.000 C 
BRANCH   8   9
ATOM      9  C   UNL     1      -7.097  -0.466 -17.059  1.00  0.00    -0.000 C 
BRANCH   9  10
ATOM     10  C   UNL     1      -7.036  -1.799 -16.292  1.00  0.00    -0.000 C 
BRANCH  10  11
ATOM     11  C   UNL     1      -7.062  -1.667 -14.759  1.00  0.00    -0.003 C 
ATOM     12  C   UNL     1      -7.430  -0.263 -14.285  1.00  0.00     0.004 C 
ENDBRANCH  10  11
ENDBRANCH   9  10
ENDBRANCH   8   9
ENDBRANCH   7   8
ENDBRANCH   6   7
ENDBRANCH   5   6
ENDBRANCH   4   5
ENDBRANCH   3   4
ENDBRANCH   2   3
ENDBRANCH   1   2
BRANCH   1  13
ATOM     13  C   UNL     1     -12.988   3.698 -18.363  1.00  0.00     0.000 C 
BRANCH  13  14
ATOM     14  C   UNL     1     -14.496   3.492 -18.154  1.00  0.00     0.000 C 
BRANCH  14  15
ATOM     15  C   UNL     1     -15.301   4.585 -18.873  1.00  0.00     0.000 C 
BRANCH  15  16
ATOM     16  C   UNL     1     -14.406   5.553 -19.664  1.00  0.00     0.000 C 
BRANCH  16  17
ATOM     17  C   UNL     1     -15.218   6.572 -20.482  1.00  0.00     0.000 C 
BRANCH  17  18
ATOM     18  C   UNL     1     -15.092   8.000 -19.926  1.00  0.00     0.000 C 
BRANCH  18  19
ATOM     19  C   UNL     1     -14.994   8.028 -18.393  1.00  0.00     0.000 C 
BRANCH  19  20
ATOM     20  C   UNL     1     -13.677   8.668 -17.940  1.00  0.00     0.006 C 
BRANCH  20  21
ATOM     21  C   UNL     1     -13.775   9.175 -16.499  1.00  0.00     0.053 C 
BRANCH  21  22
ATOM     22  C   UNL     1     -13.657   8.038 -15.534  1.00  0.00     0.041 C 
ATOM     23  O   UNL     1     -12.884   7.075 -15.781  1.00  0.00    -0.550 OA
ATOM     24  O   UNL     1     -14.355   8.070 -14.333  1.00  0.00    -0.550 OA
ENDBRANCH  21  22
ENDBRANCH  20  21
ENDBRANCH  19  20
ENDBRANCH  18  19
ENDBRANCH  17  18
ENDBRANCH  16  17
ENDBRANCH  15  16
ENDBRANCH  14  15
ENDBRANCH  13  14
ENDBRANCH   1  13
TORSDOF 20
ENDMDL
MODEL 8
REMARK VINA RESULT:    20.579      2.798      9.131
REMARK INTER + INTRA:          42.702
REMARK INTER:                  43.786
REMARK INTRA:                  -1.084
REMARK UNBOUND:                -1.939
REMARK SMILES CCCCCCCCCCCCCCCCCCCCCC(=O)[O-]
REMARK SMILES IDX 12 1 11 2 10 3 9 4 8 5 7 6 6 7 5 8 4 9 3 10 2 11 1 12 13 13
REMARK SMILES IDX 14 14 15 15 16 16 17 17 18 18 19 19 20 20 21 21 22 22 23 23
REMARK SMILES IDX 24 24
REMARK H PARENT
REMARK Flexibility Score: inf
ROOT
ATOM      1  C   UNL     1     -13.277   3.270 -18.552  1.00  0.00     0.000 C 
ENDROOT
BRANCH   1   2
ATOM      2  C   UNL     1     -12.553   3.813 -17.307  1.00  0.00     0.000 C 
BRANCH   2   3
ATOM      3  C   UNL     1     -11.574   2.792 -16.703  1.00  0.00     0.000 C 
BRANCH   3   4
ATOM      4  C   UNL     1     -11.518   1.483 -17.511  1.00  0.00    -0.000 C 
BRANCH   4   5
ATOM      5  C   UNL     1     -12.631   0.499 -17.120  1.00  0.00    -0.000 C 
BRANCH   5   6
ATOM      6  C   UNL     1     -12.539  -0.833 -17.881  1.00  0.00    -0.000 C 
BRANCH   6   7
ATOM      7  C   UNL     1     -11.234  -0.913 -18.691  1.00  0.00    -0.000 C 
BRANCH   7   8
ATOM      8  C   UNL     1     -10.248  -1.949 -18.128  1.00  0.00    -0.000 C 
BRANCH   8   9
ATOM      9  C   UNL     1      -9.428  -1.403 -16.947  1.00  0.00    -0.000 C 
BRANCH   9  10
ATOM     10  C   UNL     1      -8.196  -0.596 -17.395  1.00  0.00    -0.000 C 
BRANCH  10  11
ATOM     11  C   UNL     1      -6.877  -0.993 -16.711  1.00  0.00    -0.003 C 
ATOM     12  C   UNL     1      -6.991  -1.075 -15.190  1.00  0.00     0.004 C 
ENDBRANCH  10  11
ENDBRANCH   9  10
ENDBRANCH   8   9
ENDBRANCH   7   8
ENDBRANCH   6   7
ENDBRANCH   5   6
ENDBRANCH   4   5
ENDBRANCH   3   4
ENDBRANCH   2   3
ENDBRANCH   1   2
BRANCH   1  13
ATOM     13  C   UNL     1     -14.622   3.972 -18.803  1.00  0.00     0.000 C 
BRANCH  13  14
ATOM     14  C   UNL     1     -14.487   5.498 -18.908  1.00  0.00     0.000 C 
BRANCH  14  15
ATOM     15  C   UNL     1     -15.231   6.029 -20.142  1.00  0.00     0.000 C 
BRANCH  15  16
ATOM     16  C   UNL     1     -15.208   7.563 -20.230  1.00  0.00     0.000 C 
BRANCH  16  17
ATOM     17  C   UNL     1     -14.992   8.229 -18.860  1.00  0.00     0.000 C 
BRANCH  17  18
ATOM     18  C   UNL     1     -16.317   8.644 -18.198  1.00  0.00     0.000 C 
BRANCH  18  19
ATOM     19  C   UNL     1     -16.151   8.974 -16.707  1.00  0.00     0.000 C 
BRANCH  19  20
ATOM     20  C   UNL     1     -14.678   9.220 -16.361  1.00  0.00     0.006 C 
BRANCH  20  21
ATOM     21  C   UNL     1     -14.100   8.058 -15.548  1.00  0.00     0.053 C 
BRANCH  21  22
ATOM     22  C   UNL     1     -12.783   7.628 -16.113  1.00  0.00     0.041 C 
ATOM     23  O   UNL     1     -12.314   6.493 -15.834  1.00  0.00    -0.550 OA
ATOM     24  O   UNL     1     -12.103   8.456 -16.997  1.00  0.00    -0.550 OA
ENDBRANCH  21  22
ENDBRANCH  20  21
ENDBRANCH  19  20
ENDBRANCH  18  19
ENDBRANCH  17  18
ENDBRANCH  16  17
ENDBRANCH  15  16
ENDBRANCH  14  15
ENDBRANCH  13  14
ENDBRANCH   1  13
TORSDOF 20
ENDMDL
MODEL 9
REMARK VINA RESULT:    20.629      0.919      2.784
REMARK INTER + INTRA:          42.810
REMARK INTER:                  44.482
REMARK INTRA:                  -1.672
REMARK UNBOUND:                -1.939
REMARK SMILES CCCCCCCCCCCCCCCCCCCCCC(=O)[O-]
REMARK SMILES IDX 12 1 11 2 10 3 9 4 8 5 7 6 6 7 5 8 4 9 3 10 2 11 1 12 13 13
REMARK SMILES IDX 14 14 15 15 16 16 17 17 18 18 19 19 20 20 21 21 22 22 23 23
REMARK SMILES IDX 24 24
REMARK H PARENT
REMARK Flexibility Score: inf
ROOT
ATOM      1  C   UNL     1     -13.240   2.173 -18.284  1.00  0.00     0.000 C 
ENDROOT
BRANCH   1   2
ATOM      2  C   UNL     1     -12.485   3.500 -18.091  1.00  0.00     0.000 C 
BRANCH   2   3
ATOM      3  C   UNL     1     -11.717   3.553 -16.759  1.00  0.00     0.000 C 
BRANCH   3   4
ATOM      4  C   UNL     1     -11.340   4.989 -16.356  1.00  0.00    -0.000 C 
BRANCH   4   5
ATOM      5  C   UNL     1     -12.546   5.797 -15.852  1.00  0.00    -0.000 C 
BRANCH   5   6
ATOM      6  C   UNL     1     -12.486   7.275 -16.271  1.00  0.00    -0.000 C 
BRANCH   6   7
ATOM      7  C   UNL     1     -13.716   8.041 -15.757  1.00  0.00    -0.000 C 
BRANCH   7   8
ATOM      8  C   UNL     1     -14.593   8.588 -16.895  1.00  0.00    -0.000 C 
BRANCH   8   9
ATOM      9  C   UNL     1     -14.059   8.207 -18.287  1.00  0.00    -0.000 C 
BRANCH   9  10
ATOM     10  C   UNL     1     -15.154   8.207 -19.369  1.00  0.00    -0.000 C 
BRANCH  10  11
ATOM     11  C   UNL     1     -15.313   6.880 -20.131  1.00  0.00    -0.003 C 
ATOM     12  C   UNL     1     -14.726   5.686 -19.383  1.00  0.00     0.004 C 
ENDBRANCH  10  11
ENDBRANCH   9  10
ENDBRANCH   8   9
ENDBRANCH   7   8
ENDBRANCH   6   7
ENDBRANCH   5   6
ENDBRANCH   4   5
ENDBRANCH   3   4
ENDBRANCH   2   3
ENDBRANCH   1   2
BRANCH   1  13
ATOM     13  C   UNL     1     -12.929   1.152 -17.177  1.00  0.00     0.000 C 
BRANCH  13  14
ATOM     14  C   UNL     1     -13.387  -0.270 -17.532  1.00  0.00     0.000 C 
BRANCH  14  15
ATOM     15  C   UNL     1     -12.450  -1.317 -16.910  1.00  0.00     0.000 C 
BRANCH  15  16
ATOM     16  C   UNL     1     -11.633  -2.078 -17.967  1.00  0.00     0.000 C 
BRANCH  16  17
ATOM     17  C   UNL     1     -10.748  -1.145 -18.812  1.00  0.00     0.000 C 
BRANCH  17  18
ATOM     18  C   UNL     1      -9.352  -0.948 -18.196  1.00  0.00     0.000 C 
BRANCH  18  19
ATOM     19  C   UNL     1      -8.662  -2.280 -17.867  1.00  0.00     0.000 C 
BRANCH  19  20
ATOM     20  C   UNL     1      -7.379  -2.047 -17.060  1.00  0.00     0.006 C 
BRANCH  20  21
ATOM     21  C   UNL     1      -7.362  -0.646 -16.441  1.00  0.00     0.053 C 
BRANCH  21  22
ATOM     22  C   UNL     1      -7.254  -0.732 -14.952  1.00  0.00     0.041 C 
ATOM     23  O   UNL     1      -7.429   0.294 -14.243  1.00  0.00    -0.550 OA
ATOM     24  O   UNL     1      -7.020  -1.959 -14.342  1.00  0.00    -0.550 OA
ENDBRANCH  21  22
ENDBRANCH  20  21
ENDBRANCH  19  20
ENDBRANCH  18  19
ENDBRANCH  17  18
ENDBRANCH  16  17
ENDBRANCH  15  16
ENDBRANCH  14  15
ENDBRANCH  13  14
ENDBRANCH   1  13
TORSDOF 20
ENDMDL
