MODEL 1
REMARK VINA RESULT:    -6.650      0.000      0.000
REMARK INTER + INTRA:          -8.342
REMARK INTER:                  -8.011
REMARK INTRA:                  -0.332
REMARK UNBOUND:                -0.332
REMARK SMILES O=c1c(O)c(-c2ccc(O)c(O)c2)oc2cc(O)cc(O)c12
REMARK SMILES IDX 5 1 3 2 2 3 1 4 22 5 20 6 19 7 17 8 16 9 15 10 14 11 6 12
REMARK SMILES IDX 7 13 8 14 9 15 13 16 11 17 10 18 12 20 4 22 21 24 18 26
REMARK H PARENT 10 19 12 21 4 23 21 25 18 27
REMARK Flexibility Score: inf
ROOT
ATOM      1  C   UNL     1      31.960 -35.233  35.619  1.00  0.00     0.180 A 
ATOM      2  C   UNL     1      32.849 -35.252  34.531  1.00  0.00     0.208 A 
ATOM      3  C   UNL     1      32.859 -36.368  33.679  1.00  0.00     0.238 A 
ATOM      4  O   UNL     1      33.695 -36.404  32.738  1.00  0.00    -0.285 OA
ATOM      5  C   UNL     1      31.968 -37.443  33.915  1.00  0.00     0.111 A 
ATOM      6  C   UNL     1      31.863 -38.606  33.094  1.00  0.00     0.134 A 
ATOM      7  C   UNL     1      31.041 -39.664  33.497  1.00  0.00     0.093 A 
ATOM      8  C   UNL     1      30.270 -39.577  34.656  1.00  0.00     0.123 A 
ATOM      9  C   UNL     1      30.318 -38.420  35.435  1.00  0.00     0.094 A 
ATOM     10  C   UNL     1      31.158 -37.362  35.078  1.00  0.00     0.146 A 
ATOM     11  O   UNL     1      31.183 -36.285  35.853  1.00  0.00    -0.452 OA
ENDROOT
BRANCH   1  12
ATOM     12  C   UNL     1      31.874 -34.081  36.546  1.00  0.00     0.025 A 
ATOM     13  C   UNL     1      31.050 -32.976  36.266  1.00  0.00     0.016 A 
ATOM     14  C   UNL     1      30.966 -31.912  37.168  1.00  0.00     0.051 A 
ATOM     15  C   UNL     1      31.693 -31.940  38.366  1.00  0.00     0.157 A 
ATOM     16  C   UNL     1      32.584 -34.114  37.757  1.00  0.00     0.062 A 
ATOM     17  C   UNL     1      32.502 -33.049  38.662  1.00  0.00     0.158 A 
BRANCH  15  18
ATOM     18  O   UNL     1      31.609 -30.875  39.262  1.00  0.00    -0.504 OA
ATOM     19  H   UNL     1      31.578 -31.027  40.263  1.00  0.00     0.293 HD
ENDBRANCH  15  18
BRANCH  17  20
ATOM     20  O   UNL     1      33.233 -33.111  39.848  1.00  0.00    -0.504 OA
ATOM     21  H   UNL     1      34.244 -33.177  39.855  1.00  0.00     0.293 HD
ENDBRANCH  17  20
ENDBRANCH   1  12
BRANCH   2  22
ATOM     22  O   UNL     1      33.736 -34.191  34.328  1.00  0.00    -0.502 OA
ATOM     23  H   UNL     1      34.740 -34.319  34.299  1.00  0.00     0.293 HD
ENDBRANCH   2  22
BRANCH   6  24
ATOM     24  O   UNL     1      32.520 -38.757  31.870  1.00  0.00    -0.507 OA
ATOM     25  H   UNL     1      32.749 -38.000  31.243  1.00  0.00     0.293 HD
ENDBRANCH   6  24
BRANCH   8  26
ATOM     26  O   UNL     1      29.449 -40.643  35.017  1.00  0.00    -0.508 OA
ATOM     27  H   UNL     1      29.115 -41.310  34.330  1.00  0.00     0.293 HD
ENDBRANCH   8  26
TORSDOF 6
ENDMDL
MODEL 2
REMARK VINA RESULT:    -6.364      4.117      6.412
REMARK INTER + INTRA:          -7.997
REMARK INTER:                  -7.702
REMARK INTRA:                  -0.295
REMARK UNBOUND:                -0.332
REMARK SMILES O=c1c(O)c(-c2ccc(O)c(O)c2)oc2cc(O)cc(O)c12
REMARK SMILES IDX 5 1 3 2 2 3 1 4 22 5 20 6 19 7 17 8 16 9 15 10 14 11 6 12
REMARK SMILES IDX 7 13 8 14 9 15 13 16 11 17 10 18 12 20 4 22 21 24 18 26
REMARK H PARENT 10 19 12 21 4 23 21 25 18 27
REMARK Flexibility Score: inf
ROOT
ATOM      1  C   UNL     1      32.132 -38.377  33.569  1.00  0.00     0.180 A 
ATOM      2  C   UNL     1      32.975 -38.016  34.634  1.00  0.00     0.208 A 
ATOM      3  C   UNL     1      34.353 -37.885  34.397  1.00  0.00     0.238 A 
ATOM      4  O   UNL     1      35.111 -37.615  35.366  1.00  0.00    -0.285 OA
ATOM      5  C   UNL     1      34.868 -38.100  33.095  1.00  0.00     0.111 A 
ATOM      6  C   UNL     1      36.241 -37.955  32.732  1.00  0.00     0.134 A 
ATOM      7  C   UNL     1      36.657 -38.320  31.446  1.00  0.00     0.093 A 
ATOM      8  C   UNL     1      35.741 -38.761  30.491  1.00  0.00     0.123 A 
ATOM      9  C   UNL     1      34.387 -38.850  30.817  1.00  0.00     0.094 A 
ATOM     10  C   UNL     1      33.948 -38.527  32.104  1.00  0.00     0.146 A 
ATOM     11  O   UNL     1      32.653 -38.635  32.375  1.00  0.00    -0.452 OA
ENDROOT
BRANCH   1  12
ATOM     12  C   UNL     1      30.667 -38.510  33.736  1.00  0.00     0.025 A 
ATOM     13  C   UNL     1      29.787 -37.494  33.319  1.00  0.00     0.016 A 
ATOM     14  C   UNL     1      28.406 -37.653  33.464  1.00  0.00     0.051 A 
ATOM     15  C   UNL     1      27.883 -38.831  34.015  1.00  0.00     0.157 A 
ATOM     16  C   UNL     1      30.136 -39.697  34.268  1.00  0.00     0.062 A 
ATOM     17  C   UNL     1      28.753 -39.859  34.415  1.00  0.00     0.158 A 
BRANCH  15  18
ATOM     18  O   UNL     1      26.505 -38.985  34.160  1.00  0.00    -0.504 OA
ATOM     19  H   UNL     1      25.970 -39.584  33.542  1.00  0.00     0.293 HD
ENDBRANCH  15  18
BRANCH  17  20
ATOM     20  O   UNL     1      28.265 -41.045  34.959  1.00  0.00    -0.504 OA
ATOM     21  H   UNL     1      27.599 -41.629  34.468  1.00  0.00     0.293 HD
ENDBRANCH  17  20
ENDBRANCH   1  12
BRANCH   2  22
ATOM     22  O   UNL     1      32.450 -37.831  35.916  1.00  0.00    -0.502 OA
ATOM     23  H   UNL     1      32.192 -36.918  36.271  1.00  0.00     0.293 HD
ENDBRANCH   2  22
BRANCH   6  24
ATOM     24  O   UNL     1      37.222 -37.437  33.582  1.00  0.00    -0.507 OA
ATOM     25  H   UNL     1      38.150 -37.817  33.687  1.00  0.00     0.293 HD
ENDBRANCH   6  24
BRANCH   8  26
ATOM     26  O   UNL     1      36.189 -39.100  29.216  1.00  0.00    -0.508 OA
ATOM     27  H   UNL     1      35.618 -39.646  28.582  1.00  0.00     0.293 HD
ENDBRANCH   8  26
TORSDOF 6
ENDMDL
MODEL 3
REMARK VINA RESULT:    -6.267      2.047      2.728
REMARK INTER + INTRA:          -7.881
REMARK INTER:                  -7.726
REMARK INTRA:                  -0.155
REMARK UNBOUND:                -0.332
REMARK SMILES O=c1c(O)c(-c2ccc(O)c(O)c2)oc2cc(O)cc(O)c12
REMARK SMILES IDX 5 1 3 2 2 3 1 4 22 5 20 6 19 7 17 8 16 9 15 10 14 11 6 12
REMARK SMILES IDX 7 13 8 14 9 15 13 16 11 17 10 18 12 20 4 22 21 24 18 26
REMARK H PARENT 10 19 12 21 4 23 21 25 18 27
REMARK Flexibility Score: inf
ROOT
ATOM      1  C   UNL     1      32.821 -35.223  35.099  1.00  0.00     0.180 A 
ATOM      2  C   UNL     1      31.863 -35.419  34.091  1.00  0.00     0.208 A 
ATOM      3  C   UNL     1      31.979 -36.538  33.250  1.00  0.00     0.238 A 
ATOM      4  O   UNL     1      31.149 -36.680  32.314  1.00  0.00    -0.285 OA
ATOM      5  C   UNL     1      33.041 -37.455  33.439  1.00  0.00     0.111 A 
ATOM      6  C   UNL     1      33.233 -38.643  32.672  1.00  0.00     0.134 A 
ATOM      7  C   UNL     1      34.392 -39.407  32.860  1.00  0.00     0.093 A 
ATOM      8  C   UNL     1      35.332 -39.062  33.831  1.00  0.00     0.123 A 
ATOM      9  C   UNL     1      35.125 -37.935  34.627  1.00  0.00     0.094 A 
ATOM     10  C   UNL     1      33.996 -37.133  34.438  1.00  0.00     0.146 A 
ATOM     11  O   UNL     1      33.843 -36.064  35.210  1.00  0.00    -0.452 OA
ENDROOT
BRANCH   1  12
ATOM     12  C   UNL     1      32.752 -34.082  36.040  1.00  0.00     0.025 A 
ATOM     13  C   UNL     1      32.874 -32.754  35.591  1.00  0.00     0.016 A 
ATOM     14  C   UNL     1      32.780 -31.692  36.494  1.00  0.00     0.051 A 
ATOM     15  C   UNL     1      32.550 -31.937  37.854  1.00  0.00     0.157 A 
ATOM     16  C   UNL     1      32.500 -34.321  37.401  1.00  0.00     0.062 A 
ATOM     17  C   UNL     1      32.406 -33.259  38.308  1.00  0.00     0.158 A 
BRANCH  15  18
ATOM     18  O   UNL     1      32.460 -30.875  38.753  1.00  0.00    -0.504 OA
ATOM     19  H   UNL     1      32.006 -30.004  38.501  1.00  0.00     0.293 HD
ENDBRANCH  15  18
BRANCH  17  20
ATOM     20  O   UNL     1      32.170 -33.537  39.654  1.00  0.00    -0.504 OA
ATOM     21  H   UNL     1      32.259 -34.471  40.034  1.00  0.00     0.293 HD
ENDBRANCH  17  20
ENDBRANCH   1  12
BRANCH   2  22
ATOM     22  O   UNL     1      30.834 -34.491  33.907  1.00  0.00    -0.502 OA
ATOM     23  H   UNL     1      30.534 -34.187  32.988  1.00  0.00     0.293 HD
ENDBRANCH   2  22
BRANCH   6  24
ATOM     24  O   UNL     1      32.311 -39.128  31.740  1.00  0.00    -0.507 OA
ATOM     25  H   UNL     1      32.362 -40.032  31.297  1.00  0.00     0.293 HD
ENDBRANCH   6  24
BRANCH   8  26
ATOM     26  O   UNL     1      36.465 -39.855  34.001  1.00  0.00    -0.508 OA
ATOM     27  H   UNL     1      37.316 -39.482  34.406  1.00  0.00     0.293 HD
ENDBRANCH   8  26
TORSDOF 6
ENDMDL
MODEL 4
REMARK VINA RESULT:    -6.141      3.845      6.427
REMARK INTER + INTRA:          -7.729
REMARK INTER:                  -7.441
REMARK INTRA:                  -0.288
REMARK UNBOUND:                -0.332
REMARK SMILES O=c1c(O)c(-c2ccc(O)c(O)c2)oc2cc(O)cc(O)c12
REMARK SMILES IDX 5 1 3 2 2 3 1 4 22 5 20 6 19 7 17 8 16 9 15 10 14 11 6 12
REMARK SMILES IDX 7 13 8 14 9 15 13 16 11 17 10 18 12 20 4 22 21 24 18 26
REMARK H PARENT 10 19 12 21 4 23 21 25 18 27
REMARK Flexibility Score: inf
ROOT
ATOM      1  C   UNL     1      33.518 -39.125  33.055  1.00  0.00     0.180 A 
ATOM      2  C   UNL     1      33.573 -38.533  31.781  1.00  0.00     0.208 A 
ATOM      3  C   UNL     1      34.649 -38.840  30.934  1.00  0.00     0.238 A 
ATOM      4  O   UNL     1      34.722 -38.266  29.816  1.00  0.00    -0.285 OA
ATOM      5  C   UNL     1      35.648 -39.747  31.364  1.00  0.00     0.111 A 
ATOM      6  C   UNL     1      36.762 -40.161  30.573  1.00  0.00     0.134 A 
ATOM      7  C   UNL     1      37.758 -40.960  31.148  1.00  0.00     0.093 A 
ATOM      8  C   UNL     1      37.649 -41.413  32.463  1.00  0.00     0.123 A 
ATOM      9  C   UNL     1      36.534 -41.063  33.226  1.00  0.00     0.094 A 
ATOM     10  C   UNL     1      35.542 -40.237  32.691  1.00  0.00     0.146 A 
ATOM     11  O   UNL     1      34.504 -39.919  33.455  1.00  0.00    -0.452 OA
ENDROOT
BRANCH   1  12
ATOM     12  C   UNL     1      32.402 -38.869  33.994  1.00  0.00     0.025 A 
ATOM     13  C   UNL     1      32.337 -37.684  34.749  1.00  0.00     0.016 A 
ATOM     14  C   UNL     1      31.261 -37.454  35.610  1.00  0.00     0.051 A 
ATOM     15  C   UNL     1      30.229 -38.396  35.722  1.00  0.00     0.157 A 
ATOM     16  C   UNL     1      31.355 -39.800  34.093  1.00  0.00     0.062 A 
ATOM     17  C   UNL     1      30.275 -39.572  34.956  1.00  0.00     0.158 A 
BRANCH  15  18
ATOM     18  O   UNL     1      29.158 -38.164  36.584  1.00  0.00    -0.504 OA
ATOM     19  H   UNL     1      28.241 -37.911  36.235  1.00  0.00     0.293 HD
ENDBRANCH  15  18
BRANCH  17  20
ATOM     20  O   UNL     1      29.262 -40.526  35.038  1.00  0.00    -0.504 OA
ATOM     21  H   UNL     1      29.042 -41.146  34.267  1.00  0.00     0.293 HD
ENDBRANCH  17  20
ENDBRANCH   1  12
BRANCH   2  22
ATOM     22  O   UNL     1      32.588 -37.624  31.385  1.00  0.00    -0.502 OA
ATOM     23  H   UNL     1      32.266 -36.874  31.985  1.00  0.00     0.293 HD
ENDBRANCH   2  22
BRANCH   6  24
ATOM     24  O   UNL     1      36.922 -39.841  29.223  1.00  0.00    -0.507 OA
ATOM     25  H   UNL     1      37.803 -39.842  28.731  1.00  0.00     0.293 HD
ENDBRANCH   6  24
BRANCH   8  26
ATOM     26  O   UNL     1      38.651 -42.220  32.996  1.00  0.00    -0.508 OA
ATOM     27  H   UNL     1      39.332 -41.855  33.651  1.00  0.00     0.293 HD
ENDBRANCH   8  26
TORSDOF 6
ENDMDL
MODEL 5
REMARK VINA RESULT:    -6.073      1.844      6.826
REMARK INTER + INTRA:          -7.647
REMARK INTER:                  -7.324
REMARK INTRA:                  -0.323
REMARK UNBOUND:                -0.332
REMARK SMILES O=c1c(O)c(-c2ccc(O)c(O)c2)oc2cc(O)cc(O)c12
REMARK SMILES IDX 5 1 3 2 2 3 1 4 22 5 20 6 19 7 17 8 16 9 15 10 14 11 6 12
REMARK SMILES IDX 7 13 8 14 9 15 13 16 11 17 10 18 12 20 4 22 21 24 18 26
REMARK H PARENT 10 19 12 21 4 23 21 25 18 27
REMARK Flexibility Score: inf
ROOT
ATOM      1  C   UNL     1      32.653 -35.559  34.925  1.00  0.00     0.180 A 
ATOM      2  C   UNL     1      31.910 -34.657  34.145  1.00  0.00     0.208 A 
ATOM      3  C   UNL     1      31.442 -33.472  34.736  1.00  0.00     0.238 A 
ATOM      4  O   UNL     1      30.731 -32.693  34.048  1.00  0.00    -0.285 OA
ATOM      5  C   UNL     1      31.738 -33.197  36.093  1.00  0.00     0.111 A 
ATOM      6  C   UNL     1      31.349 -32.009  36.783  1.00  0.00     0.134 A 
ATOM      7  C   UNL     1      31.583 -31.902  38.159  1.00  0.00     0.093 A 
ATOM      8  C   UNL     1      32.248 -32.910  38.857  1.00  0.00     0.123 A 
ATOM      9  C   UNL     1      32.686 -34.049  38.181  1.00  0.00     0.094 A 
ATOM     10  C   UNL     1      32.434 -34.200  36.815  1.00  0.00     0.146 A 
ATOM     11  O   UNL     1      32.858 -35.304  36.212  1.00  0.00    -0.452 OA
ENDROOT
BRANCH   1  12
ATOM     12  C   UNL     1      33.201 -36.817  34.366  1.00  0.00     0.025 A 
ATOM     13  C   UNL     1      34.513 -36.885  33.865  1.00  0.00     0.016 A 
ATOM     14  C   UNL     1      35.016 -38.089  33.366  1.00  0.00     0.051 A 
ATOM     15  C   UNL     1      34.223 -39.244  33.370  1.00  0.00     0.157 A 
ATOM     16  C   UNL     1      32.417 -37.982  34.388  1.00  0.00     0.062 A 
ATOM     17  C   UNL     1      32.918 -39.190  33.887  1.00  0.00     0.158 A 
BRANCH  15  18
ATOM     18  O   UNL     1      34.727 -40.443  32.868  1.00  0.00    -0.504 OA
ATOM     19  H   UNL     1      35.630 -40.801  33.158  1.00  0.00     0.293 HD
ENDBRANCH  15  18
BRANCH  17  20
ATOM     20  O   UNL     1      32.105 -40.322  33.912  1.00  0.00    -0.504 OA
ATOM     21  H   UNL     1      31.963 -40.864  34.757  1.00  0.00     0.293 HD
ENDBRANCH  17  20
ENDBRANCH   1  12
BRANCH   2  22
ATOM     22  O   UNL     1      31.610 -34.958  32.813  1.00  0.00    -0.502 OA
ATOM     23  H   UNL     1      31.533 -34.244  32.099  1.00  0.00     0.293 HD
ENDBRANCH   2  22
BRANCH   6  24
ATOM     24  O   UNL     1      30.761 -30.904  36.162  1.00  0.00    -0.507 OA
ATOM     25  H   UNL     1      30.621 -30.006  36.599  1.00  0.00     0.293 HD
ENDBRANCH   6  24
BRANCH   8  26
ATOM     26  O   UNL     1      32.478 -32.762  40.223  1.00  0.00    -0.508 OA
ATOM     27  H   UNL     1      32.380 -31.863  40.682  1.00  0.00     0.293 HD
ENDBRANCH   8  26
TORSDOF 6
ENDMDL
MODEL 6
REMARK VINA RESULT:    -5.942      4.433      6.897
REMARK INTER + INTRA:          -7.489
REMARK INTER:                  -7.300
REMARK INTRA:                  -0.189
REMARK UNBOUND:                -0.332
REMARK SMILES O=c1c(O)c(-c2ccc(O)c(O)c2)oc2cc(O)cc(O)c12
REMARK SMILES IDX 5 1 3 2 2 3 1 4 22 5 20 6 19 7 17 8 16 9 15 10 14 11 6 12
REMARK SMILES IDX 7 13 8 14 9 15 13 16 11 17 10 18 12 20 4 22 21 24 18 26
REMARK H PARENT 10 19 12 21 4 23 21 25 18 27
REMARK Flexibility Score: inf
ROOT
ATOM      1  C   UNL     1      33.286 -37.498  32.317  1.00  0.00     0.180 A 
ATOM      2  C   UNL     1      33.971 -38.225  31.328  1.00  0.00     0.208 A 
ATOM      3  C   UNL     1      35.195 -37.733  30.847  1.00  0.00     0.238 A 
ATOM      4  O   UNL     1      35.778 -38.359  29.923  1.00  0.00    -0.285 OA
ATOM      5  C   UNL     1      35.725 -36.529  31.371  1.00  0.00     0.111 A 
ATOM      6  C   UNL     1      36.975 -35.958  30.985  1.00  0.00     0.134 A 
ATOM      7  C   UNL     1      37.338 -34.697  31.473  1.00  0.00     0.093 A 
ATOM      8  C   UNL     1      36.529 -34.016  32.382  1.00  0.00     0.123 A 
ATOM      9  C   UNL     1      35.332 -34.591  32.812  1.00  0.00     0.094 A 
ATOM     10  C   UNL     1      34.926 -35.832  32.314  1.00  0.00     0.146 A 
ATOM     11  O   UNL     1      33.776 -36.339  32.741  1.00  0.00    -0.452 OA
ENDROOT
BRANCH   1  12
ATOM     12  C   UNL     1      32.004 -37.967  32.891  1.00  0.00     0.025 A 
ATOM     13  C   UNL     1      30.796 -37.295  32.630  1.00  0.00     0.016 A 
ATOM     14  C   UNL     1      29.595 -37.770  33.164  1.00  0.00     0.051 A 
ATOM     15  C   UNL     1      29.579 -38.928  33.953  1.00  0.00     0.157 A 
ATOM     16  C   UNL     1      31.980 -39.138  33.666  1.00  0.00     0.062 A 
ATOM     17  C   UNL     1      30.778 -39.616  34.202  1.00  0.00     0.158 A 
BRANCH  15  18
ATOM     18  O   UNL     1      28.379 -39.398  34.485  1.00  0.00    -0.504 OA
ATOM     19  H   UNL     1      27.835 -40.113  34.017  1.00  0.00     0.293 HD
ENDBRANCH  15  18
BRANCH  17  20
ATOM     20  O   UNL     1      30.796 -40.775  34.977  1.00  0.00    -0.504 OA
ATOM     21  H   UNL     1      30.972 -41.688  34.576  1.00  0.00     0.293 HD
ENDBRANCH  17  20
ENDBRANCH   1  12
BRANCH   2  22
ATOM     22  O   UNL     1      33.420 -39.400  30.809  1.00  0.00    -0.502 OA
ATOM     23  H   UNL     1      32.916 -39.422  29.930  1.00  0.00     0.293 HD
ENDBRANCH   2  22
BRANCH   6  24
ATOM     24  O   UNL     1      37.901 -36.596  30.154  1.00  0.00    -0.507 OA
ATOM     25  H   UNL     1      38.627 -36.126  29.635  1.00  0.00     0.293 HD
ENDBRANCH   6  24
BRANCH   8  26
ATOM     26  O   UNL     1      36.930 -32.770  32.859  1.00  0.00    -0.508 OA
ATOM     27  H   UNL     1      36.340 -31.951  32.764  1.00  0.00     0.293 HD
ENDBRANCH   8  26
TORSDOF 6
ENDMDL
MODEL 7
REMARK VINA RESULT:    -5.905      6.229     10.242
REMARK INTER + INTRA:          -7.444
REMARK INTER:                  -7.325
REMARK INTRA:                  -0.119
REMARK UNBOUND:                -0.332
REMARK SMILES O=c1c(O)c(-c2ccc(O)c(O)c2)oc2cc(O)cc(O)c12
REMARK SMILES IDX 5 1 3 2 2 3 1 4 22 5 20 6 19 7 17 8 16 9 15 10 14 11 6 12
REMARK SMILES IDX 7 13 8 14 9 15 13 16 11 17 10 18 12 20 4 22 21 24 18 26
REMARK H PARENT 10 19 12 21 4 23 21 25 18 27
REMARK Flexibility Score: inf
ROOT
ATOM      1  C   UNL     1      29.689 -33.455  42.806  1.00  0.00     0.180 A 
ATOM      2  C   UNL     1      28.655 -32.596  43.215  1.00  0.00     0.208 A 
ATOM      3  C   UNL     1      28.307 -32.549  44.575  1.00  0.00     0.238 A 
ATOM      4  O   UNL     1      27.345 -31.818  44.928  1.00  0.00    -0.285 OA
ATOM      5  C   UNL     1      29.007 -33.350  45.509  1.00  0.00     0.111 A 
ATOM      6  C   UNL     1      28.766 -33.353  46.917  1.00  0.00     0.134 A 
ATOM      7  C   UNL     1      29.429 -34.281  47.728  1.00  0.00     0.093 A 
ATOM      8  C   UNL     1      30.371 -35.160  47.196  1.00  0.00     0.123 A 
ATOM      9  C   UNL     1      30.659 -35.126  45.831  1.00  0.00     0.094 A 
ATOM     10  C   UNL     1      29.987 -34.235  44.990  1.00  0.00     0.146 A 
ATOM     11  O   UNL     1      30.282 -34.242  43.696  1.00  0.00    -0.452 OA
ENDROOT
BRANCH   1  12
ATOM     12  C   UNL     1      30.128 -33.541  41.394  1.00  0.00     0.025 A 
ATOM     13  C   UNL     1      29.247 -33.948  40.376  1.00  0.00     0.016 A 
ATOM     14  C   UNL     1      29.678 -33.997  39.048  1.00  0.00     0.051 A 
ATOM     15  C   UNL     1      30.989 -33.629  38.714  1.00  0.00     0.157 A 
ATOM     16  C   UNL     1      31.434 -33.152  41.052  1.00  0.00     0.062 A 
ATOM     17  C   UNL     1      31.869 -33.201  39.722  1.00  0.00     0.158 A 
BRANCH  15  18
ATOM     18  O   UNL     1      31.416 -33.681  37.388  1.00  0.00    -0.504 OA
ATOM     19  H   UNL     1      32.140 -34.324  37.090  1.00  0.00     0.293 HD
ENDBRANCH  15  18
BRANCH  17  20
ATOM     20  O   UNL     1      33.176 -32.821  39.423  1.00  0.00    -0.504 OA
ATOM     21  H   UNL     1      33.652 -33.140  38.588  1.00  0.00     0.293 HD
ENDBRANCH  17  20
ENDBRANCH   1  12
BRANCH   2  22
ATOM     22  O   UNL     1      27.961 -31.830  42.273  1.00  0.00    -0.502 OA
ATOM     23  H   UNL     1      28.139 -30.842  42.139  1.00  0.00     0.293 HD
ENDBRANCH   2  22
BRANCH   6  24
ATOM     24  O   UNL     1      27.913 -32.455  47.563  1.00  0.00    -0.507 OA
ATOM     25  H   UNL     1      26.906 -32.508  47.551  1.00  0.00     0.293 HD
ENDBRANCH   6  24
BRANCH   8  26
ATOM     26  O   UNL     1      31.024 -36.059  48.038  1.00  0.00    -0.508 OA
ATOM     27  H   UNL     1      31.966 -35.884  48.370  1.00  0.00     0.293 HD
ENDBRANCH   8  26
TORSDOF 6
ENDMDL
MODEL 8
REMARK VINA RESULT:    -5.875      4.153      8.320
REMARK INTER + INTRA:          -7.409
REMARK INTER:                  -7.452
REMARK INTRA:                   0.043
REMARK UNBOUND:                -0.332
REMARK SMILES O=c1c(O)c(-c2ccc(O)c(O)c2)oc2cc(O)cc(O)c12
REMARK SMILES IDX 5 1 3 2 2 3 1 4 22 5 20 6 19 7 17 8 16 9 15 10 14 11 6 12
REMARK SMILES IDX 7 13 8 14 9 15 13 16 11 17 10 18 12 20 4 22 21 24 18 26
REMARK H PARENT 10 19 12 21 4 23 21 25 18 27
REMARK Flexibility Score: inf
ROOT
ATOM      1  C   UNL     1      30.705 -32.607  40.163  1.00  0.00     0.180 A 
ATOM      2  C   UNL     1      29.580 -31.805  40.416  1.00  0.00     0.208 A 
ATOM      3  C   UNL     1      28.931 -31.914  41.656  1.00  0.00     0.238 A 
ATOM      4  O   UNL     1      27.891 -31.233  41.857  1.00  0.00    -0.285 OA
ATOM      5  C   UNL     1      29.426 -32.811  42.634  1.00  0.00     0.111 A 
ATOM      6  C   UNL     1      28.872 -32.974  43.940  1.00  0.00     0.134 A 
ATOM      7  C   UNL     1      29.362 -33.984  44.776  1.00  0.00     0.093 A 
ATOM      8  C   UNL     1      30.427 -34.793  44.381  1.00  0.00     0.123 A 
ATOM      9  C   UNL     1      31.016 -34.603  43.130  1.00  0.00     0.094 A 
ATOM     10  C   UNL     1      30.524 -33.627  42.259  1.00  0.00     0.146 A 
ATOM     11  O   UNL     1      31.106 -33.486  41.074  1.00  0.00    -0.452 OA
ENDROOT
BRANCH   1  12
ATOM     12  C   UNL     1      31.457 -32.530  38.889  1.00  0.00     0.025 A 
ATOM     13  C   UNL     1      31.799 -31.293  38.315  1.00  0.00     0.016 A 
ATOM     14  C   UNL     1      32.530 -31.245  37.125  1.00  0.00     0.051 A 
ATOM     15  C   UNL     1      32.940 -32.430  36.498  1.00  0.00     0.157 A 
ATOM     16  C   UNL     1      31.888 -33.714  38.268  1.00  0.00     0.062 A 
ATOM     17  C   UNL     1      32.620 -33.669  37.075  1.00  0.00     0.158 A 
BRANCH  15  18
ATOM     18  O   UNL     1      33.667 -32.378  35.309  1.00  0.00    -0.504 OA
ATOM     19  H   UNL     1      33.368 -32.883  34.482  1.00  0.00     0.293 HD
ENDBRANCH  15  18
BRANCH  17  20
ATOM     20  O   UNL     1      33.018 -34.866  36.481  1.00  0.00    -0.504 OA
ATOM     21  H   UNL     1      32.920 -35.758  36.949  1.00  0.00     0.293 HD
ENDBRANCH  17  20
ENDBRANCH   1  12
BRANCH   2  22
ATOM     22  O   UNL     1      29.094 -30.942  39.429  1.00  0.00    -0.502 OA
ATOM     23  H   UNL     1      28.181 -30.508  39.488  1.00  0.00     0.293 HD
ENDBRANCH   2  22
BRANCH   6  24
ATOM     24  O   UNL     1      27.866 -32.160  44.467  1.00  0.00    -0.507 OA
ATOM     25  H   UNL     1      27.991 -31.197  44.741  1.00  0.00     0.293 HD
ENDBRANCH   6  24
BRANCH   8  26
ATOM     26  O   UNL     1      30.900 -35.777  45.247  1.00  0.00    -0.508 OA
ATOM     27  H   UNL     1      30.527 -36.719  45.231  1.00  0.00     0.293 HD
ENDBRANCH   8  26
TORSDOF 6
ENDMDL
