MODEL 1
REMARK VINA RESULT:    -2.920      0.000      0.000
REMARK INTER + INTRA:          -3.721
REMARK INTER:                  -3.432
REMARK INTRA:                  -0.289
REMARK UNBOUND:                -0.289
REMARK SMILES O=c1c(O)c(-c2ccc(O)cc2)oc2cc(O)cc(O)c12
REMARK SMILES IDX 5 1 3 2 2 3 1 4 21 5 19 6 18 7 16 8 15 9 14 10 13 11 6 12
REMARK SMILES IDX 7 13 8 14 9 15 12 16 11 17 10 18 4 20 20 22 17 24
REMARK H PARENT 10 19 4 21 20 23 17 25
REMARK Flexibility Score: inf
ROOT
ATOM      1  C   UNL     1     -21.693 -15.763 -14.145  1.00  0.00     0.180 A 
ATOM      2  C   UNL     1     -22.349 -15.318 -15.306  1.00  0.00     0.208 A 
ATOM      3  C   UNL     1     -23.666 -15.739 -15.547  1.00  0.00     0.238 A 
ATOM      4  O   UNL     1     -24.229 -15.381 -16.615  1.00  0.00    -0.285 OA
ATOM      5  C   UNL     1     -24.317 -16.585 -14.618  1.00  0.00     0.111 A 
ATOM      6  C   UNL     1     -25.664 -17.042 -14.742  1.00  0.00     0.134 A 
ATOM      7  C   UNL     1     -26.161 -17.981 -13.830  1.00  0.00     0.093 A 
ATOM      8  C   UNL     1     -25.385 -18.431 -12.763  1.00  0.00     0.123 A 
ATOM      9  C   UNL     1     -24.086 -17.947 -12.599  1.00  0.00     0.094 A 
ATOM     10  C   UNL     1     -23.549 -17.037 -13.513  1.00  0.00     0.146 A 
ATOM     11  O   UNL     1     -22.306 -16.609 -13.327  1.00  0.00    -0.452 OA
ENDROOT
BRANCH   1  12
ATOM     12  C   UNL     1     -20.313 -15.342 -13.809  1.00  0.00     0.021 A 
ATOM     13  C   UNL     1     -19.225 -16.092 -14.286  1.00  0.00     0.016 A 
ATOM     14  C   UNL     1     -17.916 -15.726 -13.963  1.00  0.00     0.047 A 
ATOM     15  C   UNL     1     -17.676 -14.616 -13.147  1.00  0.00     0.115 A 
ATOM     16  C   UNL     1     -20.067 -14.238 -12.972  1.00  0.00     0.016 A 
ATOM     17  C   UNL     1     -18.756 -13.875 -12.649  1.00  0.00     0.047 A 
BRANCH  15  18
ATOM     18  O   UNL     1     -16.366 -14.263 -12.832  1.00  0.00    -0.508 OA
ATOM     19  H   UNL     1     -15.810 -13.688 -13.453  1.00  0.00     0.293 HD
ENDBRANCH  15  18
ENDBRANCH   1  12
BRANCH   2  20
ATOM     20  O   UNL     1     -21.681 -14.500 -16.222  1.00  0.00    -0.502 OA
ATOM     21  H   UNL     1     -21.691 -14.677 -17.219  1.00  0.00     0.293 HD
ENDBRANCH   2  20
BRANCH   6  22
ATOM     22  O   UNL     1     -26.555 -16.585 -15.717  1.00  0.00    -0.507 OA
ATOM     23  H   UNL     1     -26.488 -16.796 -16.701  1.00  0.00     0.293 HD
ENDBRANCH   6  22
BRANCH   8  24
ATOM     24  O   UNL     1     -25.918 -19.354 -11.867  1.00  0.00    -0.508 OA
ATOM     25  H   UNL     1     -25.383 -20.154 -11.549  1.00  0.00     0.293 HD
ENDBRANCH   8  24
TORSDOF 5
ENDMDL
