MODEL 1
REMARK VINA RESULT:    -6.356      0.000      0.000
REMARK INTER + INTRA:          -6.936
REMARK INTER:                  -6.914
REMARK INTRA:                  -0.022
REMARK UNBOUND:                -0.022
REMARK SMILES C[C@@H]1[C@H]2C3=CC[C@H]4[C@]5(C)CC[C@H](O)C(C)(C)[C@@H]5CC[C@@]4(C)[C@@]3(C)CC[C@@]2(C(=O)[O-])CC[C@@H]1C
REMARK SMILES IDX 26 1 30 2 25 3 3 4 31 5 24 6 4 7 2 8 32 9 22 10 5 11 1 12
REMARK SMILES IDX 33 13 23 14 20 15 6 16 7 17 19 18 21 19 8 20 18 21 17 22
REMARK SMILES IDX 10 23 9 24 14 25 11 26 12 27 15 28 16 29 27 30 28 31 29 32
REMARK SMILES IDX 13 33
REMARK H PARENT 13 34
REMARK Flexibility Score: inf
ROOT
ATOM      1  C   UNL     1      13.080  57.034  32.557  1.00  0.00     0.017 C 
ATOM      2  C   UNL     1      12.091  58.037  33.216  1.00  0.00     0.014 C 
ATOM      3  C   UNL     1      12.766  56.920  31.022  1.00  0.00     0.014 C 
ATOM      4  C   UNL     1      13.041  55.638  33.290  1.00  0.00     0.030 C 
ATOM      5  C   UNL     1      10.684  57.470  33.402  1.00  0.00     0.004 C 
ATOM      6  C   UNL     1      12.733  55.494  30.440  1.00  0.00     0.013 C 
ATOM      7  C   UNL     1      13.827  54.574  32.497  1.00  0.00    -0.063 C 
ATOM      8  C   UNL     1      11.602  55.122  33.656  1.00  0.00    -0.003 C 
ATOM      9  C   UNL     1      10.700  56.220  34.287  1.00  0.00    -0.011 C 
ATOM     10  C   UNL     1      13.856  54.542  30.968  1.00  0.00    -0.006 C 
ATOM     11  C   UNL     1      14.513  53.650  33.182  1.00  0.00    -0.027 C 
ATOM     12  C   UNL     1      11.639  53.885  34.580  1.00  0.00     0.008 C 
ATOM     13  C   UNL     1      11.057  56.569  35.749  1.00  0.00     0.008 C 
ATOM     14  C   UNL     1      15.227  55.139  30.514  1.00  0.00     0.017 C 
ATOM     15  C   UNL     1      13.699  53.024  30.432  1.00  0.00    -0.020 C 
ATOM     16  C   UNL     1      14.970  52.344  32.605  1.00  0.00     0.032 C 
ATOM     17  C   UNL     1      14.838  52.110  31.056  1.00  0.00     0.006 C 
ATOM     18  C   UNL     1      12.341  52.407  30.853  1.00  0.00     0.008 C 
ATOM     19  C   UNL     1      13.756  53.037  28.869  1.00  0.00     0.012 C 
ATOM     20  C   UNL     1      14.754  50.537  30.728  1.00  0.00    -0.025 C 
ATOM     21  C   UNL     1      12.177  50.932  30.467  1.00  0.00     0.005 C 
ATOM     22  C   UNL     1      13.287  49.974  30.999  1.00  0.00     0.003 C 
ATOM     23  C   UNL     1      15.260  50.232  29.263  1.00  0.00     0.010 C 
ATOM     24  C   UNL     1      15.772  49.793  31.663  1.00  0.00     0.012 C 
ATOM     25  C   UNL     1      13.060  48.446  30.546  1.00  0.00    -0.006 C 
ATOM     26  C   UNL     1      14.395  49.236  28.480  1.00  0.00     0.033 C 
ATOM     27  C   UNL     1      14.012  48.038  29.358  1.00  0.00     0.120 C 
ATOM     28  C   UNL     1      13.339  47.496  31.746  1.00  0.00     0.014 C 
ATOM     29  C   UNL     1      11.577  48.159  30.158  1.00  0.00     0.014 C 
ENDROOT
BRANCH   1  30
ATOM     30  C   UNL     1      14.461  57.676  32.720  1.00  0.00     0.048 C 
ATOM     31  O   UNL     1      14.745  58.782  32.183  1.00  0.00    -0.550 OA
ATOM     32  O   UNL     1      15.441  57.026  33.464  1.00  0.00    -0.550 OA
ENDBRANCH   1  30
BRANCH  27  33
ATOM     33  O   UNL     1      13.491  46.986  28.578  1.00  0.00    -0.393 OA
ATOM     34  H   UNL     1      12.646  46.675  28.996  1.00  0.00     0.210 HD
ENDBRANCH  27  33
TORSDOF 2
ENDMDL
MODEL 2
REMARK VINA RESULT:    -6.294      1.715      8.081
REMARK INTER + INTRA:          -6.868
REMARK INTER:                  -6.616
REMARK INTRA:                  -0.252
REMARK UNBOUND:                -0.022
REMARK SMILES C[C@@H]1[C@H]2C3=CC[C@H]4[C@]5(C)CC[C@H](O)C(C)(C)[C@@H]5CC[C@@]4(C)[C@@]3(C)CC[C@@]2(C(=O)[O-])CC[C@@H]1C
REMARK SMILES IDX 26 1 30 2 25 3 3 4 31 5 24 6 4 7 2 8 32 9 22 10 5 11 1 12
REMARK SMILES IDX 33 13 23 14 20 15 6 16 7 17 19 18 21 19 8 20 18 21 17 22
REMARK SMILES IDX 10 23 9 24 14 25 11 26 12 27 15 28 16 29 27 30 28 31 29 32
REMARK SMILES IDX 13 33
REMARK H PARENT 13 34
REMARK Flexibility Score: inf
ROOT
ATOM      1  C   UNL     1      15.217  47.806  28.606  1.00  0.00     0.017 C 
ATOM      2  C   UNL     1      16.049  46.507  28.801  1.00  0.00     0.014 C 
ATOM      3  C   UNL     1      16.186  49.025  28.404  1.00  0.00     0.014 C 
ATOM      4  C   UNL     1      14.216  48.020  29.807  1.00  0.00     0.030 C 
ATOM      5  C   UNL     1      16.698  46.401  30.181  1.00  0.00     0.004 C 
ATOM      6  C   UNL     1      15.850  50.300  29.202  1.00  0.00     0.013 C 
ATOM      7  C   UNL     1      13.570  49.419  29.746  1.00  0.00    -0.063 C 
ATOM      8  C   UNL     1      14.818  47.735  31.230  1.00  0.00    -0.003 C 
ATOM      9  C   UNL     1      15.646  46.421  31.293  1.00  0.00    -0.011 C 
ATOM     10  C   UNL     1      14.329  50.655  29.262  1.00  0.00    -0.006 C 
ATOM     11  C   UNL     1      12.292  49.546  30.129  1.00  0.00    -0.027 C 
ATOM     12  C   UNL     1      13.736  47.722  32.333  1.00  0.00     0.008 C 
ATOM     13  C   UNL     1      14.793  45.134  31.286  1.00  0.00     0.008 C 
ATOM     14  C   UNL     1      13.859  50.949  27.801  1.00  0.00     0.017 C 
ATOM     15  C   UNL     1      14.015  51.922  30.218  1.00  0.00    -0.020 C 
ATOM     16  C   UNL     1      11.658  50.846  30.520  1.00  0.00     0.032 C 
ATOM     17  C   UNL     1      12.449  52.183  30.273  1.00  0.00     0.006 C 
ATOM     18  C   UNL     1      14.484  51.668  31.674  1.00  0.00     0.008 C 
ATOM     19  C   UNL     1      14.792  53.164  29.674  1.00  0.00     0.012 C 
ATOM     20  C   UNL     1      11.949  53.329  31.284  1.00  0.00    -0.025 C 
ATOM     21  C   UNL     1      14.116  52.789  32.654  1.00  0.00     0.005 C 
ATOM     22  C   UNL     1      12.599  53.142  32.728  1.00  0.00     0.003 C 
ATOM     23  C   UNL     1      12.206  54.770  30.685  1.00  0.00     0.010 C 
ATOM     24  C   UNL     1      10.388  53.222  31.404  1.00  0.00     0.012 C 
ATOM     25  C   UNL     1      12.287  54.334  33.765  1.00  0.00    -0.006 C 
ATOM     26  C   UNL     1      12.771  55.788  31.684  1.00  0.00     0.033 C 
ATOM     27  C   UNL     1      12.032  55.703  33.026  1.00  0.00     0.120 C 
ATOM     28  C   UNL     1      11.023  53.985  34.600  1.00  0.00     0.014 C 
ATOM     29  C   UNL     1      13.419  54.507  34.824  1.00  0.00     0.014 C 
ENDROOT
BRANCH   1  30
ATOM     30  C   UNL     1      14.440  47.587  27.305  1.00  0.00     0.048 C 
ATOM     31  O   UNL     1      14.881  47.990  26.194  1.00  0.00    -0.550 OA
ATOM     32  O   UNL     1      13.207  46.942  27.337  1.00  0.00    -0.550 OA
ENDBRANCH   1  30
BRANCH  27  33
ATOM     33  O   UNL     1      12.323  56.821  33.834  1.00  0.00    -0.393 OA
ATOM     34  H   UNL     1      11.479  57.131  34.254  1.00  0.00     0.210 HD
ENDBRANCH  27  33
TORSDOF 2
ENDMDL
MODEL 3
REMARK VINA RESULT:    -6.245      2.504      8.956
REMARK INTER + INTRA:          -6.815
REMARK INTER:                  -6.563
REMARK INTRA:                  -0.252
REMARK UNBOUND:                -0.022
REMARK SMILES C[C@@H]1[C@H]2C3=CC[C@H]4[C@]5(C)CC[C@H](O)C(C)(C)[C@@H]5CC[C@@]4(C)[C@@]3(C)CC[C@@]2(C(=O)[O-])CC[C@@H]1C
REMARK SMILES IDX 26 1 30 2 25 3 3 4 31 5 24 6 4 7 2 8 32 9 22 10 5 11 1 12
REMARK SMILES IDX 33 13 23 14 20 15 6 16 7 17 19 18 21 19 8 20 18 21 17 22
REMARK SMILES IDX 10 23 9 24 14 25 11 26 12 27 15 28 16 29 27 30 28 31 29 32
REMARK SMILES IDX 13 33
REMARK H PARENT 13 34
REMARK Flexibility Score: inf
ROOT
ATOM      1  C   UNL     1      12.968  44.770  29.736  1.00  0.00     0.017 C 
ATOM      2  C   UNL     1      13.150  43.320  30.265  1.00  0.00     0.014 C 
ATOM      3  C   UNL     1      14.297  45.249  29.047  1.00  0.00     0.014 C 
ATOM      4  C   UNL     1      12.501  45.739  30.890  1.00  0.00     0.030 C 
ATOM      5  C   UNL     1      14.003  43.237  31.532  1.00  0.00     0.004 C 
ATOM      6  C   UNL     1      14.775  46.668  29.408  1.00  0.00     0.013 C 
ATOM      7  C   UNL     1      12.558  47.211  30.435  1.00  0.00    -0.063 C 
ATOM      8  C   UNL     1      13.244  45.541  32.261  1.00  0.00    -0.003 C 
ATOM      9  C   UNL     1      13.384  44.049  32.673  1.00  0.00    -0.011 C 
ATOM     10  C   UNL     1      13.643  47.741  29.497  1.00  0.00    -0.006 C 
ATOM     11  C   UNL     1      11.611  48.050  30.879  1.00  0.00    -0.027 C 
ATOM     12  C   UNL     1      12.583  46.337  33.408  1.00  0.00     0.008 C 
ATOM     13  C   UNL     1      12.073  43.405  33.176  1.00  0.00     0.008 C 
ATOM     14  C   UNL     1      13.008  47.871  28.075  1.00  0.00     0.017 C 
ATOM     15  C   UNL     1      14.176  49.181  30.007  1.00  0.00    -0.020 C 
ATOM     16  C   UNL     1      11.746  49.542  30.879  1.00  0.00     0.032 C 
ATOM     17  C   UNL     1      12.962  50.197  30.126  1.00  0.00     0.006 C 
ATOM     18  C   UNL     1      14.827  49.083  31.411  1.00  0.00     0.008 C 
ATOM     19  C   UNL     1      15.265  49.693  29.008  1.00  0.00     0.012 C 
ATOM     20  C   UNL     1      13.296  51.643  30.746  1.00  0.00    -0.025 C 
ATOM     21  C   UNL     1      15.256  50.435  31.997  1.00  0.00     0.005 C 
ATOM     22  C   UNL     1      14.128  51.508  32.099  1.00  0.00     0.003 C 
ATOM     23  C   UNL     1      14.012  52.567  29.683  1.00  0.00     0.010 C 
ATOM     24  C   UNL     1      11.936  52.366  31.048  1.00  0.00     0.012 C 
ATOM     25  C   UNL     1      14.651  52.903  32.709  1.00  0.00    -0.006 C 
ATOM     26  C   UNL     1      15.201  53.370  30.227  1.00  0.00     0.033 C 
ATOM     27  C   UNL     1      14.861  53.991  31.589  1.00  0.00     0.120 C 
ATOM     28  C   UNL     1      13.616  53.448  33.733  1.00  0.00     0.014 C 
ATOM     29  C   UNL     1      15.963  52.732  33.534  1.00  0.00     0.014 C 
ENDROOT
BRANCH   1  30
ATOM     30  C   UNL     1      11.880  44.666  28.664  1.00  0.00     0.048 C 
ATOM     31  O   UNL     1      12.164  44.508  27.445  1.00  0.00    -0.550 OA
ATOM     32  O   UNL     1      10.540  44.763  29.027  1.00  0.00    -0.550 OA
ENDBRANCH   1  30
BRANCH  27  33
ATOM     33  O   UNL     1      15.812  54.968  31.948  1.00  0.00    -0.393 OA
ATOM     34  H   UNL     1      16.427  55.103  31.181  1.00  0.00     0.210 HD
ENDBRANCH  27  33
TORSDOF 2
ENDMDL
MODEL 4
REMARK VINA RESULT:    -6.188      2.338      7.965
REMARK INTER + INTRA:          -6.753
REMARK INTER:                  -6.506
REMARK INTRA:                  -0.246
REMARK UNBOUND:                -0.022
REMARK SMILES C[C@@H]1[C@H]2C3=CC[C@H]4[C@]5(C)CC[C@H](O)C(C)(C)[C@@H]5CC[C@@]4(C)[C@@]3(C)CC[C@@]2(C(=O)[O-])CC[C@@H]1C
REMARK SMILES IDX 26 1 30 2 25 3 3 4 31 5 24 6 4 7 2 8 32 9 22 10 5 11 1 12
REMARK SMILES IDX 33 13 23 14 20 15 6 16 7 17 19 18 21 19 8 20 18 21 17 22
REMARK SMILES IDX 10 23 9 24 14 25 11 26 12 27 15 28 16 29 27 30 28 31 29 32
REMARK SMILES IDX 13 33
REMARK H PARENT 13 34
REMARK Flexibility Score: inf
ROOT
ATOM      1  C   UNL     1      13.441  51.573  29.706  1.00  0.00     0.017 C 
ATOM      2  C   UNL     1      13.855  50.075  29.763  1.00  0.00     0.014 C 
ATOM      3  C   UNL     1      14.128  52.261  28.473  1.00  0.00     0.014 C 
ATOM      4  C   UNL     1      13.768  52.300  31.067  1.00  0.00     0.030 C 
ATOM      5  C   UNL     1      15.285  49.857  30.258  1.00  0.00     0.004 C 
ATOM      6  C   UNL     1      14.770  53.637  28.734  1.00  0.00     0.013 C 
ATOM      7  C   UNL     1      13.591  53.827  30.935  1.00  0.00    -0.063 C 
ATOM      8  C   UNL     1      15.166  51.944  31.690  1.00  0.00    -0.003 C 
ATOM      9  C   UNL     1      15.476  50.421  31.669  1.00  0.00    -0.011 C 
ATOM     10  C   UNL     1      13.937  54.587  29.654  1.00  0.00    -0.006 C 
ATOM     11  C   UNL     1      13.109  54.504  31.986  1.00  0.00    -0.027 C 
ATOM     12  C   UNL     1      15.326  52.488  33.126  1.00  0.00     0.008 C 
ATOM     13  C   UNL     1      14.688  49.601  32.715  1.00  0.00     0.008 C 
ATOM     14  C   UNL     1      12.594  54.894  28.916  1.00  0.00     0.017 C 
ATOM     15  C   UNL     1      14.711  55.964  30.006  1.00  0.00    -0.020 C 
ATOM     16  C   UNL     1      13.263  55.982  32.174  1.00  0.00     0.032 C 
ATOM     17  C   UNL     1      13.827  56.846  30.987  1.00  0.00     0.006 C 
ATOM     18  C   UNL     1      16.057  55.693  30.726  1.00  0.00     0.008 C 
ATOM     19  C   UNL     1      15.024  56.716  28.672  1.00  0.00     0.012 C 
ATOM     20  C   UNL     1      14.504  58.194  31.543  1.00  0.00    -0.025 C 
ATOM     21  C   UNL     1      16.788  56.961  31.183  1.00  0.00     0.005 C 
ATOM     22  C   UNL     1      15.967  57.909  32.111  1.00  0.00     0.003 C 
ATOM     23  C   UNL     1      14.490  59.333  30.447  1.00  0.00     0.010 C 
ATOM     24  C   UNL     1      13.601  58.748  32.702  1.00  0.00     0.012 C 
ATOM     25  C   UNL     1      16.789  59.226  32.540  1.00  0.00    -0.006 C 
ATOM     26  C   UNL     1      15.796  60.130  30.333  1.00  0.00     0.033 C 
ATOM     27  C   UNL     1      16.336  60.494  31.722  1.00  0.00     0.120 C 
ATOM     28  C   UNL     1      16.567  59.512  34.053  1.00  0.00     0.014 C 
ATOM     29  C   UNL     1      18.331  59.029  32.404  1.00  0.00     0.014 C 
ENDROOT
BRANCH   1  30
ATOM     30  C   UNL     1      11.928  51.556  29.468  1.00  0.00     0.048 C 
ATOM     31  O   UNL     1      11.109  51.425  30.419  1.00  0.00    -0.550 OA
ATOM     32  O   UNL     1      11.431  51.671  28.173  1.00  0.00    -0.550 OA
ENDBRANCH   1  30
BRANCH  27  33
ATOM     33  O   UNL     1      17.346  61.473  31.630  1.00  0.00    -0.393 OA
ATOM     34  H   UNL     1      17.763  61.577  32.525  1.00  0.00     0.210 HD
ENDBRANCH  27  33
TORSDOF 2
ENDMDL
MODEL 5
REMARK VINA RESULT:    -6.163      1.849      3.455
REMARK INTER + INTRA:          -6.726
REMARK INTER:                  -6.473
REMARK INTRA:                  -0.252
REMARK UNBOUND:                -0.022
REMARK SMILES C[C@@H]1[C@H]2C3=CC[C@H]4[C@]5(C)CC[C@H](O)C(C)(C)[C@@H]5CC[C@@]4(C)[C@@]3(C)CC[C@@]2(C(=O)[O-])CC[C@@H]1C
REMARK SMILES IDX 26 1 30 2 25 3 3 4 31 5 24 6 4 7 2 8 32 9 22 10 5 11 1 12
REMARK SMILES IDX 33 13 23 14 20 15 6 16 7 17 19 18 21 19 8 20 18 21 17 22
REMARK SMILES IDX 10 23 9 24 14 25 11 26 12 27 15 28 16 29 27 30 28 31 29 32
REMARK SMILES IDX 13 33
REMARK H PARENT 13 34
REMARK Flexibility Score: inf
ROOT
ATOM      1  C   UNL     1      12.572  54.380  32.284  1.00  0.00     0.017 C 
ATOM      2  C   UNL     1      12.406  55.113  33.645  1.00  0.00     0.014 C 
ATOM      3  C   UNL     1      11.314  53.478  32.017  1.00  0.00     0.014 C 
ATOM      4  C   UNL     1      13.922  53.566  32.241  1.00  0.00     0.030 C 
ATOM      5  C   UNL     1      12.625  54.204  34.856  1.00  0.00     0.004 C 
ATOM      6  C   UNL     1      11.598  52.051  31.511  1.00  0.00     0.013 C 
ATOM      7  C   UNL     1      13.976  52.647  31.004  1.00  0.00    -0.063 C 
ATOM      8  C   UNL     1      14.257  52.768  33.554  1.00  0.00    -0.003 C 
ATOM      9  C   UNL     1      14.031  53.598  34.849  1.00  0.00    -0.011 C 
ATOM     10  C   UNL     1      12.738  51.944  30.447  1.00  0.00    -0.006 C 
ATOM     11  C   UNL     1      15.157  52.468  30.396  1.00  0.00    -0.027 C 
ATOM     12  C   UNL     1      15.692  52.198  33.545  1.00  0.00     0.008 C 
ATOM     13  C   UNL     1      15.110  54.674  35.108  1.00  0.00     0.008 C 
ATOM     14  C   UNL     1      12.275  52.742  29.185  1.00  0.00     0.017 C 
ATOM     15  C   UNL     1      13.087  50.416  30.047  1.00  0.00    -0.020 C 
ATOM     16  C   UNL     1      15.463  51.326  29.476  1.00  0.00     0.032 C 
ATOM     17  C   UNL     1      14.289  50.389  29.010  1.00  0.00     0.006 C 
ATOM     18  C   UNL     1      13.535  49.592  31.282  1.00  0.00     0.008 C 
ATOM     19  C   UNL     1      11.801  49.745  29.464  1.00  0.00     0.012 C 
ATOM     20  C   UNL     1      14.853  48.939  28.604  1.00  0.00    -0.025 C 
ATOM     21  C   UNL     1      13.984  48.163  30.951  1.00  0.00     0.005 C 
ATOM     22  C   UNL     1      15.129  48.049  29.898  1.00  0.00     0.003 C 
ATOM     23  C   UNL     1      13.895  48.224  27.570  1.00  0.00     0.010 C 
ATOM     24  C   UNL     1      16.198  49.143  27.823  1.00  0.00     0.012 C 
ATOM     25  C   UNL     1      15.541  46.523  29.589  1.00  0.00    -0.006 C 
ATOM     26  C   UNL     1      13.638  46.738  27.853  1.00  0.00     0.033 C 
ATOM     27  C   UNL     1      14.944  46.020  28.220  1.00  0.00     0.120 C 
ATOM     28  C   UNL     1      17.090  46.401  29.523  1.00  0.00     0.014 C 
ATOM     29  C   UNL     1      15.122  45.555  30.738  1.00  0.00     0.014 C 
ENDROOT
BRANCH   1  30
ATOM     30  C   UNL     1      12.597  55.496  31.235  1.00  0.00     0.048 C 
ATOM     31  O   UNL     1      11.550  55.865  30.636  1.00  0.00    -0.550 OA
ATOM     32  O   UNL     1      13.800  56.116  30.914  1.00  0.00    -0.550 OA
ENDBRANCH   1  30
BRANCH  27  33
ATOM     33  O   UNL     1      14.778  44.621  28.179  1.00  0.00    -0.393 OA
ATOM     34  H   UNL     1      14.054  44.411  27.533  1.00  0.00     0.210 HD
ENDBRANCH  27  33
TORSDOF 2
ENDMDL
MODEL 6
REMARK VINA RESULT:    -6.105      2.500      3.991
REMARK INTER + INTRA:          -6.662
REMARK INTER:                  -6.412
REMARK INTRA:                  -0.250
REMARK UNBOUND:                -0.022
REMARK SMILES C[C@@H]1[C@H]2C3=CC[C@H]4[C@]5(C)CC[C@H](O)C(C)(C)[C@@H]5CC[C@@]4(C)[C@@]3(C)CC[C@@]2(C(=O)[O-])CC[C@@H]1C
REMARK SMILES IDX 26 1 30 2 25 3 3 4 31 5 24 6 4 7 2 8 32 9 22 10 5 11 1 12
REMARK SMILES IDX 33 13 23 14 20 15 6 16 7 17 19 18 21 19 8 20 18 21 17 22
REMARK SMILES IDX 10 23 9 24 14 25 11 26 12 27 15 28 16 29 27 30 28 31 29 32
REMARK SMILES IDX 13 33
REMARK H PARENT 13 34
REMARK Flexibility Score: inf
ROOT
ATOM      1  C   UNL     1      15.211  60.378  32.168  1.00  0.00     0.017 C 
ATOM      2  C   UNL     1      14.635  61.791  32.464  1.00  0.00     0.014 C 
ATOM      3  C   UNL     1      15.516  60.247  30.633  1.00  0.00     0.014 C 
ATOM      4  C   UNL     1      14.238  59.251  32.691  1.00  0.00     0.030 C 
ATOM      5  C   UNL     1      13.183  61.963  32.017  1.00  0.00     0.004 C 
ATOM      6  C   UNL     1      15.055  58.941  29.958  1.00  0.00     0.013 C 
ATOM      7  C   UNL     1      14.678  57.862  32.186  1.00  0.00    -0.063 C 
ATOM      8  C   UNL     1      12.714  59.503  32.400  1.00  0.00    -0.003 C 
ATOM      9  C   UNL     1      12.263  60.958  32.714  1.00  0.00    -0.011 C 
ATOM     10  C   UNL     1      15.290  57.646  30.802  1.00  0.00    -0.006 C 
ATOM     11  C   UNL     1      14.519  56.810  33.001  1.00  0.00    -0.027 C 
ATOM     12  C   UNL     1      11.801  58.504  33.143  1.00  0.00     0.008 C 
ATOM     13  C   UNL     1      12.130  61.267  34.222  1.00  0.00     0.008 C 
ATOM     14  C   UNL     1      16.833  57.486  30.993  1.00  0.00     0.017 C 
ATOM     15  C   UNL     1      14.671  56.321  30.110  1.00  0.00    -0.020 C 
ATOM     16  C   UNL     1      14.499  55.385  32.538  1.00  0.00     0.032 C 
ATOM     17  C   UNL     1      14.898  55.063  31.052  1.00  0.00     0.006 C 
ATOM     18  C   UNL     1      13.141  56.454  29.892  1.00  0.00     0.008 C 
ATOM     19  C   UNL     1      15.340  56.128  28.710  1.00  0.00     0.012 C 
ATOM     20  C   UNL     1      14.228  53.681  30.575  1.00  0.00    -0.025 C 
ATOM     21  C   UNL     1      12.476  55.187  29.339  1.00  0.00     0.005 C 
ATOM     22  C   UNL     1      12.698  53.893  30.181  1.00  0.00     0.003 C 
ATOM     23  C   UNL     1      15.066  53.011  29.414  1.00  0.00     0.010 C 
ATOM     24  C   UNL     1      14.317  52.663  31.766  1.00  0.00     0.012 C 
ATOM     25  C   UNL     1      11.984  52.601  29.536  1.00  0.00    -0.006 C 
ATOM     26  C   UNL     1      14.226  52.444  28.262  1.00  0.00     0.033 C 
ATOM     27  C   UNL     1      13.017  51.668  28.798  1.00  0.00     0.120 C 
ATOM     28  C   UNL     1      11.287  51.775  30.654  1.00  0.00     0.014 C 
ATOM     29  C   UNL     1      10.830  52.989  28.561  1.00  0.00     0.014 C 
ENDROOT
BRANCH   1  30
ATOM     30  C   UNL     1      16.538  60.324  32.930  1.00  0.00     0.048 C 
ATOM     31  O   UNL     1      17.627  60.656  32.387  1.00  0.00    -0.550 OA
ATOM     32  O   UNL     1      16.559  59.884  34.250  1.00  0.00    -0.550 OA
ENDBRANCH   1  30
BRANCH  27  33
ATOM     33  O   UNL     1      12.423  50.894  27.781  1.00  0.00    -0.393 OA
ATOM     34  H   UNL     1      11.717  50.329  28.190  1.00  0.00     0.210 HD
ENDBRANCH  27  33
TORSDOF 2
ENDMDL
MODEL 7
REMARK VINA RESULT:    -6.096      1.935      3.457
REMARK INTER + INTRA:          -6.653
REMARK INTER:                  -6.404
REMARK INTRA:                  -0.249
REMARK UNBOUND:                -0.022
REMARK SMILES C[C@@H]1[C@H]2C3=CC[C@H]4[C@]5(C)CC[C@H](O)C(C)(C)[C@@H]5CC[C@@]4(C)[C@@]3(C)CC[C@@]2(C(=O)[O-])CC[C@@H]1C
REMARK SMILES IDX 26 1 30 2 25 3 3 4 31 5 24 6 4 7 2 8 32 9 22 10 5 11 1 12
REMARK SMILES IDX 33 13 23 14 20 15 6 16 7 17 19 18 21 19 8 20 18 21 17 22
REMARK SMILES IDX 10 23 9 24 14 25 11 26 12 27 15 28 16 29 27 30 28 31 29 32
REMARK SMILES IDX 13 33
REMARK H PARENT 13 34
REMARK Flexibility Score: inf
ROOT
ATOM      1  C   UNL     1      12.180  54.831  33.111  1.00  0.00     0.017 C 
ATOM      2  C   UNL     1      12.076  55.052  34.647  1.00  0.00     0.014 C 
ATOM      3  C   UNL     1      11.044  53.851  32.644  1.00  0.00     0.014 C 
ATOM      4  C   UNL     1      13.619  54.325  32.710  1.00  0.00     0.030 C 
ATOM      5  C   UNL     1      12.570  53.861  35.468  1.00  0.00     0.004 C 
ATOM      6  C   UNL     1      11.469  52.732  31.675  1.00  0.00     0.013 C 
ATOM      7  C   UNL     1      13.656  53.870  31.237  1.00  0.00    -0.063 C 
ATOM      8  C   UNL     1      14.223  53.226  33.657  1.00  0.00    -0.003 C 
ATOM      9  C   UNL     1      14.038  53.549  35.167  1.00  0.00    -0.011 C 
ATOM     10  C   UNL     1      12.475  53.172  30.562  1.00  0.00    -0.006 C 
ATOM     11  C   UNL     1      14.768  54.106  30.527  1.00  0.00    -0.027 C 
ATOM     12  C   UNL     1      15.715  52.952  33.363  1.00  0.00     0.008 C 
ATOM     13  C   UNL     1      14.971  54.660  35.695  1.00  0.00     0.008 C 
ATOM     14  C   UNL     1      11.751  54.233  29.671  1.00  0.00     0.017 C 
ATOM     15  C   UNL     1      12.992  51.937  29.654  1.00  0.00    -0.020 C 
ATOM     16  C   UNL     1      15.123  53.388  29.261  1.00  0.00     0.032 C 
ATOM     17  C   UNL     1      14.050  52.454  28.589  1.00  0.00     0.006 C 
ATOM     18  C   UNL     1      13.702  50.858  30.512  1.00  0.00     0.008 C 
ATOM     19  C   UNL     1      11.757  51.269  28.968  1.00  0.00     0.012 C 
ATOM     20  C   UNL     1      14.766  51.332  27.687  1.00  0.00    -0.025 C 
ATOM     21  C   UNL     1      14.311  49.711  29.695  1.00  0.00     0.005 C 
ATOM     22  C   UNL     1      15.324  50.142  28.589  1.00  0.00     0.003 C 
ATOM     23  C   UNL     1      13.804  50.823  26.540  1.00  0.00     0.010 C 
ATOM     24  C   UNL     1      15.962  52.009  26.930  1.00  0.00     0.012 C 
ATOM     25  C   UNL     1      15.913  48.891  27.764  1.00  0.00    -0.006 C 
ATOM     26  C   UNL     1      13.803  49.304  26.330  1.00  0.00     0.033 C 
ATOM     27  C   UNL     1      15.234  48.750  26.349  1.00  0.00     0.120 C 
ATOM     28  C   UNL     1      17.444  49.073  27.557  1.00  0.00     0.014 C 
ATOM     29  C   UNL     1      15.783  47.550  28.550  1.00  0.00     0.014 C 
ENDROOT
BRANCH   1  30
ATOM     30  C   UNL     1      11.914  56.207  32.494  1.00  0.00     0.048 C 
ATOM     31  O   UNL     1      10.763  56.548  32.108  1.00  0.00    -0.550 OA
ATOM     32  O   UNL     1      12.963  57.107  32.336  1.00  0.00    -0.550 OA
ENDBRANCH   1  30
BRANCH  27  33
ATOM     33  O   UNL     1      15.271  47.430  25.856  1.00  0.00    -0.393 OA
ATOM     34  H   UNL     1      14.661  47.371  25.075  1.00  0.00     0.210 HD
ENDBRANCH  27  33
TORSDOF 2
ENDMDL
MODEL 8
REMARK VINA RESULT:    -6.012      1.849      8.553
REMARK INTER + INTRA:          -6.561
REMARK INTER:                  -6.309
REMARK INTRA:                  -0.252
REMARK UNBOUND:                -0.022
REMARK SMILES C[C@@H]1[C@H]2C3=CC[C@H]4[C@]5(C)CC[C@H](O)C(C)(C)[C@@H]5CC[C@@]4(C)[C@@]3(C)CC[C@@]2(C(=O)[O-])CC[C@@H]1C
REMARK SMILES IDX 26 1 30 2 25 3 3 4 31 5 24 6 4 7 2 8 32 9 22 10 5 11 1 12
REMARK SMILES IDX 33 13 23 14 20 15 6 16 7 17 19 18 21 19 8 20 18 21 17 22
REMARK SMILES IDX 10 23 9 24 14 25 11 26 12 27 15 28 16 29 27 30 28 31 29 32
REMARK SMILES IDX 13 33
REMARK H PARENT 13 34
REMARK Flexibility Score: inf
ROOT
ATOM      1  C   UNL     1      14.419  46.963  28.586  1.00  0.00     0.017 C 
ATOM      2  C   UNL     1      14.689  46.217  27.248  1.00  0.00     0.014 C 
ATOM      3  C   UNL     1      12.945  47.508  28.594  1.00  0.00     0.014 C 
ATOM      4  C   UNL     1      15.487  48.099  28.825  1.00  0.00     0.030 C 
ATOM      5  C   UNL     1      14.879  47.155  26.056  1.00  0.00     0.004 C 
ATOM      6  C   UNL     1      12.761  48.958  29.079  1.00  0.00     0.013 C 
ATOM      7  C   UNL     1      15.084  48.997  30.012  1.00  0.00    -0.063 C 
ATOM      8  C   UNL     1      15.833  48.960  27.556  1.00  0.00    -0.003 C 
ATOM      9  C   UNL     1      16.059  48.105  26.278  1.00  0.00    -0.011 C 
ATOM     10  C   UNL     1      13.629  49.353  30.318  1.00  0.00    -0.006 C 
ATOM     11  C   UNL     1      16.053  49.473  30.806  1.00  0.00    -0.027 C 
ATOM     12  C   UNL     1      17.050  49.883  27.787  1.00  0.00     0.008 C 
ATOM     13  C   UNL     1      17.405  47.346  26.255  1.00  0.00     0.008 C 
ATOM     14  C   UNL     1      13.170  48.458  31.515  1.00  0.00     0.017 C 
ATOM     15  C   UNL     1      13.500  50.918  30.706  1.00  0.00    -0.020 C 
ATOM     16  C   UNL     1      15.890  50.652  31.715  1.00  0.00     0.032 C 
ATOM     17  C   UNL     1      14.452  51.252  31.932  1.00  0.00     0.006 C 
ATOM     18  C   UNL     1      13.933  51.834  29.533  1.00  0.00     0.008 C 
ATOM     19  C   UNL     1      12.003  51.231  31.031  1.00  0.00     0.012 C 
ATOM     20  C   UNL     1      14.545  52.797  32.367  1.00  0.00    -0.025 C 
ATOM     21  C   UNL     1      13.937  53.329  29.875  1.00  0.00     0.005 C 
ATOM     22  C   UNL     1      14.810  53.732  31.103  1.00  0.00     0.003 C 
ATOM     23  C   UNL     1      13.269  53.236  33.190  1.00  0.00     0.010 C 
ATOM     24  C   UNL     1      15.738  52.946  33.376  1.00  0.00     0.012 C 
ATOM     25  C   UNL     1      14.756  55.312  31.413  1.00  0.00    -0.006 C 
ATOM     26  C   UNL     1      12.696  54.606  32.803  1.00  0.00     0.033 C 
ATOM     27  C   UNL     1      13.818  55.639  32.636  1.00  0.00     0.120 C 
ATOM     28  C   UNL     1      16.186  55.831  31.739  1.00  0.00     0.014 C 
ATOM     29  C   UNL     1      14.315  56.143  30.169  1.00  0.00     0.014 C 
ENDROOT
BRANCH   1  30
ATOM     30  C   UNL     1      14.541  45.888  29.669  1.00  0.00     0.048 C 
ATOM     31  O   UNL     1      13.536  45.253  30.089  1.00  0.00    -0.550 OA
ATOM     32  O   UNL     1      15.785  45.607  30.225  1.00  0.00    -0.550 OA
ENDBRANCH   1  30
BRANCH  27  33
ATOM     33  O   UNL     1      13.296  56.947  32.588  1.00  0.00    -0.393 OA
ATOM     34  H   UNL     1      13.110  57.176  31.640  1.00  0.00     0.210 HD
ENDBRANCH  27  33
TORSDOF 2
ENDMDL
MODEL 9
REMARK VINA RESULT:    -5.970      1.808      4.173
REMARK INTER + INTRA:          -6.516
REMARK INTER:                  -6.296
REMARK INTRA:                  -0.220
REMARK UNBOUND:                -0.022
REMARK SMILES C[C@@H]1[C@H]2C3=CC[C@H]4[C@]5(C)CC[C@H](O)C(C)(C)[C@@H]5CC[C@@]4(C)[C@@]3(C)CC[C@@]2(C(=O)[O-])CC[C@@H]1C
REMARK SMILES IDX 26 1 30 2 25 3 3 4 31 5 24 6 4 7 2 8 32 9 22 10 5 11 1 12
REMARK SMILES IDX 33 13 23 14 20 15 6 16 7 17 19 18 21 19 8 20 18 21 17 22
REMARK SMILES IDX 10 23 9 24 14 25 11 26 12 27 15 28 16 29 27 30 28 31 29 32
REMARK SMILES IDX 13 33
REMARK H PARENT 13 34
REMARK Flexibility Score: inf
ROOT
ATOM      1  C   UNL     1      14.468  55.817  32.165  1.00  0.00     0.017 C 
ATOM      2  C   UNL     1      15.181  57.172  31.894  1.00  0.00     0.014 C 
ATOM      3  C   UNL     1      15.221  55.048  33.310  1.00  0.00     0.014 C 
ATOM      4  C   UNL     1      14.347  54.968  30.842  1.00  0.00     0.030 C 
ATOM      5  C   UNL     1      16.495  57.025  31.125  1.00  0.00     0.004 C 
ATOM      6  C   UNL     1      15.478  53.549  33.064  1.00  0.00     0.013 C 
ATOM      7  C   UNL     1      13.869  53.533  31.146  1.00  0.00    -0.063 C 
ATOM      8  C   UNL     1      15.636  54.956  29.942  1.00  0.00    -0.003 C 
ATOM      9  C   UNL     1      16.270  56.364  29.763  1.00  0.00    -0.011 C 
ATOM     10  C   UNL     1      14.289  52.776  32.406  1.00  0.00    -0.006 C 
ATOM     11  C   UNL     1      13.050  52.937  30.269  1.00  0.00    -0.027 C 
ATOM     12  C   UNL     1      15.380  54.321  28.557  1.00  0.00     0.008 C 
ATOM     13  C   UNL     1      15.489  57.293  28.807  1.00  0.00     0.008 C 
ATOM     14  C   UNL     1      13.088  52.828  33.405  1.00  0.00     0.017 C 
ATOM     15  C   UNL     1      14.655  51.241  32.048  1.00  0.00    -0.020 C 
ATOM     16  C   UNL     1      12.834  51.456  30.195  1.00  0.00     0.032 C 
ATOM     17  C   UNL     1      13.421  50.544  31.333  1.00  0.00     0.006 C 
ATOM     18  C   UNL     1      15.855  51.155  31.070  1.00  0.00     0.008 C 
ATOM     19  C   UNL     1      15.056  50.502  33.366  1.00  0.00     0.012 C 
ATOM     20  C   UNL     1      13.659  49.049  30.790  1.00  0.00    -0.025 C 
ATOM     21  C   UNL     1      16.183  49.730  30.607  1.00  0.00     0.005 C 
ATOM     22  C   UNL     1      15.004  48.956  29.939  1.00  0.00     0.003 C 
ATOM     23  C   UNL     1      13.615  47.999  31.972  1.00  0.00     0.010 C 
ATOM     24  C   UNL     1      12.443  48.666  29.875  1.00  0.00     0.012 C 
ATOM     25  C   UNL     1      15.414  47.465  29.490  1.00  0.00    -0.006 C 
ATOM     26  C   UNL     1      14.710  46.926  31.917  1.00  0.00     0.033 C 
ATOM     27  C   UNL     1      14.867  46.379  30.492  1.00  0.00     0.120 C 
ATOM     28  C   UNL     1      14.835  47.165  28.078  1.00  0.00     0.014 C 
ATOM     29  C   UNL     1      16.956  47.301  29.322  1.00  0.00     0.014 C 
ENDROOT
BRANCH   1  30
ATOM     30  C   UNL     1      13.076  56.198  32.676  1.00  0.00     0.048 C 
ATOM     31  O   UNL     1      12.783  56.148  33.901  1.00  0.00    -0.550 OA
ATOM     32  O   UNL     1      12.095  56.597  31.773  1.00  0.00    -0.550 OA
ENDBRANCH   1  30
BRANCH  27  33
ATOM     33  O   UNL     1      15.634  45.196  30.488  1.00  0.00    -0.393 OA
ATOM     34  H   UNL     1      15.332  44.631  29.731  1.00  0.00     0.210 HD
ENDBRANCH  27  33
TORSDOF 2
ENDMDL
