MODEL 1
REMARK VINA RESULT:    -4.575      0.000      0.000
REMARK INTER + INTRA:         -11.164
REMARK INTER:                  -8.587
REMARK INTRA:                  -2.577
REMARK UNBOUND:                -2.577
REMARK SMILES CCCCCCCCC=CCCCCCCCC(=O)[O-]
REMARK SMILES IDX 10 1 9 2 11 3 12 4 13 5 14 6 15 7 16 8 17 9 18 10 19 11
REMARK SMILES IDX 20 12 8 13 7 14 6 15 5 16 4 17 3 18 2 19 1 20
REMARK H PARENT
REMARK Flexibility Score: inf
ROOT
ATOM      1  C   UNL     1     115.088 121.322 123.319  1.00  0.00    -0.031 C 
ATOM      2  C   UNL     1     115.231 120.518 122.254  1.00  0.00    -0.031 C 
ENDROOT
BRANCH   1   3
ATOM      3  C   UNL     1     116.264 122.018 123.945  1.00  0.00     0.027 C 
BRANCH   3   4
ATOM      4  C   UNL     1     115.943 123.489 124.243  1.00  0.00     0.004 C 
BRANCH   4   5
ATOM      5  C   UNL     1     114.515 123.876 123.826  1.00  0.00     0.000 C 
BRANCH   5   6
ATOM      6  C   UNL     1     114.488 124.790 122.588  1.00  0.00     0.000 C 
BRANCH   6   7
ATOM      7  C   UNL     1     113.755 124.151 121.397  1.00  0.00     0.000 C 
BRANCH   7   8
ATOM      8  C   UNL     1     114.719 123.680 120.295  1.00  0.00     0.006 C 
BRANCH   8   9
ATOM      9  C   UNL     1     116.092 124.339 120.447  1.00  0.00     0.053 C 
BRANCH   9  10
ATOM     10  C   UNL     1     117.176 123.306 120.427  1.00  0.00     0.041 C 
ATOM     11  O   UNL     1     117.021 122.240 119.774  1.00  0.00    -0.550 OA
ATOM     12  O   UNL     1     118.331 123.496 121.174  1.00  0.00    -0.550 OA
ENDBRANCH   9  10
ENDBRANCH   8   9
ENDBRANCH   7   8
ENDBRANCH   6   7
ENDBRANCH   5   6
ENDBRANCH   4   5
ENDBRANCH   3   4
ENDBRANCH   1   3
BRANCH   2  13
ATOM     13  C   UNL     1     114.049 119.835 121.617  1.00  0.00     0.027 C 
BRANCH  13  14
ATOM     14  C   UNL     1     112.737 120.596 121.856  1.00  0.00     0.004 C 
BRANCH  14  15
ATOM     15  C   UNL     1     111.695 119.736 122.591  1.00  0.00     0.000 C 
BRANCH  15  16
ATOM     16  C   UNL     1     111.682 119.993 124.106  1.00  0.00     0.000 C 
BRANCH  16  17
ATOM     17  C   UNL     1     112.164 118.781 124.921  1.00  0.00    -0.000 C 
BRANCH  17  18
ATOM     18  C   UNL     1     113.414 119.087 125.764  1.00  0.00    -0.000 C 
BRANCH  18  19
ATOM     19  C   UNL     1     113.183 118.952 127.284  1.00  0.00    -0.003 C 
ATOM     20  C   UNL     1     114.195 118.019 127.949  1.00  0.00     0.004 C 
ENDBRANCH  18  19
ENDBRANCH  17  18
ENDBRANCH  16  17
ENDBRANCH  15  16
ENDBRANCH  14  15
ENDBRANCH  13  14
ENDBRANCH   2  13
TORSDOF 15
ENDMDL
MODEL 2
REMARK VINA RESULT:    -4.388      3.182      6.637
REMARK INTER + INTRA:         -10.812
REMARK INTER:                  -8.623
REMARK INTRA:                  -2.189
REMARK UNBOUND:                -2.577
REMARK SMILES CCCCCCCCC=CCCCCCCCC(=O)[O-]
REMARK SMILES IDX 10 1 9 2 11 3 12 4 13 5 14 6 15 7 16 8 17 9 18 10 19 11
REMARK SMILES IDX 20 12 8 13 7 14 6 15 5 16 4 17 3 18 2 19 1 20
REMARK H PARENT
REMARK Flexibility Score: inf
ROOT
ATOM      1  C   UNL     1     113.440 122.007 121.320  1.00  0.00    -0.031 C 
ATOM      2  C   UNL     1     113.820 122.868 120.363  1.00  0.00    -0.031 C 
ENDROOT
BRANCH   1   3
ATOM      3  C   UNL     1     112.563 120.826 121.014  1.00  0.00     0.027 C 
BRANCH   3   4
ATOM      4  C   UNL     1     112.583 119.808 122.163  1.00  0.00     0.004 C 
BRANCH   4   5
ATOM      5  C   UNL     1     111.615 120.182 123.297  1.00  0.00     0.000 C 
BRANCH   5   6
ATOM      6  C   UNL     1     112.346 120.530 124.606  1.00  0.00     0.000 C 
BRANCH   6   7
ATOM      7  C   UNL     1     113.323 119.430 125.050  1.00  0.00     0.000 C 
BRANCH   7   8
ATOM      8  C   UNL     1     112.742 118.536 126.158  1.00  0.00     0.006 C 
BRANCH   8   9
ATOM      9  C   UNL     1     113.236 118.979 127.538  1.00  0.00     0.053 C 
BRANCH   9  10
ATOM     10  C   UNL     1     114.470 118.223 127.921  1.00  0.00     0.041 C 
ATOM     11  O   UNL     1     114.665 117.062 127.475  1.00  0.00    -0.550 OA
ATOM     12  O   UNL     1     115.375 118.779 128.817  1.00  0.00    -0.550 OA
ENDBRANCH   9  10
ENDBRANCH   8   9
ENDBRANCH   7   8
ENDBRANCH   6   7
ENDBRANCH   5   6
ENDBRANCH   4   5
ENDBRANCH   3   4
ENDBRANCH   1   3
BRANCH   2  13
ATOM     13  C   UNL     1     114.714 124.041 120.668  1.00  0.00     0.027 C 
BRANCH  13  14
ATOM     14  C   UNL     1     115.996 124.035 119.822  1.00  0.00     0.004 C 
BRANCH  14  15
ATOM     15  C   UNL     1     116.983 122.945 120.273  1.00  0.00     0.000 C 
BRANCH  15  16
ATOM     16  C   UNL     1     118.028 123.471 121.268  1.00  0.00     0.000 C 
BRANCH  16  17
ATOM     17  C   UNL     1     117.967 122.759 122.630  1.00  0.00    -0.000 C 
BRANCH  17  18
ATOM     18  C   UNL     1     116.847 121.707 122.704  1.00  0.00    -0.000 C 
BRANCH  18  19
ATOM     19  C   UNL     1     115.969 121.825 123.967  1.00  0.00    -0.003 C 
ATOM     20  C   UNL     1     115.454 123.247 124.191  1.00  0.00     0.004 C 
ENDBRANCH  18  19
ENDBRANCH  17  18
ENDBRANCH  16  17
ENDBRANCH  15  16
ENDBRANCH  14  15
ENDBRANCH  13  14
ENDBRANCH   2  13
TORSDOF 15
ENDMDL
MODEL 3
REMARK VINA RESULT:    -4.351      3.240      6.784
REMARK INTER + INTRA:         -10.744
REMARK INTER:                  -8.562
REMARK INTRA:                  -2.181
REMARK UNBOUND:                -2.577
REMARK SMILES CCCCCCCCC=CCCCCCCCC(=O)[O-]
REMARK SMILES IDX 10 1 9 2 11 3 12 4 13 5 14 6 15 7 16 8 17 9 18 10 19 11
REMARK SMILES IDX 20 12 8 13 7 14 6 15 5 16 4 17 3 18 2 19 1 20
REMARK H PARENT
REMARK Flexibility Score: inf
ROOT
ATOM      1  C   UNL     1     114.422 120.882 122.331  1.00  0.00    -0.031 C 
ATOM      2  C   UNL     1     113.525 121.826 122.006  1.00  0.00    -0.031 C 
ENDROOT
BRANCH   1   3
ATOM      3  C   UNL     1     114.402 120.205 123.672  1.00  0.00     0.027 C 
BRANCH   3   4
ATOM      4  C   UNL     1     113.218 120.690 124.520  1.00  0.00     0.004 C 
BRANCH   4   5
ATOM      5  C   UNL     1     112.143 119.608 124.704  1.00  0.00     0.000 C 
BRANCH   5   6
ATOM      6  C   UNL     1     112.557 118.529 125.721  1.00  0.00     0.000 C 
BRANCH   6   7
ATOM      7  C   UNL     1     112.705 119.085 127.146  1.00  0.00     0.000 C 
BRANCH   7   8
ATOM      8  C   UNL     1     113.903 118.478 127.895  1.00  0.00     0.006 C 
BRANCH   8   9
ATOM      9  C   UNL     1     115.075 118.225 126.944  1.00  0.00     0.053 C 
BRANCH   9  10
ATOM     10  C   UNL     1     116.171 117.485 127.646  1.00  0.00     0.041 C 
ATOM     11  O   UNL     1     116.485 116.321 127.279  1.00  0.00    -0.550 OA
ATOM     12  O   UNL     1     116.806 118.058 128.741  1.00  0.00    -0.550 OA
ENDBRANCH   9  10
ENDBRANCH   8   9
ENDBRANCH   7   8
ENDBRANCH   6   7
ENDBRANCH   5   6
ENDBRANCH   4   5
ENDBRANCH   3   4
ENDBRANCH   1   3
BRANCH   2  13
ATOM     13  C   UNL     1     113.535 122.491 120.655  1.00  0.00     0.027 C 
BRANCH  13  14
ATOM     14  C   UNL     1     114.376 123.777 120.642  1.00  0.00     0.004 C 
BRANCH  14  15
ATOM     15  C   UNL     1     115.810 123.525 120.145  1.00  0.00     0.000 C 
BRANCH  15  16
ATOM     16  C   UNL     1     116.780 124.645 120.553  1.00  0.00     0.000 C 
BRANCH  16  17
ATOM     17  C   UNL     1     116.946 124.764 122.077  1.00  0.00    -0.000 C 
BRANCH  17  18
ATOM     18  C   UNL     1     117.181 123.407 122.761  1.00  0.00    -0.000 C 
BRANCH  18  19
ATOM     19  C   UNL     1     116.510 123.286 124.145  1.00  0.00    -0.003 C 
ATOM     20  C   UNL     1     115.272 124.173 124.275  1.00  0.00     0.004 C 
ENDBRANCH  18  19
ENDBRANCH  17  18
ENDBRANCH  16  17
ENDBRANCH  15  16
ENDBRANCH  14  15
ENDBRANCH  13  14
ENDBRANCH   2  13
TORSDOF 15
ENDMDL
MODEL 4
REMARK VINA RESULT:    -4.343      1.551      4.680
REMARK INTER + INTRA:         -10.728
REMARK INTER:                  -8.391
REMARK INTRA:                  -2.336
REMARK UNBOUND:                -2.577
REMARK SMILES CCCCCCCCC=CCCCCCCCC(=O)[O-]
REMARK SMILES IDX 10 1 9 2 11 3 12 4 13 5 14 6 15 7 16 8 17 9 18 10 19 11
REMARK SMILES IDX 20 12 8 13 7 14 6 15 5 16 4 17 3 18 2 19 1 20
REMARK H PARENT
REMARK Flexibility Score: inf
ROOT
ATOM      1  C   UNL     1     112.337 119.039 125.913  1.00  0.00    -0.031 C 
ATOM      2  C   UNL     1     113.334 118.395 126.541  1.00  0.00    -0.031 C 
ENDROOT
BRANCH   1   3
ATOM      3  C   UNL     1     111.905 118.658 124.525  1.00  0.00     0.027 C 
BRANCH   3   4
ATOM      4  C   UNL     1     111.573 119.901 123.687  1.00  0.00     0.004 C 
BRANCH   4   5
ATOM      5  C   UNL     1     112.141 119.819 122.261  1.00  0.00     0.000 C 
BRANCH   5   6
ATOM      6  C   UNL     1     111.278 120.579 121.237  1.00  0.00     0.000 C 
BRANCH   6   7
ATOM      7  C   UNL     1     112.071 121.657 120.479  1.00  0.00     0.000 C 
BRANCH   7   8
ATOM      8  C   UNL     1     113.438 121.946 121.122  1.00  0.00     0.006 C 
BRANCH   8   9
ATOM      9  C   UNL     1     113.968 123.317 120.695  1.00  0.00     0.053 C 
BRANCH   9  10
ATOM     10  C   UNL     1     115.426 123.237 120.366  1.00  0.00     0.041 C 
ATOM     11  O   UNL     1     116.083 122.201 120.650  1.00  0.00    -0.550 OA
ATOM     12  O   UNL     1     116.072 124.329 119.798  1.00  0.00    -0.550 OA
ENDBRANCH   9  10
ENDBRANCH   8   9
ENDBRANCH   7   8
ENDBRANCH   6   7
ENDBRANCH   5   6
ENDBRANCH   4   5
ENDBRANCH   3   4
ENDBRANCH   1   3
BRANCH   2  13
ATOM     13  C   UNL     1     113.754 118.766 127.939  1.00  0.00     0.027 C 
BRANCH  13  14
ATOM     14  C   UNL     1     115.280 118.762 128.111  1.00  0.00     0.004 C 
BRANCH  14  15
ATOM     15  C   UNL     1     116.011 118.468 126.789  1.00  0.00     0.000 C 
BRANCH  15  16
ATOM     16  C   UNL     1     116.596 119.735 126.145  1.00  0.00     0.000 C 
BRANCH  16  17
ATOM     17  C   UNL     1     116.712 119.626 124.615  1.00  0.00    -0.000 C 
BRANCH  17  18
ATOM     18  C   UNL     1     115.486 120.196 123.881  1.00  0.00    -0.000 C 
BRANCH  18  19
ATOM     19  C   UNL     1     114.850 121.411 124.588  1.00  0.00    -0.003 C 
ATOM     20  C   UNL     1     115.452 122.738 124.126  1.00  0.00     0.004 C 
ENDBRANCH  18  19
ENDBRANCH  17  18
ENDBRANCH  16  17
ENDBRANCH  15  16
ENDBRANCH  14  15
ENDBRANCH  13  14
ENDBRANCH   2  13
TORSDOF 15
ENDMDL
MODEL 5
REMARK VINA RESULT:    -4.324      2.670      3.779
REMARK INTER + INTRA:         -10.693
REMARK INTER:                  -8.614
REMARK INTRA:                  -2.079
REMARK UNBOUND:                -2.577
REMARK SMILES CCCCCCCCC=CCCCCCCCC(=O)[O-]
REMARK SMILES IDX 10 1 9 2 11 3 12 4 13 5 14 6 15 7 16 8 17 9 18 10 19 11
REMARK SMILES IDX 20 12 8 13 7 14 6 15 5 16 4 17 3 18 2 19 1 20
REMARK H PARENT
REMARK Flexibility Score: inf
ROOT
ATOM      1  C   UNL     1     113.288 122.556 121.338  1.00  0.00    -0.031 C 
ATOM      2  C   UNL     1     112.323 121.960 120.621  1.00  0.00    -0.031 C 
ENDROOT
BRANCH   1   3
ATOM      3  C   UNL     1     113.555 124.031 121.228  1.00  0.00     0.027 C 
BRANCH   3   4
ATOM      4  C   UNL     1     115.015 124.303 120.842  1.00  0.00     0.004 C 
BRANCH   4   5
ATOM      5  C   UNL     1     115.984 123.266 121.432  1.00  0.00     0.000 C 
BRANCH   5   6
ATOM      6  C   UNL     1     116.665 123.760 122.722  1.00  0.00     0.000 C 
BRANCH   6   7
ATOM      7  C   UNL     1     116.044 123.151 123.990  1.00  0.00     0.000 C 
BRANCH   7   8
ATOM      8  C   UNL     1     115.014 124.083 124.649  1.00  0.00     0.006 C 
BRANCH   8   9
ATOM      9  C   UNL     1     115.386 125.552 124.435  1.00  0.00     0.053 C 
BRANCH   9  10
ATOM     10  C   UNL     1     115.058 126.359 125.653  1.00  0.00     0.041 C 
ATOM     11  O   UNL     1     113.926 126.256 126.194  1.00  0.00    -0.550 OA
ATOM     12  O   UNL     1     115.983 127.267 126.155  1.00  0.00    -0.550 OA
ENDBRANCH   9  10
ENDBRANCH   8   9
ENDBRANCH   7   8
ENDBRANCH   6   7
ENDBRANCH   5   6
ENDBRANCH   4   5
ENDBRANCH   3   4
ENDBRANCH   1   3
BRANCH   2  13
ATOM     13  C   UNL     1     112.046 120.484 120.746  1.00  0.00     0.027 C 
BRANCH  13  14
ATOM     14  C   UNL     1     112.658 119.880 122.018  1.00  0.00     0.004 C 
BRANCH  14  15
ATOM     15  C   UNL     1     111.660 119.867 123.190  1.00  0.00     0.000 C 
BRANCH  15  16
ATOM     16  C   UNL     1     112.275 120.399 124.493  1.00  0.00     0.000 C 
BRANCH  16  17
ATOM     17  C   UNL     1     113.807 120.269 124.527  1.00  0.00    -0.000 C 
BRANCH  17  18
ATOM     18  C   UNL     1     114.317 119.535 125.779  1.00  0.00    -0.000 C 
BRANCH  18  19
ATOM     19  C   UNL     1     113.224 118.734 126.515  1.00  0.00    -0.003 C 
ATOM     20  C   UNL     1     113.283 118.920 128.032  1.00  0.00     0.004 C 
ENDBRANCH  18  19
ENDBRANCH  17  18
ENDBRANCH  16  17
ENDBRANCH  15  16
ENDBRANCH  14  15
ENDBRANCH  13  14
ENDBRANCH   2  13
TORSDOF 15
ENDMDL
MODEL 6
REMARK VINA RESULT:    -4.311      1.879      5.337
REMARK INTER + INTRA:         -10.669
REMARK INTER:                  -8.607
REMARK INTRA:                  -2.063
REMARK UNBOUND:                -2.577
REMARK SMILES CCCCCCCCC=CCCCCCCCC(=O)[O-]
REMARK SMILES IDX 10 1 9 2 11 3 12 4 13 5 14 6 15 7 16 8 17 9 18 10 19 11
REMARK SMILES IDX 20 12 8 13 7 14 6 15 5 16 4 17 3 18 2 19 1 20
REMARK H PARENT
REMARK Flexibility Score: inf
ROOT
ATOM      1  C   UNL     1     113.252 118.363 126.589  1.00  0.00    -0.031 C 
ATOM      2  C   UNL     1     112.361 119.110 125.919  1.00  0.00    -0.031 C 
ENDROOT
BRANCH   1   3
ATOM      3  C   UNL     1     113.693 118.720 127.980  1.00  0.00     0.027 C 
BRANCH   3   4
ATOM      4  C   UNL     1     115.210 118.950 128.039  1.00  0.00     0.004 C 
BRANCH   4   5
ATOM      5  C   UNL     1     115.917 118.553 126.733  1.00  0.00     0.000 C 
BRANCH   5   6
ATOM      6  C   UNL     1     116.438 119.772 125.950  1.00  0.00     0.000 C 
BRANCH   6   7
ATOM      7  C   UNL     1     115.846 119.863 124.534  1.00  0.00     0.000 C 
BRANCH   7   8
ATOM      8  C   UNL     1     115.317 121.268 124.204  1.00  0.00     0.006 C 
BRANCH   8   9
ATOM      9  C   UNL     1     116.365 122.338 124.519  1.00  0.00     0.053 C 
BRANCH   9  10
ATOM     10  C   UNL     1     115.851 123.698 124.163  1.00  0.00     0.041 C 
ATOM     11  O   UNL     1     116.547 124.474 123.456  1.00  0.00    -0.550 OA
ATOM     12  O   UNL     1     114.627 124.131 124.660  1.00  0.00    -0.550 OA
ENDBRANCH   9  10
ENDBRANCH   8   9
ENDBRANCH   7   8
ENDBRANCH   6   7
ENDBRANCH   5   6
ENDBRANCH   4   5
ENDBRANCH   3   4
ENDBRANCH   1   3
BRANCH   2  13
ATOM     13  C   UNL     1     111.907 118.740 124.531  1.00  0.00     0.027 C 
BRANCH  13  14
ATOM     14  C   UNL     1     111.592 119.974 123.671  1.00  0.00     0.004 C 
BRANCH  14  15
ATOM     15  C   UNL     1     112.377 119.972 122.348  1.00  0.00     0.000 C 
BRANCH  15  16
ATOM     16  C   UNL     1     111.565 120.554 121.181  1.00  0.00     0.000 C 
BRANCH  16  17
ATOM     17  C   UNL     1     112.244 121.772 120.531  1.00  0.00    -0.000 C 
BRANCH  17  18
ATOM     18  C   UNL     1     113.291 122.431 121.445  1.00  0.00    -0.000 C 
BRANCH  18  19
ATOM     19  C   UNL     1     114.686 122.557 120.799  1.00  0.00    -0.003 C 
ATOM     20  C   UNL     1     114.953 123.958 120.250  1.00  0.00     0.004 C 
ENDBRANCH  18  19
ENDBRANCH  17  18
ENDBRANCH  16  17
ENDBRANCH  15  16
ENDBRANCH  14  15
ENDBRANCH  13  14
ENDBRANCH   2  13
TORSDOF 15
ENDMDL
MODEL 7
REMARK VINA RESULT:    -4.297      3.066      6.809
REMARK INTER + INTRA:         -10.642
REMARK INTER:                  -8.237
REMARK INTRA:                  -2.405
REMARK UNBOUND:                -2.577
REMARK SMILES CCCCCCCCC=CCCCCCCCC(=O)[O-]
REMARK SMILES IDX 10 1 9 2 11 3 12 4 13 5 14 6 15 7 16 8 17 9 18 10 19 11
REMARK SMILES IDX 20 12 8 13 7 14 6 15 5 16 4 17 3 18 2 19 1 20
REMARK H PARENT
REMARK Flexibility Score: inf
ROOT
ATOM      1  C   UNL     1     113.642 123.308 121.765  1.00  0.00    -0.031 C 
ATOM      2  C   UNL     1     114.265 122.836 122.857  1.00  0.00    -0.031 C 
ENDROOT
BRANCH   1   3
ATOM      3  C   UNL     1     113.496 122.477 120.522  1.00  0.00     0.027 C 
BRANCH   3   4
ATOM      4  C   UNL     1     112.102 121.837 120.444  1.00  0.00     0.004 C 
BRANCH   4   5
ATOM      5  C   UNL     1     112.095 120.381 120.938  1.00  0.00     0.000 C 
BRANCH   5   6
ATOM      6  C   UNL     1     111.269 120.198 122.224  1.00  0.00     0.000 C 
BRANCH   6   7
ATOM      7  C   UNL     1     112.056 119.485 123.336  1.00  0.00     0.000 C 
BRANCH   7   8
ATOM      8  C   UNL     1     112.269 120.374 124.572  1.00  0.00     0.006 C 
BRANCH   8   9
ATOM      9  C   UNL     1     113.593 120.044 125.266  1.00  0.00     0.053 C 
BRANCH   9  10
ATOM     10  C   UNL     1     113.377 119.048 126.362  1.00  0.00     0.041 C 
ATOM     11  O   UNL     1     112.301 119.051 127.017  1.00  0.00    -0.550 OA
ATOM     12  O   UNL     1     114.387 118.155 126.700  1.00  0.00    -0.550 OA
ENDBRANCH   9  10
ENDBRANCH   8   9
ENDBRANCH   7   8
ENDBRANCH   6   7
ENDBRANCH   5   6
ENDBRANCH   4   5
ENDBRANCH   3   4
ENDBRANCH   1   3
BRANCH   2  13
ATOM     13  C   UNL     1     114.396 123.664 124.109  1.00  0.00     0.027 C 
BRANCH  13  14
ATOM     14  C   UNL     1     115.837 124.136 124.349  1.00  0.00     0.004 C 
BRANCH  14  15
ATOM     15  C   UNL     1     116.222 125.311 123.433  1.00  0.00     0.000 C 
BRANCH  15  16
ATOM     16  C   UNL     1     117.272 124.919 122.382  1.00  0.00     0.000 C 
BRANCH  16  17
ATOM     17  C   UNL     1     116.737 125.006 120.943  1.00  0.00    -0.000 C 
BRANCH  17  18
ATOM     18  C   UNL     1     117.206 123.837 120.059  1.00  0.00    -0.000 C 
BRANCH  18  19
ATOM     19  C   UNL     1     117.320 122.497 120.815  1.00  0.00    -0.003 C 
ATOM     20  C   UNL     1     117.534 121.311 119.874  1.00  0.00     0.004 C 
ENDBRANCH  18  19
ENDBRANCH  17  18
ENDBRANCH  16  17
ENDBRANCH  15  16
ENDBRANCH  14  15
ENDBRANCH  13  14
ENDBRANCH   2  13
TORSDOF 15
ENDMDL
MODEL 8
REMARK VINA RESULT:    -4.289      2.445      3.614
REMARK INTER + INTRA:         -10.628
REMARK INTER:                  -8.229
REMARK INTRA:                  -2.398
REMARK UNBOUND:                -2.577
REMARK SMILES CCCCCCCCC=CCCCCCCCC(=O)[O-]
REMARK SMILES IDX 10 1 9 2 11 3 12 4 13 5 14 6 15 7 16 8 17 9 18 10 19 11
REMARK SMILES IDX 20 12 8 13 7 14 6 15 5 16 4 17 3 18 2 19 1 20
REMARK H PARENT
REMARK Flexibility Score: inf
ROOT
ATOM      1  C   UNL     1     117.025 122.160 120.998  1.00  0.00    -0.031 C 
ATOM      2  C   UNL     1     117.226 121.604 122.202  1.00  0.00    -0.031 C 
ENDROOT
BRANCH   1   3
ATOM      3  C   UNL     1     117.503 123.549 120.682  1.00  0.00     0.027 C 
BRANCH   3   4
ATOM      4  C   UNL     1     116.401 124.375 120.003  1.00  0.00     0.004 C 
BRANCH   4   5
ATOM      5  C   UNL     1     114.993 123.836 120.303  1.00  0.00     0.000 C 
BRANCH   5   6
ATOM      6  C   UNL     1     114.309 124.584 121.462  1.00  0.00     0.000 C 
BRANCH   6   7
ATOM      7  C   UNL     1     114.168 123.718 122.724  1.00  0.00     0.000 C 
BRANCH   7   8
ATOM      8  C   UNL     1     115.110 124.165 123.854  1.00  0.00     0.006 C 
BRANCH   8   9
ATOM      9  C   UNL     1     115.635 125.581 123.604  1.00  0.00     0.053 C 
BRANCH   9  10
ATOM     10  C   UNL     1     115.284 126.481 124.748  1.00  0.00     0.041 C 
ATOM     11  O   UNL     1     115.953 127.528 124.959  1.00  0.00    -0.550 OA
ATOM     12  O   UNL     1     114.256 126.134 125.616  1.00  0.00    -0.550 OA
ENDBRANCH   9  10
ENDBRANCH   8   9
ENDBRANCH   7   8
ENDBRANCH   6   7
ENDBRANCH   5   6
ENDBRANCH   4   5
ENDBRANCH   3   4
ENDBRANCH   1   3
BRANCH   2  13
ATOM     13  C   UNL     1     116.761 120.205 122.512  1.00  0.00     0.027 C 
BRANCH  13  14
ATOM     14  C   UNL     1     115.574 119.776 121.636  1.00  0.00     0.004 C 
BRANCH  14  15
ATOM     15  C   UNL     1     114.225 119.996 122.343  1.00  0.00     0.000 C 
BRANCH  15  16
ATOM     16  C   UNL     1     114.346 119.940 123.874  1.00  0.00     0.000 C 
BRANCH  16  17
ATOM     17  C   UNL     1     113.177 120.636 124.590  1.00  0.00    -0.000 C 
BRANCH  17  18
ATOM     18  C   UNL     1     112.287 119.657 125.374  1.00  0.00    -0.000 C 
BRANCH  18  19
ATOM     19  C   UNL     1     113.079 118.562 126.119  1.00  0.00    -0.003 C 
ATOM     20  C   UNL     1     113.357 118.930 127.577  1.00  0.00     0.004 C 
ENDBRANCH  18  19
ENDBRANCH  17  18
ENDBRANCH  16  17
ENDBRANCH  15  16
ENDBRANCH  14  15
ENDBRANCH  13  14
ENDBRANCH   2  13
TORSDOF 15
ENDMDL
MODEL 9
REMARK VINA RESULT:    -4.276      1.802      3.862
REMARK INTER + INTRA:         -10.602
REMARK INTER:                  -7.936
REMARK INTRA:                  -2.666
REMARK UNBOUND:                -2.577
REMARK SMILES CCCCCCCCC=CCCCCCCCC(=O)[O-]
REMARK SMILES IDX 10 1 9 2 11 3 12 4 13 5 14 6 15 7 16 8 17 9 18 10 19 11
REMARK SMILES IDX 20 12 8 13 7 14 6 15 5 16 4 17 3 18 2 19 1 20
REMARK H PARENT
REMARK Flexibility Score: inf
ROOT
ATOM      1  C   UNL     1     116.851 121.281 122.168  1.00  0.00    -0.031 C 
ATOM      2  C   UNL     1     116.039 120.479 122.874  1.00  0.00    -0.031 C 
ENDROOT
BRANCH   1   3
ATOM      3  C   UNL     1     117.374 120.880 120.818  1.00  0.00     0.027 C 
BRANCH   3   4
ATOM      4  C   UNL     1     117.220 122.022 119.802  1.00  0.00     0.004 C 
BRANCH   4   5
ATOM      5  C   UNL     1     117.157 123.402 120.475  1.00  0.00     0.000 C 
BRANCH   5   6
ATOM      6  C   UNL     1     115.929 124.219 120.033  1.00  0.00     0.000 C 
BRANCH   6   7
ATOM      7  C   UNL     1     114.617 123.426 120.149  1.00  0.00     0.000 C 
BRANCH   7   8
ATOM      8  C   UNL     1     114.007 123.498 121.558  1.00  0.00     0.006 C 
BRANCH   8   9
ATOM      9  C   UNL     1     114.388 124.807 122.256  1.00  0.00     0.053 C 
BRANCH   9  10
ATOM     10  C   UNL     1     115.027 124.529 123.581  1.00  0.00     0.041 C 
ATOM     11  O   UNL     1     114.316 124.222 124.575  1.00  0.00    -0.550 OA
ATOM     12  O   UNL     1     116.402 124.664 123.732  1.00  0.00    -0.550 OA
ENDBRANCH   9  10
ENDBRANCH   8   9
ENDBRANCH   7   8
ENDBRANCH   6   7
ENDBRANCH   5   6
ENDBRANCH   4   5
ENDBRANCH   3   4
ENDBRANCH   1   3
BRANCH   2  13
ATOM     13  C   UNL     1     115.501 120.889 124.220  1.00  0.00     0.027 C 
BRANCH  13  14
ATOM     14  C   UNL     1     115.078 119.684 125.073  1.00  0.00     0.004 C 
BRANCH  14  15
ATOM     15  C   UNL     1     113.577 119.714 125.413  1.00  0.00     0.000 C 
BRANCH  15  16
ATOM     16  C   UNL     1     112.820 120.804 124.640  1.00  0.00     0.000 C 
BRANCH  16  17
ATOM     17  C   UNL     1     111.614 120.253 123.860  1.00  0.00    -0.000 C 
BRANCH  17  18
ATOM     18  C   UNL     1     112.021 119.289 122.733  1.00  0.00    -0.000 C 
BRANCH  18  19
ATOM     19  C   UNL     1     112.679 119.991 121.526  1.00  0.00    -0.003 C 
ATOM     20  C   UNL     1     111.677 120.793 120.697  1.00  0.00     0.004 C 
ENDBRANCH  18  19
ENDBRANCH  17  18
ENDBRANCH  16  17
ENDBRANCH  15  16
ENDBRANCH  14  15
ENDBRANCH  13  14
ENDBRANCH   2  13
TORSDOF 15
ENDMDL
