MODEL 1
REMARK VINA RESULT:    28.024      0.000      0.000
REMARK INTER + INTRA:          32.626
REMARK INTER:                  32.939
REMARK INTRA:                  -0.313
REMARK UNBOUND:                -0.313
REMARK SMILES O=c1cc(-c2ccc(O)c(O)c2)oc2cc(O)cc(O)c12
REMARK SMILES IDX 4 1 3 2 2 3 1 4 21 5 19 6 18 7 16 8 15 9 14 10 13 11 5 12
REMARK SMILES IDX 6 13 7 14 8 15 12 16 10 17 9 18 11 20 20 22 17 24
REMARK H PARENT 9 19 11 21 20 23 17 25
REMARK Flexibility Score: inf
ROOT
ATOM      1  C   UNL     1       1.226  -3.169   5.132  1.00  0.00     0.138 A 
ATOM      2  C   UNL     1       2.075  -3.188   4.016  1.00  0.00     0.100 A 
ATOM      3  C   UNL     1       3.116  -4.114   3.956  1.00  0.00     0.197 A 
ATOM      4  O   UNL     1       3.898  -4.065   2.972  1.00  0.00    -0.289 OA
ATOM      5  C   UNL     1       3.288  -5.048   5.007  1.00  0.00     0.107 A 
ATOM      6  C   UNL     1       4.290  -6.063   5.034  1.00  0.00     0.134 A 
ATOM      7  C   UNL     1       4.438  -6.855   6.180  1.00  0.00     0.093 A 
ATOM      8  C   UNL     1       3.584  -6.710   7.272  1.00  0.00     0.123 A 
ATOM      9  C   UNL     1       2.567  -5.754   7.235  1.00  0.00     0.094 A 
ATOM     10  C   UNL     1       2.415  -4.926   6.121  1.00  0.00     0.146 A 
ATOM     11  O   UNL     1       1.443  -4.020   6.130  1.00  0.00    -0.456 OA
ENDROOT
BRANCH   1  12
ATOM     12  C   UNL     1       0.102  -2.205   5.247  1.00  0.00     0.021 A 
ATOM     13  C   UNL     1      -0.388  -1.573   4.091  1.00  0.00     0.016 A 
ATOM     14  C   UNL     1      -1.440  -0.658   4.174  1.00  0.00     0.051 A 
ATOM     15  C   UNL     1      -2.015  -0.351   5.410  1.00  0.00     0.157 A 
ATOM     16  C   UNL     1      -0.472  -1.883   6.493  1.00  0.00     0.062 A 
ATOM     17  C   UNL     1      -1.528  -0.963   6.577  1.00  0.00     0.158 A 
BRANCH  15  18
ATOM     18  O   UNL     1      -3.065   0.566   5.460  1.00  0.00    -0.504 OA
ATOM     19  H   UNL     1      -3.005   1.477   5.022  1.00  0.00     0.293 HD
ENDBRANCH  15  18
BRANCH  17  20
ATOM     20  O   UNL     1      -2.090  -0.652   7.814  1.00  0.00    -0.504 OA
ATOM     21  H   UNL     1      -2.468   0.267   8.011  1.00  0.00     0.293 HD
ENDBRANCH  17  20
ENDBRANCH   1  12
BRANCH   6  22
ATOM     22  O   UNL     1       5.140  -6.351   3.962  1.00  0.00    -0.507 OA
ATOM     23  H   UNL     1       5.176  -5.831   3.100  1.00  0.00     0.293 HD
ENDBRANCH   6  22
BRANCH   8  24
ATOM     24  O   UNL     1       3.751  -7.525   8.389  1.00  0.00    -0.508 OA
ATOM     25  H   UNL     1       4.388  -7.276   9.138  1.00  0.00     0.293 HD
ENDBRANCH   8  24
TORSDOF 5
ENDMDL
MODEL 2
REMARK VINA RESULT:    28.703     11.899     14.624
REMARK INTER + INTRA:          33.425
REMARK INTER:                  33.709
REMARK INTRA:                  -0.285
REMARK UNBOUND:                -0.313
REMARK SMILES O=c1cc(-c2ccc(O)c(O)c2)oc2cc(O)cc(O)c12
REMARK SMILES IDX 4 1 3 2 2 3 1 4 21 5 19 6 18 7 16 8 15 9 14 10 13 11 5 12
REMARK SMILES IDX 6 13 7 14 8 15 12 16 10 17 9 18 11 20 20 22 17 24
REMARK H PARENT 9 19 11 21 20 23 17 25
REMARK Flexibility Score: inf
ROOT
ATOM      1  C   UNL     1       3.148   5.165  14.589  1.00  0.00     0.138 A 
ATOM      2  C   UNL     1       2.059   5.752  13.929  1.00  0.00     0.100 A 
ATOM      3  C   UNL     1       2.001   7.138  13.789  1.00  0.00     0.197 A 
ATOM      4  O   UNL     1       0.981   7.639  13.248  1.00  0.00    -0.289 OA
ATOM      5  C   UNL     1       3.057   7.940  14.287  1.00  0.00     0.107 A 
ATOM      6  C   UNL     1       3.125   9.360  14.166  1.00  0.00     0.134 A 
ATOM      7  C   UNL     1       4.160  10.058  14.799  1.00  0.00     0.093 A 
ATOM      8  C   UNL     1       5.162   9.384  15.496  1.00  0.00     0.123 A 
ATOM      9  C   UNL     1       5.135   7.990  15.576  1.00  0.00     0.094 A 
ATOM     10  C   UNL     1       4.096   7.269  14.984  1.00  0.00     0.146 A 
ATOM     11  O   UNL     1       4.099   5.945  15.094  1.00  0.00    -0.456 OA
ENDROOT
BRANCH   1  12
ATOM     12  C   UNL     1       3.261   3.695  14.764  1.00  0.00     0.021 A 
ATOM     13  C   UNL     1       3.835   3.181  15.939  1.00  0.00     0.016 A 
ATOM     14  C   UNL     1       3.959   1.802  16.124  1.00  0.00     0.051 A 
ATOM     15  C   UNL     1       3.521   0.914  15.138  1.00  0.00     0.157 A 
ATOM     16  C   UNL     1       2.833   2.796  13.767  1.00  0.00     0.062 A 
ATOM     17  C   UNL     1       2.958   1.411  13.952  1.00  0.00     0.158 A 
BRANCH  15  18
ATOM     18  O   UNL     1       3.657  -0.458  15.353  1.00  0.00    -0.504 OA
ATOM     19  H   UNL     1       3.566  -0.869  16.275  1.00  0.00     0.293 HD
ENDBRANCH  15  18
BRANCH  17  20
ATOM     20  O   UNL     1       2.530   0.531  12.960  1.00  0.00    -0.504 OA
ATOM     21  H   UNL     1       2.635  -0.473  13.058  1.00  0.00     0.293 HD
ENDBRANCH  17  20
ENDBRANCH   1  12
BRANCH   6  22
ATOM     22  O   UNL     1       2.223  10.125  13.420  1.00  0.00    -0.507 OA
ATOM     23  H   UNL     1       2.365  11.087  13.154  1.00  0.00     0.293 HD
ENDBRANCH   6  22
BRANCH   8  24
ATOM     24  O   UNL     1       6.186  10.109  16.102  1.00  0.00    -0.508 OA
ATOM     25  H   UNL     1       7.118   9.725  16.207  1.00  0.00     0.293 HD
ENDBRANCH   8  24
TORSDOF 5
ENDMDL
MODEL 3
REMARK VINA RESULT:    28.828      2.190      7.222
REMARK INTER + INTRA:          33.571
REMARK INTER:                  33.879
REMARK INTRA:                  -0.308
REMARK UNBOUND:                -0.313
REMARK SMILES O=c1cc(-c2ccc(O)c(O)c2)oc2cc(O)cc(O)c12
REMARK SMILES IDX 4 1 3 2 2 3 1 4 21 5 19 6 18 7 16 8 15 9 14 10 13 11 5 12
REMARK SMILES IDX 6 13 7 14 8 15 12 16 10 17 9 18 11 20 20 22 17 24
REMARK H PARENT 9 19 11 21 20 23 17 25
REMARK Flexibility Score: inf
ROOT
ATOM      1  C   UNL     1      -0.685  -2.303   5.698  1.00  0.00     0.138 A 
ATOM      2  C   UNL     1      -1.068  -1.126   5.040  1.00  0.00     0.100 A 
ATOM      3  C   UNL     1      -2.306  -0.549   5.322  1.00  0.00     0.197 A 
ATOM      4  O   UNL     1      -2.649   0.471   4.670  1.00  0.00    -0.289 OA
ATOM      5  C   UNL     1      -3.152  -1.138   6.293  1.00  0.00     0.107 A 
ATOM      6  C   UNL     1      -4.418  -0.615   6.691  1.00  0.00     0.134 A 
ATOM      7  C   UNL     1      -5.219  -1.347   7.577  1.00  0.00     0.093 A 
ATOM      8  C   UNL     1      -4.775  -2.550   8.124  1.00  0.00     0.123 A 
ATOM      9  C   UNL     1      -3.515  -3.044   7.782  1.00  0.00     0.094 A 
ATOM     10  C   UNL     1      -2.707  -2.355   6.875  1.00  0.00     0.146 A 
ATOM     11  O   UNL     1      -1.520  -2.865   6.565  1.00  0.00    -0.456 OA
ENDROOT
BRANCH   1  12
ATOM     12  C   UNL     1       0.622  -2.958   5.437  1.00  0.00     0.021 A 
ATOM     13  C   UNL     1       1.241  -2.791   4.187  1.00  0.00     0.016 A 
ATOM     14  C   UNL     1       2.468  -3.403   3.914  1.00  0.00     0.051 A 
ATOM     15  C   UNL     1       3.091  -4.198   4.880  1.00  0.00     0.157 A 
ATOM     16  C   UNL     1       1.248  -3.770   6.403  1.00  0.00     0.062 A 
ATOM     17  C   UNL     1       2.479  -4.386   6.129  1.00  0.00     0.158 A 
BRANCH  15  18
ATOM     18  O   UNL     1       4.316  -4.794   4.579  1.00  0.00    -0.504 OA
ATOM     19  H   UNL     1       5.177  -4.262   4.537  1.00  0.00     0.293 HD
ENDBRANCH  15  18
BRANCH  17  20
ATOM     20  O   UNL     1       3.091  -5.186   7.092  1.00  0.00    -0.504 OA
ATOM     21  H   UNL     1       4.043  -5.018   7.397  1.00  0.00     0.293 HD
ENDBRANCH  17  20
ENDBRANCH   1  12
BRANCH   6  22
ATOM     22  O   UNL     1      -4.921   0.620   6.271  1.00  0.00    -0.507 OA
ATOM     23  H   UNL     1      -4.357   1.406   5.991  1.00  0.00     0.293 HD
ENDBRANCH   6  22
BRANCH   8  24
ATOM     24  O   UNL     1      -5.592  -3.244   9.013  1.00  0.00    -0.508 OA
ATOM     25  H   UNL     1      -5.683  -2.962   9.983  1.00  0.00     0.293 HD
ENDBRANCH   8  24
TORSDOF 5
ENDMDL
MODEL 4
REMARK VINA RESULT:    28.848     11.853     14.719
REMARK INTER + INTRA:          33.594
REMARK INTER:                  33.899
REMARK INTRA:                  -0.305
REMARK UNBOUND:                -0.313
REMARK SMILES O=c1cc(-c2ccc(O)c(O)c2)oc2cc(O)cc(O)c12
REMARK SMILES IDX 4 1 3 2 2 3 1 4 21 5 19 6 18 7 16 8 15 9 14 10 13 11 5 12
REMARK SMILES IDX 6 13 7 14 8 15 12 16 10 17 9 18 11 20 20 22 17 24
REMARK H PARENT 9 19 11 21 20 23 17 25
REMARK Flexibility Score: inf
ROOT
ATOM      1  C   UNL     1       3.613   5.065  15.065  1.00  0.00     0.138 A 
ATOM      2  C   UNL     1       4.707   5.722  15.645  1.00  0.00     0.100 A 
ATOM      3  C   UNL     1       4.764   7.116  15.629  1.00  0.00     0.197 A 
ATOM      4  O   UNL     1       5.788   7.675  16.100  1.00  0.00    -0.289 OA
ATOM      5  C   UNL     1       3.702   7.856  15.055  1.00  0.00     0.107 A 
ATOM      6  C   UNL     1       3.633   9.281  15.018  1.00  0.00     0.134 A 
ATOM      7  C   UNL     1       2.589   9.903  14.321  1.00  0.00     0.093 A 
ATOM      8  C   UNL     1       1.582   9.155  13.713  1.00  0.00     0.123 A 
ATOM      9  C   UNL     1       1.611   7.761  13.789  1.00  0.00     0.094 A 
ATOM     10  C   UNL     1       2.657   7.111  14.447  1.00  0.00     0.146 A 
ATOM     11  O   UNL     1       2.656   5.783  14.485  1.00  0.00    -0.456 OA
ENDROOT
BRANCH   1  12
ATOM     12  C   UNL     1       3.501   3.584  15.056  1.00  0.00     0.021 A 
ATOM     13  C   UNL     1       4.055   2.843  16.113  1.00  0.00     0.016 A 
ATOM     14  C   UNL     1       3.969   1.449  16.125  1.00  0.00     0.051 A 
ATOM     15  C   UNL     1       3.339   0.771  15.078  1.00  0.00     0.157 A 
ATOM     16  C   UNL     1       2.878   2.896  13.997  1.00  0.00     0.062 A 
ATOM     17  C   UNL     1       2.792   1.496  14.007  1.00  0.00     0.158 A 
BRANCH  15  18
ATOM     18  O   UNL     1       3.268  -0.621  15.118  1.00  0.00    -0.504 OA
ATOM     19  H   UNL     1       4.056  -1.193  15.399  1.00  0.00     0.293 HD
ENDBRANCH  15  18
BRANCH  17  20
ATOM     20  O   UNL     1       2.172   0.825  12.954  1.00  0.00    -0.504 OA
ATOM     21  H   UNL     1       2.014  -0.176  12.982  1.00  0.00     0.293 HD
ENDBRANCH  17  20
ENDBRANCH   1  12
BRANCH   6  22
ATOM     22  O   UNL     1       4.540  10.125  15.665  1.00  0.00    -0.507 OA
ATOM     23  H   UNL     1       5.542  10.083  15.559  1.00  0.00     0.293 HD
ENDBRANCH   6  22
BRANCH   8  24
ATOM     24  O   UNL     1       0.551   9.807  13.041  1.00  0.00    -0.508 OA
ATOM     25  H   UNL     1      -0.387   9.424  13.006  1.00  0.00     0.293 HD
ENDBRANCH   8  24
TORSDOF 5
ENDMDL
MODEL 5
REMARK VINA RESULT:    30.720      2.507      7.962
REMARK INTER + INTRA:          35.795
REMARK INTER:                  36.092
REMARK INTRA:                  -0.297
REMARK UNBOUND:                -0.313
REMARK SMILES O=c1cc(-c2ccc(O)c(O)c2)oc2cc(O)cc(O)c12
REMARK SMILES IDX 4 1 3 2 2 3 1 4 21 5 19 6 18 7 16 8 15 9 14 10 13 11 5 12
REMARK SMILES IDX 6 13 7 14 8 15 12 16 10 17 9 18 11 20 20 22 17 24
REMARK H PARENT 9 19 11 21 20 23 17 25
REMARK Flexibility Score: inf
ROOT
ATOM      1  C   UNL     1      -1.471  -2.534   6.318  1.00  0.00     0.138 A 
ATOM      2  C   UNL     1      -1.967  -3.100   7.501  1.00  0.00     0.100 A 
ATOM      3  C   UNL     1      -3.251  -2.772   7.938  1.00  0.00     0.197 A 
ATOM      4  O   UNL     1      -3.644  -3.247   9.035  1.00  0.00    -0.289 OA
ATOM      5  C   UNL     1      -4.053  -1.896   7.169  1.00  0.00     0.107 A 
ATOM      6  C   UNL     1      -5.391  -1.522   7.496  1.00  0.00     0.134 A 
ATOM      7  C   UNL     1      -6.047  -0.557   6.721  1.00  0.00     0.093 A 
ATOM      8  C   UNL     1      -5.437   0.002   5.600  1.00  0.00     0.123 A 
ATOM      9  C   UNL     1      -4.148  -0.395   5.240  1.00  0.00     0.094 A 
ATOM     10  C   UNL     1      -3.455  -1.330   6.011  1.00  0.00     0.146 A 
ATOM     11  O   UNL     1      -2.225  -1.672   5.643  1.00  0.00    -0.456 OA
ENDROOT
BRANCH   1  12
ATOM     12  C   UNL     1      -0.114  -2.849   5.806  1.00  0.00     0.021 A 
ATOM     13  C   UNL     1       0.302  -2.316   4.575  1.00  0.00     0.016 A 
ATOM     14  C   UNL     1       1.572  -2.603   4.068  1.00  0.00     0.051 A 
ATOM     15  C   UNL     1       2.444  -3.434   4.776  1.00  0.00     0.157 A 
ATOM     16  C   UNL     1       0.764  -3.696   6.511  1.00  0.00     0.062 A 
ATOM     17  C   UNL     1       2.040  -3.986   6.002  1.00  0.00     0.158 A 
BRANCH  15  18
ATOM     18  O   UNL     1       3.706  -3.701   4.245  1.00  0.00    -0.504 OA
ATOM     19  H   UNL     1       3.909  -3.590   3.258  1.00  0.00     0.293 HD
ENDBRANCH  15  18
BRANCH  17  20
ATOM     20  O   UNL     1       2.901  -4.824   6.707  1.00  0.00    -0.504 OA
ATOM     21  H   UNL     1       3.262  -4.570   7.620  1.00  0.00     0.293 HD
ENDBRANCH  17  20
ENDBRANCH   1  12
BRANCH   6  22
ATOM     22  O   UNL     1      -6.125  -2.084   8.545  1.00  0.00    -0.507 OA
ATOM     23  H   UNL     1      -5.780  -2.789   9.177  1.00  0.00     0.293 HD
ENDBRANCH   6  22
BRANCH   8  24
ATOM     24  O   UNL     1      -6.125   0.949   4.843  1.00  0.00    -0.508 OA
ATOM     25  H   UNL     1      -5.898   1.117   3.870  1.00  0.00     0.293 HD
ENDBRANCH   8  24
TORSDOF 5
ENDMDL
MODEL 6
REMARK VINA RESULT:    30.734     13.559     14.520
REMARK INTER + INTRA:          35.811
REMARK INTER:                  36.113
REMARK INTRA:                  -0.302
REMARK UNBOUND:                -0.313
REMARK SMILES O=c1cc(-c2ccc(O)c(O)c2)oc2cc(O)cc(O)c12
REMARK SMILES IDX 4 1 3 2 2 3 1 4 21 5 19 6 18 7 16 8 15 9 14 10 13 11 5 12
REMARK SMILES IDX 6 13 7 14 8 15 12 16 10 17 9 18 11 20 20 22 17 24
REMARK H PARENT 9 19 11 21 20 23 17 25
REMARK Flexibility Score: inf
ROOT
ATOM      1  C   UNL     1       4.262   7.655  14.127  1.00  0.00     0.138 A 
ATOM      2  C   UNL     1       4.803   6.985  15.233  1.00  0.00     0.100 A 
ATOM      3  C   UNL     1       6.066   6.400  15.136  1.00  0.00     0.197 A 
ATOM      4  O   UNL     1       6.497   5.752  16.125  1.00  0.00    -0.289 OA
ATOM      5  C   UNL     1       6.803   6.514  13.933  1.00  0.00     0.107 A 
ATOM      6  C   UNL     1       8.116   5.991  13.733  1.00  0.00     0.134 A 
ATOM      7  C   UNL     1       8.700   6.063  12.463  1.00  0.00     0.093 A 
ATOM      8  C   UNL     1       8.047   6.690  11.403  1.00  0.00     0.123 A 
ATOM      9  C   UNL     1       6.784   7.252  11.602  1.00  0.00     0.094 A 
ATOM     10  C   UNL     1       6.160   7.166  12.848  1.00  0.00     0.146 A 
ATOM     11  O   UNL     1       4.953   7.701  12.992  1.00  0.00    -0.456 OA
ENDROOT
BRANCH   1  12
ATOM     12  C   UNL     1       2.924   8.298  14.176  1.00  0.00     0.021 A 
ATOM     13  C   UNL     1       2.486   8.891  15.372  1.00  0.00     0.016 A 
ATOM     14  C   UNL     1       1.229   9.496  15.446  1.00  0.00     0.051 A 
ATOM     15  C   UNL     1       0.385   9.511  14.332  1.00  0.00     0.157 A 
ATOM     16  C   UNL     1       2.066   8.304  13.060  1.00  0.00     0.062 A 
ATOM     17  C   UNL     1       0.802   8.910  13.133  1.00  0.00     0.158 A 
BRANCH  15  18
ATOM     18  O   UNL     1      -0.864  10.124  14.436  1.00  0.00    -0.504 OA
ATOM     19  H   UNL     1      -1.727   9.617  14.277  1.00  0.00     0.293 HD
ENDBRANCH  15  18
BRANCH  17  20
ATOM     20  O   UNL     1      -0.039   8.911  12.022  1.00  0.00    -0.504 OA
ATOM     21  H   UNL     1       0.202   9.409  11.173  1.00  0.00     0.293 HD
ENDBRANCH  17  20
ENDBRANCH   1  12
BRANCH   6  22
ATOM     22  O   UNL     1       8.893   5.420  14.746  1.00  0.00    -0.507 OA
ATOM     23  H   UNL     1       9.293   4.496  14.713  1.00  0.00     0.293 HD
ENDBRANCH   6  22
BRANCH   8  24
ATOM     24  O   UNL     1       8.665   6.757  10.156  1.00  0.00    -0.508 OA
ATOM     25  H   UNL     1       9.517   6.245   9.957  1.00  0.00     0.293 HD
ENDBRANCH   8  24
TORSDOF 5
ENDMDL
