MODEL 1
REMARK VINA RESULT:     8.779      0.000      0.000
REMARK INTER + INTRA:          23.429
REMARK INTER:                  22.122
REMARK INTRA:                   1.307
REMARK UNBOUND:                 1.307
REMARK SMILES CCCCCCCCCCCCCCCCCCCCCCCCCCCC(=O)[O-]
REMARK SMILES IDX 15 1 16 2 17 3 18 4 19 5 20 6 21 7 22 8 23 9 24 10 25 11
REMARK SMILES IDX 26 12 27 13 28 14 29 15 30 16 14 17 13 18 12 19 11 20 10 21
REMARK SMILES IDX 9 22 8 23 7 24 6 25 5 26 4 27 3 28 2 29 1 30
REMARK H PARENT
REMARK Flexibility Score: inf
ROOT
ATOM      1  C   UNL     1      35.783 107.562 266.138  1.00  0.00     0.000 C 
ENDROOT
BRANCH   1   2
ATOM      2  C   UNL     1      34.945 106.982 264.985  1.00  0.00     0.000 C 
BRANCH   2   3
ATOM      3  C   UNL     1      35.026 105.447 264.903  1.00  0.00     0.000 C 
BRANCH   3   4
ATOM      4  C   UNL     1      35.130 104.877 263.478  1.00  0.00     0.000 C 
BRANCH   4   5
ATOM      5  C   UNL     1      35.804 105.853 262.497  1.00  0.00     0.000 C 
BRANCH   5   6
ATOM      6  C   UNL     1      35.931 105.271 261.080  1.00  0.00     0.000 C 
BRANCH   6   7
ATOM      7  C   UNL     1      36.481 106.292 260.071  1.00  0.00     0.000 C 
BRANCH   7   8
ATOM      8  C   UNL     1      35.965 105.999 258.659  1.00  0.00     0.000 C 
BRANCH   8   9
ATOM      9  C   UNL     1      36.929 105.073 257.899  1.00  0.00     0.000 C 
BRANCH   9  10
ATOM     10  C   UNL     1      38.375 105.189 258.407  1.00  0.00     0.000 C 
BRANCH  10  11
ATOM     11  C   UNL     1      38.659 104.236 259.580  1.00  0.00     0.000 C 
BRANCH  11  12
ATOM     12  C   UNL     1      39.441 104.916 260.717  1.00  0.00     0.006 C 
BRANCH  12  13
ATOM     13  C   UNL     1      38.709 106.114 261.350  1.00  0.00     0.053 C 
BRANCH  13  14
ATOM     14  C   UNL     1      39.505 106.760 262.444  1.00  0.00     0.041 C 
ATOM     15  O   UNL     1      39.776 107.987 262.379  1.00  0.00    -0.550 OA
ATOM     16  O   UNL     1      39.845 106.040 263.584  1.00  0.00    -0.550 OA
ENDBRANCH  13  14
ENDBRANCH  12  13
ENDBRANCH  11  12
ENDBRANCH  10  11
ENDBRANCH   9  10
ENDBRANCH   8   9
ENDBRANCH   7   8
ENDBRANCH   6   7
ENDBRANCH   5   6
ENDBRANCH   4   5
ENDBRANCH   3   4
ENDBRANCH   2   3
ENDBRANCH   1   2
BRANCH   1  17
ATOM     17  C   UNL     1      34.924 108.295 267.181  1.00  0.00     0.000 C 
BRANCH  17  18
ATOM     18  C   UNL     1      34.875 107.554 268.526  1.00  0.00     0.000 C 
BRANCH  18  19
ATOM     19  C   UNL     1      35.467 106.142 268.398  1.00  0.00     0.000 C 
BRANCH  19  20
ATOM     20  C   UNL     1      35.996 105.611 269.740  1.00  0.00     0.000 C 
BRANCH  20  21
ATOM     21  C   UNL     1      36.959 106.595 270.424  1.00  0.00     0.000 C 
BRANCH  21  22
ATOM     22  C   UNL     1      38.304 105.931 270.790  1.00  0.00    -0.000 C 
BRANCH  22  23
ATOM     23  C   UNL     1      38.298 105.241 272.167  1.00  0.00    -0.000 C 
BRANCH  23  24
ATOM     24  C   UNL     1      38.214 103.696 272.128  1.00  0.00    -0.000 C 
BRANCH  24  25
ATOM     25  C   UNL     1      38.595 102.995 273.444  1.00  0.00    -0.000 C 
BRANCH  25  26
ATOM     26  C   UNL     1      40.112 102.740 273.596  1.00  0.00    -0.000 C 
BRANCH  26  27
ATOM     27  C   UNL     1      40.394 101.282 273.979  1.00  0.00    -0.000 C 
BRANCH  27  28
ATOM     28  C   UNL     1      41.792 100.833 273.520  1.00  0.00    -0.000 C 
BRANCH  28  29
ATOM     29  C   UNL     1      42.263  99.570 274.256  1.00  0.00    -0.003 C 
ATOM     30  C   UNL     1      43.037  98.609 273.354  1.00  0.00     0.004 C 
ENDBRANCH  28  29
ENDBRANCH  27  28
ENDBRANCH  26  27
ENDBRANCH  25  26
ENDBRANCH  24  25
ENDBRANCH  23  24
ENDBRANCH  22  23
ENDBRANCH  21  22
ENDBRANCH  20  21
ENDBRANCH  19  20
ENDBRANCH  18  19
ENDBRANCH  17  18
ENDBRANCH   1  17
TORSDOF 26
ENDMDL
MODEL 2
REMARK VINA RESULT:     9.809      3.908     12.508
REMARK INTER + INTRA:          26.025
REMARK INTER:                  27.211
REMARK INTRA:                  -1.187
REMARK UNBOUND:                 1.307
REMARK SMILES CCCCCCCCCCCCCCCCCCCCCCCCCCCC(=O)[O-]
REMARK SMILES IDX 15 1 16 2 17 3 18 4 19 5 20 6 21 7 22 8 23 9 24 10 25 11
REMARK SMILES IDX 26 12 27 13 28 14 29 15 30 16 14 17 13 18 12 19 11 20 10 21
REMARK SMILES IDX 9 22 8 23 7 24 6 25 5 26 4 27 3 28 2 29 1 30
REMARK H PARENT
REMARK Flexibility Score: inf
ROOT
ATOM      1  C   UNL     1      36.069 105.919 269.788  1.00  0.00     0.000 C 
ENDROOT
BRANCH   1   2
ATOM      2  C   UNL     1      37.413 106.570 270.162  1.00  0.00     0.000 C 
BRANCH   2   3
ATOM      3  C   UNL     1      38.110 105.863 271.338  1.00  0.00     0.000 C 
BRANCH   3   4
ATOM      4  C   UNL     1      37.615 104.433 271.621  1.00  0.00     0.000 C 
BRANCH   4   5
ATOM      5  C   UNL     1      38.701 103.544 272.253  1.00  0.00     0.000 C 
BRANCH   5   6
ATOM      6  C   UNL     1      38.717 103.633 273.787  1.00  0.00     0.000 C 
BRANCH   6   7
ATOM      7  C   UNL     1      39.457 102.453 274.438  1.00  0.00     0.000 C 
BRANCH   7   8
ATOM      8  C   UNL     1      39.961 101.470 273.377  1.00  0.00     0.000 C 
BRANCH   8   9
ATOM      9  C   UNL     1      41.494 101.351 273.418  1.00  0.00     0.000 C 
BRANCH   9  10
ATOM     10  C   UNL     1      41.965 100.130 274.223  1.00  0.00     0.000 C 
BRANCH  10  11
ATOM     11  C   UNL     1      43.438  99.783 273.948  1.00  0.00     0.000 C 
BRANCH  11  12
ATOM     12  C   UNL     1      43.680  98.267 273.856  1.00  0.00     0.006 C 
BRANCH  12  13
ATOM     13  C   UNL     1      42.672  97.526 272.958  1.00  0.00     0.053 C 
BRANCH  13  14
ATOM     14  C   UNL     1      43.326  96.484 272.100  1.00  0.00     0.041 C 
ATOM     15  O   UNL     1      44.581  96.434 272.024  1.00  0.00    -0.550 OA
ATOM     16  O   UNL     1      42.559  95.502 271.483  1.00  0.00    -0.550 OA
ENDBRANCH  13  14
ENDBRANCH  12  13
ENDBRANCH  11  12
ENDBRANCH  10  11
ENDBRANCH   9  10
ENDBRANCH   8   9
ENDBRANCH   7   8
ENDBRANCH   6   7
ENDBRANCH   5   6
ENDBRANCH   4   5
ENDBRANCH   3   4
ENDBRANCH   2   3
ENDBRANCH   1   2
BRANCH   1  17
ATOM     17  C   UNL     1      34.909 106.927 269.775  1.00  0.00     0.000 C 
BRANCH  17  18
ATOM     18  C   UNL     1      34.875 107.766 268.488  1.00  0.00     0.000 C 
BRANCH  18  19
ATOM     19  C   UNL     1      35.699 107.100 267.375  1.00  0.00     0.000 C 
BRANCH  19  20
ATOM     20  C   UNL     1      35.017 107.214 266.002  1.00  0.00     0.000 C 
BRANCH  20  21
ATOM     21  C   UNL     1      35.544 106.179 264.995  1.00  0.00     0.000 C 
BRANCH  21  22
ATOM     22  C   UNL     1      35.048 106.460 263.560  1.00  0.00    -0.000 C 
BRANCH  22  23
ATOM     23  C   UNL     1      35.984 105.914 262.465  1.00  0.00    -0.000 C 
BRANCH  23  24
ATOM     24  C   UNL     1      37.398 106.542 262.435  1.00  0.00    -0.000 C 
BRANCH  24  25
ATOM     25  C   UNL     1      38.261 106.133 261.228  1.00  0.00    -0.000 C 
BRANCH  25  26
ATOM     26  C   UNL     1      38.078 104.658 260.805  1.00  0.00    -0.000 C 
BRANCH  26  27
ATOM     27  C   UNL     1      36.999 104.522 259.722  1.00  0.00    -0.000 C 
BRANCH  27  28
ATOM     28  C   UNL     1      37.366 105.308 258.451  1.00  0.00    -0.000 C 
BRANCH  28  29
ATOM     29  C   UNL     1      36.163 106.070 257.877  1.00  0.00    -0.003 C 
ATOM     30  C   UNL     1      35.845 107.351 258.648  1.00  0.00     0.004 C 
ENDBRANCH  28  29
ENDBRANCH  27  28
ENDBRANCH  26  27
ENDBRANCH  25  26
ENDBRANCH  24  25
ENDBRANCH  23  24
ENDBRANCH  22  23
ENDBRANCH  21  22
ENDBRANCH  20  21
ENDBRANCH  19  20
ENDBRANCH  18  19
ENDBRANCH  17  18
ENDBRANCH   1  17
TORSDOF 26
ENDMDL
MODEL 3
REMARK VINA RESULT:     9.834      2.650      3.327
REMARK INTER + INTRA:          26.088
REMARK INTER:                  25.170
REMARK INTRA:                   0.919
REMARK UNBOUND:                 1.307
REMARK SMILES CCCCCCCCCCCCCCCCCCCCCCCCCCCC(=O)[O-]
REMARK SMILES IDX 15 1 16 2 17 3 18 4 19 5 20 6 21 7 22 8 23 9 24 10 25 11
REMARK SMILES IDX 26 12 27 13 28 14 29 15 30 16 14 17 13 18 12 19 11 20 10 21
REMARK SMILES IDX 9 22 8 23 7 24 6 25 5 26 4 27 3 28 2 29 1 30
REMARK H PARENT
REMARK Flexibility Score: inf
ROOT
ATOM      1  C   UNL     1      35.793 107.604 266.235  1.00  0.00     0.000 C 
ENDROOT
BRANCH   1   2
ATOM      2  C   UNL     1      34.974 107.060 265.051  1.00  0.00     0.000 C 
BRANCH   2   3
ATOM      3  C   UNL     1      34.960 105.522 264.994  1.00  0.00     0.000 C 
BRANCH   3   4
ATOM      4  C   UNL     1      35.092 104.923 263.583  1.00  0.00     0.000 C 
BRANCH   4   5
ATOM      5  C   UNL     1      35.826 105.861 262.607  1.00  0.00     0.000 C 
BRANCH   5   6
ATOM      6  C   UNL     1      35.923 105.277 261.188  1.00  0.00     0.000 C 
BRANCH   6   7
ATOM      7  C   UNL     1      36.580 106.249 260.196  1.00  0.00     0.000 C 
BRANCH   7   8
ATOM      8  C   UNL     1      36.042 106.033 258.779  1.00  0.00     0.000 C 
BRANCH   8   9
ATOM      9  C   UNL     1      36.804 104.905 258.063  1.00  0.00     0.000 C 
BRANCH   9  10
ATOM     10  C   UNL     1      38.297 104.887 258.425  1.00  0.00     0.000 C 
BRANCH  10  11
ATOM     11  C   UNL     1      38.572 104.124 259.733  1.00  0.00     0.000 C 
BRANCH  11  12
ATOM     12  C   UNL     1      39.507 104.894 260.680  1.00  0.00     0.006 C 
BRANCH  12  13
ATOM     13  C   UNL     1      38.978 106.281 261.089  1.00  0.00     0.053 C 
BRANCH  13  14
ATOM     14  C   UNL     1      39.341 106.640 262.500  1.00  0.00     0.041 C 
ATOM     15  O   UNL     1      40.121 105.900 263.153  1.00  0.00    -0.550 OA
ATOM     16  O   UNL     1      38.915 107.845 263.048  1.00  0.00    -0.550 OA
ENDBRANCH  13  14
ENDBRANCH  12  13
ENDBRANCH  11  12
ENDBRANCH  10  11
ENDBRANCH   9  10
ENDBRANCH   8   9
ENDBRANCH   7   8
ENDBRANCH   6   7
ENDBRANCH   5   6
ENDBRANCH   4   5
ENDBRANCH   3   4
ENDBRANCH   2   3
ENDBRANCH   1   2
BRANCH   1  17
ATOM     17  C   UNL     1      34.919 108.322 267.276  1.00  0.00     0.000 C 
BRANCH  17  18
ATOM     18  C   UNL     1      34.875 107.579 268.620  1.00  0.00     0.000 C 
BRANCH  18  19
ATOM     19  C   UNL     1      35.562 106.208 268.513  1.00  0.00     0.000 C 
BRANCH  19  20
ATOM     20  C   UNL     1      36.018 105.679 269.882  1.00  0.00     0.000 C 
BRANCH  20  21
ATOM     21  C   UNL     1      36.809 106.725 270.684  1.00  0.00     0.000 C 
BRANCH  21  22
ATOM     22  C   UNL     1      38.232 106.236 271.032  1.00  0.00    -0.000 C 
BRANCH  22  23
ATOM     23  C   UNL     1      39.292 106.621 269.983  1.00  0.00    -0.000 C 
BRANCH  23  24
ATOM     24  C   UNL     1      40.412 107.558 270.493  1.00  0.00    -0.000 C 
BRANCH  24  25
ATOM     25  C   UNL     1      41.811 107.263 269.922  1.00  0.00    -0.000 C 
BRANCH  25  26
ATOM     26  C   UNL     1      42.918 107.191 270.998  1.00  0.00    -0.000 C 
BRANCH  26  27
ATOM     27  C   UNL     1      44.309 107.364 270.375  1.00  0.00    -0.000 C 
BRANCH  27  28
ATOM     28  C   UNL     1      45.423 106.917 271.337  1.00  0.00    -0.000 C 
BRANCH  28  29
ATOM     29  C   UNL     1      45.283 105.442 271.737  1.00  0.00    -0.003 C 
ATOM     30  C   UNL     1      44.754 104.564 270.603  1.00  0.00     0.004 C 
ENDBRANCH  28  29
ENDBRANCH  27  28
ENDBRANCH  26  27
ENDBRANCH  25  26
ENDBRANCH  24  25
ENDBRANCH  23  24
ENDBRANCH  22  23
ENDBRANCH  21  22
ENDBRANCH  20  21
ENDBRANCH  19  20
ENDBRANCH  18  19
ENDBRANCH  17  18
ENDBRANCH   1  17
TORSDOF 26
ENDMDL
MODEL 4
REMARK VINA RESULT:     9.918      3.653     12.134
REMARK INTER + INTRA:          26.300
REMARK INTER:                  25.442
REMARK INTRA:                   0.859
REMARK UNBOUND:                 1.307
REMARK SMILES CCCCCCCCCCCCCCCCCCCCCCCCCCCC(=O)[O-]
REMARK SMILES IDX 15 1 16 2 17 3 18 4 19 5 20 6 21 7 22 8 23 9 24 10 25 11
REMARK SMILES IDX 26 12 27 13 28 14 29 15 30 16 14 17 13 18 12 19 11 20 10 21
REMARK SMILES IDX 9 22 8 23 7 24 6 25 5 26 4 27 3 28 2 29 1 30
REMARK H PARENT
REMARK Flexibility Score: inf
ROOT
ATOM      1  C   UNL     1      35.565 105.027 267.633  1.00  0.00     0.000 C 
ENDROOT
BRANCH   1   2
ATOM      2  C   UNL     1      34.990 106.388 267.198  1.00  0.00     0.000 C 
BRANCH   2   3
ATOM      3  C   UNL     1      35.298 107.512 268.204  1.00  0.00     0.000 C 
BRANCH   3   4
ATOM      4  C   UNL     1      34.959 107.183 269.669  1.00  0.00     0.000 C 
BRANCH   4   5
ATOM      5  C   UNL     1      36.213 106.933 270.526  1.00  0.00     0.000 C 
BRANCH   5   6
ATOM      6  C   UNL     1      36.837 105.552 270.270  1.00  0.00     0.000 C 
BRANCH   6   7
ATOM      7  C   UNL     1      38.094 105.307 271.118  1.00  0.00     0.000 C 
BRANCH   7   8
ATOM      8  C   UNL     1      37.995 103.980 271.876  1.00  0.00     0.000 C 
BRANCH   8   9
ATOM      9  C   UNL     1      38.644 104.086 273.265  1.00  0.00     0.000 C 
BRANCH   9  10
ATOM     10  C   UNL     1      38.819 102.715 273.937  1.00  0.00     0.000 C 
BRANCH  10  11
ATOM     11  C   UNL     1      39.875 101.849 273.230  1.00  0.00     0.000 C 
BRANCH  11  12
ATOM     12  C   UNL     1      41.025 101.439 274.166  1.00  0.00     0.006 C 
BRANCH  12  13
ATOM     13  C   UNL     1      41.549 100.011 273.924  1.00  0.00     0.053 C 
BRANCH  13  14
ATOM     14  C   UNL     1      43.047  99.945 273.903  1.00  0.00     0.041 C 
ATOM     15  O   UNL     1      43.722 100.906 274.355  1.00  0.00    -0.550 OA
ATOM     16  O   UNL     1      43.692  98.781 273.497  1.00  0.00    -0.550 OA
ENDBRANCH  13  14
ENDBRANCH  12  13
ENDBRANCH  11  12
ENDBRANCH  10  11
ENDBRANCH   9  10
ENDBRANCH   8   9
ENDBRANCH   7   8
ENDBRANCH   6   7
ENDBRANCH   5   6
ENDBRANCH   4   5
ENDBRANCH   3   4
ENDBRANCH   2   3
ENDBRANCH   1   2
BRANCH   1  17
ATOM     17  C   UNL     1      34.979 103.856 266.828  1.00  0.00     0.000 C 
BRANCH  17  18
ATOM     18  C   UNL     1      35.054 104.090 265.311  1.00  0.00     0.000 C 
BRANCH  18  19
ATOM     19  C   UNL     1      34.998 105.590 264.983  1.00  0.00     0.000 C 
BRANCH  19  20
ATOM     20  C   UNL     1      35.388 105.879 263.524  1.00  0.00     0.000 C 
BRANCH  20  21
ATOM     21  C   UNL     1      36.867 105.574 263.238  1.00  0.00     0.000 C 
BRANCH  21  22
ATOM     22  C   UNL     1      37.613 106.801 262.669  1.00  0.00    -0.000 C 
BRANCH  22  23
ATOM     23  C   UNL     1      38.557 106.462 261.500  1.00  0.00    -0.000 C 
BRANCH  23  24
ATOM     24  C   UNL     1      38.251 105.131 260.772  1.00  0.00    -0.000 C 
BRANCH  24  25
ATOM     25  C   UNL     1      36.837 105.033 260.173  1.00  0.00    -0.000 C 
BRANCH  25  26
ATOM     26  C   UNL     1      36.824 104.742 258.656  1.00  0.00    -0.000 C 
BRANCH  26  27
ATOM     27  C   UNL     1      36.139 105.874 257.880  1.00  0.00    -0.000 C 
BRANCH  27  28
ATOM     28  C   UNL     1      36.416 107.248 258.514  1.00  0.00    -0.000 C 
BRANCH  28  29
ATOM     29  C   UNL     1      35.410 108.311 258.051  1.00  0.00    -0.003 C 
ATOM     30  C   UNL     1      34.925 109.208 259.189  1.00  0.00     0.004 C 
ENDBRANCH  28  29
ENDBRANCH  27  28
ENDBRANCH  26  27
ENDBRANCH  25  26
ENDBRANCH  24  25
ENDBRANCH  23  24
ENDBRANCH  22  23
ENDBRANCH  21  22
ENDBRANCH  20  21
ENDBRANCH  19  20
ENDBRANCH  18  19
ENDBRANCH  17  18
ENDBRANCH   1  17
TORSDOF 26
ENDMDL
MODEL 5
REMARK VINA RESULT:     9.955      3.033     11.779
REMARK INTER + INTRA:          26.392
REMARK INTER:                  27.463
REMARK INTRA:                  -1.071
REMARK UNBOUND:                 1.307
REMARK SMILES CCCCCCCCCCCCCCCCCCCCCCCCCCCC(=O)[O-]
REMARK SMILES IDX 15 1 16 2 17 3 18 4 19 5 20 6 21 7 22 8 23 9 24 10 25 11
REMARK SMILES IDX 26 12 27 13 28 14 29 15 30 16 14 17 13 18 12 19 11 20 10 21
REMARK SMILES IDX 9 22 8 23 7 24 6 25 5 26 4 27 3 28 2 29 1 30
REMARK H PARENT
REMARK Flexibility Score: inf
ROOT
ATOM      1  C   UNL     1      36.028 105.906 269.791  1.00  0.00     0.000 C 
ENDROOT
BRANCH   1   2
ATOM      2  C   UNL     1      37.376 106.568 270.128  1.00  0.00     0.000 C 
BRANCH   2   3
ATOM      3  C   UNL     1      38.086 105.899 271.318  1.00  0.00     0.000 C 
BRANCH   3   4
ATOM      4  C   UNL     1      37.747 104.412 271.524  1.00  0.00     0.000 C 
BRANCH   4   5
ATOM      5  C   UNL     1      38.884 103.633 272.210  1.00  0.00     0.000 C 
BRANCH   5   6
ATOM      6  C   UNL     1      38.688 103.520 273.730  1.00  0.00     0.000 C 
BRANCH   6   7
ATOM      7  C   UNL     1      39.448 102.329 274.335  1.00  0.00     0.000 C 
BRANCH   7   8
ATOM      8  C   UNL     1      40.231 101.574 273.256  1.00  0.00     0.000 C 
BRANCH   8   9
ATOM      9  C   UNL     1      41.722 101.477 273.621  1.00  0.00     0.000 C 
BRANCH   9  10
ATOM     10  C   UNL     1      42.423 102.845 273.590  1.00  0.00     0.000 C 
BRANCH  10  11
ATOM     11  C   UNL     1      43.929 102.735 273.882  1.00  0.00     0.000 C 
BRANCH  11  12
ATOM     12  C   UNL     1      44.795 103.259 272.725  1.00  0.00     0.006 C 
BRANCH  12  13
ATOM     13  C   UNL     1      44.227 104.516 272.038  1.00  0.00     0.053 C 
BRANCH  13  14
ATOM     14  C   UNL     1      45.198 105.132 271.075  1.00  0.00     0.041 C 
ATOM     15  O   UNL     1      45.849 104.398 270.288  1.00  0.00    -0.550 OA
ATOM     16  O   UNL     1      45.296 106.515 270.967  1.00  0.00    -0.550 OA
ENDBRANCH  13  14
ENDBRANCH  12  13
ENDBRANCH  11  12
ENDBRANCH  10  11
ENDBRANCH   9  10
ENDBRANCH   8   9
ENDBRANCH   7   8
ENDBRANCH   6   7
ENDBRANCH   5   6
ENDBRANCH   4   5
ENDBRANCH   3   4
ENDBRANCH   2   3
ENDBRANCH   1   2
BRANCH   1  17
ATOM     17  C   UNL     1      34.876 106.921 269.717  1.00  0.00     0.000 C 
BRANCH  17  18
ATOM     18  C   UNL     1      34.940 107.791 268.452  1.00  0.00     0.000 C 
BRANCH  18  19
ATOM     19  C   UNL     1      35.774 107.108 267.356  1.00  0.00     0.000 C 
BRANCH  19  20
ATOM     20  C   UNL     1      35.092 107.179 265.981  1.00  0.00     0.000 C 
BRANCH  20  21
ATOM     21  C   UNL     1      35.626 106.119 265.003  1.00  0.00     0.000 C 
BRANCH  21  22
ATOM     22  C   UNL     1      35.093 106.330 263.570  1.00  0.00    -0.000 C 
BRANCH  22  23
ATOM     23  C   UNL     1      36.043 105.809 262.475  1.00  0.00    -0.000 C 
BRANCH  23  24
ATOM     24  C   UNL     1      37.418 106.516 262.406  1.00  0.00    -0.000 C 
BRANCH  24  25
ATOM     25  C   UNL     1      38.227 106.233 261.127  1.00  0.00    -0.000 C 
BRANCH  25  26
ATOM     26  C   UNL     1      38.209 104.749 260.697  1.00  0.00    -0.000 C 
BRANCH  26  27
ATOM     27  C   UNL     1      37.092 104.480 259.679  1.00  0.00    -0.000 C 
BRANCH  27  28
ATOM     28  C   UNL     1      37.399 105.121 258.315  1.00  0.00    -0.000 C 
BRANCH  28  29
ATOM     29  C   UNL     1      36.304 106.105 257.880  1.00  0.00    -0.003 C 
ATOM     30  C   UNL     1      36.067 107.221 258.896  1.00  0.00     0.004 C 
ENDBRANCH  28  29
ENDBRANCH  27  28
ENDBRANCH  26  27
ENDBRANCH  25  26
ENDBRANCH  24  25
ENDBRANCH  23  24
ENDBRANCH  22  23
ENDBRANCH  21  22
ENDBRANCH  20  21
ENDBRANCH  19  20
ENDBRANCH  18  19
ENDBRANCH  17  18
ENDBRANCH   1  17
TORSDOF 26
ENDMDL
MODEL 6
REMARK VINA RESULT:    10.323      2.867      5.885
REMARK INTER + INTRA:          27.321
REMARK INTER:                  28.367
REMARK INTRA:                  -1.047
REMARK UNBOUND:                 1.307
REMARK SMILES CCCCCCCCCCCCCCCCCCCCCCCCCCCC(=O)[O-]
REMARK SMILES IDX 15 1 16 2 17 3 18 4 19 5 20 6 21 7 22 8 23 9 24 10 25 11
REMARK SMILES IDX 26 12 27 13 28 14 29 15 30 16 14 17 13 18 12 19 11 20 10 21
REMARK SMILES IDX 9 22 8 23 7 24 6 25 5 26 4 27 3 28 2 29 1 30
REMARK H PARENT
REMARK Flexibility Score: inf
ROOT
ATOM      1  C   UNL     1      38.031 105.984 271.440  1.00  0.00     0.000 C 
ENDROOT
BRANCH   1   2
ATOM      2  C   UNL     1      37.328 106.259 270.098  1.00  0.00     0.000 C 
BRANCH   2   3
ATOM      3  C   UNL     1      35.887 105.718 270.060  1.00  0.00     0.000 C 
BRANCH   3   4
ATOM      4  C   UNL     1      34.878 106.611 269.316  1.00  0.00     0.000 C 
BRANCH   4   5
ATOM      5  C   UNL     1      34.877 106.366 267.797  1.00  0.00     0.000 C 
BRANCH   5   6
ATOM      6  C   UNL     1      35.304 107.608 266.998  1.00  0.00     0.000 C 
BRANCH   6   7
ATOM      7  C   UNL     1      35.106 107.432 265.484  1.00  0.00     0.000 C 
BRANCH   7   8
ATOM      8  C   UNL     1      35.925 106.250 264.958  1.00  0.00     0.000 C 
BRANCH   8   9
ATOM      9  C   UNL     1      35.068 105.334 264.070  1.00  0.00     0.000 C 
BRANCH   9  10
ATOM     10  C   UNL     1      35.765 104.980 262.747  1.00  0.00     0.000 C 
BRANCH  10  11
ATOM     11  C   UNL     1      36.313 106.223 262.025  1.00  0.00     0.000 C 
BRANCH  11  12
ATOM     12  C   UNL     1      37.822 106.125 261.744  1.00  0.00     0.006 C 
BRANCH  12  13
ATOM     13  C   UNL     1      38.164 105.521 260.369  1.00  0.00     0.053 C 
BRANCH  13  14
ATOM     14  C   UNL     1      37.034 105.644 259.391  1.00  0.00     0.041 C 
ATOM     15  O   UNL     1      36.458 106.752 259.236  1.00  0.00    -0.550 OA
ATOM     16  O   UNL     1      36.697 104.572 258.571  1.00  0.00    -0.550 OA
ENDBRANCH  13  14
ENDBRANCH  12  13
ENDBRANCH  11  12
ENDBRANCH  10  11
ENDBRANCH   9  10
ENDBRANCH   8   9
ENDBRANCH   7   8
ENDBRANCH   6   7
ENDBRANCH   5   6
ENDBRANCH   4   5
ENDBRANCH   3   4
ENDBRANCH   2   3
ENDBRANCH   1   2
BRANCH   1  17
ATOM     17  C   UNL     1      38.573 104.549 271.537  1.00  0.00     0.000 C 
BRANCH  17  18
ATOM     18  C   UNL     1      39.107 104.217 272.940  1.00  0.00     0.000 C 
BRANCH  18  19
ATOM     19  C   UNL     1      38.223 103.169 273.632  1.00  0.00     0.000 C 
BRANCH  19  20
ATOM     20  C   UNL     1      39.040 101.977 274.158  1.00  0.00     0.000 C 
BRANCH  20  21
ATOM     21  C   UNL     1      40.216 101.616 273.236  1.00  0.00     0.000 C 
BRANCH  21  22
ATOM     22  C   UNL     1      41.070 100.464 273.808  1.00  0.00    -0.000 C 
BRANCH  22  23
ATOM     23  C   UNL     1      42.586 100.728 273.743  1.00  0.00    -0.000 C 
BRANCH  23  24
ATOM     24  C   UNL     1      42.993 102.220 273.711  1.00  0.00    -0.000 C 
BRANCH  24  25
ATOM     25  C   UNL     1      44.453 102.501 274.111  1.00  0.00    -0.000 C 
BRANCH  25  26
ATOM     26  C   UNL     1      45.443 102.446 272.926  1.00  0.00    -0.000 C 
BRANCH  26  27
ATOM     27  C   UNL     1      45.816 103.855 272.450  1.00  0.00    -0.000 C 
BRANCH  27  28
ATOM     28  C   UNL     1      45.254 104.149 271.048  1.00  0.00    -0.000 C 
BRANCH  28  29
ATOM     29  C   UNL     1      44.547 105.510 270.983  1.00  0.00    -0.003 C 
ATOM     30  C   UNL     1      45.506 106.689 271.146  1.00  0.00     0.004 C 
ENDBRANCH  28  29
ENDBRANCH  27  28
ENDBRANCH  26  27
ENDBRANCH  25  26
ENDBRANCH  24  25
ENDBRANCH  23  24
ENDBRANCH  22  23
ENDBRANCH  21  22
ENDBRANCH  20  21
ENDBRANCH  19  20
ENDBRANCH  18  19
ENDBRANCH  17  18
ENDBRANCH   1  17
TORSDOF 26
ENDMDL
MODEL 7
REMARK VINA RESULT:    10.830      2.061      4.335
REMARK INTER + INTRA:          28.598
REMARK INTER:                  28.974
REMARK INTRA:                  -0.376
REMARK UNBOUND:                 1.307
REMARK SMILES CCCCCCCCCCCCCCCCCCCCCCCCCCCC(=O)[O-]
REMARK SMILES IDX 15 1 16 2 17 3 18 4 19 5 20 6 21 7 22 8 23 9 24 10 25 11
REMARK SMILES IDX 26 12 27 13 28 14 29 15 30 16 14 17 13 18 12 19 11 20 10 21
REMARK SMILES IDX 9 22 8 23 7 24 6 25 5 26 4 27 3 28 2 29 1 30
REMARK H PARENT
REMARK Flexibility Score: inf
ROOT
ATOM      1  C   UNL     1      35.408 106.538 269.904  1.00  0.00     0.000 C 
ENDROOT
BRANCH   1   2
ATOM      2  C   UNL     1      34.994 107.822 269.162  1.00  0.00     0.000 C 
BRANCH   2   3
ATOM      3  C   UNL     1      35.015 107.658 267.632  1.00  0.00     0.000 C 
BRANCH   3   4
ATOM      4  C   UNL     1      34.875 106.210 267.132  1.00  0.00     0.000 C 
BRANCH   4   5
ATOM      5  C   UNL     1      35.001 106.096 265.602  1.00  0.00     0.000 C 
BRANCH   5   6
ATOM      6  C   UNL     1      35.031 104.636 265.120  1.00  0.00     0.000 C 
BRANCH   6   7
ATOM      7  C   UNL     1      35.060 104.523 263.587  1.00  0.00     0.000 C 
BRANCH   7   8
ATOM      8  C   UNL     1      35.443 105.860 262.946  1.00  0.00     0.000 C 
BRANCH   8   9
ATOM      9  C   UNL     1      36.949 105.917 262.642  1.00  0.00     0.000 C 
BRANCH   9  10
ATOM     10  C   UNL     1      37.238 106.116 261.146  1.00  0.00     0.000 C 
BRANCH  10  11
ATOM     11  C   UNL     1      37.123 104.804 260.350  1.00  0.00     0.000 C 
BRANCH  11  12
ATOM     12  C   UNL     1      37.823 104.881 258.983  1.00  0.00     0.006 C 
BRANCH  12  13
ATOM     13  C   UNL     1      37.487 106.150 258.178  1.00  0.00     0.053 C 
BRANCH  13  14
ATOM     14  C   UNL     1      36.020 106.464 258.187  1.00  0.00     0.041 C 
ATOM     15  O   UNL     1      35.625 107.617 257.875  1.00  0.00    -0.550 OA
ATOM     16  O   UNL     1      35.090 105.458 258.424  1.00  0.00    -0.550 OA
ENDBRANCH  13  14
ENDBRANCH  12  13
ENDBRANCH  11  12
ENDBRANCH  10  11
ENDBRANCH   9  10
ENDBRANCH   8   9
ENDBRANCH   7   8
ENDBRANCH   6   7
ENDBRANCH   5   6
ENDBRANCH   4   5
ENDBRANCH   3   4
ENDBRANCH   2   3
ENDBRANCH   1   2
BRANCH   1  17
ATOM     17  C   UNL     1      36.912 106.500 270.220  1.00  0.00     0.000 C 
BRANCH  17  18
ATOM     18  C   UNL     1      37.447 105.065 270.356  1.00  0.00     0.000 C 
BRANCH  18  19
ATOM     19  C   UNL     1      38.595 105.001 271.375  1.00  0.00     0.000 C 
BRANCH  19  20
ATOM     20  C   UNL     1      38.109 104.571 272.769  1.00  0.00     0.000 C 
BRANCH  20  21
ATOM     21  C   UNL     1      38.431 103.099 273.077  1.00  0.00     0.000 C 
BRANCH  21  22
ATOM     22  C   UNL     1      39.812 102.935 273.748  1.00  0.00    -0.000 C 
BRANCH  22  23
ATOM     23  C   UNL     1      40.628 101.749 273.201  1.00  0.00    -0.000 C 
BRANCH  23  24
ATOM     24  C   UNL     1      40.997 100.668 274.245  1.00  0.00    -0.000 C 
BRANCH  24  25
ATOM     25  C   UNL     1      42.406 100.069 274.084  1.00  0.00    -0.000 C 
BRANCH  25  26
ATOM     26  C   UNL     1      42.405  98.584 273.659  1.00  0.00    -0.000 C 
BRANCH  26  27
ATOM     27  C   UNL     1      43.800  97.963 273.811  1.00  0.00    -0.000 C 
BRANCH  27  28
ATOM     28  C   UNL     1      44.364  97.493 272.458  1.00  0.00    -0.000 C 
BRANCH  28  29
ATOM     29  C   UNL     1      44.099  96.002 272.209  1.00  0.00    -0.003 C 
ATOM     30  C   UNL     1      42.664  95.717 271.765  1.00  0.00     0.004 C 
ENDBRANCH  28  29
ENDBRANCH  27  28
ENDBRANCH  26  27
ENDBRANCH  25  26
ENDBRANCH  24  25
ENDBRANCH  23  24
ENDBRANCH  22  23
ENDBRANCH  21  22
ENDBRANCH  20  21
ENDBRANCH  19  20
ENDBRANCH  18  19
ENDBRANCH  17  18
ENDBRANCH   1  17
TORSDOF 26
ENDMDL
MODEL 8
REMARK VINA RESULT:    10.923      1.843      5.489
REMARK INTER + INTRA:          28.832
REMARK INTER:                  30.128
REMARK INTRA:                  -1.296
REMARK UNBOUND:                 1.307
REMARK SMILES CCCCCCCCCCCCCCCCCCCCCCCCCCCC(=O)[O-]
REMARK SMILES IDX 15 1 16 2 17 3 18 4 19 5 20 6 21 7 22 8 23 9 24 10 25 11
REMARK SMILES IDX 26 12 27 13 28 14 29 15 30 16 14 17 13 18 12 19 11 20 10 21
REMARK SMILES IDX 9 22 8 23 7 24 6 25 5 26 4 27 3 28 2 29 1 30
REMARK H PARENT
REMARK Flexibility Score: inf
ROOT
ATOM      1  C   UNL     1      38.163 106.204 271.082  1.00  0.00     0.000 C 
ENDROOT
BRANCH   1   2
ATOM      2  C   UNL     1      37.306 106.818 269.960  1.00  0.00     0.000 C 
BRANCH   2   3
ATOM      3  C   UNL     1      35.875 106.252 269.928  1.00  0.00     0.000 C 
BRANCH   3   4
ATOM      4  C   UNL     1      34.875 107.064 269.085  1.00  0.00     0.000 C 
BRANCH   4   5
ATOM      5  C   UNL     1      34.905 106.678 267.596  1.00  0.00     0.000 C 
BRANCH   5   6
ATOM      6  C   UNL     1      35.878 107.545 266.781  1.00  0.00     0.000 C 
BRANCH   6   7
ATOM      7  C   UNL     1      35.776 107.283 265.270  1.00  0.00     0.000 C 
BRANCH   7   8
ATOM      8  C   UNL     1      35.099 105.938 264.991  1.00  0.00     0.000 C 
BRANCH   8   9
ATOM      9  C   UNL     1      35.467 105.414 263.593  1.00  0.00     0.000 C 
BRANCH   9  10
ATOM     10  C   UNL     1      36.161 106.480 262.731  1.00  0.00     0.000 C 
BRANCH  10  11
ATOM     11  C   UNL     1      37.690 106.467 262.905  1.00  0.00     0.000 C 
BRANCH  11  12
ATOM     12  C   UNL     1      38.437 106.665 261.575  1.00  0.00     0.006 C 
BRANCH  12  13
ATOM     13  C   UNL     1      38.431 105.424 260.664  1.00  0.00     0.053 C 
BRANCH  13  14
ATOM     14  C   UNL     1      37.293 105.435 259.687  1.00  0.00     0.041 C 
ATOM     15  O   UNL     1      36.750 104.353 259.346  1.00  0.00    -0.550 OA
ATOM     16  O   UNL     1      36.759 106.642 259.247  1.00  0.00    -0.550 OA
ENDBRANCH  13  14
ENDBRANCH  12  13
ENDBRANCH  11  12
ENDBRANCH  10  11
ENDBRANCH   9  10
ENDBRANCH   8   9
ENDBRANCH   7   8
ENDBRANCH   6   7
ENDBRANCH   5   6
ENDBRANCH   4   5
ENDBRANCH   3   4
ENDBRANCH   2   3
ENDBRANCH   1   2
BRANCH   1  17
ATOM     17  C   UNL     1      37.961 104.686 271.214  1.00  0.00     0.000 C 
BRANCH  17  18
ATOM     18  C   UNL     1      38.982 104.038 272.163  1.00  0.00     0.000 C 
BRANCH  18  19
ATOM     19  C   UNL     1      38.298 103.029 273.099  1.00  0.00     0.000 C 
BRANCH  19  20
ATOM     20  C   UNL     1      39.144 102.733 274.349  1.00  0.00     0.000 C 
BRANCH  20  21
ATOM     21  C   UNL     1      40.527 102.160 274.002  1.00  0.00     0.000 C 
BRANCH  21  22
ATOM     22  C   UNL     1      40.444 100.700 273.506  1.00  0.00    -0.000 C 
BRANCH  22  23
ATOM     23  C   UNL     1      41.599  99.811 274.005  1.00  0.00    -0.000 C 
BRANCH  23  24
ATOM     24  C   UNL     1      43.012 100.422 273.851  1.00  0.00    -0.000 C 
BRANCH  24  25
ATOM     25  C   UNL     1      44.167  99.407 273.936  1.00  0.00    -0.000 C 
BRANCH  25  26
ATOM     26  C   UNL     1      43.716  97.986 274.344  1.00  0.00    -0.000 C 
BRANCH  26  27
ATOM     27  C   UNL     1      44.285  96.929 273.389  1.00  0.00    -0.000 C 
BRANCH  27  28
ATOM     28  C   UNL     1      44.029  97.295 271.916  1.00  0.00    -0.000 C 
BRANCH  28  29
ATOM     29  C   UNL     1      42.560  97.093 271.519  1.00  0.00    -0.003 C 
ATOM     30  C   UNL     1      42.139  95.624 271.518  1.00  0.00     0.004 C 
ENDBRANCH  28  29
ENDBRANCH  27  28
ENDBRANCH  26  27
ENDBRANCH  25  26
ENDBRANCH  24  25
ENDBRANCH  23  24
ENDBRANCH  22  23
ENDBRANCH  21  22
ENDBRANCH  20  21
ENDBRANCH  19  20
ENDBRANCH  18  19
ENDBRANCH  17  18
ENDBRANCH   1  17
TORSDOF 26
ENDMDL
MODEL 9
REMARK VINA RESULT:    11.492      2.479      4.243
REMARK INTER + INTRA:          30.265
REMARK INTER:                  27.197
REMARK INTRA:                   3.068
REMARK UNBOUND:                 1.307
REMARK SMILES CCCCCCCCCCCCCCCCCCCCCCCCCCCC(=O)[O-]
REMARK SMILES IDX 15 1 16 2 17 3 18 4 19 5 20 6 21 7 22 8 23 9 24 10 25 11
REMARK SMILES IDX 26 12 27 13 28 14 29 15 30 16 14 17 13 18 12 19 11 20 10 21
REMARK SMILES IDX 9 22 8 23 7 24 6 25 5 26 4 27 3 28 2 29 1 30
REMARK H PARENT
REMARK Flexibility Score: inf
ROOT
ATOM      1  C   UNL     1      35.027 106.765 269.547  1.00  0.00     0.000 C 
ENDROOT
BRANCH   1   2
ATOM      2  C   UNL     1      34.924 107.874 268.485  1.00  0.00     0.000 C 
BRANCH   2   3
ATOM      3  C   UNL     1      35.266 107.376 267.070  1.00  0.00     0.000 C 
BRANCH   3   4
ATOM      4  C   UNL     1      35.031 105.874 266.836  1.00  0.00     0.000 C 
BRANCH   4   5
ATOM      5  C   UNL     1      34.875 105.523 265.345  1.00  0.00     0.000 C 
BRANCH   5   6
ATOM      6  C   UNL     1      35.083 104.026 265.066  1.00  0.00     0.000 C 
BRANCH   6   7
ATOM      7  C   UNL     1      35.174 103.714 263.564  1.00  0.00     0.000 C 
BRANCH   7   8
ATOM      8  C   UNL     1      34.961 104.979 262.727  1.00  0.00     0.000 C 
BRANCH   8   9
ATOM      9  C   UNL     1      36.275 105.758 262.557  1.00  0.00     0.000 C 
BRANCH   9  10
ATOM     10  C   UNL     1      36.929 105.512 261.189  1.00  0.00     0.000 C 
BRANCH  10  11
ATOM     11  C   UNL     1      35.947 105.730 260.025  1.00  0.00     0.000 C 
BRANCH  11  12
ATOM     12  C   UNL     1      36.628 106.324 258.781  1.00  0.00     0.006 C 
BRANCH  12  13
ATOM     13  C   UNL     1      37.845 105.518 258.289  1.00  0.00     0.053 C 
BRANCH  13  14
ATOM     14  C   UNL     1      38.694 105.015 259.419  1.00  0.00     0.041 C 
ATOM     15  O   UNL     1      38.753 105.663 260.495  1.00  0.00    -0.550 OA
ATOM     16  O   UNL     1      39.321 103.777 259.327  1.00  0.00    -0.550 OA
ENDBRANCH  13  14
ENDBRANCH  12  13
ENDBRANCH  11  12
ENDBRANCH  10  11
ENDBRANCH   9  10
ENDBRANCH   8   9
ENDBRANCH   7   8
ENDBRANCH   6   7
ENDBRANCH   5   6
ENDBRANCH   4   5
ENDBRANCH   3   4
ENDBRANCH   2   3
ENDBRANCH   1   2
BRANCH   1  17
ATOM     17  C   UNL     1      36.232 106.954 270.482  1.00  0.00     0.000 C 
BRANCH  17  18
ATOM     18  C   UNL     1      37.330 105.906 270.244  1.00  0.00     0.000 C 
BRANCH  18  19
ATOM     19  C   UNL     1      38.539 106.158 271.159  1.00  0.00     0.000 C 
BRANCH  19  20
ATOM     20  C   UNL     1      38.430 105.392 272.487  1.00  0.00     0.000 C 
BRANCH  20  21
ATOM     21  C   UNL     1      38.719 103.890 272.326  1.00  0.00     0.000 C 
BRANCH  21  22
ATOM     22  C   UNL     1      39.404 103.293 273.574  1.00  0.00    -0.000 C 
BRANCH  22  23
ATOM     23  C   UNL     1      39.776 101.806 273.423  1.00  0.00    -0.000 C 
BRANCH  23  24
ATOM     24  C   UNL     1      41.292 101.516 273.313  1.00  0.00    -0.000 C 
BRANCH  24  25
ATOM     25  C   UNL     1      42.204 102.639 273.837  1.00  0.00    -0.000 C 
BRANCH  25  26
ATOM     26  C   UNL     1      43.650 102.567 273.297  1.00  0.00    -0.000 C 
BRANCH  26  27
ATOM     27  C   UNL     1      44.227 103.970 273.069  1.00  0.00    -0.000 C 
BRANCH  27  28
ATOM     28  C   UNL     1      44.526 104.228 271.582  1.00  0.00    -0.000 C 
BRANCH  28  29
ATOM     29  C   UNL     1      44.414 105.716 271.221  1.00  0.00    -0.003 C 
ATOM     30  C   UNL     1      45.768 106.423 271.180  1.00  0.00     0.004 C 
ENDBRANCH  28  29
ENDBRANCH  27  28
ENDBRANCH  26  27
ENDBRANCH  25  26
ENDBRANCH  24  25
ENDBRANCH  23  24
ENDBRANCH  22  23
ENDBRANCH  21  22
ENDBRANCH  20  21
ENDBRANCH  19  20
ENDBRANCH  18  19
ENDBRANCH  17  18
ENDBRANCH   1  17
TORSDOF 26
ENDMDL
