MODEL 1
REMARK VINA RESULT:    -5.665      0.000      0.000
REMARK INTER + INTRA:          -9.717
REMARK INTER:                  -8.977
REMARK INTRA:                  -0.740
REMARK UNBOUND:                -0.740
REMARK SMILES CCCCCCCCCCCC(=O)[O-]
REMARK SMILES IDX 7 1 8 2 9 3 10 4 11 5 12 6 13 7 14 8 6 9 5 10 4 11 3 12 2 13
REMARK SMILES IDX 1 14
REMARK H PARENT
REMARK Flexibility Score: inf
ROOT
ATOM      1  C   UNL     1      17.635   9.395 -19.442  1.00  0.00     0.000 C 
ENDROOT
BRANCH   1   2
ATOM      2  C   UNL     1      19.052   9.258 -20.020  1.00  0.00     0.000 C 
BRANCH   2   3
ATOM      3  C   UNL     1      19.511  10.518 -20.770  1.00  0.00     0.000 C 
BRANCH   3   4
ATOM      4  C   UNL     1      18.334  11.188 -21.489  1.00  0.00     0.006 C 
BRANCH   4   5
ATOM      5  C   UNL     1      18.495  12.711 -21.507  1.00  0.00     0.053 C 
BRANCH   5   6
ATOM      6  C   UNL     1      18.085  13.298 -20.194  1.00  0.00     0.041 C 
ATOM      7  O   UNL     1      18.956  13.711 -19.384  1.00  0.00    -0.550 OA
ATOM      8  O   UNL     1      16.742  13.342 -19.841  1.00  0.00    -0.550 OA
ENDBRANCH   5   6
ENDBRANCH   4   5
ENDBRANCH   3   4
ENDBRANCH   2   3
ENDBRANCH   1   2
BRANCH   1   9
ATOM      9  C   UNL     1      16.712   8.234 -19.854  1.00  0.00     0.000 C 
BRANCH   9  10
ATOM     10  C   UNL     1      16.255   8.337 -21.319  1.00  0.00    -0.000 C 
BRANCH  10  11
ATOM     11  C   UNL     1      15.352   7.163 -21.737  1.00  0.00    -0.000 C 
BRANCH  11  12
ATOM     12  C   UNL     1      14.601   6.533 -20.551  1.00  0.00    -0.000 C 
BRANCH  12  13
ATOM     13  C   UNL     1      13.297   7.250 -20.154  1.00  0.00    -0.003 C 
ATOM     14  C   UNL     1      13.125   7.383 -18.641  1.00  0.00     0.004 C 
ENDBRANCH  12  13
ENDBRANCH  11  12
ENDBRANCH  10  11
ENDBRANCH   9  10
ENDBRANCH   1   9
TORSDOF 10
ENDMDL
MODEL 2
REMARK VINA RESULT:    -5.498      0.553      1.358
REMARK INTER + INTRA:          -9.452
REMARK INTER:                  -8.682
REMARK INTRA:                  -0.770
REMARK UNBOUND:                -0.740
REMARK SMILES CCCCCCCCCCCC(=O)[O-]
REMARK SMILES IDX 7 1 8 2 9 3 10 4 11 5 12 6 13 7 14 8 6 9 5 10 4 11 3 12 2 13
REMARK SMILES IDX 1 14
REMARK H PARENT
REMARK Flexibility Score: inf
ROOT
ATOM      1  C   UNL     1      16.856   8.582 -19.755  1.00  0.00     0.000 C 
ENDROOT
BRANCH   1   2
ATOM      2  C   UNL     1      17.962   9.581 -19.379  1.00  0.00     0.000 C 
BRANCH   2   3
ATOM      3  C   UNL     1      19.057   9.688 -20.452  1.00  0.00     0.000 C 
BRANCH   3   4
ATOM      4  C   UNL     1      19.329  11.153 -20.813  1.00  0.00     0.006 C 
BRANCH   4   5
ATOM      5  C   UNL     1      18.021  11.913 -21.050  1.00  0.00     0.053 C 
BRANCH   5   6
ATOM      6  C   UNL     1      17.883  13.037 -20.073  1.00  0.00     0.041 C 
ATOM      7  O   UNL     1      16.746  13.507 -19.804  1.00  0.00    -0.550 OA
ATOM      8  O   UNL     1      19.014  13.600 -19.496  1.00  0.00    -0.550 OA
ENDBRANCH   5   6
ENDBRANCH   4   5
ENDBRANCH   3   4
ENDBRANCH   2   3
ENDBRANCH   1   2
BRANCH   1   9
ATOM      9  C   UNL     1      16.517   8.612 -21.256  1.00  0.00     0.000 C 
BRANCH   9  10
ATOM     10  C   UNL     1      15.689   7.393 -21.697  1.00  0.00    -0.000 C 
BRANCH  10  11
ATOM     11  C   UNL     1      14.807   6.840 -20.564  1.00  0.00    -0.000 C 
BRANCH  11  12
ATOM     12  C   UNL     1      13.309   7.117 -20.783  1.00  0.00    -0.000 C 
BRANCH  12  13
ATOM     13  C   UNL     1      12.580   7.736 -19.576  1.00  0.00    -0.003 C 
ATOM     14  C   UNL     1      13.354   7.581 -18.267  1.00  0.00     0.004 C 
ENDBRANCH  12  13
ENDBRANCH  11  12
ENDBRANCH  10  11
ENDBRANCH   9  10
ENDBRANCH   1   9
TORSDOF 10
ENDMDL
MODEL 3
REMARK VINA RESULT:    -5.308      1.947      2.260
REMARK INTER + INTRA:          -9.150
REMARK INTER:                  -8.327
REMARK INTRA:                  -0.823
REMARK UNBOUND:                -0.740
REMARK SMILES CCCCCCCCCCCC(=O)[O-]
REMARK SMILES IDX 7 1 8 2 9 3 10 4 11 5 12 6 13 7 14 8 6 9 5 10 4 11 3 12 2 13
REMARK SMILES IDX 1 14
REMARK H PARENT
REMARK Flexibility Score: inf
ROOT
ATOM      1  C   UNL     1      17.896   9.404 -19.299  1.00  0.00     0.000 C 
ENDROOT
BRANCH   1   2
ATOM      2  C   UNL     1      19.178   9.166 -20.112  1.00  0.00     0.000 C 
BRANCH   2   3
ATOM      3  C   UNL     1      19.660  10.427 -20.846  1.00  0.00     0.000 C 
BRANCH   3   4
ATOM      4  C   UNL     1      18.588  11.524 -20.811  1.00  0.00     0.006 C 
BRANCH   4   5
ATOM      5  C   UNL     1      18.711  12.451 -22.023  1.00  0.00     0.053 C 
BRANCH   5   6
ATOM      6  C   UNL     1      18.666  11.664 -23.293  1.00  0.00     0.041 C 
ATOM      7  O   UNL     1      17.644  10.988 -23.585  1.00  0.00    -0.550 OA
ATOM      8  O   UNL     1      19.773  11.634 -24.132  1.00  0.00    -0.550 OA
ENDBRANCH   5   6
ENDBRANCH   4   5
ENDBRANCH   3   4
ENDBRANCH   2   3
ENDBRANCH   1   2
BRANCH   1   9
ATOM      9  C   UNL     1      16.738   8.490 -19.739  1.00  0.00     0.000 C 
BRANCH   9  10
ATOM     10  C   UNL     1      16.572   8.444 -21.267  1.00  0.00    -0.000 C 
BRANCH  10  11
ATOM     11  C   UNL     1      15.491   7.442 -21.711  1.00  0.00    -0.000 C 
BRANCH  11  12
ATOM     12  C   UNL     1      14.851   6.690 -20.531  1.00  0.00    -0.000 C 
BRANCH  12  13
ATOM     13  C   UNL     1      13.402   7.101 -20.209  1.00  0.00    -0.003 C 
ATOM     14  C   UNL     1      13.172   7.366 -18.721  1.00  0.00     0.004 C 
ENDBRANCH  12  13
ENDBRANCH  11  12
ENDBRANCH  10  11
ENDBRANCH   9  10
ENDBRANCH   1   9
TORSDOF 10
ENDMDL
MODEL 4
REMARK VINA RESULT:    -4.968      2.951      5.933
REMARK INTER + INTRA:          -8.612
REMARK INTER:                  -7.810
REMARK INTRA:                  -0.803
REMARK UNBOUND:                -0.740
REMARK SMILES CCCCCCCCCCCC(=O)[O-]
REMARK SMILES IDX 7 1 8 2 9 3 10 4 11 5 12 6 13 7 14 8 6 9 5 10 4 11 3 12 2 13
REMARK SMILES IDX 1 14
REMARK H PARENT
REMARK Flexibility Score: inf
ROOT
ATOM      1  C   UNL     1      17.921   9.337 -19.380  1.00  0.00     0.000 C 
ENDROOT
BRANCH   1   2
ATOM      2  C   UNL     1      16.910   8.267 -19.822  1.00  0.00     0.000 C 
BRANCH   2   3
ATOM      3  C   UNL     1      16.406   8.484 -21.258  1.00  0.00     0.000 C 
BRANCH   3   4
ATOM      4  C   UNL     1      15.399   7.397 -21.655  1.00  0.00     0.006 C 
BRANCH   4   5
ATOM      5  C   UNL     1      14.873   6.657 -20.422  1.00  0.00     0.053 C 
BRANCH   5   6
ATOM      6  C   UNL     1      13.605   7.282 -19.936  1.00  0.00     0.041 C 
ATOM      7  O   UNL     1      12.860   7.908 -20.736  1.00  0.00    -0.550 OA
ATOM      8  O   UNL     1      13.268   7.218 -18.590  1.00  0.00    -0.550 OA
ENDBRANCH   5   6
ENDBRANCH   4   5
ENDBRANCH   3   4
ENDBRANCH   2   3
ENDBRANCH   1   2
BRANCH   1   9
ATOM      9  C   UNL     1      19.245   9.258 -20.160  1.00  0.00     0.000 C 
BRANCH   9  10
ATOM     10  C   UNL     1      19.721  10.634 -20.653  1.00  0.00    -0.000 C 
BRANCH  10  11
ATOM     11  C   UNL     1      18.928  11.128 -21.876  1.00  0.00    -0.000 C 
BRANCH  11  12
ATOM     12  C   UNL     1      18.323  12.528 -21.671  1.00  0.00    -0.000 C 
BRANCH  12  13
ATOM     13  C   UNL     1      17.502  12.698 -20.380  1.00  0.00    -0.003 C 
ATOM     14  C   UNL     1      17.876  13.955 -19.595  1.00  0.00     0.004 C 
ENDBRANCH  12  13
ENDBRANCH  11  12
ENDBRANCH  10  11
ENDBRANCH   9  10
ENDBRANCH   1   9
TORSDOF 10
ENDMDL
MODEL 5
REMARK VINA RESULT:    -4.958      2.990      6.140
REMARK INTER + INTRA:          -8.597
REMARK INTER:                  -7.733
REMARK INTRA:                  -0.864
REMARK UNBOUND:                -0.740
REMARK SMILES CCCCCCCCCCCC(=O)[O-]
REMARK SMILES IDX 7 1 8 2 9 3 10 4 11 5 12 6 13 7 14 8 6 9 5 10 4 11 3 12 2 13
REMARK SMILES IDX 1 14
REMARK H PARENT
REMARK Flexibility Score: inf
ROOT
ATOM      1  C   UNL     1      16.724   8.596 -19.739  1.00  0.00     0.000 C 
ENDROOT
BRANCH   1   2
ATOM      2  C   UNL     1      16.572   8.556 -21.268  1.00  0.00     0.000 C 
BRANCH   2   3
ATOM      3  C   UNL     1      15.510   7.547 -21.733  1.00  0.00     0.000 C 
BRANCH   3   4
ATOM      4  C   UNL     1      14.955   6.750 -20.547  1.00  0.00     0.006 C 
BRANCH   4   5
ATOM      5  C   UNL     1      13.424   6.785 -20.528  1.00  0.00     0.053 C 
BRANCH   5   6
ATOM      6  C   UNL     1      12.932   7.605 -19.378  1.00  0.00     0.041 C 
ATOM      7  O   UNL     1      13.409   7.431 -18.225  1.00  0.00    -0.550 OA
ATOM      8  O   UNL     1      11.909   8.526 -19.567  1.00  0.00    -0.550 OA
ENDBRANCH   5   6
ENDBRANCH   4   5
ENDBRANCH   3   4
ENDBRANCH   2   3
ENDBRANCH   1   2
BRANCH   1   9
ATOM      9  C   UNL     1      17.930   9.438 -19.286  1.00  0.00     0.000 C 
BRANCH   9  10
ATOM     10  C   UNL     1      19.201   9.129 -20.094  1.00  0.00    -0.000 C 
BRANCH  10  11
ATOM     11  C   UNL     1      19.732  10.359 -20.851  1.00  0.00    -0.000 C 
BRANCH  11  12
ATOM     12  C   UNL     1      18.814  11.587 -20.716  1.00  0.00    -0.000 C 
BRANCH  12  13
ATOM     13  C   UNL     1      18.593  12.379 -22.017  1.00  0.00    -0.003 C 
ATOM     14  C   UNL     1      19.110  11.649 -23.256  1.00  0.00     0.004 C 
ENDBRANCH  12  13
ENDBRANCH  11  12
ENDBRANCH  10  11
ENDBRANCH   9  10
ENDBRANCH   1   9
TORSDOF 10
ENDMDL
MODEL 6
REMARK VINA RESULT:    -4.920      2.158      3.067
REMARK INTER + INTRA:          -8.536
REMARK INTER:                  -7.823
REMARK INTRA:                  -0.713
REMARK UNBOUND:                -0.740
REMARK SMILES CCCCCCCCCCCC(=O)[O-]
REMARK SMILES IDX 7 1 8 2 9 3 10 4 11 5 12 6 13 7 14 8 6 9 5 10 4 11 3 12 2 13
REMARK SMILES IDX 1 14
REMARK H PARENT
REMARK Flexibility Score: inf
ROOT
ATOM      1  C   UNL     1      16.980  10.753 -21.362  1.00  0.00     0.000 C 
ENDROOT
BRANCH   1   2
ATOM      2  C   UNL     1      18.432  11.136 -21.685  1.00  0.00     0.000 C 
BRANCH   2   3
ATOM      3  C   UNL     1      19.451  10.417 -20.787  1.00  0.00     0.000 C 
BRANCH   3   4
ATOM      4  C   UNL     1      18.936   9.032 -20.375  1.00  0.00     0.006 C 
BRANCH   4   5
ATOM      5  C   UNL     1      19.508   8.614 -19.017  1.00  0.00     0.053 C 
BRANCH   5   6
ATOM      6  C   UNL     1      18.513   8.865 -17.929  1.00  0.00     0.041 C 
ATOM      7  O   UNL     1      18.843   8.723 -16.722  1.00  0.00    -0.550 OA
ATOM      8  O   UNL     1      17.205   9.208 -18.249  1.00  0.00    -0.550 OA
ENDBRANCH   5   6
ENDBRANCH   4   5
ENDBRANCH   3   4
ENDBRANCH   2   3
ENDBRANCH   1   2
BRANCH   1   9
ATOM      9  C   UNL     1      16.342   9.873 -22.452  1.00  0.00     0.000 C 
BRANCH   9  10
ATOM     10  C   UNL     1      15.271   8.923 -21.892  1.00  0.00    -0.000 C 
BRANCH  10  11
ATOM     11  C   UNL     1      15.828   7.520 -21.593  1.00  0.00    -0.000 C 
BRANCH  11  12
ATOM     12  C   UNL     1      14.808   6.609 -20.887  1.00  0.00    -0.000 C 
BRANCH  12  13
ATOM     13  C   UNL     1      13.502   7.305 -20.460  1.00  0.00    -0.003 C 
ATOM     14  C   UNL     1      13.309   7.335 -18.944  1.00  0.00     0.004 C 
ENDBRANCH  12  13
ENDBRANCH  11  12
ENDBRANCH  10  11
ENDBRANCH   9  10
ENDBRANCH   1   9
TORSDOF 10
ENDMDL
MODEL 7
REMARK VINA RESULT:    -4.894      1.034      2.360
REMARK INTER + INTRA:          -8.496
REMARK INTER:                  -7.751
REMARK INTRA:                  -0.744
REMARK UNBOUND:                -0.740
REMARK SMILES CCCCCCCCCCCC(=O)[O-]
REMARK SMILES IDX 7 1 8 2 9 3 10 4 11 5 12 6 13 7 14 8 6 9 5 10 4 11 3 12 2 13
REMARK SMILES IDX 1 14
REMARK H PARENT
REMARK Flexibility Score: inf
ROOT
ATOM      1  C   UNL     1      15.211   8.643 -22.093  1.00  0.00     0.000 C 
ENDROOT
BRANCH   1   2
ATOM      2  C   UNL     1      16.302   9.675 -21.763  1.00  0.00     0.000 C 
BRANCH   2   3
ATOM      3  C   UNL     1      17.292   9.173 -20.700  1.00  0.00     0.000 C 
BRANCH   3   4
ATOM      4  C   UNL     1      18.335  10.249 -20.372  1.00  0.00     0.006 C 
BRANCH   4   5
ATOM      5  C   UNL     1      18.060  11.537 -21.153  1.00  0.00     0.053 C 
BRANCH   5   6
ATOM      6  C   UNL     1      17.917  12.696 -20.218  1.00  0.00     0.041 C 
ATOM      7  O   UNL     1      16.778  13.173 -19.968  1.00  0.00    -0.550 OA
ATOM      8  O   UNL     1      19.046  13.284 -19.661  1.00  0.00    -0.550 OA
ENDBRANCH   5   6
ENDBRANCH   4   5
ENDBRANCH   3   4
ENDBRANCH   2   3
ENDBRANCH   1   2
BRANCH   1   9
ATOM      9  C   UNL     1      15.682   7.194 -21.874  1.00  0.00     0.000 C 
BRANCH   9  10
ATOM     10  C   UNL     1      14.749   6.407 -20.938  1.00  0.00    -0.000 C 
BRANCH  10  11
ATOM     11  C   UNL     1      13.595   7.269 -20.396  1.00  0.00    -0.000 C 
BRANCH  11  12
ATOM     12  C   UNL     1      13.390   7.109 -18.879  1.00  0.00    -0.000 C 
BRANCH  12  13
ATOM     13  C   UNL     1      12.645   8.272 -18.198  1.00  0.00    -0.003 C 
ATOM     14  C   UNL     1      11.625   8.947 -19.114  1.00  0.00     0.004 C 
ENDBRANCH  12  13
ENDBRANCH  11  12
ENDBRANCH  10  11
ENDBRANCH   9  10
ENDBRANCH   1   9
TORSDOF 10
ENDMDL
MODEL 8
REMARK VINA RESULT:    -4.776      2.863      4.703
REMARK INTER + INTRA:          -8.307
REMARK INTER:                  -7.775
REMARK INTRA:                  -0.532
REMARK UNBOUND:                -0.740
REMARK SMILES CCCCCCCCCCCC(=O)[O-]
REMARK SMILES IDX 7 1 8 2 9 3 10 4 11 5 12 6 13 7 14 8 6 9 5 10 4 11 3 12 2 13
REMARK SMILES IDX 1 14
REMARK H PARENT
REMARK Flexibility Score: inf
ROOT
ATOM      1  C   UNL     1      13.452   7.138 -20.259  1.00  0.00     0.000 C 
ENDROOT
BRANCH   1   2
ATOM      2  C   UNL     1      14.941   6.887 -20.545  1.00  0.00     0.000 C 
BRANCH   2   3
ATOM      3  C   UNL     1      15.459   7.691 -21.748  1.00  0.00     0.000 C 
BRANCH   3   4
ATOM      4  C   UNL     1      16.630   8.594 -21.340  1.00  0.00     0.006 C 
BRANCH   4   5
ATOM      5  C   UNL     1      16.778   8.648 -19.817  1.00  0.00     0.053 C 
BRANCH   5   6
ATOM      6  C   UNL     1      17.899   9.559 -19.431  1.00  0.00     0.041 C 
ATOM      7  O   UNL     1      17.713  10.803 -19.367  1.00  0.00    -0.550 OA
ATOM      8  O   UNL     1      19.165   9.041 -19.190  1.00  0.00    -0.550 OA
ENDBRANCH   5   6
ENDBRANCH   4   5
ENDBRANCH   3   4
ENDBRANCH   2   3
ENDBRANCH   1   2
BRANCH   1   9
ATOM      9  C   UNL     1      13.122   7.094 -18.757  1.00  0.00     0.000 C 
BRANCH   9  10
ATOM     10  C   UNL     1      12.436   8.380 -18.266  1.00  0.00    -0.000 C 
BRANCH  10  11
ATOM     11  C   UNL     1      11.643   9.086 -19.380  1.00  0.00    -0.000 C 
BRANCH  11  12
ATOM     12  C   UNL     1      10.848  10.301 -18.870  1.00  0.00    -0.000 C 
BRANCH  12  13
ATOM     13  C   UNL     1      10.491  11.341 -19.948  1.00  0.00    -0.003 C 
ATOM     14  C   UNL     1       9.684  12.518 -19.398  1.00  0.00     0.004 C 
ENDBRANCH  12  13
ENDBRANCH  11  12
ENDBRANCH  10  11
ENDBRANCH   9  10
ENDBRANCH   1   9
TORSDOF 10
ENDMDL
MODEL 9
REMARK VINA RESULT:    -4.751      2.994      6.150
REMARK INTER + INTRA:          -8.268
REMARK INTER:                  -7.360
REMARK INTRA:                  -0.908
REMARK UNBOUND:                -0.740
REMARK SMILES CCCCCCCCCCCC(=O)[O-]
REMARK SMILES IDX 7 1 8 2 9 3 10 4 11 5 12 6 13 7 14 8 6 9 5 10 4 11 3 12 2 13
REMARK SMILES IDX 1 14
REMARK H PARENT
REMARK Flexibility Score: inf
ROOT
ATOM      1  C   UNL     1      19.196   9.322 -20.062  1.00  0.00     0.000 C 
ENDROOT
BRANCH   1   2
ATOM      2  C   UNL     1      17.753   9.521 -19.571  1.00  0.00     0.000 C 
BRANCH   2   3
ATOM      3  C   UNL     1      16.830   8.353 -19.952  1.00  0.00     0.000 C 
BRANCH   3   4
ATOM      4  C   UNL     1      16.203   8.579 -21.334  1.00  0.00     0.006 C 
BRANCH   4   5
ATOM      5  C   UNL     1      15.529   7.304 -21.848  1.00  0.00     0.053 C 
BRANCH   5   6
ATOM      6  C   UNL     1      14.536   6.797 -20.851  1.00  0.00     0.041 C 
ATOM      7  O   UNL     1      14.683   5.658 -20.332  1.00  0.00    -0.550 OA
ATOM      8  O   UNL     1      13.420   7.560 -20.531  1.00  0.00    -0.550 OA
ENDBRANCH   5   6
ENDBRANCH   4   5
ENDBRANCH   3   4
ENDBRANCH   2   3
ENDBRANCH   1   2
BRANCH   1   9
ATOM      9  C   UNL     1      19.748  10.558 -20.795  1.00  0.00     0.000 C 
BRANCH   9  10
ATOM     10  C   UNL     1      18.727  11.169 -21.769  1.00  0.00    -0.000 C 
BRANCH  10  11
ATOM     11  C   UNL     1      18.556  12.685 -21.567  1.00  0.00    -0.000 C 
BRANCH  11  12
ATOM     12  C   UNL     1      17.472  13.032 -20.530  1.00  0.00    -0.000 C 
BRANCH  12  13
ATOM     13  C   UNL     1      17.906  14.040 -19.450  1.00  0.00    -0.003 C 
ATOM     14  C   UNL     1      19.386  14.412 -19.539  1.00  0.00     0.004 C 
ENDBRANCH  12  13
ENDBRANCH  11  12
ENDBRANCH  10  11
ENDBRANCH   9  10
ENDBRANCH   1   9
TORSDOF 10
ENDMDL
