MODEL 1
REMARK VINA RESULT:    -3.807      0.000      0.000
REMARK INTER + INTRA:          -8.240
REMARK INTER:                  -6.478
REMARK INTRA:                  -1.762
REMARK UNBOUND:                -1.762
REMARK SMILES CCCCCCCCCCCCCC(=O)[O-]
REMARK SMILES IDX 8 1 9 2 10 3 11 4 12 5 13 6 14 7 15 8 16 9 7 10 6 11 5 12
REMARK SMILES IDX 4 13 3 14 2 15 1 16
REMARK H PARENT
REMARK Flexibility Score: inf
ROOT
ATOM      1  C   UNL     1     181.090 183.124 201.230  1.00  0.00     0.000 C 
ENDROOT
BRANCH   1   2
ATOM      2  C   UNL     1     181.018 184.401 202.080  1.00  0.00     0.000 C 
BRANCH   2   3
ATOM      3  C   UNL     1     182.197 185.351 201.822  1.00  0.00     0.000 C 
BRANCH   3   4
ATOM      4  C   UNL     1     181.900 186.376 200.712  1.00  0.00     0.000 C 
BRANCH   4   5
ATOM      5  C   UNL     1     183.172 187.053 200.178  1.00  0.00     0.006 C 
BRANCH   5   6
ATOM      6  C   UNL     1     182.973 187.662 198.784  1.00  0.00     0.053 C 
BRANCH   6   7
ATOM      7  C   UNL     1     184.295 187.907 198.128  1.00  0.00     0.041 C 
ATOM      8  O   UNL     1     184.468 188.930 197.415  1.00  0.00    -0.550 OA
ATOM      9  O   UNL     1     185.323 186.982 198.267  1.00  0.00    -0.550 OA
ENDBRANCH   6   7
ENDBRANCH   5   6
ENDBRANCH   4   5
ENDBRANCH   3   4
ENDBRANCH   2   3
ENDBRANCH   1   2
BRANCH   1  10
ATOM     10  C   UNL     1     181.930 182.047 201.927  1.00  0.00     0.000 C 
BRANCH  10  11
ATOM     11  C   UNL     1     182.629 181.145 200.902  1.00  0.00    -0.000 C 
BRANCH  11  12
ATOM     12  C   UNL     1     182.662 181.805 199.517  1.00  0.00    -0.000 C 
BRANCH  12  13
ATOM     13  C   UNL     1     184.086 182.234 199.107  1.00  0.00    -0.000 C 
BRANCH  13  14
ATOM     14  C   UNL     1     184.383 183.721 199.370  1.00  0.00    -0.000 C 
BRANCH  14  15
ATOM     15  C   UNL     1     185.623 183.938 200.245  1.00  0.00    -0.003 C 
ATOM     16  C   UNL     1     185.419 183.361 201.643  1.00  0.00     0.004 C 
ENDBRANCH  14  15
ENDBRANCH  13  14
ENDBRANCH  12  13
ENDBRANCH  11  12
ENDBRANCH  10  11
ENDBRANCH   1  10
TORSDOF 12
ENDMDL
MODEL 2
REMARK VINA RESULT:    -3.731      1.868      2.866
REMARK INTER + INTRA:          -8.110
REMARK INTER:                  -6.350
REMARK INTRA:                  -1.761
REMARK UNBOUND:                -1.762
REMARK SMILES CCCCCCCCCCCCCC(=O)[O-]
REMARK SMILES IDX 8 1 9 2 10 3 11 4 12 5 13 6 14 7 15 8 16 9 7 10 6 11 5 12
REMARK SMILES IDX 4 13 3 14 2 15 1 16
REMARK H PARENT
REMARK Flexibility Score: inf
ROOT
ATOM      1  C   UNL     1     182.317 181.837 200.013  1.00  0.00     0.000 C 
ENDROOT
BRANCH   1   2
ATOM      2  C   UNL     1     181.412 182.397 201.121  1.00  0.00     0.000 C 
BRANCH   2   3
ATOM      3  C   UNL     1     180.955 183.835 200.839  1.00  0.00     0.000 C 
BRANCH   3   4
ATOM      4  C   UNL     1     180.787 184.666 202.124  1.00  0.00     0.000 C 
BRANCH   4   5
ATOM      5  C   UNL     1     181.314 186.101 201.973  1.00  0.00     0.006 C 
BRANCH   5   6
ATOM      6  C   UNL     1     181.266 186.596 200.521  1.00  0.00     0.053 C 
BRANCH   6   7
ATOM      7  C   UNL     1     181.586 188.056 200.456  1.00  0.00     0.041 C 
ATOM      8  O   UNL     1     180.683 188.891 200.188  1.00  0.00    -0.550 OA
ATOM      9  O   UNL     1     182.892 188.490 200.647  1.00  0.00    -0.550 OA
ENDBRANCH   6   7
ENDBRANCH   5   6
ENDBRANCH   4   5
ENDBRANCH   3   4
ENDBRANCH   2   3
ENDBRANCH   1   2
BRANCH   1  10
ATOM     10  C   UNL     1     183.655 181.356 200.588  1.00  0.00     0.000 C 
BRANCH  10  11
ATOM     11  C   UNL     1     183.836 181.832 202.035  1.00  0.00    -0.000 C 
BRANCH  11  12
ATOM     12  C   UNL     1     184.655 183.130 202.091  1.00  0.00    -0.000 C 
BRANCH  12  13
ATOM     13  C   UNL     1     185.128 183.584 200.694  1.00  0.00    -0.000 C 
BRANCH  13  14
ATOM     14  C   UNL     1     184.580 184.958 200.274  1.00  0.00    -0.000 C 
BRANCH  14  15
ATOM     15  C   UNL     1     184.309 185.059 198.768  1.00  0.00    -0.003 C 
ATOM     16  C   UNL     1     184.887 183.860 198.022  1.00  0.00     0.004 C 
ENDBRANCH  14  15
ENDBRANCH  13  14
ENDBRANCH  12  13
ENDBRANCH  11  12
ENDBRANCH  10  11
ENDBRANCH   1  10
TORSDOF 12
ENDMDL
MODEL 3
REMARK VINA RESULT:    -3.671      1.514      2.349
REMARK INTER + INTRA:          -8.007
REMARK INTER:                  -6.559
REMARK INTRA:                  -1.449
REMARK UNBOUND:                -1.762
REMARK SMILES CCCCCCCCCCCCCC(=O)[O-]
REMARK SMILES IDX 8 1 9 2 10 3 11 4 12 5 13 6 14 7 15 8 16 9 7 10 6 11 5 12
REMARK SMILES IDX 4 13 3 14 2 15 1 16
REMARK H PARENT
REMARK Flexibility Score: inf
ROOT
ATOM      1  C   UNL     1     179.899 185.039 201.439  1.00  0.00     0.000 C 
ENDROOT
BRANCH   1   2
ATOM      2  C   UNL     1     181.078 185.810 202.053  1.00  0.00     0.000 C 
BRANCH   2   3
ATOM      3  C   UNL     1     181.732 186.781 201.059  1.00  0.00     0.000 C 
BRANCH   3   4
ATOM      4  C   UNL     1     183.017 186.211 200.433  1.00  0.00     0.000 C 
BRANCH   4   5
ATOM      5  C   UNL     1     183.355 186.862 199.083  1.00  0.00     0.006 C 
BRANCH   5   6
ATOM      6  C   UNL     1     184.763 187.473 199.060  1.00  0.00     0.053 C 
BRANCH   6   7
ATOM      7  C   UNL     1     184.826 188.668 199.957  1.00  0.00     0.041 C 
ATOM      8  O   UNL     1     185.720 188.751 200.840  1.00  0.00    -0.550 OA
ATOM      9  O   UNL     1     183.871 189.671 199.848  1.00  0.00    -0.550 OA
ENDBRANCH   6   7
ENDBRANCH   5   6
ENDBRANCH   4   5
ENDBRANCH   3   4
ENDBRANCH   2   3
ENDBRANCH   1   2
BRANCH   1  10
ATOM     10  C   UNL     1     180.338 183.647 200.971  1.00  0.00     0.000 C 
BRANCH  10  11
ATOM     11  C   UNL     1     181.491 183.114 201.832  1.00  0.00    -0.000 C 
BRANCH  11  12
ATOM     12  C   UNL     1     181.871 181.684 201.421  1.00  0.00    -0.000 C 
BRANCH  12  13
ATOM     13  C   UNL     1     183.399 181.492 201.318  1.00  0.00    -0.000 C 
BRANCH  13  14
ATOM     14  C   UNL     1     184.111 182.615 200.546  1.00  0.00    -0.000 C 
BRANCH  14  15
ATOM     15  C   UNL     1     183.911 182.519 199.028  1.00  0.00    -0.003 C 
ATOM     16  C   UNL     1     184.802 183.513 198.290  1.00  0.00     0.004 C 
ENDBRANCH  14  15
ENDBRANCH  13  14
ENDBRANCH  12  13
ENDBRANCH  11  12
ENDBRANCH  10  11
ENDBRANCH   1  10
TORSDOF 12
ENDMDL
MODEL 4
REMARK VINA RESULT:    -3.630     13.882     16.853
REMARK INTER + INTRA:          -7.938
REMARK INTER:                  -6.233
REMARK INTRA:                  -1.705
REMARK UNBOUND:                -1.762
REMARK SMILES CCCCCCCCCCCCCC(=O)[O-]
REMARK SMILES IDX 8 1 9 2 10 3 11 4 12 5 13 6 14 7 15 8 16 9 7 10 6 11 5 12
REMARK SMILES IDX 4 13 3 14 2 15 1 16
REMARK H PARENT
REMARK Flexibility Score: inf
ROOT
ATOM      1  C   UNL     1     198.123 194.960 201.919  1.00  0.00     0.000 C 
ENDROOT
BRANCH   1   2
ATOM      2  C   UNL     1     198.850 193.615 201.768  1.00  0.00     0.000 C 
BRANCH   2   3
ATOM      3  C   UNL     1     197.923 192.412 201.994  1.00  0.00     0.000 C 
BRANCH   3   4
ATOM      4  C   UNL     1     196.470 192.697 201.575  1.00  0.00     0.000 C 
BRANCH   4   5
ATOM      5  C   UNL     1     196.161 192.212 200.150  1.00  0.00     0.006 C 
BRANCH   5   6
ATOM      6  C   UNL     1     194.980 191.233 200.104  1.00  0.00     0.053 C 
BRANCH   6   7
ATOM      7  C   UNL     1     193.764 191.908 199.551  1.00  0.00     0.041 C 
ATOM      8  O   UNL     1     193.758 192.326 198.363  1.00  0.00    -0.550 OA
ATOM      9  O   UNL     1     192.655 192.116 200.360  1.00  0.00    -0.550 OA
ENDBRANCH   6   7
ENDBRANCH   5   6
ENDBRANCH   4   5
ENDBRANCH   3   4
ENDBRANCH   2   3
ENDBRANCH   1   2
BRANCH   1  10
ATOM     10  C   UNL     1     198.583 195.956 200.848  1.00  0.00     0.000 C 
BRANCH  10  11
ATOM     11  C   UNL     1     198.042 197.363 201.135  1.00  0.00    -0.000 C 
BRANCH  11  12
ATOM     12  C   UNL     1     196.862 197.311 202.116  1.00  0.00    -0.000 C 
BRANCH  12  13
ATOM     13  C   UNL     1     195.502 197.449 201.402  1.00  0.00    -0.000 C 
BRANCH  13  14
ATOM     14  C   UNL     1     194.523 196.302 201.710  1.00  0.00    -0.000 C 
BRANCH  14  15
ATOM     15  C   UNL     1     194.227 195.424 200.488  1.00  0.00    -0.003 C 
ATOM     16  C   UNL     1     195.096 195.823 199.299  1.00  0.00     0.004 C 
ENDBRANCH  14  15
ENDBRANCH  13  14
ENDBRANCH  12  13
ENDBRANCH  11  12
ENDBRANCH  10  11
ENDBRANCH   1  10
TORSDOF 12
ENDMDL
MODEL 5
REMARK VINA RESULT:    -3.576      1.944      4.560
REMARK INTER + INTRA:          -7.847
REMARK INTER:                  -6.508
REMARK INTRA:                  -1.339
REMARK UNBOUND:                -1.762
REMARK SMILES CCCCCCCCCCCCCC(=O)[O-]
REMARK SMILES IDX 8 1 9 2 10 3 11 4 12 5 13 6 14 7 15 8 16 9 7 10 6 11 5 12
REMARK SMILES IDX 4 13 3 14 2 15 1 16
REMARK H PARENT
REMARK Flexibility Score: inf
ROOT
ATOM      1  C   UNL     1     179.707 184.400 201.078  1.00  0.00     0.000 C 
ENDROOT
BRANCH   1   2
ATOM      2  C   UNL     1     180.584 183.212 200.652  1.00  0.00     0.000 C 
BRANCH   2   3
ATOM      3  C   UNL     1     181.913 183.153 201.419  1.00  0.00     0.000 C 
BRANCH   3   4
ATOM      4  C   UNL     1     182.526 181.741 201.432  1.00  0.00     0.000 C 
BRANCH   4   5
ATOM      5  C   UNL     1     183.833 181.658 200.629  1.00  0.00     0.006 C 
BRANCH   5   6
ATOM      6  C   UNL     1     183.712 182.298 199.240  1.00  0.00     0.053 C 
BRANCH   6   7
ATOM      7  C   UNL     1     184.860 183.225 198.991  1.00  0.00     0.041 C 
ATOM      8  O   UNL     1     185.643 183.528 199.929  1.00  0.00    -0.550 OA
ATOM      9  O   UNL     1     185.039 183.791 197.735  1.00  0.00    -0.550 OA
ENDBRANCH   6   7
ENDBRANCH   5   6
ENDBRANCH   4   5
ENDBRANCH   3   4
ENDBRANCH   2   3
ENDBRANCH   1   2
BRANCH   1  10
ATOM     10  C   UNL     1     180.430 185.272 202.110  1.00  0.00     0.000 C 
BRANCH  10  11
ATOM     11  C   UNL     1     180.295 186.761 201.765  1.00  0.00    -0.000 C 
BRANCH  11  12
ATOM     12  C   UNL     1     180.533 187.004 200.268  1.00  0.00    -0.000 C 
BRANCH  12  13
ATOM     13  C   UNL     1     181.962 187.507 199.977  1.00  0.00    -0.000 C 
BRANCH  13  14
ATOM     14  C   UNL     1     182.934 186.393 199.553  1.00  0.00    -0.000 C 
BRANCH  14  15
ATOM     15  C   UNL     1     184.390 186.868 199.470  1.00  0.00    -0.003 C 
ATOM     16  C   UNL     1     184.484 188.243 198.815  1.00  0.00     0.004 C 
ENDBRANCH  14  15
ENDBRANCH  13  14
ENDBRANCH  12  13
ENDBRANCH  11  12
ENDBRANCH  10  11
ENDBRANCH   1  10
TORSDOF 12
ENDMDL
MODEL 6
REMARK VINA RESULT:    -3.571      2.830      4.858
REMARK INTER + INTRA:          -7.837
REMARK INTER:                  -6.384
REMARK INTRA:                  -1.454
REMARK UNBOUND:                -1.762
REMARK SMILES CCCCCCCCCCCCCC(=O)[O-]
REMARK SMILES IDX 8 1 9 2 10 3 11 4 12 5 13 6 14 7 15 8 16 9 7 10 6 11 5 12
REMARK SMILES IDX 4 13 3 14 2 15 1 16
REMARK H PARENT
REMARK Flexibility Score: inf
ROOT
ATOM      1  C   UNL     1     180.446 187.535 200.035  1.00  0.00     0.000 C 
ENDROOT
BRANCH   1   2
ATOM      2  C   UNL     1     179.826 187.031 201.347  1.00  0.00     0.000 C 
BRANCH   2   3
ATOM      3  C   UNL     1     179.328 185.581 201.247  1.00  0.00     0.000 C 
BRANCH   3   4
ATOM      4  C   UNL     1     180.279 184.581 201.928  1.00  0.00     0.000 C 
BRANCH   4   5
ATOM      5  C   UNL     1     180.894 183.581 200.935  1.00  0.00     0.006 C 
BRANCH   5   6
ATOM      6  C   UNL     1     181.992 182.720 201.572  1.00  0.00     0.053 C 
BRANCH   6   7
ATOM      7  C   UNL     1     182.204 181.472 200.774  1.00  0.00     0.041 C 
ATOM      8  O   UNL     1     182.146 181.507 199.517  1.00  0.00    -0.550 OA
ATOM      9  O   UNL     1     182.420 180.261 201.420  1.00  0.00    -0.550 OA
ENDBRANCH   6   7
ENDBRANCH   5   6
ENDBRANCH   4   5
ENDBRANCH   3   4
ENDBRANCH   2   3
ENDBRANCH   1   2
BRANCH   1  10
ATOM     10  C   UNL     1     181.948 187.795 200.203  1.00  0.00     0.000 C 
BRANCH  10  11
ATOM     11  C   UNL     1     182.766 186.968 199.202  1.00  0.00    -0.000 C 
BRANCH  11  12
ATOM     12  C   UNL     1     183.605 185.903 199.922  1.00  0.00    -0.000 C 
BRANCH  12  13
ATOM     13  C   UNL     1     184.355 184.983 198.936  1.00  0.00    -0.000 C 
BRANCH  13  14
ATOM     14  C   UNL     1     184.946 183.724 199.593  1.00  0.00    -0.000 C 
BRANCH  14  15
ATOM     15  C   UNL     1     185.816 184.041 200.816  1.00  0.00    -0.003 C 
ATOM     16  C   UNL     1     185.682 182.959 201.883  1.00  0.00     0.004 C 
ENDBRANCH  14  15
ENDBRANCH  13  14
ENDBRANCH  12  13
ENDBRANCH  11  12
ENDBRANCH  10  11
ENDBRANCH   1  10
TORSDOF 12
ENDMDL
MODEL 7
REMARK VINA RESULT:    -3.569      1.501      3.364
REMARK INTER + INTRA:          -7.835
REMARK INTER:                  -6.429
REMARK INTRA:                  -1.406
REMARK UNBOUND:                -1.762
REMARK SMILES CCCCCCCCCCCCCC(=O)[O-]
REMARK SMILES IDX 8 1 9 2 10 3 11 4 12 5 13 6 14 7 15 8 16 9 7 10 6 11 5 12
REMARK SMILES IDX 4 13 3 14 2 15 1 16
REMARK H PARENT
REMARK Flexibility Score: inf
ROOT
ATOM      1  C   UNL     1     184.210 184.505 198.603  1.00  0.00     0.000 C 
ENDROOT
BRANCH   1   2
ATOM      2  C   UNL     1     184.236 185.913 199.218  1.00  0.00     0.000 C 
BRANCH   2   3
ATOM      3  C   UNL     1     182.869 186.343 199.770  1.00  0.00     0.000 C 
BRANCH   3   4
ATOM      4  C   UNL     1     182.931 187.680 200.529  1.00  0.00     0.000 C 
BRANCH   4   5
ATOM      5  C   UNL     1     184.212 188.473 200.225  1.00  0.00     0.006 C 
BRANCH   5   6
ATOM      6  C   UNL     1     183.952 189.686 199.321  1.00  0.00     0.053 C 
BRANCH   6   7
ATOM      7  C   UNL     1     184.669 189.528 198.017  1.00  0.00     0.041 C 
ATOM      8  O   UNL     1     185.842 189.964 197.883  1.00  0.00    -0.550 OA
ATOM      9  O   UNL     1     184.025 188.939 196.936  1.00  0.00    -0.550 OA
ENDBRANCH   6   7
ENDBRANCH   5   6
ENDBRANCH   4   5
ENDBRANCH   3   4
ENDBRANCH   2   3
ENDBRANCH   1   2
BRANCH   1  10
ATOM     10  C   UNL     1     185.260 183.600 199.258  1.00  0.00     0.000 C 
BRANCH  10  11
ATOM     11  C   UNL     1     185.639 184.115 200.652  1.00  0.00    -0.000 C 
BRANCH  11  12
ATOM     12  C   UNL     1     185.418 183.033 201.719  1.00  0.00    -0.000 C 
BRANCH  12  13
ATOM     13  C   UNL     1     183.935 182.906 202.125  1.00  0.00    -0.000 C 
BRANCH  13  14
ATOM     14  C   UNL     1     183.348 181.504 201.888  1.00  0.00    -0.000 C 
BRANCH  14  15
ATOM     15  C   UNL     1     181.885 181.537 201.426  1.00  0.00    -0.003 C 
ATOM     16  C   UNL     1     181.570 182.836 200.690  1.00  0.00     0.004 C 
ENDBRANCH  14  15
ENDBRANCH  13  14
ENDBRANCH  12  13
ENDBRANCH  11  12
ENDBRANCH  10  11
ENDBRANCH   1  10
TORSDOF 12
ENDMDL
MODEL 8
REMARK VINA RESULT:    -3.560      1.157      3.245
REMARK INTER + INTRA:          -7.819
REMARK INTER:                  -6.460
REMARK INTRA:                  -1.358
REMARK UNBOUND:                -1.762
REMARK SMILES CCCCCCCCCCCCCC(=O)[O-]
REMARK SMILES IDX 8 1 9 2 10 3 11 4 12 5 13 6 14 7 15 8 16 9 7 10 6 11 5 12
REMARK SMILES IDX 4 13 3 14 2 15 1 16
REMARK H PARENT
REMARK Flexibility Score: inf
ROOT
ATOM      1  C   UNL     1     184.726 183.173 198.839  1.00  0.00     0.000 C 
ENDROOT
BRANCH   1   2
ATOM      2  C   UNL     1     185.297 183.839 200.100  1.00  0.00     0.000 C 
BRANCH   2   3
ATOM      3  C   UNL     1     185.014 185.348 200.151  1.00  0.00     0.000 C 
BRANCH   3   4
ATOM      4  C   UNL     1     183.932 185.782 199.147  1.00  0.00     0.000 C 
BRANCH   4   5
ATOM      5  C   UNL     1     183.880 187.306 198.956  1.00  0.00     0.006 C 
BRANCH   5   6
ATOM      6  C   UNL     1     185.274 187.949 198.976  1.00  0.00     0.053 C 
BRANCH   6   7
ATOM      7  C   UNL     1     185.344 189.071 197.987  1.00  0.00     0.041 C 
ATOM      8  O   UNL     1     186.335 189.847 197.980  1.00  0.00    -0.550 OA
ATOM      9  O   UNL     1     184.293 189.287 197.105  1.00  0.00    -0.550 OA
ENDBRANCH   6   7
ENDBRANCH   5   6
ENDBRANCH   4   5
ENDBRANCH   3   4
ENDBRANCH   2   3
ENDBRANCH   1   2
BRANCH   1  10
ATOM     10  C   UNL     1     183.717 182.079 199.206  1.00  0.00     0.000 C 
BRANCH  10  11
ATOM     11  C   UNL     1     183.790 181.741 200.700  1.00  0.00    -0.000 C 
BRANCH  11  12
ATOM     12  C   UNL     1     182.498 181.059 201.175  1.00  0.00    -0.000 C 
BRANCH  12  13
ATOM     13  C   UNL     1     181.500 182.062 201.790  1.00  0.00    -0.000 C 
BRANCH  13  14
ATOM     14  C   UNL     1     182.118 183.435 202.103  1.00  0.00    -0.000 C 
BRANCH  14  15
ATOM     15  C   UNL     1     181.082 184.566 202.125  1.00  0.00    -0.003 C 
ATOM     16  C   UNL     1     181.749 185.928 201.953  1.00  0.00     0.004 C 
ENDBRANCH  14  15
ENDBRANCH  13  14
ENDBRANCH  12  13
ENDBRANCH  11  12
ENDBRANCH  10  11
ENDBRANCH   1  10
TORSDOF 12
ENDMDL
MODEL 9
REMARK VINA RESULT:    -3.554      2.279      3.904
REMARK INTER + INTRA:          -7.809
REMARK INTER:                  -6.464
REMARK INTRA:                  -1.345
REMARK UNBOUND:                -1.762
REMARK SMILES CCCCCCCCCCCCCC(=O)[O-]
REMARK SMILES IDX 8 1 9 2 10 3 11 4 12 5 13 6 14 7 15 8 16 9 7 10 6 11 5 12
REMARK SMILES IDX 4 13 3 14 2 15 1 16
REMARK H PARENT
REMARK Flexibility Score: inf
ROOT
ATOM      1  C   UNL     1     184.328 184.491 198.794  1.00  0.00     0.000 C 
ENDROOT
BRANCH   1   2
ATOM      2  C   UNL     1     183.702 185.474 199.794  1.00  0.00     0.000 C 
BRANCH   2   3
ATOM      3  C   UNL     1     183.295 186.803 199.141  1.00  0.00     0.000 C 
BRANCH   3   4
ATOM      4  C   UNL     1     184.507 187.631 198.678  1.00  0.00     0.000 C 
BRANCH   4   5
ATOM      5  C   UNL     1     185.448 187.999 199.836  1.00  0.00     0.006 C 
BRANCH   5   6
ATOM      6  C   UNL     1     186.928 187.836 199.465  1.00  0.00     0.053 C 
BRANCH   6   7
ATOM      7  C   UNL     1     187.772 188.779 200.263  1.00  0.00     0.041 C 
ATOM      8  O   UNL     1     187.760 190.012 200.005  1.00  0.00    -0.550 OA
ATOM      9  O   UNL     1     188.606 188.292 201.261  1.00  0.00    -0.550 OA
ENDBRANCH   6   7
ENDBRANCH   5   6
ENDBRANCH   4   5
ENDBRANCH   3   4
ENDBRANCH   2   3
ENDBRANCH   1   2
BRANCH   1  10
ATOM     10  C   UNL     1     184.899 183.264 199.515  1.00  0.00     0.000 C 
BRANCH  10  11
ATOM     11  C   UNL     1     185.618 183.670 200.808  1.00  0.00    -0.000 C 
BRANCH  11  12
ATOM     12  C   UNL     1     185.226 182.747 201.970  1.00  0.00    -0.000 C 
BRANCH  12  13
ATOM     13  C   UNL     1     183.697 182.617 202.125  1.00  0.00    -0.000 C 
BRANCH  13  14
ATOM     14  C   UNL     1     183.187 181.169 202.027  1.00  0.00    -0.000 C 
BRANCH  14  15
ATOM     15  C   UNL     1     182.089 180.992 200.971  1.00  0.00    -0.003 C 
ATOM     16  C   UNL     1     181.430 182.326 200.632  1.00  0.00     0.004 C 
ENDBRANCH  14  15
ENDBRANCH  13  14
ENDBRANCH  12  13
ENDBRANCH  11  12
ENDBRANCH  10  11
ENDBRANCH   1  10
TORSDOF 12
ENDMDL
