MODEL 1
REMARK VINA RESULT:    -5.149      0.000      0.000
REMARK INTER + INTRA:          -8.606
REMARK INTER:                  -8.159
REMARK INTRA:                  -0.447
REMARK UNBOUND:                -0.447
REMARK SMILES CCCCCCCCCCCC(=O)[O-]
REMARK SMILES IDX 7 1 8 2 9 3 10 4 11 5 12 6 13 7 14 8 6 9 5 10 4 11 3 12 2 13
REMARK SMILES IDX 1 14
REMARK H PARENT
REMARK Flexibility Score: inf
ROOT
ATOM      1  C   UNL     1      22.301 -14.342  20.198  1.00  0.00     0.000 C 
ENDROOT
BRANCH   1   2
ATOM      2  C   UNL     1      23.376 -14.091  21.271  1.00  0.00     0.000 C 
BRANCH   2   3
ATOM      3  C   UNL     1      23.422 -12.626  21.737  1.00  0.00     0.000 C 
BRANCH   3   4
ATOM      4  C   UNL     1      22.056 -11.931  21.627  1.00  0.00     0.006 C 
BRANCH   4   5
ATOM      5  C   UNL     1      21.816 -10.916  22.753  1.00  0.00     0.053 C 
BRANCH   5   6
ATOM      6  C   UNL     1      20.535 -11.219  23.464  1.00  0.00     0.041 C 
ATOM      7  O   UNL     1      20.345 -10.795  24.635  1.00  0.00    -0.550 OA
ATOM      8  O   UNL     1      19.571 -12.011  22.853  1.00  0.00    -0.550 OA
ENDBRANCH   5   6
ENDBRANCH   4   5
ENDBRANCH   3   4
ENDBRANCH   2   3
ENDBRANCH   1   2
BRANCH   1   9
ATOM      9  C   UNL     1      22.711 -15.393  19.145  1.00  0.00     0.000 C 
BRANCH   9  10
ATOM     10  C   UNL     1      23.151 -16.719  19.791  1.00  0.00    -0.000 C 
BRANCH  10  11
ATOM     11  C   UNL     1      23.510 -17.792  18.752  1.00  0.00    -0.000 C 
BRANCH  11  12
ATOM     12  C   UNL     1      23.019 -17.431  17.339  1.00  0.00    -0.000 C 
BRANCH  12  13
ATOM     13  C   UNL     1      22.967 -18.650  16.405  1.00  0.00    -0.003 C 
ATOM     14  C   UNL     1      21.813 -19.597  16.736  1.00  0.00     0.004 C 
ENDBRANCH  12  13
ENDBRANCH  11  12
ENDBRANCH  10  11
ENDBRANCH   9  10
ENDBRANCH   1   9
TORSDOF 10
ENDMDL
MODEL 2
REMARK VINA RESULT:    -5.062      2.872      4.723
REMARK INTER + INTRA:          -8.468
REMARK INTER:                  -8.084
REMARK INTRA:                  -0.384
REMARK UNBOUND:                -0.447
REMARK SMILES CCCCCCCCCCCC(=O)[O-]
REMARK SMILES IDX 7 1 8 2 9 3 10 4 11 5 12 6 13 7 14 8 6 9 5 10 4 11 3 12 2 13
REMARK SMILES IDX 1 14
REMARK H PARENT
REMARK Flexibility Score: inf
ROOT
ATOM      1  C   UNL     1      21.864 -10.813  22.612  1.00  0.00     0.000 C 
ENDROOT
BRANCH   1   2
ATOM      2  C   UNL     1      20.588 -11.121  23.414  1.00  0.00     0.000 C 
BRANCH   2   3
ATOM      3  C   UNL     1      20.517 -10.348  24.742  1.00  0.00     0.000 C 
BRANCH   3   4
ATOM      4  C   UNL     1      21.018  -8.901  24.607  1.00  0.00     0.006 C 
BRANCH   4   5
ATOM      5  C   UNL     1      20.151  -7.900  25.383  1.00  0.00     0.053 C 
BRANCH   5   6
ATOM      6  C   UNL     1      21.014  -6.932  26.130  1.00  0.00     0.041 C 
ATOM      7  O   UNL     1      21.305  -7.143  27.337  1.00  0.00    -0.550 OA
ATOM      8  O   UNL     1      21.457  -5.771  25.508  1.00  0.00    -0.550 OA
ENDBRANCH   5   6
ENDBRANCH   4   5
ENDBRANCH   3   4
ENDBRANCH   2   3
ENDBRANCH   1   2
BRANCH   1   9
ATOM      9  C   UNL     1      22.283 -11.948  21.653  1.00  0.00     0.000 C 
BRANCH   9  10
ATOM     10  C   UNL     1      21.088 -12.823  21.236  1.00  0.00    -0.000 C 
BRANCH  10  11
ATOM     11  C   UNL     1      21.434 -13.790  20.093  1.00  0.00    -0.000 C 
BRANCH  11  12
ATOM     12  C   UNL     1      22.667 -14.656  20.408  1.00  0.00    -0.000 C 
BRANCH  12  13
ATOM     13  C   UNL     1      22.909 -15.741  19.347  1.00  0.00    -0.003 C 
ATOM     14  C   UNL     1      23.303 -17.085  19.959  1.00  0.00     0.004 C 
ENDBRANCH  12  13
ENDBRANCH  11  12
ENDBRANCH  10  11
ENDBRANCH   9  10
ENDBRANCH   1   9
TORSDOF 10
ENDMDL
MODEL 3
REMARK VINA RESULT:    -5.051      3.632      8.557
REMARK INTER + INTRA:          -8.452
REMARK INTER:                  -8.112
REMARK INTRA:                  -0.340
REMARK UNBOUND:                -0.447
REMARK SMILES CCCCCCCCCCCC(=O)[O-]
REMARK SMILES IDX 7 1 8 2 9 3 10 4 11 5 12 6 13 7 14 8 6 9 5 10 4 11 3 12 2 13
REMARK SMILES IDX 1 14
REMARK H PARENT
REMARK Flexibility Score: inf
ROOT
ATOM      1  C   UNL     1      22.838 -12.080  21.749  1.00  0.00     0.000 C 
ENDROOT
BRANCH   1   2
ATOM      2  C   UNL     1      22.086 -13.238  21.069  1.00  0.00     0.000 C 
BRANCH   2   3
ATOM      3  C   UNL     1      22.944 -14.508  20.935  1.00  0.00     0.000 C 
BRANCH   3   4
ATOM      4  C   UNL     1      22.742 -15.215  19.585  1.00  0.00     0.006 C 
BRANCH   4   5
ATOM      5  C   UNL     1      23.139 -16.697  19.629  1.00  0.00     0.053 C 
BRANCH   5   6
ATOM      6  C   UNL     1      23.000 -17.314  18.273  1.00  0.00     0.041 C 
ATOM      7  O   UNL     1      23.083 -16.598  17.240  1.00  0.00    -0.550 OA
ATOM      8  O   UNL     1      22.729 -18.671  18.150  1.00  0.00    -0.550 OA
ENDBRANCH   5   6
ENDBRANCH   4   5
ENDBRANCH   3   4
ENDBRANCH   2   3
ENDBRANCH   1   2
BRANCH   1   9
ATOM      9  C   UNL     1      21.920 -10.921  22.192  1.00  0.00     0.000 C 
BRANCH   9  10
ATOM     10  C   UNL     1      20.766 -11.406  23.087  1.00  0.00    -0.000 C 
BRANCH  10  11
ATOM     11  C   UNL     1      20.568 -10.521  24.327  1.00  0.00    -0.000 C 
BRANCH  11  12
ATOM     12  C   UNL     1      21.187  -9.122  24.157  1.00  0.00    -0.000 C 
BRANCH  12  13
ATOM     13  C   UNL     1      20.981  -8.234  25.394  1.00  0.00    -0.003 C 
ATOM     14  C   UNL     1      19.812  -7.262  25.233  1.00  0.00     0.004 C 
ENDBRANCH  12  13
ENDBRANCH  11  12
ENDBRANCH  10  11
ENDBRANCH   9  10
ENDBRANCH   1   9
TORSDOF 10
ENDMDL
MODEL 4
REMARK VINA RESULT:    -5.031      4.110      8.113
REMARK INTER + INTRA:          -8.419
REMARK INTER:                  -8.030
REMARK INTRA:                  -0.389
REMARK UNBOUND:                -0.447
REMARK SMILES CCCCCCCCCCCC(=O)[O-]
REMARK SMILES IDX 7 1 8 2 9 3 10 4 11 5 12 6 13 7 14 8 6 9 5 10 4 11 3 12 2 13
REMARK SMILES IDX 1 14
REMARK H PARENT
REMARK Flexibility Score: inf
ROOT
ATOM      1  C   UNL     1      22.179 -14.137  20.429  1.00  0.00     0.000 C 
ENDROOT
BRANCH   1   2
ATOM      2  C   UNL     1      22.646 -15.146  19.365  1.00  0.00     0.000 C 
BRANCH   2   3
ATOM      3  C   UNL     1      23.042 -16.505  19.965  1.00  0.00     0.000 C 
BRANCH   3   4
ATOM      4  C   UNL     1      23.509 -17.507  18.897  1.00  0.00     0.006 C 
BRANCH   4   5
ATOM      5  C   UNL     1      23.075 -17.106  17.480  1.00  0.00     0.053 C 
BRANCH   5   6
ATOM      6  C   UNL     1      23.016 -18.310  16.593  1.00  0.00     0.041 C 
ATOM      7  O   UNL     1      21.980 -19.025  16.565  1.00  0.00    -0.550 OA
ATOM      8  O   UNL     1      24.123 -18.670  15.835  1.00  0.00    -0.550 OA
ENDBRANCH   5   6
ENDBRANCH   4   5
ENDBRANCH   3   4
ENDBRANCH   2   3
ENDBRANCH   1   2
BRANCH   1   9
ATOM      9  C   UNL     1      23.302 -13.677  21.382  1.00  0.00     0.000 C 
BRANCH   9  10
ATOM     10  C   UNL     1      23.326 -12.148  21.552  1.00  0.00    -0.000 C 
BRANCH  10  11
ATOM     11  C   UNL     1      22.007 -11.596  22.116  1.00  0.00    -0.000 C 
BRANCH  11  12
ATOM     12  C   UNL     1      22.066 -10.080  22.374  1.00  0.00    -0.000 C 
BRANCH  12  13
ATOM     13  C   UNL     1      21.341  -9.676  23.667  1.00  0.00    -0.003 C 
ATOM     14  C   UNL     1      20.571 -10.836  24.298  1.00  0.00     0.004 C 
ENDBRANCH  12  13
ENDBRANCH  11  12
ENDBRANCH  10  11
ENDBRANCH   9  10
ENDBRANCH   1   9
TORSDOF 10
ENDMDL
MODEL 5
REMARK VINA RESULT:    -4.936      1.547      2.300
REMARK INTER + INTRA:          -8.269
REMARK INTER:                  -7.940
REMARK INTRA:                  -0.329
REMARK UNBOUND:                -0.447
REMARK SMILES CCCCCCCCCCCC(=O)[O-]
REMARK SMILES IDX 7 1 8 2 9 3 10 4 11 5 12 6 13 7 14 8 6 9 5 10 4 11 3 12 2 13
REMARK SMILES IDX 1 14
REMARK H PARENT
REMARK Flexibility Score: inf
ROOT
ATOM      1  C   UNL     1      22.525 -13.095  21.272  1.00  0.00     0.000 C 
ENDROOT
BRANCH   1   2
ATOM      2  C   UNL     1      21.017 -12.873  21.060  1.00  0.00     0.000 C 
BRANCH   2   3
ATOM      3  C   UNL     1      20.345 -12.167  22.250  1.00  0.00     0.000 C 
BRANCH   3   4
ATOM      4  C   UNL     1      21.288 -11.180  22.956  1.00  0.00     0.006 C 
BRANCH   4   5
ATOM      5  C   UNL     1      20.673 -10.585  24.231  1.00  0.00     0.053 C 
BRANCH   5   6
ATOM      6  C   UNL     1      20.928  -9.112  24.293  1.00  0.00     0.041 C 
ATOM      7  O   UNL     1      21.516  -8.530  23.343  1.00  0.00    -0.550 OA
ATOM      8  O   UNL     1      20.560  -8.389  25.421  1.00  0.00    -0.550 OA
ENDBRANCH   5   6
ENDBRANCH   4   5
ENDBRANCH   3   4
ENDBRANCH   2   3
ENDBRANCH   1   2
BRANCH   1   9
ATOM      9  C   UNL     1      22.999 -14.519  20.910  1.00  0.00     0.000 C 
BRANCH   9  10
ATOM     10  C   UNL     1      22.592 -14.917  19.480  1.00  0.00    -0.000 C 
BRANCH  10  11
ATOM     11  C   UNL     1      22.973 -16.366  19.140  1.00  0.00    -0.000 C 
BRANCH  11  12
ATOM     12  C   UNL     1      22.940 -16.644  17.627  1.00  0.00    -0.000 C 
BRANCH  12  13
ATOM     13  C   UNL     1      23.496 -18.032  17.272  1.00  0.00    -0.003 C 
ATOM     14  C   UNL     1      22.586 -18.804  16.316  1.00  0.00     0.004 C 
ENDBRANCH  12  13
ENDBRANCH  11  12
ENDBRANCH  10  11
ENDBRANCH   9  10
ENDBRANCH   1   9
TORSDOF 10
ENDMDL
MODEL 6
REMARK VINA RESULT:    -4.885      3.521      8.753
REMARK INTER + INTRA:          -8.188
REMARK INTER:                  -7.807
REMARK INTRA:                  -0.381
REMARK UNBOUND:                -0.447
REMARK SMILES CCCCCCCCCCCC(=O)[O-]
REMARK SMILES IDX 7 1 8 2 9 3 10 4 11 5 12 6 13 7 14 8 6 9 5 10 4 11 3 12 2 13
REMARK SMILES IDX 1 14
REMARK H PARENT
REMARK Flexibility Score: inf
ROOT
ATOM      1  C   UNL     1      21.847 -10.820  22.287  1.00  0.00     0.000 C 
ENDROOT
BRANCH   1   2
ATOM      2  C   UNL     1      22.775 -12.003  21.956  1.00  0.00     0.000 C 
BRANCH   2   3
ATOM      3  C   UNL     1      22.065 -13.114  21.166  1.00  0.00     0.000 C 
BRANCH   3   4
ATOM      4  C   UNL     1      22.977 -14.324  20.903  1.00  0.00     0.006 C 
BRANCH   4   5
ATOM      5  C   UNL     1      22.661 -15.025  19.575  1.00  0.00     0.053 C 
BRANCH   5   6
ATOM      6  C   UNL     1      23.076 -16.461  19.632  1.00  0.00     0.041 C 
ATOM      7  O   UNL     1      23.353 -16.996  20.738  1.00  0.00    -0.550 OA
ATOM      8  O   UNL     1      23.204 -17.196  18.460  1.00  0.00    -0.550 OA
ENDBRANCH   5   6
ENDBRANCH   4   5
ENDBRANCH   3   4
ENDBRANCH   2   3
ENDBRANCH   1   2
BRANCH   1   9
ATOM      9  C   UNL     1      20.629 -11.211  23.151  1.00  0.00     0.000 C 
BRANCH   9  10
ATOM     10  C   UNL     1      20.592 -10.437  24.481  1.00  0.00    -0.000 C 
BRANCH  10  11
ATOM     11  C   UNL     1      20.890  -8.941  24.302  1.00  0.00    -0.000 C 
BRANCH  11  12
ATOM     12  C   UNL     1      20.185  -8.070  25.357  1.00  0.00    -0.000 C 
BRANCH  12  13
ATOM     13  C   UNL     1      21.163  -7.165  26.122  1.00  0.00    -0.003 C 
ATOM     14  C   UNL     1      22.595  -7.270  25.597  1.00  0.00     0.004 C 
ENDBRANCH  12  13
ENDBRANCH  11  12
ENDBRANCH  10  11
ENDBRANCH   9  10
ENDBRANCH   1   9
TORSDOF 10
ENDMDL
MODEL 7
REMARK VINA RESULT:    -4.838      3.419      5.746
REMARK INTER + INTRA:          -8.114
REMARK INTER:                  -7.665
REMARK INTRA:                  -0.449
REMARK UNBOUND:                -0.447
REMARK SMILES CCCCCCCCCCCC(=O)[O-]
REMARK SMILES IDX 7 1 8 2 9 3 10 4 11 5 12 6 13 7 14 8 6 9 5 10 4 11 3 12 2 13
REMARK SMILES IDX 1 14
REMARK H PARENT
REMARK Flexibility Score: inf
ROOT
ATOM      1  C   UNL     1      21.007 -10.889  23.800  1.00  0.00     0.000 C 
ENDROOT
BRANCH   1   2
ATOM      2  C   UNL     1      20.636  -9.671  24.665  1.00  0.00     0.000 C 
BRANCH   2   3
ATOM      3  C   UNL     1      21.568  -8.470  24.434  1.00  0.00     0.000 C 
BRANCH   3   4
ATOM      4  C   UNL     1      20.803  -7.200  24.030  1.00  0.00     0.006 C 
BRANCH   4   5
ATOM      5  C   UNL     1      19.671  -6.856  25.008  1.00  0.00     0.053 C 
BRANCH   5   6
ATOM      6  C   UNL     1      18.925  -5.647  24.536  1.00  0.00     0.041 C 
ATOM      7  O   UNL     1      17.702  -5.512  24.807  1.00  0.00    -0.550 OA
ATOM      8  O   UNL     1      19.567  -4.694  23.756  1.00  0.00    -0.550 OA
ENDBRANCH   5   6
ENDBRANCH   4   5
ENDBRANCH   3   4
ENDBRANCH   2   3
ENDBRANCH   1   2
BRANCH   1   9
ATOM      9  C   UNL     1      21.894 -10.540  22.586  1.00  0.00     0.000 C 
BRANCH   9  10
ATOM     10  C   UNL     1      22.287 -11.790  21.778  1.00  0.00    -0.000 C 
BRANCH  10  11
ATOM     11  C   UNL     1      21.074 -12.653  21.400  1.00  0.00    -0.000 C 
BRANCH  11  12
ATOM     12  C   UNL     1      21.377 -13.620  20.241  1.00  0.00    -0.000 C 
BRANCH  12  13
ATOM     13  C   UNL     1      22.636 -14.464  20.494  1.00  0.00    -0.003 C 
ATOM     14  C   UNL     1      22.852 -15.534  19.424  1.00  0.00     0.004 C 
ENDBRANCH  12  13
ENDBRANCH  11  12
ENDBRANCH  10  11
ENDBRANCH   9  10
ENDBRANCH   1   9
TORSDOF 10
ENDMDL
MODEL 8
REMARK VINA RESULT:    -4.804      3.413      5.756
REMARK INTER + INTRA:          -8.061
REMARK INTER:                  -7.636
REMARK INTRA:                  -0.425
REMARK UNBOUND:                -0.447
REMARK SMILES CCCCCCCCCCCC(=O)[O-]
REMARK SMILES IDX 7 1 8 2 9 3 10 4 11 5 12 6 13 7 14 8 6 9 5 10 4 11 3 12 2 13
REMARK SMILES IDX 1 14
REMARK H PARENT
REMARK Flexibility Score: inf
ROOT
ATOM      1  C   UNL     1      20.790 -10.949  23.563  1.00  0.00     0.000 C 
ENDROOT
BRANCH   1   2
ATOM      2  C   UNL     1      20.634  -9.836  24.615  1.00  0.00     0.000 C 
BRANCH   2   3
ATOM      3  C   UNL     1      21.081  -8.459  24.097  1.00  0.00     0.000 C 
BRANCH   3   4
ATOM      4  C   UNL     1      21.981  -7.717  25.099  1.00  0.00     0.006 C 
BRANCH   4   5
ATOM      5  C   UNL     1      21.266  -7.412  26.422  1.00  0.00     0.053 C 
BRANCH   5   6
ATOM      6  C   UNL     1      22.215  -6.785  27.394  1.00  0.00     0.041 C 
ATOM      7  O   UNL     1      21.794  -6.344  28.496  1.00  0.00    -0.550 OA
ATOM      8  O   UNL     1      23.557  -6.643  27.064  1.00  0.00    -0.550 OA
ENDBRANCH   5   6
ENDBRANCH   4   5
ENDBRANCH   3   4
ENDBRANCH   2   3
ENDBRANCH   1   2
BRANCH   1   9
ATOM      9  C   UNL     1      21.838 -10.630  22.475  1.00  0.00     0.000 C 
BRANCH   9  10
ATOM     10  C   UNL     1      22.269 -11.889  21.702  1.00  0.00    -0.000 C 
BRANCH  10  11
ATOM     11  C   UNL     1      21.077 -12.769  21.295  1.00  0.00    -0.000 C 
BRANCH  11  12
ATOM     12  C   UNL     1      21.421 -13.734  20.147  1.00  0.00    -0.000 C 
BRANCH  12  13
ATOM     13  C   UNL     1      22.650 -14.602  20.456  1.00  0.00    -0.003 C 
ATOM     14  C   UNL     1      22.873 -15.700  19.416  1.00  0.00     0.004 C 
ENDBRANCH  12  13
ENDBRANCH  11  12
ENDBRANCH  10  11
ENDBRANCH   9  10
ENDBRANCH   1   9
TORSDOF 10
ENDMDL
MODEL 9
REMARK VINA RESULT:    -4.796      1.590      3.012
REMARK INTER + INTRA:          -8.047
REMARK INTER:                  -7.657
REMARK INTRA:                  -0.390
REMARK UNBOUND:                -0.447
REMARK SMILES CCCCCCCCCCCC(=O)[O-]
REMARK SMILES IDX 7 1 8 2 9 3 10 4 11 5 12 6 13 7 14 8 6 9 5 10 4 11 3 12 2 13
REMARK SMILES IDX 1 14
REMARK H PARENT
REMARK Flexibility Score: inf
ROOT
ATOM      1  C   UNL     1      22.987 -16.409  17.696  1.00  0.00     0.000 C 
ENDROOT
BRANCH   1   2
ATOM      2  C   UNL     1      22.531 -15.247  18.597  1.00  0.00     0.000 C 
BRANCH   2   3
ATOM      3  C   UNL     1      22.898 -15.462  20.075  1.00  0.00     0.000 C 
BRANCH   3   4
ATOM      4  C   UNL     1      22.857 -14.157  20.887  1.00  0.00     0.006 C 
BRANCH   4   5
ATOM      5  C   UNL     1      21.518 -13.418  20.752  1.00  0.00     0.053 C 
BRANCH   5   6
ATOM      6  C   UNL     1      21.500 -12.208  21.632  1.00  0.00     0.041 C 
ATOM      7  O   UNL     1      22.532 -11.495  21.749  1.00  0.00    -0.550 OA
ATOM      8  O   UNL     1      20.360 -11.894  22.361  1.00  0.00    -0.550 OA
ENDBRANCH   5   6
ENDBRANCH   4   5
ENDBRANCH   3   4
ENDBRANCH   2   3
ENDBRANCH   1   2
BRANCH   1   9
ATOM      9  C   UNL     1      23.329 -17.698  18.472  1.00  0.00     0.000 C 
BRANCH   9  10
ATOM     10  C   UNL     1      23.497 -18.909  17.536  1.00  0.00    -0.000 C 
BRANCH  10  11
ATOM     11  C   UNL     1      22.183 -19.307  16.846  1.00  0.00    -0.000 C 
BRANCH  11  12
ATOM     12  C   UNL     1      21.390 -20.353  17.648  1.00  0.00    -0.000 C 
BRANCH  12  13
ATOM     13  C   UNL     1      20.120 -20.817  16.917  1.00  0.00    -0.003 C 
ATOM     14  C   UNL     1      18.896 -20.856  17.831  1.00  0.00     0.004 C 
ENDBRANCH  12  13
ENDBRANCH  11  12
ENDBRANCH  10  11
ENDBRANCH   9  10
ENDBRANCH   1   9
TORSDOF 10
ENDMDL
