MODEL 1
REMARK VINA RESULT:    -3.789      0.000      0.000
REMARK INTER + INTRA:         -14.671
REMARK INTER:                  -9.991
REMARK INTRA:                  -4.680
REMARK UNBOUND:                -4.680
REMARK SMILES CCCCCCCCCCCCCCCCCCCCCCCCCCCCCC(=O)[O-]
REMARK SMILES IDX 16 1 17 2 18 3 19 4 20 5 21 6 22 7 23 8 24 9 25 10 26 11
REMARK SMILES IDX 27 12 28 13 29 14 30 15 31 16 32 17 15 18 14 19 13 20 12 21
REMARK SMILES IDX 11 22 10 23 9 24 8 25 7 26 6 27 5 28 4 29 3 30 2 31 1 32
REMARK H PARENT
REMARK Flexibility Score: inf
ROOT
ATOM      1  C   UNL     1      -6.304  -2.300   0.747  1.00  0.00     0.000 C 
ENDROOT
BRANCH   1   2
ATOM      2  C   UNL     1      -6.345  -3.831   0.677  1.00  0.00     0.000 C 
BRANCH   2   3
ATOM      3  C   UNL     1      -7.569  -4.387   1.419  1.00  0.00     0.000 C 
BRANCH   3   4
ATOM      4  C   UNL     1      -7.171  -5.557   2.330  1.00  0.00     0.000 C 
BRANCH   4   5
ATOM      5  C   UNL     1      -7.980  -5.601   3.641  1.00  0.00     0.000 C 
BRANCH   5   6
ATOM      6  C   UNL     1      -7.294  -6.332   4.811  1.00  0.00     0.000 C 
BRANCH   6   7
ATOM      7  C   UNL     1      -5.817  -6.660   4.532  1.00  0.00     0.000 C 
BRANCH   7   8
ATOM      8  C   UNL     1      -5.487  -8.151   4.732  1.00  0.00     0.000 C 
BRANCH   8   9
ATOM      9  C   UNL     1      -4.919  -8.866   3.490  1.00  0.00     0.000 C 
BRANCH   9  10
ATOM     10  C   UNL     1      -5.856  -8.912   2.265  1.00  0.00     0.000 C 
BRANCH  10  11
ATOM     11  C   UNL     1      -7.303  -9.366   2.550  1.00  0.00     0.000 C 
BRANCH  11  12
ATOM     12  C   UNL     1      -8.234  -9.383   1.319  1.00  0.00     0.000 C 
BRANCH  12  13
ATOM     13  C   UNL     1      -7.506  -9.165  -0.023  1.00  0.00     0.006 C 
BRANCH  13  14
ATOM     14  C   UNL     1      -8.368  -8.518  -1.120  1.00  0.00     0.053 C 
BRANCH  14  15
ATOM     15  C   UNL     1      -7.863  -7.162  -1.519  1.00  0.00     0.041 C 
ATOM     16  O   UNL     1      -6.748  -6.754  -1.096  1.00  0.00    -0.550 OA
ATOM     17  O   UNL     1      -8.603  -6.364  -2.386  1.00  0.00    -0.550 OA
ENDBRANCH  14  15
ENDBRANCH  13  14
ENDBRANCH  12  13
ENDBRANCH  11  12
ENDBRANCH  10  11
ENDBRANCH   9  10
ENDBRANCH   8   9
ENDBRANCH   7   8
ENDBRANCH   6   7
ENDBRANCH   5   6
ENDBRANCH   4   5
ENDBRANCH   3   4
ENDBRANCH   2   3
ENDBRANCH   1   2
BRANCH   1  18
ATOM     18  C   UNL     1      -5.622  -1.830   2.040  1.00  0.00     0.000 C 
BRANCH  18  19
ATOM     19  C   UNL     1      -6.590  -1.115   2.999  1.00  0.00     0.000 C 
BRANCH  19  20
ATOM     20  C   UNL     1      -7.108  -1.974   4.173  1.00  0.00     0.000 C 
BRANCH  20  21
ATOM     21  C   UNL     1      -6.021  -2.667   5.016  1.00  0.00     0.000 C 
BRANCH  21  22
ATOM     22  C   UNL     1      -6.519  -3.085   6.411  1.00  0.00     0.000 C 
BRANCH  22  23
ATOM     23  C   UNL     1      -8.036  -2.903   6.574  1.00  0.00     0.000 C 
BRANCH  23  24
ATOM     24  C   UNL     1      -8.408  -1.873   7.649  1.00  0.00    -0.000 C 
BRANCH  24  25
ATOM     25  C   UNL     1      -7.156  -1.137   8.149  1.00  0.00    -0.000 C 
BRANCH  25  26
ATOM     26  C   UNL     1      -7.296   0.391   8.088  1.00  0.00    -0.000 C 
BRANCH  26  27
ATOM     27  C   UNL     1      -7.421   0.920   6.648  1.00  0.00    -0.000 C 
BRANCH  27  28
ATOM     28  C   UNL     1      -6.046   1.081   5.964  1.00  0.00    -0.000 C 
BRANCH  28  29
ATOM     29  C   UNL     1      -4.993   1.783   6.838  1.00  0.00    -0.000 C 
BRANCH  29  30
ATOM     30  C   UNL     1      -4.944   3.304   6.620  1.00  0.00    -0.000 C 
BRANCH  30  31
ATOM     31  C   UNL     1      -3.662   3.758   5.905  1.00  0.00    -0.003 C 
ATOM     32  C   UNL     1      -3.866   3.983   4.407  1.00  0.00     0.004 C 
ENDBRANCH  30  31
ENDBRANCH  29  30
ENDBRANCH  28  29
ENDBRANCH  27  28
ENDBRANCH  26  27
ENDBRANCH  25  26
ENDBRANCH  24  25
ENDBRANCH  23  24
ENDBRANCH  22  23
ENDBRANCH  21  22
ENDBRANCH  20  21
ENDBRANCH  19  20
ENDBRANCH  18  19
ENDBRANCH   1  18
TORSDOF 28
ENDMDL
MODEL 2
REMARK VINA RESULT:    -3.662      3.278      9.325
REMARK INTER + INTRA:         -14.335
REMARK INTER:                  -9.546
REMARK INTRA:                  -4.789
REMARK UNBOUND:                -4.680
REMARK SMILES CCCCCCCCCCCCCCCCCCCCCCCCCCCCCC(=O)[O-]
REMARK SMILES IDX 16 1 17 2 18 3 19 4 20 5 21 6 22 7 23 8 24 9 25 10 26 11
REMARK SMILES IDX 27 12 28 13 29 14 30 15 31 16 32 17 15 18 14 19 13 20 12 21
REMARK SMILES IDX 11 22 10 23 9 24 8 25 7 26 6 27 5 28 4 29 3 30 2 31 1 32
REMARK H PARENT
REMARK Flexibility Score: inf
ROOT
ATOM      1  C   UNL     1      -5.699  -1.551   1.887  1.00  0.00     0.000 C 
ENDROOT
BRANCH   1   2
ATOM      2  C   UNL     1      -6.210  -1.538   3.333  1.00  0.00     0.000 C 
BRANCH   2   3
ATOM      3  C   UNL     1      -5.874  -2.851   4.052  1.00  0.00     0.000 C 
BRANCH   3   4
ATOM      4  C   UNL     1      -6.479  -2.873   5.463  1.00  0.00     0.000 C 
BRANCH   4   5
ATOM      5  C   UNL     1      -7.896  -3.477   5.502  1.00  0.00     0.000 C 
BRANCH   5   6
ATOM      6  C   UNL     1      -9.014  -2.503   5.920  1.00  0.00     0.000 C 
BRANCH   6   7
ATOM      7  C   UNL     1      -9.426  -1.542   4.791  1.00  0.00     0.000 C 
BRANCH   7   8
ATOM      8  C   UNL     1      -9.151  -0.065   5.131  1.00  0.00     0.000 C 
BRANCH   8   9
ATOM      9  C   UNL     1      -8.309   0.165   6.402  1.00  0.00     0.000 C 
BRANCH   9  10
ATOM     10  C   UNL     1      -6.969   0.898   6.185  1.00  0.00     0.000 C 
BRANCH  10  11
ATOM     11  C   UNL     1      -5.729   0.214   6.798  1.00  0.00     0.000 C 
BRANCH  11  12
ATOM     12  C   UNL     1      -4.590   1.174   7.205  1.00  0.00     0.000 C 
BRANCH  12  13
ATOM     13  C   UNL     1      -4.956   2.667   7.091  1.00  0.00     0.006 C 
BRANCH  13  14
ATOM     14  C   UNL     1      -3.916   3.526   6.353  1.00  0.00     0.053 C 
BRANCH  14  15
ATOM     15  C   UNL     1      -4.252   3.707   4.902  1.00  0.00     0.041 C 
ATOM     16  O   UNL     1      -5.364   3.316   4.456  1.00  0.00    -0.550 OA
ATOM     17  O   UNL     1      -3.355   4.340   4.047  1.00  0.00    -0.550 OA
ENDBRANCH  14  15
ENDBRANCH  13  14
ENDBRANCH  12  13
ENDBRANCH  11  12
ENDBRANCH  10  11
ENDBRANCH   9  10
ENDBRANCH   8   9
ENDBRANCH   7   8
ENDBRANCH   6   7
ENDBRANCH   5   6
ENDBRANCH   4   5
ENDBRANCH   3   4
ENDBRANCH   2   3
ENDBRANCH   1   2
BRANCH   1  18
ATOM     18  C   UNL     1      -6.568  -2.462   1.009  1.00  0.00     0.000 C 
BRANCH  18  19
ATOM     19  C   UNL     1      -8.070  -2.147   1.124  1.00  0.00     0.000 C 
BRANCH  19  20
ATOM     20  C   UNL     1      -8.947  -3.303   1.656  1.00  0.00     0.000 C 
BRANCH  20  21
ATOM     21  C   UNL     1      -8.190  -4.593   2.021  1.00  0.00     0.000 C 
BRANCH  21  22
ATOM     22  C   UNL     1      -8.389  -5.718   0.989  1.00  0.00     0.000 C 
BRANCH  22  23
ATOM     23  C   UNL     1      -7.110  -6.020   0.192  1.00  0.00     0.000 C 
BRANCH  23  24
ATOM     24  C   UNL     1      -7.353  -6.936  -1.015  1.00  0.00    -0.000 C 
BRANCH  24  25
ATOM     25  C   UNL     1      -7.850  -8.315  -0.554  1.00  0.00    -0.000 C 
BRANCH  25  26
ATOM     26  C   UNL     1      -6.836  -9.049   0.335  1.00  0.00    -0.000 C 
BRANCH  26  27
ATOM     27  C   UNL     1      -7.287  -9.136   1.804  1.00  0.00    -0.000 C 
BRANCH  27  28
ATOM     28  C   UNL     1      -6.097  -9.073   2.785  1.00  0.00    -0.000 C 
BRANCH  28  29
ATOM     29  C   UNL     1      -5.697  -7.644   3.190  1.00  0.00    -0.000 C 
BRANCH  29  30
ATOM     30  C   UNL     1      -6.570  -7.069   4.318  1.00  0.00    -0.000 C 
BRANCH  30  31
ATOM     31  C   UNL     1      -5.737  -6.498   5.476  1.00  0.00    -0.003 C 
ATOM     32  C   UNL     1      -6.421  -6.657   6.834  1.00  0.00     0.004 C 
ENDBRANCH  30  31
ENDBRANCH  29  30
ENDBRANCH  28  29
ENDBRANCH  27  28
ENDBRANCH  26  27
ENDBRANCH  25  26
ENDBRANCH  24  25
ENDBRANCH  23  24
ENDBRANCH  22  23
ENDBRANCH  21  22
ENDBRANCH  20  21
ENDBRANCH  19  20
ENDBRANCH  18  19
ENDBRANCH   1  18
TORSDOF 28
ENDMDL
MODEL 3
REMARK VINA RESULT:    -3.654      1.248      2.133
REMARK INTER + INTRA:         -14.313
REMARK INTER:                  -9.444
REMARK INTRA:                  -4.870
REMARK UNBOUND:                -4.680
REMARK SMILES CCCCCCCCCCCCCCCCCCCCCCCCCCCCCC(=O)[O-]
REMARK SMILES IDX 16 1 17 2 18 3 19 4 20 5 21 6 22 7 23 8 24 9 25 10 26 11
REMARK SMILES IDX 27 12 28 13 29 14 30 15 31 16 32 17 15 18 14 19 13 20 12 21
REMARK SMILES IDX 11 22 10 23 9 24 8 25 7 26 6 27 5 28 4 29 3 30 2 31 1 32
REMARK H PARENT
REMARK Flexibility Score: inf
ROOT
ATOM      1  C   UNL     1      -6.093  -1.612   2.235  1.00  0.00     0.000 C 
ENDROOT
BRANCH   1   2
ATOM      2  C   UNL     1      -7.204  -2.323   1.454  1.00  0.00     0.000 C 
BRANCH   2   3
ATOM      3  C   UNL     1      -6.803  -3.763   1.106  1.00  0.00     0.000 C 
BRANCH   3   4
ATOM      4  C   UNL     1      -7.499  -4.765   2.038  1.00  0.00     0.000 C 
BRANCH   4   5
ATOM      5  C   UNL     1      -8.789  -4.206   2.668  1.00  0.00     0.000 C 
BRANCH   5   6
ATOM      6  C   UNL     1      -9.334  -5.004   3.867  1.00  0.00     0.000 C 
BRANCH   6   7
ATOM      7  C   UNL     1      -8.736  -6.419   3.969  1.00  0.00     0.000 C 
BRANCH   7   8
ATOM      8  C   UNL     1      -8.046  -6.681   5.321  1.00  0.00     0.000 C 
BRANCH   8   9
ATOM      9  C   UNL     1      -6.774  -7.548   5.246  1.00  0.00     0.000 C 
BRANCH   9  10
ATOM     10  C   UNL     1      -5.798  -7.197   4.104  1.00  0.00     0.000 C 
BRANCH  10  11
ATOM     11  C   UNL     1      -5.495  -8.340   3.112  1.00  0.00     0.000 C 
BRANCH  11  12
ATOM     12  C   UNL     1      -6.698  -9.248   2.778  1.00  0.00     0.000 C 
BRANCH  12  13
ATOM     13  C   UNL     1      -7.441  -8.858   1.484  1.00  0.00     0.006 C 
BRANCH  13  14
ATOM     14  C   UNL     1      -6.675  -7.880   0.577  1.00  0.00     0.053 C 
BRANCH  14  15
ATOM     15  C   UNL     1      -7.424  -7.566  -0.684  1.00  0.00     0.041 C 
ATOM     16  O   UNL     1      -7.193  -6.495  -1.308  1.00  0.00    -0.550 OA
ATOM     17  O   UNL     1      -8.351  -8.470  -1.194  1.00  0.00    -0.550 OA
ENDBRANCH  14  15
ENDBRANCH  13  14
ENDBRANCH  12  13
ENDBRANCH  11  12
ENDBRANCH  10  11
ENDBRANCH   9  10
ENDBRANCH   8   9
ENDBRANCH   7   8
ENDBRANCH   6   7
ENDBRANCH   5   6
ENDBRANCH   4   5
ENDBRANCH   3   4
ENDBRANCH   2   3
ENDBRANCH   1   2
BRANCH   1  18
ATOM     18  C   UNL     1      -6.354  -1.687   3.747  1.00  0.00     0.000 C 
BRANCH  18  19
ATOM     19  C   UNL     1      -5.410  -2.666   4.467  1.00  0.00     0.000 C 
BRANCH  19  20
ATOM     20  C   UNL     1      -6.083  -3.582   5.513  1.00  0.00     0.000 C 
BRANCH  20  21
ATOM     21  C   UNL     1      -7.369  -3.025   6.151  1.00  0.00     0.000 C 
BRANCH  21  22
ATOM     22  C   UNL     1      -7.388  -3.163   7.683  1.00  0.00     0.000 C 
BRANCH  22  23
ATOM     23  C   UNL     1      -7.794  -1.860   8.388  1.00  0.00     0.000 C 
BRANCH  23  24
ATOM     24  C   UNL     1      -7.355  -0.601   7.628  1.00  0.00    -0.000 C 
BRANCH  24  25
ATOM     25  C   UNL     1      -5.978  -0.126   8.117  1.00  0.00    -0.000 C 
BRANCH  25  26
ATOM     26  C   UNL     1      -5.182   0.615   7.033  1.00  0.00    -0.000 C 
BRANCH  26  27
ATOM     27  C   UNL     1      -6.075   1.152   5.901  1.00  0.00    -0.000 C 
BRANCH  27  28
ATOM     28  C   UNL     1      -6.095   2.695   5.854  1.00  0.00    -0.000 C 
BRANCH  28  29
ATOM     29  C   UNL     1      -4.874   3.313   5.152  1.00  0.00    -0.000 C 
BRANCH  29  30
ATOM     30  C   UNL     1      -4.159   4.373   6.007  1.00  0.00    -0.000 C 
BRANCH  30  31
ATOM     31  C   UNL     1      -4.746   4.485   7.422  1.00  0.00    -0.003 C 
ATOM     32  C   UNL     1      -4.066   5.565   8.264  1.00  0.00     0.004 C 
ENDBRANCH  30  31
ENDBRANCH  29  30
ENDBRANCH  28  29
ENDBRANCH  27  28
ENDBRANCH  26  27
ENDBRANCH  25  26
ENDBRANCH  24  25
ENDBRANCH  23  24
ENDBRANCH  22  23
ENDBRANCH  21  22
ENDBRANCH  20  21
ENDBRANCH  19  20
ENDBRANCH  18  19
ENDBRANCH   1  18
TORSDOF 28
ENDMDL
MODEL 4
REMARK VINA RESULT:    -3.604      1.359      2.412
REMARK INTER + INTRA:         -14.184
REMARK INTER:                  -8.574
REMARK INTRA:                  -5.609
REMARK UNBOUND:                -4.680
REMARK SMILES CCCCCCCCCCCCCCCCCCCCCCCCCCCCCC(=O)[O-]
REMARK SMILES IDX 16 1 17 2 18 3 19 4 20 5 21 6 22 7 23 8 24 9 25 10 26 11
REMARK SMILES IDX 27 12 28 13 29 14 30 15 31 16 32 17 15 18 14 19 13 20 12 21
REMARK SMILES IDX 11 22 10 23 9 24 8 25 7 26 6 27 5 28 4 29 3 30 2 31 1 32
REMARK H PARENT
REMARK Flexibility Score: inf
ROOT
ATOM      1  C   UNL     1      -7.468  -3.088   1.616  1.00  0.00     0.000 C 
ENDROOT
BRANCH   1   2
ATOM      2  C   UNL     1      -6.268  -2.249   2.073  1.00  0.00     0.000 C 
BRANCH   2   3
ATOM      3  C   UNL     1      -6.394  -1.862   3.553  1.00  0.00     0.000 C 
BRANCH   3   4
ATOM      4  C   UNL     1      -5.355  -2.606   4.404  1.00  0.00     0.000 C 
BRANCH   4   5
ATOM      5  C   UNL     1      -5.985  -3.639   5.358  1.00  0.00     0.000 C 
BRANCH   5   6
ATOM      6  C   UNL     1      -5.375  -5.052   5.293  1.00  0.00     0.000 C 
BRANCH   6   7
ATOM      7  C   UNL     1      -6.200  -6.099   6.061  1.00  0.00     0.000 C 
BRANCH   7   8
ATOM      8  C   UNL     1      -6.184  -7.485   5.388  1.00  0.00     0.000 C 
BRANCH   8   9
ATOM      9  C   UNL     1      -5.226  -7.616   4.188  1.00  0.00     0.000 C 
BRANCH   9  10
ATOM     10  C   UNL     1      -5.515  -8.794   3.235  1.00  0.00     0.000 C 
BRANCH  10  11
ATOM     11  C   UNL     1      -6.980  -9.277   3.198  1.00  0.00     0.000 C 
BRANCH  11  12
ATOM     12  C   UNL     1      -7.617  -9.317   1.792  1.00  0.00     0.000 C 
BRANCH  12  13
ATOM     13  C   UNL     1      -6.947  -8.375   0.771  1.00  0.00     0.006 C 
BRANCH  13  14
ATOM     14  C   UNL     1      -7.468  -8.519  -0.669  1.00  0.00     0.053 C 
BRANCH  14  15
ATOM     15  C   UNL     1      -8.155  -7.277  -1.155  1.00  0.00     0.041 C 
ATOM     16  O   UNL     1      -9.405  -7.163  -1.048  1.00  0.00    -0.550 OA
ATOM     17  O   UNL     1      -7.413  -6.229  -1.691  1.00  0.00    -0.550 OA
ENDBRANCH  14  15
ENDBRANCH  13  14
ENDBRANCH  12  13
ENDBRANCH  11  12
ENDBRANCH  10  11
ENDBRANCH   9  10
ENDBRANCH   8   9
ENDBRANCH   7   8
ENDBRANCH   6   7
ENDBRANCH   5   6
ENDBRANCH   4   5
ENDBRANCH   3   4
ENDBRANCH   2   3
ENDBRANCH   1   2
BRANCH   1  18
ATOM     18  C   UNL     1      -7.118  -4.583   1.610  1.00  0.00     0.000 C 
BRANCH  18  19
ATOM     19  C   UNL     1      -7.953  -5.396   2.615  1.00  0.00     0.000 C 
BRANCH  19  20
ATOM     20  C   UNL     1      -9.168  -4.655   3.214  1.00  0.00     0.000 C 
BRANCH  20  21
ATOM     21  C   UNL     1      -9.320  -4.761   4.743  1.00  0.00     0.000 C 
BRANCH  21  22
ATOM     22  C   UNL     1      -9.747  -3.436   5.398  1.00  0.00     0.000 C 
BRANCH  22  23
ATOM     23  C   UNL     1      -9.887  -2.294   4.380  1.00  0.00     0.000 C 
BRANCH  23  24
ATOM     24  C   UNL     1      -9.527  -0.919   4.961  1.00  0.00    -0.000 C 
BRANCH  24  25
ATOM     25  C   UNL     1      -9.276  -1.021   6.473  1.00  0.00    -0.000 C 
BRANCH  25  26
ATOM     26  C   UNL     1      -8.338   0.075   6.998  1.00  0.00    -0.000 C 
BRANCH  26  27
ATOM     27  C   UNL     1      -6.890  -0.417   7.176  1.00  0.00    -0.000 C 
BRANCH  27  28
ATOM     28  C   UNL     1      -5.877   0.455   6.403  1.00  0.00    -0.000 C 
BRANCH  28  29
ATOM     29  C   UNL     1      -6.526   1.410   5.386  1.00  0.00    -0.000 C 
BRANCH  29  30
ATOM     30  C   UNL     1      -6.176   2.887   5.638  1.00  0.00    -0.000 C 
BRANCH  30  31
ATOM     31  C   UNL     1      -5.062   3.061   6.681  1.00  0.00    -0.003 C 
ATOM     32  C   UNL     1      -3.841   3.796   6.128  1.00  0.00     0.004 C 
ENDBRANCH  30  31
ENDBRANCH  29  30
ENDBRANCH  28  29
ENDBRANCH  27  28
ENDBRANCH  26  27
ENDBRANCH  25  26
ENDBRANCH  24  25
ENDBRANCH  23  24
ENDBRANCH  22  23
ENDBRANCH  21  22
ENDBRANCH  20  21
ENDBRANCH  19  20
ENDBRANCH  18  19
ENDBRANCH   1  18
TORSDOF 28
ENDMDL
MODEL 5
REMARK VINA RESULT:    -3.601      3.091      9.290
REMARK INTER + INTRA:         -14.175
REMARK INTER:                  -8.739
REMARK INTRA:                  -5.436
REMARK UNBOUND:                -4.680
REMARK SMILES CCCCCCCCCCCCCCCCCCCCCCCCCCCCCC(=O)[O-]
REMARK SMILES IDX 16 1 17 2 18 3 19 4 20 5 21 6 22 7 23 8 24 9 25 10 26 11
REMARK SMILES IDX 27 12 28 13 29 14 30 15 31 16 32 17 15 18 14 19 13 20 12 21
REMARK SMILES IDX 11 22 10 23 9 24 8 25 7 26 6 27 5 28 4 29 3 30 2 31 1 32
REMARK H PARENT
REMARK Flexibility Score: inf
ROOT
ATOM      1  C   UNL     1      -6.372  -5.323   4.469  1.00  0.00     0.000 C 
ENDROOT
BRANCH   1   2
ATOM      2  C   UNL     1      -7.432  -6.120   5.238  1.00  0.00     0.000 C 
BRANCH   2   3
ATOM      3  C   UNL     1      -8.827  -5.915   4.633  1.00  0.00     0.000 C 
BRANCH   3   4
ATOM      4  C   UNL     1      -9.670  -4.974   5.506  1.00  0.00     0.000 C 
BRANCH   4   5
ATOM      5  C   UNL     1      -9.748  -3.541   4.945  1.00  0.00     0.000 C 
BRANCH   5   6
ATOM      6  C   UNL     1      -9.329  -2.429   5.926  1.00  0.00     0.000 C 
BRANCH   6   7
ATOM      7  C   UNL     1      -8.608  -2.968   7.174  1.00  0.00     0.000 C 
BRANCH   7   8
ATOM      8  C   UNL     1      -7.637  -1.945   7.794  1.00  0.00     0.000 C 
BRANCH   8   9
ATOM      9  C   UNL     1      -8.116  -0.481   7.748  1.00  0.00     0.000 C 
BRANCH   9  10
ATOM     10  C   UNL     1      -7.009   0.573   7.541  1.00  0.00     0.000 C 
BRANCH  10  11
ATOM     11  C   UNL     1      -5.579   0.014   7.384  1.00  0.00     0.000 C 
BRANCH  11  12
ATOM     12  C   UNL     1      -4.486   1.079   7.150  1.00  0.00     0.000 C 
BRANCH  12  13
ATOM     13  C   UNL     1      -4.961   2.528   7.380  1.00  0.00     0.006 C 
BRANCH  13  14
ATOM     14  C   UNL     1      -4.444   3.542   6.345  1.00  0.00     0.053 C 
BRANCH  14  15
ATOM     15  C   UNL     1      -4.971   3.269   4.967  1.00  0.00     0.041 C 
ATOM     16  O   UNL     1      -4.278   3.564   3.956  1.00  0.00    -0.550 OA
ATOM     17  O   UNL     1      -6.209   2.657   4.797  1.00  0.00    -0.550 OA
ENDBRANCH  14  15
ENDBRANCH  13  14
ENDBRANCH  12  13
ENDBRANCH  11  12
ENDBRANCH  10  11
ENDBRANCH   9  10
ENDBRANCH   8   9
ENDBRANCH   7   8
ENDBRANCH   6   7
ENDBRANCH   5   6
ENDBRANCH   4   5
ENDBRANCH   3   4
ENDBRANCH   2   3
ENDBRANCH   1   2
BRANCH   1  18
ATOM     18  C   UNL     1      -5.816  -4.179   5.329  1.00  0.00     0.000 C 
BRANCH  18  19
ATOM     19  C   UNL     1      -5.280  -3.006   4.490  1.00  0.00     0.000 C 
BRANCH  19  20
ATOM     20  C   UNL     1      -6.216  -1.781   4.397  1.00  0.00     0.000 C 
BRANCH  20  21
ATOM     21  C   UNL     1      -7.027  -1.664   3.093  1.00  0.00     0.000 C 
BRANCH  21  22
ATOM     22  C   UNL     1      -6.186  -1.947   1.836  1.00  0.00     0.000 C 
BRANCH  22  23
ATOM     23  C   UNL     1      -6.696  -3.163   1.047  1.00  0.00     0.000 C 
BRANCH  23  24
ATOM     24  C   UNL     1      -8.054  -3.678   1.543  1.00  0.00    -0.000 C 
BRANCH  24  25
ATOM     25  C   UNL     1      -8.246  -5.152   1.157  1.00  0.00    -0.000 C 
BRANCH  25  26
ATOM     26  C   UNL     1      -6.936  -5.838   0.743  1.00  0.00    -0.000 C 
BRANCH  26  27
ATOM     27  C   UNL     1      -7.044  -6.558  -0.612  1.00  0.00    -0.000 C 
BRANCH  27  28
ATOM     28  C   UNL     1      -7.813  -7.893  -0.505  1.00  0.00    -0.000 C 
BRANCH  28  29
ATOM     29  C   UNL     1      -7.057  -8.987   0.269  1.00  0.00    -0.000 C 
BRANCH  29  30
ATOM     30  C   UNL     1      -7.785  -9.434   1.548  1.00  0.00    -0.000 C 
BRANCH  30  31
ATOM     31  C   UNL     1      -7.058  -8.990   2.827  1.00  0.00    -0.003 C 
ATOM     32  C   UNL     1      -5.572  -8.711   2.599  1.00  0.00     0.004 C 
ENDBRANCH  30  31
ENDBRANCH  29  30
ENDBRANCH  28  29
ENDBRANCH  27  28
ENDBRANCH  26  27
ENDBRANCH  25  26
ENDBRANCH  24  25
ENDBRANCH  23  24
ENDBRANCH  22  23
ENDBRANCH  21  22
ENDBRANCH  20  21
ENDBRANCH  19  20
ENDBRANCH  18  19
ENDBRANCH   1  18
TORSDOF 28
ENDMDL
MODEL 6
REMARK VINA RESULT:    -3.571      3.412      8.876
REMARK INTER + INTRA:         -14.096
REMARK INTER:                  -8.997
REMARK INTRA:                  -5.099
REMARK UNBOUND:                -4.680
REMARK SMILES CCCCCCCCCCCCCCCCCCCCCCCCCCCCCC(=O)[O-]
REMARK SMILES IDX 16 1 17 2 18 3 19 4 20 5 21 6 22 7 23 8 24 9 25 10 26 11
REMARK SMILES IDX 27 12 28 13 29 14 30 15 31 16 32 17 15 18 14 19 13 20 12 21
REMARK SMILES IDX 11 22 10 23 9 24 8 25 7 26 6 27 5 28 4 29 3 30 2 31 1 32
REMARK H PARENT
REMARK Flexibility Score: inf
ROOT
ATOM      1  C   UNL     1      -5.373  -2.934   4.712  1.00  0.00     0.000 C 
ENDROOT
BRANCH   1   2
ATOM      2  C   UNL     1      -6.161  -1.950   5.584  1.00  0.00     0.000 C 
BRANCH   2   3
ATOM      3  C   UNL     1      -6.703  -0.781   4.749  1.00  0.00     0.000 C 
BRANCH   3   4
ATOM      4  C   UNL     1      -8.209  -0.943   4.495  1.00  0.00     0.000 C 
BRANCH   4   5
ATOM      5  C   UNL     1      -8.931  -1.710   5.620  1.00  0.00     0.000 C 
BRANCH   5   6
ATOM      6  C   UNL     1      -9.771  -0.839   6.575  1.00  0.00     0.000 C 
BRANCH   6   7
ATOM      7  C   UNL     1      -9.730  -1.333   8.031  1.00  0.00     0.000 C 
BRANCH   7   8
ATOM      8  C   UNL     1      -8.304  -1.666   8.511  1.00  0.00     0.000 C 
BRANCH   8   9
ATOM      9  C   UNL     1      -7.815  -0.846   9.720  1.00  0.00     0.000 C 
BRANCH   9  10
ATOM     10  C   UNL     1      -7.426   0.616   9.417  1.00  0.00     0.000 C 
BRANCH  10  11
ATOM     11  C   UNL     1      -6.724   0.850   8.063  1.00  0.00     0.000 C 
BRANCH  11  12
ATOM     12  C   UNL     1      -5.267   1.352   8.164  1.00  0.00     0.000 C 
BRANCH  12  13
ATOM     13  C   UNL     1      -4.585   1.583   6.801  1.00  0.00     0.006 C 
BRANCH  13  14
ATOM     14  C   UNL     1      -5.312   2.579   5.882  1.00  0.00     0.053 C 
BRANCH  14  15
ATOM     15  C   UNL     1      -4.364   3.508   5.183  1.00  0.00     0.041 C 
ATOM     16  O   UNL     1      -3.454   4.089   5.833  1.00  0.00    -0.550 OA
ATOM     17  O   UNL     1      -4.460   3.707   3.809  1.00  0.00    -0.550 OA
ENDBRANCH  14  15
ENDBRANCH  13  14
ENDBRANCH  12  13
ENDBRANCH  11  12
ENDBRANCH  10  11
ENDBRANCH   9  10
ENDBRANCH   8   9
ENDBRANCH   7   8
ENDBRANCH   6   7
ENDBRANCH   5   6
ENDBRANCH   4   5
ENDBRANCH   3   4
ENDBRANCH   2   3
ENDBRANCH   1   2
BRANCH   1  18
ATOM     18  C   UNL     1      -5.544  -4.373   5.222  1.00  0.00     0.000 C 
BRANCH  18  19
ATOM     19  C   UNL     1      -6.848  -4.575   6.013  1.00  0.00     0.000 C 
BRANCH  19  20
ATOM     20  C   UNL     1      -7.221  -6.046   6.305  1.00  0.00     0.000 C 
BRANCH  20  21
ATOM     21  C   UNL     1      -6.039  -7.032   6.345  1.00  0.00     0.000 C 
BRANCH  21  22
ATOM     22  C   UNL     1      -6.476  -8.498   6.180  1.00  0.00     0.000 C 
BRANCH  22  23
ATOM     23  C   UNL     1      -5.659  -9.240   5.111  1.00  0.00     0.000 C 
BRANCH  23  24
ATOM     24  C   UNL     1      -5.199  -8.329   3.964  1.00  0.00    -0.000 C 
BRANCH  24  25
ATOM     25  C   UNL     1      -5.632  -8.907   2.608  1.00  0.00    -0.000 C 
BRANCH  25  26
ATOM     26  C   UNL     1      -6.434  -7.907   1.762  1.00  0.00    -0.000 C 
BRANCH  26  27
ATOM     27  C   UNL     1      -6.875  -6.669   2.563  1.00  0.00    -0.000 C 
BRANCH  27  28
ATOM     28  C   UNL     1      -7.536  -5.598   1.668  1.00  0.00    -0.000 C 
BRANCH  28  29
ATOM     29  C   UNL     1      -8.021  -4.357   2.436  1.00  0.00    -0.000 C 
BRANCH  29  30
ATOM     30  C   UNL     1      -7.808  -3.046   1.659  1.00  0.00    -0.000 C 
BRANCH  30  31
ATOM     31  C   UNL     1      -6.416  -2.960   1.016  1.00  0.00    -0.003 C 
ATOM     32  C   UNL     1      -5.793  -1.569   1.132  1.00  0.00     0.004 C 
ENDBRANCH  30  31
ENDBRANCH  29  30
ENDBRANCH  28  29
ENDBRANCH  27  28
ENDBRANCH  26  27
ENDBRANCH  25  26
ENDBRANCH  24  25
ENDBRANCH  23  24
ENDBRANCH  22  23
ENDBRANCH  21  22
ENDBRANCH  20  21
ENDBRANCH  19  20
ENDBRANCH  18  19
ENDBRANCH   1  18
TORSDOF 28
ENDMDL
MODEL 7
REMARK VINA RESULT:    -3.548      1.169      2.641
REMARK INTER + INTRA:         -14.035
REMARK INTER:                  -9.308
REMARK INTRA:                  -4.727
REMARK UNBOUND:                -4.680
REMARK SMILES CCCCCCCCCCCCCCCCCCCCCCCCCCCCCC(=O)[O-]
REMARK SMILES IDX 16 1 17 2 18 3 19 4 20 5 21 6 22 7 23 8 24 9 25 10 26 11
REMARK SMILES IDX 27 12 28 13 29 14 30 15 31 16 32 17 15 18 14 19 13 20 12 21
REMARK SMILES IDX 11 22 10 23 9 24 8 25 7 26 6 27 5 28 4 29 3 30 2 31 1 32
REMARK H PARENT
REMARK Flexibility Score: inf
ROOT
ATOM      1  C   UNL     1      -6.753  -0.805   4.172  1.00  0.00     0.000 C 
ENDROOT
BRANCH   1   2
ATOM      2  C   UNL     1      -6.300  -2.052   3.403  1.00  0.00     0.000 C 
BRANCH   2   3
ATOM      3  C   UNL     1      -5.977  -1.715   1.941  1.00  0.00     0.000 C 
BRANCH   3   4
ATOM      4  C   UNL     1      -6.372  -2.872   1.013  1.00  0.00     0.000 C 
BRANCH   4   5
ATOM      5  C   UNL     1      -7.663  -3.587   1.458  1.00  0.00     0.000 C 
BRANCH   5   6
ATOM      6  C   UNL     1      -7.480  -5.044   1.922  1.00  0.00     0.000 C 
BRANCH   6   7
ATOM      7  C   UNL     1      -8.517  -5.474   2.975  1.00  0.00     0.000 C 
BRANCH   7   8
ATOM      8  C   UNL     1      -7.874  -5.938   4.295  1.00  0.00     0.000 C 
BRANCH   8   9
ATOM      9  C   UNL     1      -6.333  -5.913   4.314  1.00  0.00     0.000 C 
BRANCH   9  10
ATOM     10  C   UNL     1      -5.653  -7.237   4.721  1.00  0.00     0.000 C 
BRANCH  10  11
ATOM     11  C   UNL     1      -5.482  -8.273   3.591  1.00  0.00     0.000 C 
BRANCH  11  12
ATOM     12  C   UNL     1      -6.692  -9.207   3.376  1.00  0.00     0.000 C 
BRANCH  12  13
ATOM     13  C   UNL     1      -7.386  -9.033   2.010  1.00  0.00     0.006 C 
BRANCH  13  14
ATOM     14  C   UNL     1      -6.477  -8.490   0.895  1.00  0.00     0.053 C 
BRANCH  14  15
ATOM     15  C   UNL     1      -7.249  -8.090  -0.328  1.00  0.00     0.041 C 
ATOM     16  O   UNL     1      -6.887  -7.092  -1.007  1.00  0.00    -0.550 OA
ATOM     17  O   UNL     1      -8.348  -8.838  -0.740  1.00  0.00    -0.550 OA
ENDBRANCH  14  15
ENDBRANCH  13  14
ENDBRANCH  12  13
ENDBRANCH  11  12
ENDBRANCH  10  11
ENDBRANCH   9  10
ENDBRANCH   8   9
ENDBRANCH   7   8
ENDBRANCH   6   7
ENDBRANCH   5   6
ENDBRANCH   4   5
ENDBRANCH   3   4
ENDBRANCH   2   3
ENDBRANCH   1   2
BRANCH   1  18
ATOM     18  C   UNL     1      -8.260  -0.860   4.464  1.00  0.00     0.000 C 
BRANCH  18  19
ATOM     19  C   UNL     1      -8.762  -2.288   4.741  1.00  0.00     0.000 C 
BRANCH  19  20
ATOM     20  C   UNL     1      -8.959  -2.639   6.232  1.00  0.00     0.000 C 
BRANCH  20  21
ATOM     21  C   UNL     1      -7.682  -3.044   6.991  1.00  0.00     0.000 C 
BRANCH  21  22
ATOM     22  C   UNL     1      -7.397  -2.147   8.208  1.00  0.00     0.000 C 
BRANCH  22  23
ATOM     23  C   UNL     1      -6.991  -0.720   7.806  1.00  0.00     0.000 C 
BRANCH  23  24
ATOM     24  C   UNL     1      -7.145   0.295   8.948  1.00  0.00    -0.000 C 
BRANCH  24  25
ATOM     25  C   UNL     1      -7.727   1.615   8.422  1.00  0.00    -0.000 C 
BRANCH  25  26
ATOM     26  C   UNL     1      -8.603   1.427   7.175  1.00  0.00    -0.000 C 
BRANCH  26  27
ATOM     27  C   UNL     1      -8.316   2.474   6.083  1.00  0.00    -0.000 C 
BRANCH  27  28
ATOM     28  C   UNL     1      -6.960   3.182   6.294  1.00  0.00    -0.000 C 
BRANCH  28  29
ATOM     29  C   UNL     1      -5.780   2.491   5.589  1.00  0.00    -0.000 C 
BRANCH  29  30
ATOM     30  C   UNL     1      -4.430   2.746   6.282  1.00  0.00    -0.000 C 
BRANCH  30  31
ATOM     31  C   UNL     1      -3.691   3.962   5.704  1.00  0.00    -0.003 C 
ATOM     32  C   UNL     1      -3.837   4.081   4.187  1.00  0.00     0.004 C 
ENDBRANCH  30  31
ENDBRANCH  29  30
ENDBRANCH  28  29
ENDBRANCH  27  28
ENDBRANCH  26  27
ENDBRANCH  25  26
ENDBRANCH  24  25
ENDBRANCH  23  24
ENDBRANCH  22  23
ENDBRANCH  21  22
ENDBRANCH  20  21
ENDBRANCH  19  20
ENDBRANCH  18  19
ENDBRANCH   1  18
TORSDOF 28
ENDMDL
MODEL 8
REMARK VINA RESULT:    -3.535      3.320      9.066
REMARK INTER + INTRA:         -14.002
REMARK INTER:                  -8.365
REMARK INTRA:                  -5.636
REMARK UNBOUND:                -4.680
REMARK SMILES CCCCCCCCCCCCCCCCCCCCCCCCCCCCCC(=O)[O-]
REMARK SMILES IDX 16 1 17 2 18 3 19 4 20 5 21 6 22 7 23 8 24 9 25 10 26 11
REMARK SMILES IDX 27 12 28 13 29 14 30 15 31 16 32 17 15 18 14 19 13 20 12 21
REMARK SMILES IDX 11 22 10 23 9 24 8 25 7 26 6 27 5 28 4 29 3 30 2 31 1 32
REMARK H PARENT
REMARK Flexibility Score: inf
ROOT
ATOM      1  C   UNL     1      -6.796  -3.540   1.221  1.00  0.00     0.000 C 
ENDROOT
BRANCH   1   2
ATOM      2  C   UNL     1      -7.934  -2.761   1.890  1.00  0.00     0.000 C 
BRANCH   2   3
ATOM      3  C   UNL     1      -7.418  -1.935   3.076  1.00  0.00     0.000 C 
BRANCH   3   4
ATOM      4  C   UNL     1      -5.908  -2.136   3.267  1.00  0.00     0.000 C 
BRANCH   4   5
ATOM      5  C   UNL     1      -5.546  -2.703   4.653  1.00  0.00     0.000 C 
BRANCH   5   6
ATOM      6  C   UNL     1      -6.021  -4.145   4.917  1.00  0.00     0.000 C 
BRANCH   6   7
ATOM      7  C   UNL     1      -6.777  -4.294   6.249  1.00  0.00     0.000 C 
BRANCH   7   8
ATOM      8  C   UNL     1      -8.298  -4.110   6.098  1.00  0.00     0.000 C 
BRANCH   8   9
ATOM      9  C   UNL     1      -8.893  -2.924   6.883  1.00  0.00     0.000 C 
BRANCH   9  10
ATOM     10  C   UNL     1      -9.290  -1.699   6.033  1.00  0.00     0.000 C 
BRANCH  10  11
ATOM     11  C   UNL     1      -8.563  -0.383   6.381  1.00  0.00     0.000 C 
BRANCH  11  12
ATOM     12  C   UNL     1      -7.207  -0.559   7.099  1.00  0.00     0.000 C 
BRANCH  12  13
ATOM     13  C   UNL     1      -6.087   0.353   6.560  1.00  0.00     0.006 C 
BRANCH  13  14
ATOM     14  C   UNL     1      -6.484   1.202   5.341  1.00  0.00     0.053 C 
BRANCH  14  15
ATOM     15  C   UNL     1      -6.156   2.654   5.526  1.00  0.00     0.041 C 
ATOM     16  O   UNL     1      -6.625   3.288   6.509  1.00  0.00    -0.550 OA
ATOM     17  O   UNL     1      -5.305   3.301   4.635  1.00  0.00    -0.550 OA
ENDBRANCH  14  15
ENDBRANCH  13  14
ENDBRANCH  12  13
ENDBRANCH  11  12
ENDBRANCH  10  11
ENDBRANCH   9  10
ENDBRANCH   8   9
ENDBRANCH   7   8
ENDBRANCH   6   7
ENDBRANCH   5   6
ENDBRANCH   4   5
ENDBRANCH   3   4
ENDBRANCH   2   3
ENDBRANCH   1   2
BRANCH   1  18
ATOM     18  C   UNL     1      -7.136  -5.035   1.129  1.00  0.00     0.000 C 
BRANCH  18  19
ATOM     19  C   UNL     1      -8.069  -5.505   2.258  1.00  0.00     0.000 C 
BRANCH  19  20
ATOM     20  C   UNL     1      -9.379  -6.180   1.794  1.00  0.00     0.000 C 
BRANCH  20  21
ATOM     21  C   UNL     1      -9.633  -6.155   0.275  1.00  0.00     0.000 C 
BRANCH  21  22
ATOM     22  C   UNL     1      -9.534  -7.547  -0.373  1.00  0.00     0.000 C 
BRANCH  22  23
ATOM     23  C   UNL     1      -8.203  -7.761  -1.110  1.00  0.00     0.000 C 
BRANCH  23  24
ATOM     24  C   UNL     1      -7.171  -8.536  -0.279  1.00  0.00    -0.000 C 
BRANCH  24  25
ATOM     25  C   UNL     1      -7.872  -9.441   0.745  1.00  0.00    -0.000 C 
BRANCH  25  26
ATOM     26  C   UNL     1      -7.274  -9.322   2.155  1.00  0.00    -0.000 C 
BRANCH  26  27
ATOM     27  C   UNL     1      -5.932  -8.568   2.170  1.00  0.00    -0.000 C 
BRANCH  27  28
ATOM     28  C   UNL     1      -5.009  -9.043   3.313  1.00  0.00    -0.000 C 
BRANCH  28  29
ATOM     29  C   UNL     1      -5.744  -9.791   4.439  1.00  0.00    -0.000 C 
BRANCH  29  30
ATOM     30  C   UNL     1      -5.924  -8.943   5.709  1.00  0.00    -0.000 C 
BRANCH  30  31
ATOM     31  C   UNL     1      -7.001  -7.859   5.548  1.00  0.00    -0.003 C 
ATOM     32  C   UNL     1      -8.025  -7.866   6.683  1.00  0.00     0.004 C 
ENDBRANCH  30  31
ENDBRANCH  29  30
ENDBRANCH  28  29
ENDBRANCH  27  28
ENDBRANCH  26  27
ENDBRANCH  25  26
ENDBRANCH  24  25
ENDBRANCH  23  24
ENDBRANCH  22  23
ENDBRANCH  21  22
ENDBRANCH  20  21
ENDBRANCH  19  20
ENDBRANCH  18  19
ENDBRANCH   1  18
TORSDOF 28
ENDMDL
MODEL 9
REMARK VINA RESULT:    -3.532      3.382      9.338
REMARK INTER + INTRA:         -13.993
REMARK INTER:                  -9.003
REMARK INTRA:                  -4.990
REMARK UNBOUND:                -4.680
REMARK SMILES CCCCCCCCCCCCCCCCCCCCCCCCCCCCCC(=O)[O-]
REMARK SMILES IDX 16 1 17 2 18 3 19 4 20 5 21 6 22 7 23 8 24 9 25 10 26 11
REMARK SMILES IDX 27 12 28 13 29 14 30 15 31 16 32 17 15 18 14 19 13 20 12 21
REMARK SMILES IDX 11 22 10 23 9 24 8 25 7 26 6 27 5 28 4 29 3 30 2 31 1 32
REMARK H PARENT
REMARK Flexibility Score: inf
ROOT
ATOM      1  C   UNL     1      -5.615  -1.726   1.877  1.00  0.00     0.000 C 
ENDROOT
BRANCH   1   2
ATOM      2  C   UNL     1      -6.220  -1.579   3.278  1.00  0.00     0.000 C 
BRANCH   2   3
ATOM      3  C   UNL     1      -5.582  -2.567   4.264  1.00  0.00     0.000 C 
BRANCH   3   4
ATOM      4  C   UNL     1      -6.392  -2.641   5.566  1.00  0.00     0.000 C 
BRANCH   4   5
ATOM      5  C   UNL     1      -7.864  -2.222   5.385  1.00  0.00     0.000 C 
BRANCH   5   6
ATOM      6  C   UNL     1      -8.648  -1.996   6.691  1.00  0.00     0.000 C 
BRANCH   6   7
ATOM      7  C   UNL     1      -7.933  -2.567   7.928  1.00  0.00     0.000 C 
BRANCH   7   8
ATOM      8  C   UNL     1      -7.496  -1.476   8.924  1.00  0.00     0.000 C 
BRANCH   8   9
ATOM      9  C   UNL     1      -7.769  -0.029   8.468  1.00  0.00     0.000 C 
BRANCH   9  10
ATOM     10  C   UNL     1      -6.638   0.980   8.751  1.00  0.00     0.000 C 
BRANCH  10  11
ATOM     11  C   UNL     1      -5.553   1.088   7.659  1.00  0.00     0.000 C 
BRANCH  11  12
ATOM     12  C   UNL     1      -6.060   0.886   6.215  1.00  0.00     0.000 C 
BRANCH  12  13
ATOM     13  C   UNL     1      -6.033   2.165   5.354  1.00  0.00     0.006 C 
BRANCH  13  14
ATOM     14  C   UNL     1      -5.514   3.416   6.082  1.00  0.00     0.053 C 
BRANCH  14  15
ATOM     15  C   UNL     1      -4.130   3.798   5.645  1.00  0.00     0.041 C 
ATOM     16  O   UNL     1      -3.247   4.066   6.503  1.00  0.00    -0.550 OA
ATOM     17  O   UNL     1      -3.803   3.822   4.292  1.00  0.00    -0.550 OA
ENDBRANCH  14  15
ENDBRANCH  13  14
ENDBRANCH  12  13
ENDBRANCH  11  12
ENDBRANCH  10  11
ENDBRANCH   9  10
ENDBRANCH   8   9
ENDBRANCH   7   8
ENDBRANCH   6   7
ENDBRANCH   5   6
ENDBRANCH   4   5
ENDBRANCH   3   4
ENDBRANCH   2   3
ENDBRANCH   1   2
BRANCH   1  18
ATOM     18  C   UNL     1      -6.713  -1.960   0.830  1.00  0.00     0.000 C 
BRANCH  18  19
ATOM     19  C   UNL     1      -8.073  -2.313   1.458  1.00  0.00     0.000 C 
BRANCH  19  20
ATOM     20  C   UNL     1      -8.531  -3.775   1.260  1.00  0.00     0.000 C 
BRANCH  20  21
ATOM     21  C   UNL     1      -8.724  -4.589   2.552  1.00  0.00     0.000 C 
BRANCH  21  22
ATOM     22  C   UNL     1      -7.449  -5.332   2.990  1.00  0.00     0.000 C 
BRANCH  22  23
ATOM     23  C   UNL     1      -7.567  -5.925   4.402  1.00  0.00     0.000 C 
BRANCH  23  24
ATOM     24  C   UNL     1      -6.206  -6.205   5.055  1.00  0.00    -0.000 C 
BRANCH  24  25
ATOM     25  C   UNL     1      -5.895  -7.709   5.031  1.00  0.00    -0.000 C 
BRANCH  25  26
ATOM     26  C   UNL     1      -5.169  -8.149   3.752  1.00  0.00    -0.000 C 
BRANCH  26  27
ATOM     27  C   UNL     1      -5.829  -9.369   3.083  1.00  0.00    -0.000 C 
BRANCH  27  28
ATOM     28  C   UNL     1      -7.337  -9.154   2.832  1.00  0.00    -0.000 C 
BRANCH  28  29
ATOM     29  C   UNL     1      -7.742  -9.252   1.351  1.00  0.00    -0.000 C 
BRANCH  29  30
ATOM     30  C   UNL     1      -6.694  -8.653   0.398  1.00  0.00    -0.000 C 
BRANCH  30  31
ATOM     31  C   UNL     1      -7.128  -7.297  -0.180  1.00  0.00    -0.003 C 
ATOM     32  C   UNL     1      -8.646  -7.161  -0.300  1.00  0.00     0.004 C 
ENDBRANCH  30  31
ENDBRANCH  29  30
ENDBRANCH  28  29
ENDBRANCH  27  28
ENDBRANCH  26  27
ENDBRANCH  25  26
ENDBRANCH  24  25
ENDBRANCH  23  24
ENDBRANCH  22  23
ENDBRANCH  21  22
ENDBRANCH  20  21
ENDBRANCH  19  20
ENDBRANCH  18  19
ENDBRANCH   1  18
TORSDOF 28
ENDMDL
