MODEL 1
REMARK VINA RESULT:    -7.418      0.000      0.000
REMARK INTER + INTRA:          -9.267
REMARK INTER:                  -8.936
REMARK INTRA:                  -0.331
REMARK UNBOUND:                -0.331
REMARK SMILES O=c1c(O)c(-c2ccc(O)c(O)c2)oc2cc(O)cc(O)c12
REMARK SMILES IDX 5 1 3 2 2 3 1 4 22 5 20 6 19 7 17 8 16 9 15 10 14 11 6 12
REMARK SMILES IDX 7 13 8 14 9 15 13 16 11 17 10 18 12 20 4 22 21 24 18 26
REMARK H PARENT 10 19 12 21 4 23 21 25 18 27
REMARK Flexibility Score: inf
ROOT
ATOM      1  C   UNL     1      57.204 -20.141   3.167  1.00  0.00     0.180 A 
ATOM      2  C   UNL     1      58.319 -20.996   3.119  1.00  0.00     0.208 A 
ATOM      3  C   UNL     1      59.549 -20.487   2.675  1.00  0.00     0.238 A 
ATOM      4  O   UNL     1      60.524 -21.276   2.563  1.00  0.00    -0.285 OA
ATOM      5  C   UNL     1      59.665 -19.116   2.337  1.00  0.00     0.111 A 
ATOM      6  C   UNL     1      60.874 -18.482   1.918  1.00  0.00     0.134 A 
ATOM      7  C   UNL     1      60.845 -17.143   1.508  1.00  0.00     0.093 A 
ATOM      8  C   UNL     1      59.668 -16.398   1.562  1.00  0.00     0.123 A 
ATOM      9  C   UNL     1      58.493 -16.992   2.022  1.00  0.00     0.094 A 
ATOM     10  C   UNL     1      58.481 -18.337   2.401  1.00  0.00     0.146 A 
ATOM     11  O   UNL     1      57.336 -18.868   2.813  1.00  0.00    -0.452 OA
ENDROOT
BRANCH   1  12
ATOM     12  C   UNL     1      55.871 -20.608   3.609  1.00  0.00     0.025 A 
ATOM     13  C   UNL     1      54.966 -21.199   2.711  1.00  0.00     0.016 A 
ATOM     14  C   UNL     1      53.703 -21.611   3.147  1.00  0.00     0.051 A 
ATOM     15  C   UNL     1      53.323 -21.424   4.482  1.00  0.00     0.157 A 
ATOM     16  C   UNL     1      55.476 -20.405   4.942  1.00  0.00     0.062 A 
ATOM     17  C   UNL     1      54.209 -20.818   5.381  1.00  0.00     0.158 A 
BRANCH  15  18
ATOM     18  O   UNL     1      52.065 -21.833   4.922  1.00  0.00    -0.504 OA
ATOM     19  H   UNL     1      51.475 -22.432   4.356  1.00  0.00     0.293 HD
ENDBRANCH  15  18
BRANCH  17  20
ATOM     20  O   UNL     1      53.826 -20.627   6.707  1.00  0.00    -0.504 OA
ATOM     21  H   UNL     1      52.853 -20.653   6.988  1.00  0.00     0.293 HD
ENDBRANCH  17  20
ENDBRANCH   1  12
BRANCH   2  22
ATOM     22  O   UNL     1      58.203 -22.327   3.529  1.00  0.00    -0.502 OA
ATOM     23  H   UNL     1      57.729 -23.029   2.973  1.00  0.00     0.293 HD
ENDBRANCH   2  22
BRANCH   6  24
ATOM     24  O   UNL     1      62.124 -19.108   1.909  1.00  0.00    -0.507 OA
ATOM     25  H   UNL     1      62.323 -20.007   2.320  1.00  0.00     0.293 HD
ENDBRANCH   6  24
BRANCH   8  26
ATOM     26  O   UNL     1      59.680 -15.064   1.162  1.00  0.00    -0.508 OA
ATOM     27  H   UNL     1      59.213 -14.344   1.702  1.00  0.00     0.293 HD
ENDBRANCH   8  26
TORSDOF 6
ENDMDL
MODEL 2
REMARK VINA RESULT:    -7.351      1.380      3.007
REMARK INTER + INTRA:          -9.186
REMARK INTER:                  -8.865
REMARK INTRA:                  -0.321
REMARK UNBOUND:                -0.331
REMARK SMILES O=c1c(O)c(-c2ccc(O)c(O)c2)oc2cc(O)cc(O)c12
REMARK SMILES IDX 5 1 3 2 2 3 1 4 22 5 20 6 19 7 17 8 16 9 15 10 14 11 6 12
REMARK SMILES IDX 7 13 8 14 9 15 13 16 11 17 10 18 12 20 4 22 21 24 18 26
REMARK H PARENT 10 19 12 21 4 23 21 25 18 27
REMARK Flexibility Score: inf
ROOT
ATOM      1  C   UNL     1      56.111 -19.956   3.133  1.00  0.00     0.180 A 
ATOM      2  C   UNL     1      56.106 -18.646   2.621  1.00  0.00     0.208 A 
ATOM      3  C   UNL     1      57.331 -18.014   2.357  1.00  0.00     0.238 A 
ATOM      4  O   UNL     1      57.320 -16.816   1.971  1.00  0.00    -0.285 OA
ATOM      5  C   UNL     1      58.545 -18.716   2.556  1.00  0.00     0.111 A 
ATOM      6  C   UNL     1      59.843 -18.188   2.279  1.00  0.00     0.134 A 
ATOM      7  C   UNL     1      60.978 -18.937   2.615  1.00  0.00     0.093 A 
ATOM      8  C   UNL     1      60.864 -20.217   3.156  1.00  0.00     0.123 A 
ATOM      9  C   UNL     1      59.600 -20.764   3.380  1.00  0.00     0.094 A 
ATOM     10  C   UNL     1      58.448 -20.027   3.092  1.00  0.00     0.146 A 
ATOM     11  O   UNL     1      57.266 -20.577   3.339  1.00  0.00    -0.452 OA
ENDROOT
BRANCH   1  12
ATOM     12  C   UNL     1      54.861 -20.683   3.449  1.00  0.00     0.025 A 
ATOM     13  C   UNL     1      54.225 -21.497   2.496  1.00  0.00     0.016 A 
ATOM     14  C   UNL     1      53.032 -22.154   2.811  1.00  0.00     0.051 A 
ATOM     15  C   UNL     1      52.452 -21.996   4.076  1.00  0.00     0.157 A 
ATOM     16  C   UNL     1      54.263 -20.512   4.709  1.00  0.00     0.062 A 
ATOM     17  C   UNL     1      53.067 -21.172   5.026  1.00  0.00     0.158 A 
BRANCH  15  18
ATOM     18  O   UNL     1      51.264 -22.651   4.395  1.00  0.00    -0.504 OA
ATOM     19  H   UNL     1      50.462 -22.626   3.775  1.00  0.00     0.293 HD
ENDBRANCH  15  18
BRANCH  17  20
ATOM     20  O   UNL     1      52.485 -21.011   6.282  1.00  0.00    -0.504 OA
ATOM     21  H   UNL     1      53.047 -20.893   7.117  1.00  0.00     0.293 HD
ENDBRANCH  17  20
ENDBRANCH   1  12
BRANCH   2  22
ATOM     22  O   UNL     1      54.897 -17.998   2.360  1.00  0.00    -0.502 OA
ATOM     23  H   UNL     1      54.595 -17.180   2.875  1.00  0.00     0.293 HD
ENDBRANCH   2  22
BRANCH   6  24
ATOM     24  O   UNL     1      60.072 -16.957   1.659  1.00  0.00    -0.507 OA
ATOM     25  H   UNL     1      59.663 -16.081   1.944  1.00  0.00     0.293 HD
ENDBRANCH   6  24
BRANCH   8  26
ATOM     26  O   UNL     1      62.014 -20.940   3.462  1.00  0.00    -0.508 OA
ATOM     27  H   UNL     1      61.999 -21.705   4.126  1.00  0.00     0.293 HD
ENDBRANCH   8  26
TORSDOF 6
ENDMDL
MODEL 3
REMARK VINA RESULT:    -7.212      0.599      1.453
REMARK INTER + INTRA:          -9.019
REMARK INTER:                  -8.716
REMARK INTRA:                  -0.303
REMARK UNBOUND:                -0.331
REMARK SMILES O=c1c(O)c(-c2ccc(O)c(O)c2)oc2cc(O)cc(O)c12
REMARK SMILES IDX 5 1 3 2 2 3 1 4 22 5 20 6 19 7 17 8 16 9 15 10 14 11 6 12
REMARK SMILES IDX 7 13 8 14 9 15 13 16 11 17 10 18 12 20 4 22 21 24 18 26
REMARK H PARENT 10 19 12 21 4 23 21 25 18 27
REMARK Flexibility Score: inf
ROOT
ATOM      1  C   UNL     1      57.183 -20.034   3.181  1.00  0.00     0.180 A 
ATOM      2  C   UNL     1      58.258 -20.939   3.135  1.00  0.00     0.208 A 
ATOM      3  C   UNL     1      59.503 -20.493   2.665  1.00  0.00     0.238 A 
ATOM      4  O   UNL     1      60.441 -21.326   2.556  1.00  0.00    -0.285 OA
ATOM      5  C   UNL     1      59.674 -19.135   2.299  1.00  0.00     0.111 A 
ATOM      6  C   UNL     1      60.904 -18.564   1.850  1.00  0.00     0.134 A 
ATOM      7  C   UNL     1      60.928 -17.233   1.414  1.00  0.00     0.093 A 
ATOM      8  C   UNL     1      59.785 -16.436   1.469  1.00  0.00     0.123 A 
ATOM      9  C   UNL     1      58.591 -16.969   1.957  1.00  0.00     0.094 A 
ATOM     10  C   UNL     1      58.526 -18.304   2.363  1.00  0.00     0.146 A 
ATOM     11  O   UNL     1      57.366 -18.776   2.800  1.00  0.00    -0.452 OA
ENDROOT
BRANCH   1  12
ATOM     12  C   UNL     1      55.837 -20.434   3.651  1.00  0.00     0.025 A 
ATOM     13  C   UNL     1      55.429 -20.215   4.978  1.00  0.00     0.016 A 
ATOM     14  C   UNL     1      54.161 -20.623   5.404  1.00  0.00     0.051 A 
ATOM     15  C   UNL     1      53.291 -21.266   4.515  1.00  0.00     0.157 A 
ATOM     16  C   UNL     1      54.967 -21.098   2.770  1.00  0.00     0.062 A 
ATOM     17  C   UNL     1      53.696 -21.507   3.197  1.00  0.00     0.158 A 
BRANCH  15  18
ATOM     18  O   UNL     1      52.026 -21.674   4.935  1.00  0.00    -0.504 OA
ATOM     19  H   UNL     1      51.185 -21.221   4.599  1.00  0.00     0.293 HD
ENDBRANCH  15  18
BRANCH  17  20
ATOM     20  O   UNL     1      52.831 -22.153   2.315  1.00  0.00    -0.504 OA
ATOM     21  H   UNL     1      52.316 -21.643   1.607  1.00  0.00     0.293 HD
ENDBRANCH  17  20
ENDBRANCH   1  12
BRANCH   2  22
ATOM     22  O   UNL     1      58.090 -22.254   3.574  1.00  0.00    -0.502 OA
ATOM     23  H   UNL     1      57.284 -22.551   4.110  1.00  0.00     0.293 HD
ENDBRANCH   2  22
BRANCH   6  24
ATOM     24  O   UNL     1      62.125 -19.244   1.838  1.00  0.00    -0.507 OA
ATOM     25  H   UNL     1      62.987 -18.892   2.226  1.00  0.00     0.293 HD
ENDBRANCH   6  24
BRANCH   8  26
ATOM     26  O   UNL     1      59.850 -15.111   1.042  1.00  0.00    -0.508 OA
ATOM     27  H   UNL     1      59.030 -14.623   0.702  1.00  0.00     0.293 HD
ENDBRANCH   8  26
TORSDOF 6
ENDMDL
MODEL 4
REMARK VINA RESULT:    -7.063      1.933      3.684
REMARK INTER + INTRA:          -8.839
REMARK INTER:                  -8.510
REMARK INTRA:                  -0.329
REMARK UNBOUND:                -0.331
REMARK SMILES O=c1c(O)c(-c2ccc(O)c(O)c2)oc2cc(O)cc(O)c12
REMARK SMILES IDX 5 1 3 2 2 3 1 4 22 5 20 6 19 7 17 8 16 9 15 10 14 11 6 12
REMARK SMILES IDX 7 13 8 14 9 15 13 16 11 17 10 18 12 20 4 22 21 24 18 26
REMARK H PARENT 10 19 12 21 4 23 21 25 18 27
REMARK Flexibility Score: inf
ROOT
ATOM      1  C   UNL     1      55.728 -19.996   3.090  1.00  0.00     0.180 A 
ATOM      2  C   UNL     1      55.992 -18.721   2.560  1.00  0.00     0.208 A 
ATOM      3  C   UNL     1      57.322 -18.279   2.481  1.00  0.00     0.238 A 
ATOM      4  O   UNL     1      57.545 -17.108   2.076  1.00  0.00    -0.285 OA
ATOM      5  C   UNL     1      58.376 -19.138   2.879  1.00  0.00     0.111 A 
ATOM      6  C   UNL     1      59.764 -18.811   2.801  1.00  0.00     0.134 A 
ATOM      7  C   UNL     1      60.713 -19.698   3.323  1.00  0.00     0.093 A 
ATOM      8  C   UNL     1      60.332 -20.926   3.862  1.00  0.00     0.123 A 
ATOM      9  C   UNL     1      58.982 -21.279   3.894  1.00  0.00     0.094 A 
ATOM     10  C   UNL     1      58.008 -20.399   3.417  1.00  0.00     0.146 A 
ATOM     11  O   UNL     1      56.735 -20.766   3.485  1.00  0.00    -0.452 OA
ENDROOT
BRANCH   1  12
ATOM     12  C   UNL     1      54.351 -20.526   3.219  1.00  0.00     0.025 A 
ATOM     13  C   UNL     1      53.558 -20.238   4.343  1.00  0.00     0.016 A 
ATOM     14  C   UNL     1      52.270 -20.770   4.454  1.00  0.00     0.051 A 
ATOM     15  C   UNL     1      51.763 -21.607   3.452  1.00  0.00     0.157 A 
ATOM     16  C   UNL     1      53.845 -21.383   2.227  1.00  0.00     0.062 A 
ATOM     17  C   UNL     1      52.553 -21.916   2.338  1.00  0.00     0.158 A 
BRANCH  15  18
ATOM     18  O   UNL     1      50.479 -22.138   3.558  1.00  0.00    -0.504 OA
ATOM     19  H   UNL     1      50.218 -22.745   4.327  1.00  0.00     0.293 HD
ENDBRANCH  15  18
BRANCH  17  20
ATOM     20  O   UNL     1      52.049 -22.754   1.344  1.00  0.00    -0.504 OA
ATOM     21  H   UNL     1      51.505 -22.392   0.571  1.00  0.00     0.293 HD
ENDBRANCH  17  20
ENDBRANCH   1  12
BRANCH   2  22
ATOM     22  O   UNL     1      54.944 -17.919   2.102  1.00  0.00    -0.502 OA
ATOM     23  H   UNL     1      54.696 -17.042   2.543  1.00  0.00     0.293 HD
ENDBRANCH   2  22
BRANCH   6  24
ATOM     24  O   UNL     1      60.262 -17.650   2.202  1.00  0.00    -0.507 OA
ATOM     25  H   UNL     1      59.697 -16.896   1.843  1.00  0.00     0.293 HD
ENDBRANCH   6  24
BRANCH   8  26
ATOM     26  O   UNL     1      61.304 -21.792   4.357  1.00  0.00    -0.508 OA
ATOM     27  H   UNL     1      61.737 -22.495   3.770  1.00  0.00     0.293 HD
ENDBRANCH   8  26
TORSDOF 6
ENDMDL
MODEL 5
REMARK VINA RESULT:    -6.901      9.355     10.929
REMARK INTER + INTRA:          -8.644
REMARK INTER:                  -8.351
REMARK INTRA:                  -0.294
REMARK UNBOUND:                -0.331
REMARK SMILES O=c1c(O)c(-c2ccc(O)c(O)c2)oc2cc(O)cc(O)c12
REMARK SMILES IDX 5 1 3 2 2 3 1 4 22 5 20 6 19 7 17 8 16 9 15 10 14 11 6 12
REMARK SMILES IDX 7 13 8 14 9 15 13 16 11 17 10 18 12 20 4 22 21 24 18 26
REMARK H PARENT 10 19 12 21 4 23 21 25 18 27
REMARK Flexibility Score: inf
ROOT
ATOM      1  C   UNL     1      57.191 -13.686  -5.733  1.00  0.00     0.180 A 
ATOM      2  C   UNL     1      57.715 -12.803  -6.693  1.00  0.00     0.208 A 
ATOM      3  C   UNL     1      59.077 -12.470  -6.639  1.00  0.00     0.238 A 
ATOM      4  O   UNL     1      59.523 -11.621  -7.455  1.00  0.00    -0.285 OA
ATOM      5  C   UNL     1      59.912 -13.067  -5.663  1.00  0.00     0.111 A 
ATOM      6  C   UNL     1      61.317 -12.836  -5.545  1.00  0.00     0.134 A 
ATOM      7  C   UNL     1      62.020 -13.400  -4.473  1.00  0.00     0.093 A 
ATOM      8  C   UNL     1      61.387 -14.235  -3.553  1.00  0.00     0.123 A 
ATOM      9  C   UNL     1      60.026 -14.511  -3.692  1.00  0.00     0.094 A 
ATOM     10  C   UNL     1      59.288 -13.932  -4.727  1.00  0.00     0.146 A 
ATOM     11  O   UNL     1      57.992 -14.204  -4.810  1.00  0.00    -0.452 OA
ENDROOT
BRANCH   1  12
ATOM     12  C   UNL     1      55.762 -14.073  -5.715  1.00  0.00     0.025 A 
ATOM     13  C   UNL     1      55.253 -15.039  -6.600  1.00  0.00     0.016 A 
ATOM     14  C   UNL     1      53.895 -15.370  -6.580  1.00  0.00     0.051 A 
ATOM     15  C   UNL     1      53.026 -14.731  -5.687  1.00  0.00     0.157 A 
ATOM     16  C   UNL     1      54.882 -13.421  -4.836  1.00  0.00     0.062 A 
ATOM     17  C   UNL     1      53.519 -13.753  -4.815  1.00  0.00     0.158 A 
BRANCH  15  18
ATOM     18  O   UNL     1      51.671 -15.059  -5.663  1.00  0.00    -0.504 OA
ATOM     19  H   UNL     1      51.110 -14.930  -4.829  1.00  0.00     0.293 HD
ENDBRANCH  15  18
BRANCH  17  20
ATOM     20  O   UNL     1      52.651 -13.114  -3.931  1.00  0.00    -0.504 OA
ATOM     21  H   UNL     1      52.498 -13.462  -2.992  1.00  0.00     0.293 HD
ENDBRANCH  17  20
ENDBRANCH   1  12
BRANCH   2  22
ATOM     22  O   UNL     1      56.892 -12.285  -7.695  1.00  0.00    -0.502 OA
ATOM     23  H   UNL     1      57.058 -11.383  -8.125  1.00  0.00     0.293 HD
ENDBRANCH   2  22
BRANCH   6  24
ATOM     24  O   UNL     1      62.068 -12.091  -6.457  1.00  0.00    -0.507 OA
ATOM     25  H   UNL     1      62.153 -12.297  -7.441  1.00  0.00     0.293 HD
ENDBRANCH   6  24
BRANCH   8  26
ATOM     26  O   UNL     1      62.122 -14.792  -2.509  1.00  0.00    -0.508 OA
ATOM     27  H   UNL     1      62.711 -15.604  -2.650  1.00  0.00     0.293 HD
ENDBRANCH   8  26
TORSDOF 6
ENDMDL
MODEL 6
REMARK VINA RESULT:    -6.619      1.898      7.159
REMARK INTER + INTRA:          -8.304
REMARK INTER:                  -8.775
REMARK INTRA:                   0.471
REMARK UNBOUND:                -0.331
REMARK SMILES O=c1c(O)c(-c2ccc(O)c(O)c2)oc2cc(O)cc(O)c12
REMARK SMILES IDX 5 1 3 2 2 3 1 4 22 5 20 6 19 7 17 8 16 9 15 10 14 11 6 12
REMARK SMILES IDX 7 13 8 14 9 15 13 16 11 17 10 18 12 20 4 22 21 24 18 26
REMARK H PARENT 10 19 12 21 4 23 21 25 18 27
REMARK Flexibility Score: inf
ROOT
ATOM      1  C   UNL     1      56.461 -19.814   3.144  1.00  0.00     0.180 A 
ATOM      2  C   UNL     1      55.791 -18.657   2.709  1.00  0.00     0.208 A 
ATOM      3  C   UNL     1      54.388 -18.632   2.737  1.00  0.00     0.238 A 
ATOM      4  O   UNL     1      53.793 -17.623   2.276  1.00  0.00    -0.285 OA
ATOM      5  C   UNL     1      53.672 -19.742   3.251  1.00  0.00     0.111 A 
ATOM      6  C   UNL     1      52.250 -19.808   3.368  1.00  0.00     0.134 A 
ATOM      7  C   UNL     1      51.647 -20.998   3.792  1.00  0.00     0.093 A 
ATOM      8  C   UNL     1      52.414 -22.102   4.164  1.00  0.00     0.123 A 
ATOM      9  C   UNL     1      53.806 -22.030   4.106  1.00  0.00     0.094 A 
ATOM     10  C   UNL     1      54.436 -20.869   3.649  1.00  0.00     0.146 A 
ATOM     11  O   UNL     1      55.762 -20.850   3.590  1.00  0.00    -0.452 OA
ENDROOT
BRANCH   1  12
ATOM     12  C   UNL     1      57.938 -19.921   3.131  1.00  0.00     0.025 A 
ATOM     13  C   UNL     1      58.748 -18.836   2.756  1.00  0.00     0.016 A 
ATOM     14  C   UNL     1      60.139 -18.969   2.727  1.00  0.00     0.051 A 
ATOM     15  C   UNL     1      60.738 -20.191   3.060  1.00  0.00     0.157 A 
ATOM     16  C   UNL     1      58.543 -21.150   3.443  1.00  0.00     0.062 A 
ATOM     17  C   UNL     1      59.939 -21.284   3.416  1.00  0.00     0.158 A 
BRANCH  15  18
ATOM     18  O   UNL     1      62.125 -20.328   3.034  1.00  0.00    -0.504 OA
ATOM     19  H   UNL     1      62.604 -20.978   3.646  1.00  0.00     0.293 HD
ENDBRANCH  15  18
BRANCH  17  20
ATOM     20  O   UNL     1      60.536 -22.501   3.740  1.00  0.00    -0.504 OA
ATOM     21  H   UNL     1      60.588 -23.261   3.073  1.00  0.00     0.293 HD
ENDBRANCH  17  20
ENDBRANCH   1  12
BRANCH   2  22
ATOM     22  O   UNL     1      56.517 -17.544   2.278  1.00  0.00    -0.502 OA
ATOM     23  H   UNL     1      57.519 -17.467   2.400  1.00  0.00     0.293 HD
ENDBRANCH   2  22
BRANCH   6  24
ATOM     24  O   UNL     1      51.392 -18.735   3.107  1.00  0.00    -0.507 OA
ATOM     25  H   UNL     1      51.687 -17.781   2.963  1.00  0.00     0.293 HD
ENDBRANCH   6  24
BRANCH   8  26
ATOM     26  O   UNL     1      51.780 -23.264   4.597  1.00  0.00    -0.508 OA
ATOM     27  H   UNL     1      52.114 -23.782   5.402  1.00  0.00     0.293 HD
ENDBRANCH   8  26
TORSDOF 6
ENDMDL
MODEL 7
REMARK VINA RESULT:    -6.598      1.784      6.889
REMARK INTER + INTRA:          -8.279
REMARK INTER:                  -7.965
REMARK INTRA:                  -0.314
REMARK UNBOUND:                -0.331
REMARK SMILES O=c1c(O)c(-c2ccc(O)c(O)c2)oc2cc(O)cc(O)c12
REMARK SMILES IDX 5 1 3 2 2 3 1 4 22 5 20 6 19 7 17 8 16 9 15 10 14 11 6 12
REMARK SMILES IDX 7 13 8 14 9 15 13 16 11 17 10 18 12 20 4 22 21 24 18 26
REMARK H PARENT 10 19 12 21 4 23 21 25 18 27
REMARK Flexibility Score: inf
ROOT
ATOM      1  C   UNL     1      58.594 -18.657   2.294  1.00  0.00     0.180 A 
ATOM      2  C   UNL     1      59.067 -19.856   2.855  1.00  0.00     0.208 A 
ATOM      3  C   UNL     1      58.161 -20.703   3.512  1.00  0.00     0.238 A 
ATOM      4  O   UNL     1      58.604 -21.738   4.077  1.00  0.00    -0.285 OA
ATOM      5  C   UNL     1      56.785 -20.371   3.551  1.00  0.00     0.111 A 
ATOM      6  C   UNL     1      55.771 -21.178   4.151  1.00  0.00     0.134 A 
ATOM      7  C   UNL     1      54.458 -20.696   4.223  1.00  0.00     0.093 A 
ATOM      8  C   UNL     1      54.109 -19.468   3.663  1.00  0.00     0.123 A 
ATOM      9  C   UNL     1      55.081 -18.696   3.026  1.00  0.00     0.094 A 
ATOM     10  C   UNL     1      56.407 -19.131   2.972  1.00  0.00     0.146 A 
ATOM     11  O   UNL     1      57.304 -18.356   2.376  1.00  0.00    -0.452 OA
ENDROOT
BRANCH   1  12
ATOM     12  C   UNL     1      59.491 -17.705   1.599  1.00  0.00     0.025 A 
ATOM     13  C   UNL     1      60.002 -16.570   2.253  1.00  0.00     0.016 A 
ATOM     14  C   UNL     1      60.827 -15.673   1.568  1.00  0.00     0.051 A 
ATOM     15  C   UNL     1      61.140 -15.889   0.220  1.00  0.00     0.157 A 
ATOM     16  C   UNL     1      59.792 -17.905   0.242  1.00  0.00     0.062 A 
ATOM     17  C   UNL     1      60.619 -17.005  -0.445  1.00  0.00     0.158 A 
BRANCH  15  18
ATOM     18  O   UNL     1      61.963 -14.997  -0.466  1.00  0.00    -0.504 OA
ATOM     19  H   UNL     1      61.585 -14.191  -0.949  1.00  0.00     0.293 HD
ENDBRANCH  15  18
BRANCH  17  20
ATOM     20  O   UNL     1      60.927 -17.215  -1.788  1.00  0.00    -0.504 OA
ATOM     21  H   UNL     1      61.578 -16.618  -2.283  1.00  0.00     0.293 HD
ENDBRANCH  17  20
ENDBRANCH   1  12
BRANCH   2  22
ATOM     22  O   UNL     1      60.415 -20.204   2.739  1.00  0.00    -0.502 OA
ATOM     23  H   UNL     1      60.812 -20.566   1.880  1.00  0.00     0.293 HD
ENDBRANCH   2  22
BRANCH   6  24
ATOM     24  O   UNL     1      55.992 -22.460   4.664  1.00  0.00    -0.507 OA
ATOM     25  H   UNL     1      56.780 -22.727   5.233  1.00  0.00     0.293 HD
ENDBRANCH   6  24
BRANCH   8  26
ATOM     26  O   UNL     1      52.789 -19.028   3.739  1.00  0.00    -0.508 OA
ATOM     27  H   UNL     1      52.352 -18.530   2.973  1.00  0.00     0.293 HD
ENDBRANCH   8  26
TORSDOF 6
ENDMDL
MODEL 8
REMARK VINA RESULT:    -6.430      3.551      8.669
REMARK INTER + INTRA:          -8.076
REMARK INTER:                  -7.784
REMARK INTRA:                  -0.292
REMARK UNBOUND:                -0.331
REMARK SMILES O=c1c(O)c(-c2ccc(O)c(O)c2)oc2cc(O)cc(O)c12
REMARK SMILES IDX 5 1 3 2 2 3 1 4 22 5 20 6 19 7 17 8 16 9 15 10 14 11 6 12
REMARK SMILES IDX 7 13 8 14 9 15 13 16 11 17 10 18 12 20 4 22 21 24 18 26
REMARK H PARENT 10 19 12 21 4 23 21 25 18 27
REMARK Flexibility Score: inf
ROOT
ATOM      1  C   UNL     1      52.905 -21.320   3.580  1.00  0.00     0.180 A 
ATOM      2  C   UNL     1      52.166 -20.126   3.516  1.00  0.00     0.208 A 
ATOM      3  C   UNL     1      50.795 -20.190   3.226  1.00  0.00     0.238 A 
ATOM      4  O   UNL     1      50.155 -19.113   3.096  1.00  0.00    -0.285 OA
ATOM      5  C   UNL     1      50.166 -21.448   3.058  1.00  0.00     0.111 A 
ATOM      6  C   UNL     1      48.772 -21.633   2.805  1.00  0.00     0.134 A 
ATOM      7  C   UNL     1      48.282 -22.920   2.552  1.00  0.00     0.093 A 
ATOM      8  C   UNL     1      49.119 -24.034   2.604  1.00  0.00     0.123 A 
ATOM      9  C   UNL     1      50.472 -23.870   2.904  1.00  0.00     0.094 A 
ATOM     10  C   UNL     1      50.999 -22.595   3.124  1.00  0.00     0.146 A 
ATOM     11  O   UNL     1      52.295 -22.483   3.386  1.00  0.00    -0.452 OA
ENDROOT
BRANCH   1  12
ATOM     12  C   UNL     1      54.358 -21.333   3.865  1.00  0.00     0.025 A 
ATOM     13  C   UNL     1      55.302 -21.001   2.878  1.00  0.00     0.016 A 
ATOM     14  C   UNL     1      56.670 -21.044   3.165  1.00  0.00     0.051 A 
ATOM     15  C   UNL     1      57.112 -21.433   4.436  1.00  0.00     0.157 A 
ATOM     16  C   UNL     1      54.809 -21.742   5.131  1.00  0.00     0.062 A 
ATOM     17  C   UNL     1      56.181 -21.785   5.420  1.00  0.00     0.158 A 
BRANCH  15  18
ATOM     18  O   UNL     1      58.475 -21.476   4.727  1.00  0.00    -0.504 OA
ATOM     19  H   UNL     1      58.888 -22.263   5.213  1.00  0.00     0.293 HD
ENDBRANCH  15  18
BRANCH  17  20
ATOM     20  O   UNL     1      56.623 -22.178   6.682  1.00  0.00    -0.504 OA
ATOM     21  H   UNL     1      56.283 -23.023   7.125  1.00  0.00     0.293 HD
ENDBRANCH  17  20
ENDBRANCH   1  12
BRANCH   2  22
ATOM     22  O   UNL     1      52.789 -18.900   3.760  1.00  0.00    -0.502 OA
ATOM     23  H   UNL     1      53.413 -18.752   4.544  1.00  0.00     0.293 HD
ENDBRANCH   2  22
BRANCH   6  24
ATOM     24  O   UNL     1      47.831 -20.600   2.817  1.00  0.00    -0.507 OA
ATOM     25  H   UNL     1      47.168 -20.414   2.080  1.00  0.00     0.293 HD
ENDBRANCH   6  24
BRANCH   8  26
ATOM     26  O   UNL     1      48.593 -25.301   2.363  1.00  0.00    -0.508 OA
ATOM     27  H   UNL     1      49.143 -26.028   1.920  1.00  0.00     0.293 HD
ENDBRANCH   8  26
TORSDOF 6
ENDMDL
MODEL 9
REMARK VINA RESULT:    -6.423      1.543      6.719
REMARK INTER + INTRA:          -8.068
REMARK INTER:                  -8.574
REMARK INTRA:                   0.505
REMARK UNBOUND:                -0.331
REMARK SMILES O=c1c(O)c(-c2ccc(O)c(O)c2)oc2cc(O)cc(O)c12
REMARK SMILES IDX 5 1 3 2 2 3 1 4 22 5 20 6 19 7 17 8 16 9 15 10 14 11 6 12
REMARK SMILES IDX 7 13 8 14 9 15 13 16 11 17 10 18 12 20 4 22 21 24 18 26
REMARK H PARENT 10 19 12 21 4 23 21 25 18 27
REMARK Flexibility Score: inf
ROOT
ATOM      1  C   UNL     1      57.316 -19.839   3.130  1.00  0.00     0.180 A 
ATOM      2  C   UNL     1      57.323 -21.042   3.858  1.00  0.00     0.208 A 
ATOM      3  C   UNL     1      56.106 -21.566   4.319  1.00  0.00     0.238 A 
ATOM      4  O   UNL     1      56.127 -22.602   5.033  1.00  0.00    -0.285 OA
ATOM      5  C   UNL     1      54.890 -20.912   4.000  1.00  0.00     0.111 A 
ATOM      6  C   UNL     1      53.594 -21.378   4.377  1.00  0.00     0.134 A 
ATOM      7  C   UNL     1      52.469 -20.592   4.097  1.00  0.00     0.093 A 
ATOM      8  C   UNL     1      52.585 -19.390   3.399  1.00  0.00     0.123 A 
ATOM      9  C   UNL     1      53.841 -18.953   2.978  1.00  0.00     0.094 A 
ATOM     10  C   UNL     1      54.986 -19.695   3.276  1.00  0.00     0.146 A 
ATOM     11  O   UNL     1      56.164 -19.232   2.875  1.00  0.00    -0.452 OA
ENDROOT
BRANCH   1  12
ATOM     12  C   UNL     1      58.561 -19.217   2.624  1.00  0.00     0.025 A 
ATOM     13  C   UNL     1      58.567 -17.912   2.101  1.00  0.00     0.016 A 
ATOM     14  C   UNL     1      59.750 -17.355   1.606  1.00  0.00     0.051 A 
ATOM     15  C   UNL     1      60.938 -18.097   1.615  1.00  0.00     0.157 A 
ATOM     16  C   UNL     1      59.750 -19.963   2.612  1.00  0.00     0.062 A 
ATOM     17  C   UNL     1      60.937 -19.405   2.116  1.00  0.00     0.158 A 
BRANCH  15  18
ATOM     18  O   UNL     1      62.120 -17.546   1.125  1.00  0.00    -0.504 OA
ATOM     19  H   UNL     1      62.988 -17.604   1.644  1.00  0.00     0.293 HD
ENDBRANCH  15  18
BRANCH  17  20
ATOM     20  O   UNL     1      62.119 -20.145   2.119  1.00  0.00    -0.504 OA
ATOM     21  H   UNL     1      62.754 -20.128   2.908  1.00  0.00     0.293 HD
ENDBRANCH  17  20
ENDBRANCH   1  12
BRANCH   2  22
ATOM     22  O   UNL     1      58.525 -21.712   4.096  1.00  0.00    -0.502 OA
ATOM     23  H   UNL     1      58.921 -21.808   5.023  1.00  0.00     0.293 HD
ENDBRANCH   2  22
BRANCH   6  24
ATOM     24  O   UNL     1      53.354 -22.606   5.000  1.00  0.00    -0.507 OA
ATOM     25  H   UNL     1      53.823 -22.935   5.830  1.00  0.00     0.293 HD
ENDBRANCH   6  24
BRANCH   8  26
ATOM     26  O   UNL     1      51.443 -18.642   3.123  1.00  0.00    -0.508 OA
ATOM     27  H   UNL     1      50.835 -18.311   3.862  1.00  0.00     0.293 HD
ENDBRANCH   8  26
TORSDOF 6
ENDMDL
