MODEL 1
REMARK VINA RESULT:    -3.778      0.000      0.000
REMARK INTER + INTRA:          -9.020
REMARK INTER:                  -6.871
REMARK INTRA:                  -2.149
REMARK UNBOUND:                -2.149
REMARK SMILES CCCCCCCCCCCCCCCC(=O)[O-]
REMARK SMILES IDX 9 1 10 2 11 3 12 4 13 5 14 6 15 7 16 8 17 9 18 10 8 11 7 12
REMARK SMILES IDX 6 13 5 14 4 15 3 16 2 17 1 18
REMARK H PARENT
REMARK Flexibility Score: inf
ROOT
ATOM      1  C   UNL     1     -10.163   0.268   8.948  1.00  0.00     0.000 C 
ENDROOT
BRANCH   1   2
ATOM      2  C   UNL     1      -8.871   1.043   8.641  1.00  0.00     0.000 C 
BRANCH   2   3
ATOM      3  C   UNL     1      -9.067   2.568   8.698  1.00  0.00     0.000 C 
BRANCH   3   4
ATOM      4  C   UNL     1      -8.674   3.261   7.383  1.00  0.00     0.000 C 
BRANCH   4   5
ATOM      5  C   UNL     1      -7.909   2.327   6.430  1.00  0.00     0.000 C 
BRANCH   5   6
ATOM      6  C   UNL     1      -6.618   2.957   5.876  1.00  0.00     0.006 C 
BRANCH   6   7
ATOM      7  C   UNL     1      -5.571   3.289   6.954  1.00  0.00     0.053 C 
BRANCH   7   8
ATOM      8  C   UNL     1      -4.963   2.065   7.568  1.00  0.00     0.041 C 
ATOM      9  O   UNL     1      -4.228   1.307   6.882  1.00  0.00    -0.550 OA
ATOM     10  O   UNL     1      -5.236   1.743   8.891  1.00  0.00    -0.550 OA
ENDBRANCH   7   8
ENDBRANCH   6   7
ENDBRANCH   5   6
ENDBRANCH   4   5
ENDBRANCH   3   4
ENDBRANCH   2   3
ENDBRANCH   1   2
BRANCH   1  11
ATOM     11  C   UNL     1     -11.360   1.196   9.225  1.00  0.00     0.000 C 
BRANCH  11  12
ATOM     12  C   UNL     1     -12.348   1.249   8.050  1.00  0.00    -0.000 C 
BRANCH  12  13
ATOM     13  C   UNL     1     -11.935   0.335   6.883  1.00  0.00    -0.000 C 
BRANCH  13  14
ATOM     14  C   UNL     1     -11.869   1.084   5.543  1.00  0.00    -0.000 C 
BRANCH  14  15
ATOM     15  C   UNL     1     -10.585   0.770   4.756  1.00  0.00    -0.000 C 
BRANCH  15  16
ATOM     16  C   UNL     1      -9.948  -0.565   5.171  1.00  0.00    -0.000 C 
BRANCH  16  17
ATOM     17  C   UNL     1      -9.277  -1.289   3.994  1.00  0.00    -0.003 C 
ATOM     18  C   UNL     1      -8.223  -0.406   3.334  1.00  0.00     0.004 C 
ENDBRANCH  16  17
ENDBRANCH  15  16
ENDBRANCH  14  15
ENDBRANCH  13  14
ENDBRANCH  12  13
ENDBRANCH  11  12
ENDBRANCH   1  11
TORSDOF 14
ENDMDL
MODEL 2
REMARK VINA RESULT:    -3.748     14.118     15.967
REMARK INTER + INTRA:          -8.964
REMARK INTER:                  -6.659
REMARK INTRA:                  -2.305
REMARK UNBOUND:                -2.149
REMARK SMILES CCCCCCCCCCCCCCCC(=O)[O-]
REMARK SMILES IDX 9 1 10 2 11 3 12 4 13 5 14 6 15 7 16 8 17 9 18 10 8 11 7 12
REMARK SMILES IDX 6 13 5 14 4 15 3 16 2 17 1 18
REMARK H PARENT
REMARK Flexibility Score: inf
ROOT
ATOM      1  C   UNL     1      -2.702 -11.563   7.394  1.00  0.00     0.000 C 
ENDROOT
BRANCH   1   2
ATOM      2  C   UNL     1      -2.585 -11.687   5.866  1.00  0.00     0.000 C 
BRANCH   2   3
ATOM      3  C   UNL     1      -1.298 -12.406   5.426  1.00  0.00     0.000 C 
BRANCH   3   4
ATOM      4  C   UNL     1      -0.352 -12.692   6.605  1.00  0.00     0.000 C 
BRANCH   4   5
ATOM      5  C   UNL     1       1.131 -12.564   6.215  1.00  0.00     0.000 C 
BRANCH   5   6
ATOM      6  C   UNL     1       1.834 -13.925   6.067  1.00  0.00     0.006 C 
BRANCH   6   7
ATOM      7  C   UNL     1       3.368 -13.832   5.983  1.00  0.00     0.053 C 
BRANCH   7   8
ATOM      8  C   UNL     1       3.942 -12.841   6.948  1.00  0.00     0.041 C 
ATOM      9  O   UNL     1       4.627 -11.870   6.531  1.00  0.00    -0.550 OA
ATOM     10  O   UNL     1       3.749 -13.008   8.314  1.00  0.00    -0.550 OA
ENDBRANCH   7   8
ENDBRANCH   6   7
ENDBRANCH   5   6
ENDBRANCH   4   5
ENDBRANCH   3   4
ENDBRANCH   2   3
ENDBRANCH   1   2
BRANCH   1  11
ATOM     11  C   UNL     1      -2.940 -10.113   7.854  1.00  0.00     0.000 C 
BRANCH  11  12
ATOM     12  C   UNL     1      -2.698  -9.092   6.731  1.00  0.00    -0.000 C 
BRANCH  12  13
ATOM     13  C   UNL     1      -1.458  -8.216   6.981  1.00  0.00    -0.000 C 
BRANCH  13  14
ATOM     14  C   UNL     1      -0.157  -8.893   6.520  1.00  0.00    -0.000 C 
BRANCH  14  15
ATOM     15  C   UNL     1       0.838  -9.104   7.674  1.00  0.00    -0.000 C 
BRANCH  15  16
ATOM     16  C   UNL     1       0.279  -8.643   9.029  1.00  0.00    -0.000 C 
BRANCH  16  17
ATOM     17  C   UNL     1       0.092  -9.805  10.016  1.00  0.00    -0.003 C 
ATOM     18  C   UNL     1       0.879 -11.034   9.575  1.00  0.00     0.004 C 
ENDBRANCH  16  17
ENDBRANCH  15  16
ENDBRANCH  14  15
ENDBRANCH  13  14
ENDBRANCH  12  13
ENDBRANCH  11  12
ENDBRANCH   1  11
TORSDOF 14
ENDMDL
MODEL 3
REMARK VINA RESULT:    -3.608      2.105      2.476
REMARK INTER + INTRA:          -8.710
REMARK INTER:                  -6.579
REMARK INTRA:                  -2.131
REMARK UNBOUND:                -2.149
REMARK SMILES CCCCCCCCCCCCCCCC(=O)[O-]
REMARK SMILES IDX 9 1 10 2 11 3 12 4 13 5 14 6 15 7 16 8 17 9 18 10 8 11 7 12
REMARK SMILES IDX 6 13 5 14 4 15 3 16 2 17 1 18
REMARK H PARENT
REMARK Flexibility Score: inf
ROOT
ATOM      1  C   UNL     1     -11.404   0.750   9.102  1.00  0.00     0.000 C 
ENDROOT
BRANCH   1   2
ATOM      2  C   UNL     1      -9.993   1.360   9.140  1.00  0.00     0.000 C 
BRANCH   2   3
ATOM      3  C   UNL     1     -10.010   2.897   9.055  1.00  0.00     0.000 C 
BRANCH   3   4
ATOM      4  C   UNL     1      -9.322   3.423   7.784  1.00  0.00     0.000 C 
BRANCH   4   5
ATOM      5  C   UNL     1     -10.305   4.125   6.830  1.00  0.00     0.000 C 
BRANCH   5   6
ATOM      6  C   UNL     1      -9.733   4.323   5.415  1.00  0.00     0.006 C 
BRANCH   6   7
ATOM      7  C   UNL     1      -8.332   4.961   5.389  1.00  0.00     0.053 C 
BRANCH   7   8
ATOM      8  C   UNL     1      -7.337   4.143   4.625  1.00  0.00     0.041 C 
ATOM      9  O   UNL     1      -6.640   4.671   3.719  1.00  0.00    -0.550 OA
ATOM     10  O   UNL     1      -7.203   2.786   4.890  1.00  0.00    -0.550 OA
ENDBRANCH   7   8
ENDBRANCH   6   7
ENDBRANCH   5   6
ENDBRANCH   4   5
ENDBRANCH   3   4
ENDBRANCH   2   3
ENDBRANCH   1   2
BRANCH   1  11
ATOM     11  C   UNL     1     -12.490   1.787   8.761  1.00  0.00     0.000 C 
BRANCH  11  12
ATOM     12  C   UNL     1     -13.023   1.631   7.328  1.00  0.00    -0.000 C 
BRANCH  12  13
ATOM     13  C   UNL     1     -12.384   0.447   6.581  1.00  0.00    -0.000 C 
BRANCH  13  14
ATOM     14  C   UNL     1     -11.523   0.898   5.390  1.00  0.00    -0.000 C 
BRANCH  14  15
ATOM     15  C   UNL     1     -10.033   0.566   5.581  1.00  0.00    -0.000 C 
BRANCH  15  16
ATOM     16  C   UNL     1      -9.723  -0.919   5.342  1.00  0.00    -0.000 C 
BRANCH  16  17
ATOM     17  C   UNL     1      -9.450  -1.234   3.863  1.00  0.00    -0.003 C 
ATOM     18  C   UNL     1      -8.239  -0.460   3.350  1.00  0.00     0.004 C 
ENDBRANCH  16  17
ENDBRANCH  15  16
ENDBRANCH  14  15
ENDBRANCH  13  14
ENDBRANCH  12  13
ENDBRANCH  11  12
ENDBRANCH   1  11
TORSDOF 14
ENDMDL
MODEL 4
REMARK VINA RESULT:    -3.512     13.684     15.429
REMARK INTER + INTRA:          -8.536
REMARK INTER:                  -5.839
REMARK INTRA:                  -2.697
REMARK UNBOUND:                -2.149
REMARK SMILES CCCCCCCCCCCCCCCC(=O)[O-]
REMARK SMILES IDX 9 1 10 2 11 3 12 4 13 5 14 6 15 7 16 8 17 9 18 10 8 11 7 12
REMARK SMILES IDX 6 13 5 14 4 15 3 16 2 17 1 18
REMARK H PARENT
REMARK Flexibility Score: inf
ROOT
ATOM      1  C   UNL     1       0.945  -8.794   7.689  1.00  0.00     0.000 C 
ENDROOT
BRANCH   1   2
ATOM      2  C   UNL     1       0.231  -8.976   9.039  1.00  0.00     0.000 C 
BRANCH   2   3
ATOM      3  C   UNL     1       0.560 -10.322   9.707  1.00  0.00     0.000 C 
BRANCH   3   4
ATOM      4  C   UNL     1       0.352 -11.515   8.759  1.00  0.00     0.000 C 
BRANCH   4   5
ATOM      5  C   UNL     1       1.616 -12.382   8.618  1.00  0.00     0.000 C 
BRANCH   5   6
ATOM      6  C   UNL     1       2.044 -12.586   7.154  1.00  0.00     0.006 C 
BRANCH   6   7
ATOM      7  C   UNL     1       0.883 -12.523   6.146  1.00  0.00     0.053 C 
BRANCH   7   8
ATOM      8  C   UNL     1       0.365 -13.878   5.772  1.00  0.00     0.041 C 
ATOM      9  O   UNL     1      -0.646 -14.355   6.352  1.00  0.00    -0.550 OA
ATOM     10  O   UNL     1       1.020 -14.630   4.805  1.00  0.00    -0.550 OA
ENDBRANCH   7   8
ENDBRANCH   6   7
ENDBRANCH   5   6
ENDBRANCH   4   5
ENDBRANCH   3   4
ENDBRANCH   2   3
ENDBRANCH   1   2
BRANCH   1  11
ATOM     11  C   UNL     1      -0.037  -8.712   6.506  1.00  0.00     0.000 C 
BRANCH  11  12
ATOM     12  C   UNL     1      -1.437  -8.245   6.935  1.00  0.00    -0.000 C 
BRANCH  12  13
ATOM     13  C   UNL     1      -2.561  -9.105   6.331  1.00  0.00    -0.000 C 
BRANCH  13  14
ATOM     14  C   UNL     1      -2.093 -10.528   5.988  1.00  0.00    -0.000 C 
BRANCH  14  15
ATOM     15  C   UNL     1      -2.827 -11.604   6.806  1.00  0.00    -0.000 C 
BRANCH  15  16
ATOM     16  C   UNL     1      -3.797 -11.004   7.836  1.00  0.00    -0.000 C 
BRANCH  16  17
ATOM     17  C   UNL     1      -3.296 -11.162   9.280  1.00  0.00    -0.003 C 
ATOM     18  C   UNL     1      -3.235  -9.813   9.991  1.00  0.00     0.004 C 
ENDBRANCH  16  17
ENDBRANCH  15  16
ENDBRANCH  14  15
ENDBRANCH  13  14
ENDBRANCH  12  13
ENDBRANCH  11  12
ENDBRANCH   1  11
TORSDOF 14
ENDMDL
MODEL 5
REMARK VINA RESULT:    -3.509      1.940      3.026
REMARK INTER + INTRA:          -8.529
REMARK INTER:                  -7.200
REMARK INTRA:                  -1.329
REMARK UNBOUND:                -2.149
REMARK SMILES CCCCCCCCCCCCCCCC(=O)[O-]
REMARK SMILES IDX 9 1 10 2 11 3 12 4 13 5 14 6 15 7 16 8 17 9 18 10 8 11 7 12
REMARK SMILES IDX 6 13 5 14 4 15 3 16 2 17 1 18
REMARK H PARENT
REMARK Flexibility Score: inf
ROOT
ATOM      1  C   UNL     1      -8.390   4.448   4.973  1.00  0.00     0.000 C 
ENDROOT
BRANCH   1   2
ATOM      2  C   UNL     1      -7.693   3.077   4.996  1.00  0.00     0.000 C 
BRANCH   2   3
ATOM      3  C   UNL     1      -6.849   2.863   6.264  1.00  0.00     0.000 C 
BRANCH   3   4
ATOM      4  C   UNL     1      -7.121   3.928   7.339  1.00  0.00     0.000 C 
BRANCH   4   5
ATOM      5  C   UNL     1      -6.402   3.625   8.665  1.00  0.00     0.000 C 
BRANCH   5   6
ATOM      6  C   UNL     1      -4.909   3.300   8.480  1.00  0.00     0.006 C 
BRANCH   6   7
ATOM      7  C   UNL     1      -4.505   1.902   8.982  1.00  0.00     0.053 C 
BRANCH   7   8
ATOM      8  C   UNL     1      -3.585   1.192   8.037  1.00  0.00     0.041 C 
ATOM      9  O   UNL     1      -3.961   0.919   6.867  1.00  0.00    -0.550 OA
ATOM     10  O   UNL     1      -2.321   0.799   8.460  1.00  0.00    -0.550 OA
ENDBRANCH   7   8
ENDBRANCH   6   7
ENDBRANCH   5   6
ENDBRANCH   4   5
ENDBRANCH   3   4
ENDBRANCH   2   3
ENDBRANCH   1   2
BRANCH   1  11
ATOM     11  C   UNL     1      -9.902   4.340   4.704  1.00  0.00     0.000 C 
BRANCH  11  12
ATOM     12  C   UNL     1     -10.581   3.278   5.583  1.00  0.00    -0.000 C 
BRANCH  12  13
ATOM     13  C   UNL     1     -11.002   2.029   4.789  1.00  0.00    -0.000 C 
BRANCH  13  14
ATOM     14  C   UNL     1     -11.810   1.036   5.639  1.00  0.00    -0.000 C 
BRANCH  14  15
ATOM     15  C   UNL     1     -11.005  -0.224   5.999  1.00  0.00    -0.000 C 
BRANCH  15  16
ATOM     16  C   UNL     1      -9.563  -0.175   5.470  1.00  0.00    -0.000 C 
BRANCH  16  17
ATOM     17  C   UNL     1      -9.358  -1.061   4.233  1.00  0.00    -0.003 C 
ATOM     18  C   UNL     1      -8.271  -0.494   3.324  1.00  0.00     0.004 C 
ENDBRANCH  16  17
ENDBRANCH  15  16
ENDBRANCH  14  15
ENDBRANCH  13  14
ENDBRANCH  12  13
ENDBRANCH  11  12
ENDBRANCH   1  11
TORSDOF 14
ENDMDL
MODEL 6
REMARK VINA RESULT:    -3.497      1.333      3.842
REMARK INTER + INTRA:          -8.508
REMARK INTER:                  -5.923
REMARK INTRA:                  -2.585
REMARK UNBOUND:                -2.149
REMARK SMILES CCCCCCCCCCCCCCCC(=O)[O-]
REMARK SMILES IDX 9 1 10 2 11 3 12 4 13 5 14 6 15 7 16 8 17 9 18 10 8 11 7 12
REMARK SMILES IDX 6 13 5 14 4 15 3 16 2 17 1 18
REMARK H PARENT
REMARK Flexibility Score: inf
ROOT
ATOM      1  C   UNL     1     -10.761   1.292   4.368  1.00  0.00     0.000 C 
ENDROOT
BRANCH   1   2
ATOM      2  C   UNL     1     -10.347   2.711   4.791  1.00  0.00     0.000 C 
BRANCH   2   3
ATOM      3  C   UNL     1      -8.981   2.744   5.499  1.00  0.00     0.000 C 
BRANCH   3   4
ATOM      4  C   UNL     1      -8.951   3.736   6.673  1.00  0.00     0.000 C 
BRANCH   4   5
ATOM      5  C   UNL     1      -7.833   3.422   7.682  1.00  0.00     0.000 C 
BRANCH   5   6
ATOM      6  C   UNL     1      -6.898   2.293   7.213  1.00  0.00     0.006 C 
BRANCH   6   7
ATOM      7  C   UNL     1      -5.704   2.037   8.150  1.00  0.00     0.053 C 
BRANCH   7   8
ATOM      8  C   UNL     1      -4.389   2.070   7.434  1.00  0.00     0.041 C 
ATOM      9  O   UNL     1      -3.759   3.154   7.310  1.00  0.00    -0.550 OA
ATOM     10  O   UNL     1      -3.873   0.909   6.873  1.00  0.00    -0.550 OA
ENDBRANCH   7   8
ENDBRANCH   6   7
ENDBRANCH   5   6
ENDBRANCH   4   5
ENDBRANCH   3   4
ENDBRANCH   2   3
ENDBRANCH   1   2
BRANCH   1  11
ATOM     11  C   UNL     1      -9.555   0.407   4.003  1.00  0.00     0.000 C 
BRANCH  11  12
ATOM     12  C   UNL     1      -9.524  -0.905   4.802  1.00  0.00    -0.000 C 
BRANCH  12  13
ATOM     13  C   UNL     1     -10.299  -0.812   6.128  1.00  0.00    -0.000 C 
BRANCH  13  14
ATOM     14  C   UNL     1      -9.378  -0.554   7.331  1.00  0.00    -0.000 C 
BRANCH  14  15
ATOM     15  C   UNL     1     -10.046   0.317   8.409  1.00  0.00    -0.000 C 
BRANCH  15  16
ATOM     16  C   UNL     1     -11.352   0.963   7.922  1.00  0.00    -0.000 C 
BRANCH  16  17
ATOM     17  C   UNL     1     -11.723   2.221   8.722  1.00  0.00    -0.003 C 
ATOM     18  C   UNL     1     -10.680   2.518   9.794  1.00  0.00     0.004 C 
ENDBRANCH  16  17
ENDBRANCH  15  16
ENDBRANCH  14  15
ENDBRANCH  13  14
ENDBRANCH  12  13
ENDBRANCH  11  12
ENDBRANCH   1  11
TORSDOF 14
ENDMDL
MODEL 7
REMARK VINA RESULT:    -3.443     13.260     14.995
REMARK INTER + INTRA:          -8.409
REMARK INTER:                  -6.370
REMARK INTRA:                  -2.040
REMARK UNBOUND:                -2.149
REMARK SMILES CCCCCCCCCCCCCCCC(=O)[O-]
REMARK SMILES IDX 9 1 10 2 11 3 12 4 13 5 14 6 15 7 16 8 17 9 18 10 8 11 7 12
REMARK SMILES IDX 6 13 5 14 4 15 3 16 2 17 1 18
REMARK H PARENT
REMARK Flexibility Score: inf
ROOT
ATOM      1  C   UNL     1      -3.026 -11.766   8.833  1.00  0.00     0.000 C 
ENDROOT
BRANCH   1   2
ATOM      2  C   UNL     1      -3.597 -11.170   7.535  1.00  0.00     0.000 C 
BRANCH   2   3
ATOM      3  C   UNL     1      -3.192 -11.971   6.286  1.00  0.00     0.000 C 
BRANCH   3   4
ATOM      4  C   UNL     1      -1.979 -11.360   5.563  1.00  0.00     0.000 C 
BRANCH   4   5
ATOM      5  C   UNL     1      -0.848 -12.380   5.345  1.00  0.00     0.000 C 
BRANCH   5   6
ATOM      6  C   UNL     1       0.068 -12.534   6.572  1.00  0.00     0.006 C 
BRANCH   6   7
ATOM      7  C   UNL     1       1.495 -13.001   6.234  1.00  0.00     0.053 C 
BRANCH   7   8
ATOM      8  C   UNL     1       2.518 -12.482   7.197  1.00  0.00     0.041 C 
ATOM      9  O   UNL     1       2.214 -12.282   8.403  1.00  0.00    -0.550 OA
ATOM     10  O   UNL     1       3.802 -12.187   6.756  1.00  0.00    -0.550 OA
ENDBRANCH   7   8
ENDBRANCH   6   7
ENDBRANCH   5   6
ENDBRANCH   4   5
ENDBRANCH   3   4
ENDBRANCH   2   3
ENDBRANCH   1   2
BRANCH   1  11
ATOM     11  C   UNL     1      -3.276 -10.869  10.058  1.00  0.00     0.000 C 
BRANCH  11  12
ATOM     12  C   UNL     1      -2.406  -9.602  10.047  1.00  0.00    -0.000 C 
BRANCH  12  13
ATOM     13  C   UNL     1      -0.906  -9.912   9.893  1.00  0.00    -0.000 C 
BRANCH  13  14
ATOM     14  C   UNL     1      -0.135  -8.767   9.217  1.00  0.00    -0.000 C 
BRANCH  14  15
ATOM     15  C   UNL     1       0.494  -9.191   7.879  1.00  0.00    -0.000 C 
BRANCH  15  16
ATOM     16  C   UNL     1      -0.176  -8.518   6.670  1.00  0.00    -0.000 C 
BRANCH  16  17
ATOM     17  C   UNL     1      -1.611  -8.060   6.971  1.00  0.00    -0.003 C 
ATOM     18  C   UNL     1      -2.334  -7.643   5.694  1.00  0.00     0.004 C 
ENDBRANCH  16  17
ENDBRANCH  15  16
ENDBRANCH  14  15
ENDBRANCH  13  14
ENDBRANCH  12  13
ENDBRANCH  11  12
ENDBRANCH   1  11
TORSDOF 14
ENDMDL
MODEL 8
REMARK VINA RESULT:    -3.408     13.953     15.908
REMARK INTER + INTRA:          -8.346
REMARK INTER:                  -6.135
REMARK INTRA:                  -2.211
REMARK UNBOUND:                -2.149
REMARK SMILES CCCCCCCCCCCCCCCC(=O)[O-]
REMARK SMILES IDX 9 1 10 2 11 3 12 4 13 5 14 6 15 7 16 8 17 9 18 10 8 11 7 12
REMARK SMILES IDX 6 13 5 14 4 15 3 16 2 17 1 18
REMARK H PARENT
REMARK Flexibility Score: inf
ROOT
ATOM      1  C   UNL     1       0.957  -8.635   7.610  1.00  0.00     0.000 C 
ENDROOT
BRANCH   1   2
ATOM      2  C   UNL     1       0.043  -8.715   6.376  1.00  0.00     0.000 C 
BRANCH   2   3
ATOM      3  C   UNL     1      -1.448  -8.588   6.733  1.00  0.00     0.000 C 
BRANCH   3   4
ATOM      4  C   UNL     1      -2.278  -9.780   6.227  1.00  0.00     0.000 C 
BRANCH   4   5
ATOM      5  C   UNL     1      -3.093 -10.448   7.348  1.00  0.00     0.000 C 
BRANCH   5   6
ATOM      6  C   UNL     1      -3.053 -11.985   7.288  1.00  0.00     0.006 C 
BRANCH   6   7
ATOM      7  C   UNL     1      -2.631 -12.548   5.919  1.00  0.00     0.053 C 
BRANCH   7   8
ATOM      8  C   UNL     1      -3.709 -13.359   5.268  1.00  0.00     0.041 C 
ATOM      9  O   UNL     1      -4.922 -13.084   5.471  1.00  0.00    -0.550 OA
ATOM     10  O   UNL     1      -3.376 -14.441   4.463  1.00  0.00    -0.550 OA
ENDBRANCH   7   8
ENDBRANCH   6   7
ENDBRANCH   5   6
ENDBRANCH   4   5
ENDBRANCH   3   4
ENDBRANCH   2   3
ENDBRANCH   1   2
BRANCH   1  11
ATOM     11  C   UNL     1       0.190  -8.841   8.929  1.00  0.00     0.000 C 
BRANCH  11  12
ATOM     12  C   UNL     1       0.673 -10.078   9.704  1.00  0.00    -0.000 C 
BRANCH  12  13
ATOM     13  C   UNL     1      -0.071 -11.362   9.297  1.00  0.00    -0.000 C 
BRANCH  13  14
ATOM     14  C   UNL     1       0.858 -12.400   8.649  1.00  0.00    -0.000 C 
BRANCH  14  15
ATOM     15  C   UNL     1       0.874 -12.299   7.114  1.00  0.00    -0.000 C 
BRANCH  15  16
ATOM     16  C   UNL     1       2.190 -12.803   6.502  1.00  0.00    -0.000 C 
BRANCH  16  17
ATOM     17  C   UNL     1       2.017 -14.126   5.739  1.00  0.00    -0.003 C 
ATOM     18  C   UNL     1       0.605 -14.256   5.177  1.00  0.00     0.004 C 
ENDBRANCH  16  17
ENDBRANCH  15  16
ENDBRANCH  14  15
ENDBRANCH  13  14
ENDBRANCH  12  13
ENDBRANCH  11  12
ENDBRANCH   1  11
TORSDOF 14
ENDMDL
MODEL 9
REMARK VINA RESULT:    -3.404     14.448     16.135
REMARK INTER + INTRA:          -8.339
REMARK INTER:                  -6.189
REMARK INTRA:                  -2.150
REMARK UNBOUND:                -2.149
REMARK SMILES CCCCCCCCCCCCCCCC(=O)[O-]
REMARK SMILES IDX 9 1 10 2 11 3 12 4 13 5 14 6 15 7 16 8 17 9 18 10 8 11 7 12
REMARK SMILES IDX 6 13 5 14 4 15 3 16 2 17 1 18
REMARK H PARENT
REMARK Flexibility Score: inf
ROOT
ATOM      1  C   UNL     1       0.269  -9.734   6.642  1.00  0.00     0.000 C 
ENDROOT
BRANCH   1   2
ATOM      2  C   UNL     1       0.812 -10.688   7.718  1.00  0.00     0.000 C 
BRANCH   2   3
ATOM      3  C   UNL     1       0.518 -12.165   7.404  1.00  0.00     0.000 C 
BRANCH   3   4
ATOM      4  C   UNL     1       0.348 -12.423   5.897  1.00  0.00     0.000 C 
BRANCH   4   5
ATOM      5  C   UNL     1       1.015 -13.734   5.446  1.00  0.00     0.000 C 
BRANCH   5   6
ATOM      6  C   UNL     1       2.122 -14.208   6.404  1.00  0.00     0.006 C 
BRANCH   6   7
ATOM      7  C   UNL     1       3.539 -13.774   5.988  1.00  0.00     0.053 C 
BRANCH   7   8
ATOM      8  C   UNL     1       4.142 -12.782   6.935  1.00  0.00     0.041 C 
ATOM      9  O   UNL     1       3.967 -12.901   8.177  1.00  0.00    -0.550 OA
ATOM     10  O   UNL     1       4.870 -11.706   6.444  1.00  0.00    -0.550 OA
ENDBRANCH   7   8
ENDBRANCH   6   7
ENDBRANCH   5   6
ENDBRANCH   4   5
ENDBRANCH   3   4
ENDBRANCH   2   3
ENDBRANCH   1   2
BRANCH   1  11
ATOM     11  C   UNL     1      -0.330  -8.447   7.238  1.00  0.00     0.000 C 
BRANCH  11  12
ATOM     12  C   UNL     1      -1.855  -8.373   7.066  1.00  0.00    -0.000 C 
BRANCH  12  13
ATOM     13  C   UNL     1      -2.456  -9.681   6.522  1.00  0.00    -0.000 C 
BRANCH  13  14
ATOM     14  C   UNL     1      -3.161 -10.503   7.612  1.00  0.00    -0.000 C 
BRANCH  14  15
ATOM     15  C   UNL     1      -3.487 -11.935   7.152  1.00  0.00    -0.000 C 
BRANCH  15  16
ATOM     16  C   UNL     1      -3.294 -12.128   5.640  1.00  0.00    -0.000 C 
BRANCH  16  17
ATOM     17  C   UNL     1      -3.092 -13.601   5.255  1.00  0.00    -0.003 C 
ATOM     18  C   UNL     1      -2.793 -14.455   6.483  1.00  0.00     0.004 C 
ENDBRANCH  16  17
ENDBRANCH  15  16
ENDBRANCH  14  15
ENDBRANCH  13  14
ENDBRANCH  12  13
ENDBRANCH  11  12
ENDBRANCH   1  11
TORSDOF 14
ENDMDL
