MODEL 1
REMARK VINA RESULT:     0.776      0.000      0.000
REMARK INTER + INTRA:           0.762
REMARK INTER:                   0.957
REMARK INTRA:                  -0.195
REMARK UNBOUND:                -0.195
REMARK SMILES Oc1cc(O)c2cc(O)c(-c3cc(O)c(O)c(O)c3)[o+]c2c1
REMARK SMILES IDX 10 1 20 2 21 3 22 4 2 5 3 6 4 7 6 8 7 9 8 10 11 11 12 12
REMARK SMILES IDX 13 13 19 14 15 15 17 16 14 17 16 19 18 21 9 23 1 25 5 27
REMARK H PARENT 14 18 16 20 18 22 9 24 1 26 5 28
REMARK Flexibility Score: inf
ROOT
ATOM      1  C   UNL     1      19.257  11.515  -9.040  1.00  0.00     0.402 A 
ATOM      2  O   UNL     1      19.806  12.684  -9.362  1.00  0.00    -0.202 OA
ATOM      3  C   UNL     1      19.127  13.681  -9.919  1.00  0.00     0.368 A 
ATOM      4  C   UNL     1      19.794  14.871 -10.224  1.00  0.00     0.162 A 
ATOM      5  C   UNL     1      19.106  15.934 -10.812  1.00  0.00     0.128 A 
ATOM      6  C   UNL     1      17.743  15.807 -11.100  1.00  0.00     0.093 A 
ATOM      7  C   UNL     1      17.052  14.625 -10.804  1.00  0.00     0.136 A 
ATOM      8  C   UNL     1      17.747  13.543 -10.203  1.00  0.00     0.125 A 
ATOM      9  C   UNL     1      17.134  12.327  -9.861  1.00  0.00     0.078 A 
ATOM     10  C   UNL     1      17.884  11.308  -9.266  1.00  0.00     0.223 A 
ENDROOT
BRANCH   1  11
ATOM     11  C   UNL     1      20.122  10.479  -8.432  1.00  0.00     0.091 A 
ATOM     12  C   UNL     1      21.220   9.944  -9.128  1.00  0.00     0.068 A 
ATOM     13  C   UNL     1      22.042   8.979  -8.528  1.00  0.00     0.162 A 
ATOM     14  C   UNL     1      19.878  10.061  -7.116  1.00  0.00     0.068 A 
ATOM     15  C   UNL     1      21.775   8.550  -7.217  1.00  0.00     0.200 A 
ATOM     16  C   UNL     1      20.695   9.096  -6.512  1.00  0.00     0.162 A 
BRANCH  13  17
ATOM     17  O   UNL     1      23.125   8.449  -9.228  1.00  0.00    -0.504 OA
ATOM     18  H   UNL     1      24.066   8.804  -9.099  1.00  0.00     0.293 HD
ENDBRANCH  13  17
BRANCH  15  19
ATOM     19  O   UNL     1      22.576   7.589  -6.601  1.00  0.00    -0.502 OA
ATOM     20  H   UNL     1      22.186   6.842  -6.038  1.00  0.00     0.293 HD
ENDBRANCH  15  19
BRANCH  16  21
ATOM     21  O   UNL     1      20.439   8.673  -5.208  1.00  0.00    -0.504 OA
ATOM     22  H   UNL     1      20.660   9.255  -4.409  1.00  0.00     0.293 HD
ENDBRANCH  16  21
ENDBRANCH   1  11
BRANCH  10  23
ATOM     23  O   UNL     1      17.265  10.118  -8.880  1.00  0.00    -0.500 OA
ATOM     24  H   UNL     1      16.322   9.889  -9.173  1.00  0.00     0.294 HD
ENDBRANCH  10  23
BRANCH   5  25
ATOM     25  O   UNL     1      19.788  17.112 -11.108  1.00  0.00    -0.507 OA
ATOM     26  H   UNL     1      19.709  17.931 -10.518  1.00  0.00     0.293 HD
ENDBRANCH   5  25
BRANCH   7  27
ATOM     27  O   UNL     1      15.692  14.577 -11.125  1.00  0.00    -0.507 OA
ATOM     28  H   UNL     1      15.279  15.030 -11.927  1.00  0.00     0.293 HD
ENDBRANCH   7  27
TORSDOF 7
ENDMDL
MODEL 2
REMARK VINA RESULT:     1.124      1.142      7.359
REMARK INTER + INTRA:           1.191
REMARK INTER:                   1.295
REMARK INTRA:                  -0.104
REMARK UNBOUND:                -0.195
REMARK SMILES Oc1cc(O)c2cc(O)c(-c3cc(O)c(O)c(O)c3)[o+]c2c1
REMARK SMILES IDX 10 1 20 2 21 3 22 4 2 5 3 6 4 7 6 8 7 9 8 10 11 11 12 12
REMARK SMILES IDX 13 13 19 14 15 15 17 16 14 17 16 19 18 21 9 23 1 25 5 27
REMARK H PARENT 14 18 16 20 18 22 9 24 1 26 5 28
REMARK Flexibility Score: inf
ROOT
ATOM      1  C   UNL     1      19.842  12.260  -9.420  1.00  0.00     0.402 A 
ATOM      2  O   UNL     1      19.352  11.498  -8.446  1.00  0.00    -0.202 OA
ATOM      3  C   UNL     1      19.983  10.430  -7.968  1.00  0.00     0.368 A 
ATOM      4  C   UNL     1      19.386   9.689  -6.944  1.00  0.00     0.162 A 
ATOM      5  C   UNL     1      20.023   8.561  -6.425  1.00  0.00     0.128 A 
ATOM      6  C   UNL     1      21.266   8.168  -6.934  1.00  0.00     0.093 A 
ATOM      7  C   UNL     1      21.885   8.893  -7.960  1.00  0.00     0.136 A 
ATOM      8  C   UNL     1      21.241  10.043  -8.488  1.00  0.00     0.125 A 
ATOM      9  C   UNL     1      21.792  10.836  -9.507  1.00  0.00     0.078 A 
ATOM     10  C   UNL     1      21.100  11.958  -9.973  1.00  0.00     0.223 A 
ENDROOT
BRANCH   1  11
ATOM     11  C   UNL     1      19.039  13.419  -9.872  1.00  0.00     0.091 A 
ATOM     12  C   UNL     1      17.708  13.265 -10.296  1.00  0.00     0.068 A 
ATOM     13  C   UNL     1      16.955  14.377 -10.699  1.00  0.00     0.162 A 
ATOM     14  C   UNL     1      19.596  14.705  -9.826  1.00  0.00     0.068 A 
ATOM     15  C   UNL     1      17.530  15.659 -10.670  1.00  0.00     0.200 A 
ATOM     16  C   UNL     1      18.850  15.820 -10.230  1.00  0.00     0.162 A 
BRANCH  13  17
ATOM     17  O   UNL     1      15.637  14.214 -11.123  1.00  0.00    -0.504 OA
ATOM     18  H   UNL     1      14.950  14.952 -11.018  1.00  0.00     0.293 HD
ENDBRANCH  13  17
BRANCH  15  19
ATOM     19  O   UNL     1      16.803  16.780 -11.071  1.00  0.00    -0.502 OA
ATOM     20  H   UNL     1      17.249  17.662 -11.291  1.00  0.00     0.293 HD
ENDBRANCH  15  19
BRANCH  16  21
ATOM     21  O   UNL     1      19.414  17.095 -10.196  1.00  0.00    -0.504 OA
ATOM     22  H   UNL     1      20.268  17.310 -10.696  1.00  0.00     0.293 HD
ENDBRANCH  16  21
ENDBRANCH   1  11
BRANCH  10  23
ATOM     23  O   UNL     1      21.669  12.775 -10.951  1.00  0.00    -0.500 OA
ATOM     24  H   UNL     1      21.624  13.786 -10.892  1.00  0.00     0.294 HD
ENDBRANCH  10  23
BRANCH   5  25
ATOM     25  O   UNL     1      19.413   7.836  -5.404  1.00  0.00    -0.507 OA
ATOM     26  H   UNL     1      18.438   7.567  -5.457  1.00  0.00     0.293 HD
ENDBRANCH   5  25
BRANCH   7  27
ATOM     27  O   UNL     1      23.125   8.434  -8.416  1.00  0.00    -0.507 OA
ATOM     28  H   UNL     1      23.972   8.442  -7.867  1.00  0.00     0.293 HD
ENDBRANCH   7  27
TORSDOF 7
ENDMDL
MODEL 3
REMARK VINA RESULT:     2.404      1.165      7.293
REMARK INTER + INTRA:           2.771
REMARK INTER:                   2.991
REMARK INTRA:                  -0.220
REMARK UNBOUND:                -0.195
REMARK SMILES Oc1cc(O)c2cc(O)c(-c3cc(O)c(O)c(O)c3)[o+]c2c1
REMARK SMILES IDX 10 1 20 2 21 3 22 4 2 5 3 6 4 7 6 8 7 9 8 10 11 11 12 12
REMARK SMILES IDX 13 13 19 14 15 15 17 16 14 17 16 19 18 21 9 23 1 25 5 27
REMARK H PARENT 14 18 16 20 18 22 9 24 1 26 5 28
REMARK Flexibility Score: inf
ROOT
ATOM      1  C   UNL     1      19.844  12.248  -9.178  1.00  0.00     0.402 A 
ATOM      2  O   UNL     1      19.450  11.609  -8.079  1.00  0.00    -0.202 OA
ATOM      3  C   UNL     1      20.104  10.574  -7.563  1.00  0.00     0.368 A 
ATOM      4  C   UNL     1      19.610   9.965  -6.406  1.00  0.00     0.162 A 
ATOM      5  C   UNL     1      20.275   8.874  -5.844  1.00  0.00     0.128 A 
ATOM      6  C   UNL     1      21.441   8.386  -6.442  1.00  0.00     0.093 A 
ATOM      7  C   UNL     1      21.957   8.978  -7.602  1.00  0.00     0.136 A 
ATOM      8  C   UNL     1      21.285  10.090  -8.175  1.00  0.00     0.125 A 
ATOM      9  C   UNL     1      21.736  10.753  -9.328  1.00  0.00     0.078 A 
ATOM     10  C   UNL     1      21.022  11.846  -9.831  1.00  0.00     0.223 A 
ENDROOT
BRANCH   1  11
ATOM     11  C   UNL     1      19.023  13.382  -9.659  1.00  0.00     0.091 A 
ATOM     12  C   UNL     1      19.527  14.694  -9.676  1.00  0.00     0.068 A 
ATOM     13  C   UNL     1      18.743  15.753 -10.157  1.00  0.00     0.162 A 
ATOM     14  C   UNL     1      17.736  13.139 -10.162  1.00  0.00     0.068 A 
ATOM     15  C   UNL     1      17.446  15.502 -10.637  1.00  0.00     0.200 A 
ATOM     16  C   UNL     1      16.947  14.193 -10.641  1.00  0.00     0.162 A 
BRANCH  13  17
ATOM     17  O   UNL     1      19.250  17.052 -10.164  1.00  0.00    -0.504 OA
ATOM     18  H   UNL     1      19.626  17.480  -9.326  1.00  0.00     0.293 HD
ENDBRANCH  13  17
BRANCH  15  19
ATOM     19  O   UNL     1      16.646  16.539 -11.116  1.00  0.00    -0.502 OA
ATOM     20  H   UNL     1      15.883  16.926 -10.574  1.00  0.00     0.293 HD
ENDBRANCH  15  19
BRANCH  16  21
ATOM     21  O   UNL     1      15.663  13.948 -11.125  1.00  0.00    -0.504 OA
ATOM     22  H   UNL     1      14.910  13.662 -10.510  1.00  0.00     0.293 HD
ENDBRANCH  16  21
ENDBRANCH   1  11
BRANCH  10  23
ATOM     23  O   UNL     1      21.496  12.536 -10.947  1.00  0.00    -0.500 OA
ATOM     24  H   UNL     1      21.342  12.196 -11.889  1.00  0.00     0.294 HD
ENDBRANCH  10  23
BRANCH   5  25
ATOM     25  O   UNL     1      19.767   8.281  -4.690  1.00  0.00    -0.507 OA
ATOM     26  H   UNL     1      20.159   7.425  -4.318  1.00  0.00     0.293 HD
ENDBRANCH   5  25
BRANCH   7  27
ATOM     27  O   UNL     1      23.125   8.430  -8.140  1.00  0.00    -0.507 OA
ATOM     28  H   UNL     1      23.864   8.014  -7.593  1.00  0.00     0.293 HD
ENDBRANCH   7  27
TORSDOF 7
ENDMDL
