MODEL 1
REMARK VINA RESULT:    -3.235      0.000      0.000
REMARK INTER + INTRA:         -11.402
REMARK INTER:                  -7.395
REMARK INTRA:                  -4.007
REMARK UNBOUND:                -4.007
REMARK SMILES CCCCCCCCCCCCCCCCCCCCCCCC(=O)[O-]
REMARK SMILES IDX 13 1 14 2 15 3 16 4 17 5 18 6 19 7 20 8 21 9 22 10 23 11
REMARK SMILES IDX 24 12 25 13 26 14 12 15 11 16 10 17 9 18 8 19 7 20 6 21 5 22
REMARK SMILES IDX 4 23 3 24 2 25 1 26
REMARK H PARENT
REMARK Flexibility Score: inf
ROOT
ATOM      1  C   UNL     1      32.857  28.499  11.966  1.00  0.00     0.000 C 
ENDROOT
BRANCH   1   2
ATOM      2  C   UNL     1      31.660  27.653  12.431  1.00  0.00     0.000 C 
BRANCH   2   3
ATOM      3  C   UNL     1      31.527  26.328  11.664  1.00  0.00     0.000 C 
BRANCH   3   4
ATOM      4  C   UNL     1      31.028  25.210  12.592  1.00  0.00     0.000 C 
BRANCH   4   5
ATOM      5  C   UNL     1      31.050  25.615  14.075  1.00  0.00     0.000 C 
BRANCH   5   6
ATOM      6  C   UNL     1      31.654  24.523  14.977  1.00  0.00     0.000 C 
BRANCH   6   7
ATOM      7  C   UNL     1      33.051  24.906  15.509  1.00  0.00     0.000 C 
BRANCH   7   8
ATOM      8  C   UNL     1      33.380  26.401  15.361  1.00  0.00     0.000 C 
BRANCH   8   9
ATOM      9  C   UNL     1      34.653  26.655  14.543  1.00  0.00     0.000 C 
BRANCH   9  10
ATOM     10  C   UNL     1      35.127  25.371  13.848  1.00  0.00     0.006 C 
BRANCH  10  11
ATOM     11  C   UNL     1      34.865  25.397  12.335  1.00  0.00     0.053 C 
BRANCH  11  12
ATOM     12  C   UNL     1      36.001  26.018  11.579  1.00  0.00     0.041 C 
ATOM     13  O   UNL     1      37.188  25.674  11.823  1.00  0.00    -0.550 OA
ATOM     14  O   UNL     1      35.746  26.978  10.607  1.00  0.00    -0.550 OA
ENDBRANCH  11  12
ENDBRANCH  10  11
ENDBRANCH   9  10
ENDBRANCH   8   9
ENDBRANCH   7   8
ENDBRANCH   6   7
ENDBRANCH   5   6
ENDBRANCH   4   5
ENDBRANCH   3   4
ENDBRANCH   2   3
ENDBRANCH   1   2
BRANCH   1  15
ATOM     15  C   UNL     1      32.468  29.549  10.911  1.00  0.00     0.000 C 
BRANCH  15  16
ATOM     16  C   UNL     1      33.171  29.321   9.562  1.00  0.00     0.000 C 
BRANCH  16  17
ATOM     17  C   UNL     1      32.189  29.086   8.393  1.00  0.00     0.000 C 
BRANCH  17  18
ATOM     18  C   UNL     1      30.805  28.625   8.883  1.00  0.00    -0.000 C 
BRANCH  18  19
ATOM     19  C   UNL     1      29.672  29.542   8.397  1.00  0.00    -0.000 C 
BRANCH  19  20
ATOM     20  C   UNL     1      28.706  29.938   9.526  1.00  0.00    -0.000 C 
BRANCH  20  21
ATOM     21  C   UNL     1      28.830  29.025  10.760  1.00  0.00    -0.000 C 
BRANCH  21  22
ATOM     22  C   UNL     1      28.612  29.732  12.114  1.00  0.00    -0.000 C 
BRANCH  22  23
ATOM     23  C   UNL     1      27.570  29.070  13.038  1.00  0.00    -0.000 C 
BRANCH  23  24
ATOM     24  C   UNL     1      27.493  27.532  12.937  1.00  0.00    -0.000 C 
BRANCH  24  25
ATOM     25  C   UNL     1      27.535  26.792  14.287  1.00  0.00    -0.003 C 
ATOM     26  C   UNL     1      26.273  25.974  14.557  1.00  0.00     0.004 C 
ENDBRANCH  24  25
ENDBRANCH  23  24
ENDBRANCH  22  23
ENDBRANCH  21  22
ENDBRANCH  20  21
ENDBRANCH  19  20
ENDBRANCH  18  19
ENDBRANCH  17  18
ENDBRANCH  16  17
ENDBRANCH  15  16
ENDBRANCH   1  15
TORSDOF 22
ENDMDL
MODEL 2
REMARK VINA RESULT:    -3.162      1.517      5.685
REMARK INTER + INTRA:         -11.237
REMARK INTER:                  -6.892
REMARK INTRA:                  -4.344
REMARK UNBOUND:                -4.007
REMARK SMILES CCCCCCCCCCCCCCCCCCCCCCCC(=O)[O-]
REMARK SMILES IDX 13 1 14 2 15 3 16 4 17 5 18 6 19 7 20 8 21 9 22 10 23 11
REMARK SMILES IDX 24 12 25 13 26 14 12 15 11 16 10 17 9 18 8 19 7 20 6 21 5 22
REMARK SMILES IDX 4 23 3 24 2 25 1 26
REMARK H PARENT
REMARK Flexibility Score: inf
ROOT
ATOM      1  C   UNL     1      28.753  29.649  11.595  1.00  0.00     0.000 C 
ENDROOT
BRANCH   1   2
ATOM      2  C   UNL     1      28.827  29.872  10.076  1.00  0.00     0.000 C 
BRANCH   2   3
ATOM      3  C   UNL     1      29.468  28.694   9.327  1.00  0.00     0.000 C 
BRANCH   3   4
ATOM      4  C   UNL     1      28.434  27.588   9.065  1.00  0.00     0.000 C 
BRANCH   4   5
ATOM      5  C   UNL     1      28.958  26.188   9.425  1.00  0.00     0.000 C 
BRANCH   5   6
ATOM      6  C   UNL     1      28.625  25.789  10.875  1.00  0.00     0.000 C 
BRANCH   6   7
ATOM      7  C   UNL     1      29.887  25.444  11.694  1.00  0.00     0.000 C 
BRANCH   7   8
ATOM      8  C   UNL     1      30.548  26.667  12.353  1.00  0.00     0.000 C 
BRANCH   8   9
ATOM      9  C   UNL     1      31.892  27.038  11.711  1.00  0.00     0.000 C 
BRANCH   9  10
ATOM     10  C   UNL     1      32.194  28.533  11.894  1.00  0.00     0.006 C 
BRANCH  10  11
ATOM     11  C   UNL     1      32.909  29.135  10.675  1.00  0.00     0.053 C 
BRANCH  11  12
ATOM     12  C   UNL     1      34.084  28.307  10.249  1.00  0.00     0.041 C 
ATOM     13  O   UNL     1      35.073  28.167  11.016  1.00  0.00    -0.550 OA
ATOM     14  O   UNL     1      34.085  27.692   9.003  1.00  0.00    -0.550 OA
ENDBRANCH  11  12
ENDBRANCH  10  11
ENDBRANCH   9  10
ENDBRANCH   8   9
ENDBRANCH   7   8
ENDBRANCH   6   7
ENDBRANCH   5   6
ENDBRANCH   4   5
ENDBRANCH   3   4
ENDBRANCH   2   3
ENDBRANCH   1   2
BRANCH   1  15
ATOM     15  C   UNL     1      27.328  29.330  12.081  1.00  0.00     0.000 C 
BRANCH  15  16
ATOM     16  C   UNL     1      27.310  28.318  13.239  1.00  0.00     0.000 C 
BRANCH  16  17
ATOM     17  C   UNL     1      26.150  27.303  13.146  1.00  0.00     0.000 C 
BRANCH  17  18
ATOM     18  C   UNL     1      26.347  26.107  14.095  1.00  0.00    -0.000 C 
BRANCH  18  19
ATOM     19  C   UNL     1      27.712  26.132  14.800  1.00  0.00    -0.000 C 
BRANCH  19  20
ATOM     20  C   UNL     1      27.877  24.984  15.809  1.00  0.00    -0.000 C 
BRANCH  20  21
ATOM     21  C   UNL     1      29.148  24.151  15.558  1.00  0.00    -0.000 C 
BRANCH  21  22
ATOM     22  C   UNL     1      30.426  24.978  15.311  1.00  0.00    -0.000 C 
BRANCH  22  23
ATOM     23  C   UNL     1      31.662  24.160  14.885  1.00  0.00    -0.000 C 
BRANCH  23  24
ATOM     24  C   UNL     1      33.020  24.765  15.299  1.00  0.00    -0.000 C 
BRANCH  24  25
ATOM     25  C   UNL     1      33.052  26.303  15.359  1.00  0.00    -0.003 C 
ATOM     26  C   UNL     1      34.248  26.903  14.623  1.00  0.00     0.004 C 
ENDBRANCH  24  25
ENDBRANCH  23  24
ENDBRANCH  22  23
ENDBRANCH  21  22
ENDBRANCH  20  21
ENDBRANCH  19  20
ENDBRANCH  18  19
ENDBRANCH  17  18
ENDBRANCH  16  17
ENDBRANCH  15  16
ENDBRANCH   1  15
TORSDOF 22
ENDMDL
MODEL 3
REMARK VINA RESULT:    -3.139      3.066      7.674
REMARK INTER + INTRA:         -11.184
REMARK INTER:                  -6.543
REMARK INTRA:                  -4.641
REMARK UNBOUND:                -4.007
REMARK SMILES CCCCCCCCCCCCCCCCCCCCCCCC(=O)[O-]
REMARK SMILES IDX 13 1 14 2 15 3 16 4 17 5 18 6 19 7 20 8 21 9 22 10 23 11
REMARK SMILES IDX 24 12 25 13 26 14 12 15 11 16 10 17 9 18 8 19 7 20 6 21 5 22
REMARK SMILES IDX 4 23 3 24 2 25 1 26
REMARK H PARENT
REMARK Flexibility Score: inf
ROOT
ATOM      1  C   UNL     1      31.810  27.314  12.181  1.00  0.00     0.000 C 
ENDROOT
BRANCH   1   2
ATOM      2  C   UNL     1      32.881  28.361  11.832  1.00  0.00     0.000 C 
BRANCH   2   3
ATOM      3  C   UNL     1      32.324  29.543  11.025  1.00  0.00     0.000 C 
BRANCH   3   4
ATOM      4  C   UNL     1      33.228  29.854   9.822  1.00  0.00     0.000 C 
BRANCH   4   5
ATOM      5  C   UNL     1      32.633  29.365   8.491  1.00  0.00     0.000 C 
BRANCH   5   6
ATOM      6  C   UNL     1      31.151  28.968   8.617  1.00  0.00     0.000 C 
BRANCH   6   7
ATOM      7  C   UNL     1      30.901  27.495   8.230  1.00  0.00     0.000 C 
BRANCH   7   8
ATOM      8  C   UNL     1      29.839  26.800   9.098  1.00  0.00     0.000 C 
BRANCH   8   9
ATOM      9  C   UNL     1      29.063  27.777   9.992  1.00  0.00     0.000 C 
BRANCH   9  10
ATOM     10  C   UNL     1      28.029  27.035  10.851  1.00  0.00     0.006 C 
BRANCH  10  11
ATOM     11  C   UNL     1      28.161  27.375  12.343  1.00  0.00     0.053 C 
BRANCH  11  12
ATOM     12  C   UNL     1      26.956  28.100  12.862  1.00  0.00     0.041 C 
ATOM     13  O   UNL     1      25.877  27.480  13.057  1.00  0.00    -0.550 OA
ATOM     14  O   UNL     1      27.026  29.462  13.129  1.00  0.00    -0.550 OA
ENDBRANCH  11  12
ENDBRANCH  10  11
ENDBRANCH   9  10
ENDBRANCH   8   9
ENDBRANCH   7   8
ENDBRANCH   6   7
ENDBRANCH   5   6
ENDBRANCH   4   5
ENDBRANCH   3   4
ENDBRANCH   2   3
ENDBRANCH   1   2
BRANCH   1  15
ATOM     15  C   UNL     1      32.243  25.880  11.829  1.00  0.00     0.000 C 
BRANCH  15  16
ATOM     16  C   UNL     1      31.752  24.845  12.856  1.00  0.00     0.000 C 
BRANCH  16  17
ATOM     17  C   UNL     1      31.435  25.458  14.237  1.00  0.00     0.000 C 
BRANCH  17  18
ATOM     18  C   UNL     1      32.606  25.300  15.224  1.00  0.00    -0.000 C 
BRANCH  18  19
ATOM     19  C   UNL     1      33.405  26.600  15.404  1.00  0.00    -0.000 C 
BRANCH  19  20
ATOM     20  C   UNL     1      34.731  26.591  14.624  1.00  0.00    -0.000 C 
BRANCH  20  21
ATOM     21  C   UNL     1      35.170  25.172  14.217  1.00  0.00    -0.000 C 
BRANCH  21  22
ATOM     22  C   UNL     1      36.039  25.103  12.944  1.00  0.00    -0.000 C 
BRANCH  22  23
ATOM     23  C   UNL     1      35.863  26.282  11.966  1.00  0.00    -0.000 C 
BRANCH  23  24
ATOM     24  C   UNL     1      36.181  25.960  10.491  1.00  0.00    -0.000 C 
BRANCH  24  25
ATOM     25  C   UNL     1      35.417  26.814   9.463  1.00  0.00    -0.003 C 
ATOM     26  C   UNL     1      34.265  26.059   8.801  1.00  0.00     0.004 C 
ENDBRANCH  24  25
ENDBRANCH  23  24
ENDBRANCH  22  23
ENDBRANCH  21  22
ENDBRANCH  20  21
ENDBRANCH  19  20
ENDBRANCH  18  19
ENDBRANCH  17  18
ENDBRANCH  16  17
ENDBRANCH  15  16
ENDBRANCH   1  15
TORSDOF 22
ENDMDL
MODEL 4
REMARK VINA RESULT:    -3.113      2.034      4.126
REMARK INTER + INTRA:         -11.124
REMARK INTER:                  -6.845
REMARK INTRA:                  -4.279
REMARK UNBOUND:                -4.007
REMARK SMILES CCCCCCCCCCCCCCCCCCCCCCCC(=O)[O-]
REMARK SMILES IDX 13 1 14 2 15 3 16 4 17 5 18 6 19 7 20 8 21 9 22 10 23 11
REMARK SMILES IDX 24 12 25 13 26 14 12 15 11 16 10 17 9 18 8 19 7 20 6 21 5 22
REMARK SMILES IDX 4 23 3 24 2 25 1 26
REMARK H PARENT
REMARK Flexibility Score: inf
ROOT
ATOM      1  C   UNL     1      30.819  28.598  11.660  1.00  0.00     0.000 C 
ENDROOT
BRANCH   1   2
ATOM      2  C   UNL     1      32.259  29.134  11.624  1.00  0.00     0.000 C 
BRANCH   2   3
ATOM      3  C   UNL     1      32.655  29.701  10.252  1.00  0.00     0.000 C 
BRANCH   3   4
ATOM      4  C   UNL     1      33.994  29.109   9.785  1.00  0.00     0.000 C 
BRANCH   4   5
ATOM      5  C   UNL     1      34.732  28.356  10.904  1.00  0.00     0.000 C 
BRANCH   5   6
ATOM      6  C   UNL     1      34.977  26.875  10.558  1.00  0.00     0.000 C 
BRANCH   6   7
ATOM      7  C   UNL     1      33.819  26.262   9.743  1.00  0.00     0.000 C 
BRANCH   7   8
ATOM      8  C   UNL     1      32.842  25.428  10.589  1.00  0.00     0.000 C 
BRANCH   8   9
ATOM      9  C   UNL     1      33.301  25.263  12.044  1.00  0.00     0.000 C 
BRANCH   9  10
ATOM     10  C   UNL     1      32.113  25.374  13.012  1.00  0.00     0.006 C 
BRANCH  10  11
ATOM     11  C   UNL     1      32.504  26.046  14.337  1.00  0.00     0.053 C 
BRANCH  11  12
ATOM     12  C   UNL     1      33.868  25.630  14.796  1.00  0.00     0.041 C 
ATOM     13  O   UNL     1      34.047  24.490  15.301  1.00  0.00    -0.550 OA
ATOM     14  O   UNL     1      34.941  26.503  14.667  1.00  0.00    -0.550 OA
ENDBRANCH  11  12
ENDBRANCH  10  11
ENDBRANCH   9  10
ENDBRANCH   8   9
ENDBRANCH   7   8
ENDBRANCH   6   7
ENDBRANCH   5   6
ENDBRANCH   4   5
ENDBRANCH   3   4
ENDBRANCH   2   3
ENDBRANCH   1   2
BRANCH   1  15
ATOM     15  C   UNL     1      29.996  29.021  10.430  1.00  0.00     0.000 C 
BRANCH  15  16
ATOM     16  C   UNL     1      28.710  29.774  10.809  1.00  0.00     0.000 C 
BRANCH  16  17
ATOM     17  C   UNL     1      28.402  29.734  12.322  1.00  0.00     0.000 C 
BRANCH  17  18
ATOM     18  C   UNL     1      26.982  29.214  12.611  1.00  0.00    -0.000 C 
BRANCH  18  19
ATOM     19  C   UNL     1      26.240  28.784  11.336  1.00  0.00    -0.000 C 
BRANCH  19  20
ATOM     20  C   UNL     1      25.969  27.271  11.292  1.00  0.00    -0.000 C 
BRANCH  20  21
ATOM     21  C   UNL     1      26.827  26.545  10.240  1.00  0.00    -0.000 C 
BRANCH  21  22
ATOM     22  C   UNL     1      27.785  25.479  10.810  1.00  0.00    -0.000 C 
BRANCH  22  23
ATOM     23  C   UNL     1      28.658  25.947  11.991  1.00  0.00    -0.000 C 
BRANCH  23  24
ATOM     24  C   UNL     1      28.406  25.208  13.322  1.00  0.00    -0.000 C 
BRANCH  24  25
ATOM     25  C   UNL     1      27.943  26.105  14.484  1.00  0.00    -0.003 C 
ATOM     26  C   UNL     1      26.441  26.014  14.745  1.00  0.00     0.004 C 
ENDBRANCH  24  25
ENDBRANCH  23  24
ENDBRANCH  22  23
ENDBRANCH  21  22
ENDBRANCH  20  21
ENDBRANCH  19  20
ENDBRANCH  18  19
ENDBRANCH  17  18
ENDBRANCH  16  17
ENDBRANCH  15  16
ENDBRANCH   1  15
TORSDOF 22
ENDMDL
MODEL 5
REMARK VINA RESULT:    -3.111      3.134      5.926
REMARK INTER + INTRA:         -11.118
REMARK INTER:                  -6.370
REMARK INTRA:                  -4.749
REMARK UNBOUND:                -4.007
REMARK SMILES CCCCCCCCCCCCCCCCCCCCCCCC(=O)[O-]
REMARK SMILES IDX 13 1 14 2 15 3 16 4 17 5 18 6 19 7 20 8 21 9 22 10 23 11
REMARK SMILES IDX 24 12 25 13 26 14 12 15 11 16 10 17 9 18 8 19 7 20 6 21 5 22
REMARK SMILES IDX 4 23 3 24 2 25 1 26
REMARK H PARENT
REMARK Flexibility Score: inf
ROOT
ATOM      1  C   UNL     1      34.101  27.783  12.797  1.00  0.00     0.000 C 
ENDROOT
BRANCH   1   2
ATOM      2  C   UNL     1      33.593  27.473  14.214  1.00  0.00     0.000 C 
BRANCH   2   3
ATOM      3  C   UNL     1      34.358  26.325  14.889  1.00  0.00     0.000 C 
BRANCH   3   4
ATOM      4  C   UNL     1      33.398  25.197  15.298  1.00  0.00     0.000 C 
BRANCH   4   5
ATOM      5  C   UNL     1      31.958  25.442  14.820  1.00  0.00     0.000 C 
BRANCH   5   6
ATOM      6  C   UNL     1      31.279  24.158  14.308  1.00  0.00     0.000 C 
BRANCH   6   7
ATOM      7  C   UNL     1      29.781  24.098  14.676  1.00  0.00     0.000 C 
BRANCH   7   8
ATOM      8  C   UNL     1      29.251  25.389  15.321  1.00  0.00     0.000 C 
BRANCH   8   9
ATOM      9  C   UNL     1      27.719  25.424  15.418  1.00  0.00     0.000 C 
BRANCH   9  10
ATOM     10  C   UNL     1      27.096  25.925  14.108  1.00  0.00     0.006 C 
BRANCH  10  11
ATOM     11  C   UNL     1      27.273  27.439  13.921  1.00  0.00     0.053 C 
BRANCH  11  12
ATOM     12  C   UNL     1      26.384  27.979  12.840  1.00  0.00     0.041 C 
ATOM     13  O   UNL     1      26.708  29.023  12.216  1.00  0.00    -0.550 OA
ATOM     14  O   UNL     1      25.199  27.326  12.526  1.00  0.00    -0.550 OA
ENDBRANCH  11  12
ENDBRANCH  10  11
ENDBRANCH   9  10
ENDBRANCH   8   9
ENDBRANCH   7   8
ENDBRANCH   6   7
ENDBRANCH   5   6
ENDBRANCH   4   5
ENDBRANCH   3   4
ENDBRANCH   2   3
ENDBRANCH   1   2
BRANCH   1  15
ATOM     15  C   UNL     1      35.144  26.765  12.303  1.00  0.00     0.000 C 
BRANCH  15  16
ATOM     16  C   UNL     1      34.617  25.888  11.155  1.00  0.00     0.000 C 
BRANCH  16  17
ATOM     17  C   UNL     1      34.084  24.518  11.627  1.00  0.00     0.000 C 
BRANCH  17  18
ATOM     18  C   UNL     1      32.724  24.174  10.993  1.00  0.00    -0.000 C 
BRANCH  18  19
ATOM     19  C   UNL     1      31.957  25.422  10.529  1.00  0.00    -0.000 C 
BRANCH  19  20
ATOM     20  C   UNL     1      30.435  25.207  10.509  1.00  0.00    -0.000 C 
BRANCH  20  21
ATOM     21  C   UNL     1      29.689  26.151  11.470  1.00  0.00    -0.000 C 
BRANCH  21  22
ATOM     22  C   UNL     1      30.521  27.344  11.982  1.00  0.00    -0.000 C 
BRANCH  22  23
ATOM     23  C   UNL     1      30.065  28.727  11.474  1.00  0.00    -0.000 C 
BRANCH  23  24
ATOM     24  C   UNL     1      30.788  29.227  10.206  1.00  0.00    -0.000 C 
BRANCH  24  25
ATOM     25  C   UNL     1      32.286  29.529  10.392  1.00  0.00    -0.003 C 
ATOM     26  C   UNL     1      33.166  28.839   9.350  1.00  0.00     0.004 C 
ENDBRANCH  24  25
ENDBRANCH  23  24
ENDBRANCH  22  23
ENDBRANCH  21  22
ENDBRANCH  20  21
ENDBRANCH  19  20
ENDBRANCH  18  19
ENDBRANCH  17  18
ENDBRANCH  16  17
ENDBRANCH  15  16
ENDBRANCH   1  15
TORSDOF 22
ENDMDL
MODEL 6
REMARK VINA RESULT:    -3.091      3.108      5.591
REMARK INTER + INTRA:         -11.075
REMARK INTER:                  -6.611
REMARK INTRA:                  -4.464
REMARK UNBOUND:                -4.007
REMARK SMILES CCCCCCCCCCCCCCCCCCCCCCCC(=O)[O-]
REMARK SMILES IDX 13 1 14 2 15 3 16 4 17 5 18 6 19 7 20 8 21 9 22 10 23 11
REMARK SMILES IDX 24 12 25 13 26 14 12 15 11 16 10 17 9 18 8 19 7 20 6 21 5 22
REMARK SMILES IDX 4 23 3 24 2 25 1 26
REMARK H PARENT
REMARK Flexibility Score: inf
ROOT
ATOM      1  C   UNL     1      33.887  27.587  13.610  1.00  0.00     0.000 C 
ENDROOT
BRANCH   1   2
ATOM      2  C   UNL     1      33.631  26.942  14.982  1.00  0.00     0.000 C 
BRANCH   2   3
ATOM      3  C   UNL     1      33.951  25.439  15.008  1.00  0.00     0.000 C 
BRANCH   3   4
ATOM      4  C   UNL     1      32.706  24.624  15.388  1.00  0.00     0.000 C 
BRANCH   4   5
ATOM      5  C   UNL     1      31.971  24.057  14.163  1.00  0.00     0.000 C 
BRANCH   5   6
ATOM      6  C   UNL     1      30.441  24.167  14.288  1.00  0.00     0.000 C 
BRANCH   6   7
ATOM      7  C   UNL     1      30.003  25.420  15.076  1.00  0.00     0.000 C 
BRANCH   7   8
ATOM      8  C   UNL     1      28.620  25.284  15.735  1.00  0.00     0.000 C 
BRANCH   8   9
ATOM      9  C   UNL     1      27.464  25.462  14.742  1.00  0.00     0.000 C 
BRANCH   9  10
ATOM     10  C   UNL     1      27.284  26.940  14.365  1.00  0.00     0.006 C 
BRANCH  10  11
ATOM     11  C   UNL     1      27.073  27.134  12.857  1.00  0.00     0.053 C 
BRANCH  11  12
ATOM     12  C   UNL     1      26.809  28.568  12.508  1.00  0.00     0.041 C 
ATOM     13  O   UNL     1      25.972  28.859  11.613  1.00  0.00    -0.550 OA
ATOM     14  O   UNL     1      27.490  29.581  13.171  1.00  0.00    -0.550 OA
ENDBRANCH  11  12
ENDBRANCH  10  11
ENDBRANCH   9  10
ENDBRANCH   8   9
ENDBRANCH   7   8
ENDBRANCH   6   7
ENDBRANCH   5   6
ENDBRANCH   4   5
ENDBRANCH   3   4
ENDBRANCH   2   3
ENDBRANCH   1   2
BRANCH   1  15
ATOM     15  C   UNL     1      34.388  26.577  12.562  1.00  0.00     0.000 C 
BRANCH  15  16
ATOM     16  C   UNL     1      35.250  27.236  11.471  1.00  0.00     0.000 C 
BRANCH  16  17
ATOM     17  C   UNL     1      34.460  27.568  10.187  1.00  0.00     0.000 C 
BRANCH  17  18
ATOM     18  C   UNL     1      34.065  29.054  10.117  1.00  0.00    -0.000 C 
BRANCH  18  19
ATOM     19  C   UNL     1      32.554  29.255   9.922  1.00  0.00    -0.000 C 
BRANCH  19  20
ATOM     20  C   UNL     1      31.812  29.486  11.248  1.00  0.00    -0.000 C 
BRANCH  20  21
ATOM     21  C   UNL     1      30.506  28.675  11.348  1.00  0.00    -0.000 C 
BRANCH  21  22
ATOM     22  C   UNL     1      30.650  27.294  12.019  1.00  0.00    -0.000 C 
BRANCH  22  23
ATOM     23  C   UNL     1      30.316  26.090  11.116  1.00  0.00    -0.000 C 
BRANCH  23  24
ATOM     24  C   UNL     1      31.537  25.395  10.478  1.00  0.00    -0.000 C 
BRANCH  24  25
ATOM     25  C   UNL     1      31.683  25.608   8.960  1.00  0.00    -0.003 C 
ATOM     26  C   UNL     1      30.560  26.459   8.368  1.00  0.00     0.004 C 
ENDBRANCH  24  25
ENDBRANCH  23  24
ENDBRANCH  22  23
ENDBRANCH  21  22
ENDBRANCH  20  21
ENDBRANCH  19  20
ENDBRANCH  18  19
ENDBRANCH  17  18
ENDBRANCH  16  17
ENDBRANCH  15  16
ENDBRANCH   1  15
TORSDOF 22
ENDMDL
MODEL 7
REMARK VINA RESULT:    -3.091      2.969      6.164
REMARK INTER + INTRA:         -11.074
REMARK INTER:                  -6.963
REMARK INTRA:                  -4.111
REMARK UNBOUND:                -4.007
REMARK SMILES CCCCCCCCCCCCCCCCCCCCCCCC(=O)[O-]
REMARK SMILES IDX 13 1 14 2 15 3 16 4 17 5 18 6 19 7 20 8 21 9 22 10 23 11
REMARK SMILES IDX 24 12 25 13 26 14 12 15 11 16 10 17 9 18 8 19 7 20 6 21 5 22
REMARK SMILES IDX 4 23 3 24 2 25 1 26
REMARK H PARENT
REMARK Flexibility Score: inf
ROOT
ATOM      1  C   UNL     1      33.483  26.568  15.378  1.00  0.00     0.000 C 
ENDROOT
BRANCH   1   2
ATOM      2  C   UNL     1      33.055  25.092  15.360  1.00  0.00     0.000 C 
BRANCH   2   3
ATOM      3  C   UNL     1      32.092  24.761  14.210  1.00  0.00     0.000 C 
BRANCH   3   4
ATOM      4  C   UNL     1      30.720  24.336  14.755  1.00  0.00     0.000 C 
BRANCH   4   5
ATOM      5  C   UNL     1      29.645  25.419  14.565  1.00  0.00     0.000 C 
BRANCH   5   6
ATOM      6  C   UNL     1      28.762  25.600  15.813  1.00  0.00     0.000 C 
BRANCH   6   7
ATOM      7  C   UNL     1      27.325  25.078  15.598  1.00  0.00     0.000 C 
BRANCH   7   8
ATOM      8  C   UNL     1      26.852  25.154  14.137  1.00  0.00     0.000 C 
BRANCH   8   9
ATOM      9  C   UNL     1      25.741  26.190  13.921  1.00  0.00     0.000 C 
BRANCH   9  10
ATOM     10  C   UNL     1      26.164  27.244  12.888  1.00  0.00     0.006 C 
BRANCH  10  11
ATOM     11  C   UNL     1      27.290  28.150  13.408  1.00  0.00     0.053 C 
BRANCH  11  12
ATOM     12  C   UNL     1      27.657  29.214  12.418  1.00  0.00     0.041 C 
ATOM     13  O   UNL     1      28.271  30.247  12.795  1.00  0.00    -0.550 OA
ATOM     14  O   UNL     1      27.319  29.062  11.079  1.00  0.00    -0.550 OA
ENDBRANCH  11  12
ENDBRANCH  10  11
ENDBRANCH   9  10
ENDBRANCH   8   9
ENDBRANCH   7   8
ENDBRANCH   6   7
ENDBRANCH   5   6
ENDBRANCH   4   5
ENDBRANCH   3   4
ENDBRANCH   2   3
ENDBRANCH   1   2
BRANCH   1  15
ATOM     15  C   UNL     1      33.497  27.201  13.976  1.00  0.00     0.000 C 
BRANCH  15  16
ATOM     16  C   UNL     1      34.814  26.943  13.224  1.00  0.00     0.000 C 
BRANCH  16  17
ATOM     17  C   UNL     1      34.605  26.554  11.744  1.00  0.00     0.000 C 
BRANCH  17  18
ATOM     18  C   UNL     1      34.421  25.036  11.564  1.00  0.00    -0.000 C 
BRANCH  18  19
ATOM     19  C   UNL     1      33.581  24.686  10.325  1.00  0.00    -0.000 C 
BRANCH  19  20
ATOM     20  C   UNL     1      32.500  25.738  10.028  1.00  0.00    -0.000 C 
BRANCH  20  21
ATOM     21  C   UNL     1      31.125  25.356  10.605  1.00  0.00    -0.000 C 
BRANCH  21  22
ATOM     22  C   UNL     1      30.231  26.550  10.997  1.00  0.00    -0.000 C 
BRANCH  22  23
ATOM     23  C   UNL     1      30.930  27.648  11.824  1.00  0.00    -0.000 C 
BRANCH  23  24
ATOM     24  C   UNL     1      31.078  29.008  11.111  1.00  0.00    -0.000 C 
BRANCH  24  25
ATOM     25  C   UNL     1      32.511  29.571  11.082  1.00  0.00    -0.003 C 
ATOM     26  C   UNL     1      33.193  29.393   9.727  1.00  0.00     0.004 C 
ENDBRANCH  24  25
ENDBRANCH  23  24
ENDBRANCH  22  23
ENDBRANCH  21  22
ENDBRANCH  20  21
ENDBRANCH  19  20
ENDBRANCH  18  19
ENDBRANCH  17  18
ENDBRANCH  16  17
ENDBRANCH  15  16
ENDBRANCH   1  15
TORSDOF 22
ENDMDL
MODEL 8
REMARK VINA RESULT:    -3.075      3.142      6.184
REMARK INTER + INTRA:         -11.038
REMARK INTER:                  -6.909
REMARK INTRA:                  -4.129
REMARK UNBOUND:                -4.007
REMARK SMILES CCCCCCCCCCCCCCCCCCCCCCCC(=O)[O-]
REMARK SMILES IDX 13 1 14 2 15 3 16 4 17 5 18 6 19 7 20 8 21 9 22 10 23 11
REMARK SMILES IDX 24 12 25 13 26 14 12 15 11 16 10 17 9 18 8 19 7 20 6 21 5 22
REMARK SMILES IDX 4 23 3 24 2 25 1 26
REMARK H PARENT
REMARK Flexibility Score: inf
ROOT
ATOM      1  C   UNL     1      30.606  28.425  11.607  1.00  0.00     0.000 C 
ENDROOT
BRANCH   1   2
ATOM      2  C   UNL     1      30.406  27.103  10.848  1.00  0.00     0.000 C 
BRANCH   2   3
ATOM      3  C   UNL     1      29.552  26.088  11.624  1.00  0.00     0.000 C 
BRANCH   3   4
ATOM      4  C   UNL     1      29.791  26.219  13.136  1.00  0.00     0.000 C 
BRANCH   4   5
ATOM      5  C   UNL     1      29.677  24.875  13.873  1.00  0.00     0.000 C 
BRANCH   5   6
ATOM      6  C   UNL     1      29.325  25.046  15.362  1.00  0.00     0.000 C 
BRANCH   6   7
ATOM      7  C   UNL     1      27.826  25.338  15.583  1.00  0.00     0.000 C 
BRANCH   7   8
ATOM      8  C   UNL     1      26.897  24.541  14.651  1.00  0.00     0.000 C 
BRANCH   8   9
ATOM      9  C   UNL     1      25.887  25.428  13.911  1.00  0.00     0.000 C 
BRANCH   9  10
ATOM     10  C   UNL     1      26.370  26.884  13.855  1.00  0.00     0.006 C 
BRANCH  10  11
ATOM     11  C   UNL     1      25.950  27.587  12.556  1.00  0.00     0.053 C 
BRANCH  11  12
ATOM     12  C   UNL     1      26.879  28.707  12.197  1.00  0.00     0.041 C 
ATOM     13  O   UNL     1      27.140  28.953  10.990  1.00  0.00    -0.550 OA
ATOM     14  O   UNL     1      27.458  29.477  13.199  1.00  0.00    -0.550 OA
ENDBRANCH  11  12
ENDBRANCH  10  11
ENDBRANCH   9  10
ENDBRANCH   8   9
ENDBRANCH   7   8
ENDBRANCH   6   7
ENDBRANCH   5   6
ENDBRANCH   4   5
ENDBRANCH   3   4
ENDBRANCH   2   3
ENDBRANCH   1   2
BRANCH   1  15
ATOM     15  C   UNL     1      32.072  28.892  11.613  1.00  0.00     0.000 C 
BRANCH  15  16
ATOM     16  C   UNL     1      32.441  29.700  10.358  1.00  0.00     0.000 C 
BRANCH  16  17
ATOM     17  C   UNL     1      33.819  29.324   9.772  1.00  0.00     0.000 C 
BRANCH  17  18
ATOM     18  C   UNL     1      33.752  28.062   8.894  1.00  0.00    -0.000 C 
BRANCH  18  19
ATOM     19  C   UNL     1      34.451  26.856   9.540  1.00  0.00    -0.000 C 
BRANCH  19  20
ATOM     20  C   UNL     1      35.491  27.270  10.593  1.00  0.00    -0.000 C 
BRANCH  20  21
ATOM     21  C   UNL     1      35.428  26.403  11.864  1.00  0.00    -0.000 C 
BRANCH  21  22
ATOM     22  C   UNL     1      34.345  25.305  11.847  1.00  0.00    -0.000 C 
BRANCH  22  23
ATOM     23  C   UNL     1      33.195  25.505  12.854  1.00  0.00    -0.000 C 
BRANCH  23  24
ATOM     24  C   UNL     1      33.452  26.576  13.935  1.00  0.00    -0.000 C 
BRANCH  24  25
ATOM     25  C   UNL     1      33.065  26.158  15.365  1.00  0.00    -0.003 C 
ATOM     26  C   UNL     1      33.092  24.645  15.571  1.00  0.00     0.004 C 
ENDBRANCH  24  25
ENDBRANCH  23  24
ENDBRANCH  22  23
ENDBRANCH  21  22
ENDBRANCH  20  21
ENDBRANCH  19  20
ENDBRANCH  18  19
ENDBRANCH  17  18
ENDBRANCH  16  17
ENDBRANCH  15  16
ENDBRANCH   1  15
TORSDOF 22
ENDMDL
MODEL 9
REMARK VINA RESULT:    -3.073      2.662      6.547
REMARK INTER + INTRA:         -11.033
REMARK INTER:                  -6.394
REMARK INTRA:                  -4.638
REMARK UNBOUND:                -4.007
REMARK SMILES CCCCCCCCCCCCCCCCCCCCCCCC(=O)[O-]
REMARK SMILES IDX 13 1 14 2 15 3 16 4 17 5 18 6 19 7 20 8 21 9 22 10 23 11
REMARK SMILES IDX 24 12 25 13 26 14 12 15 11 16 10 17 9 18 8 19 7 20 6 21 5 22
REMARK SMILES IDX 4 23 3 24 2 25 1 26
REMARK H PARENT
REMARK Flexibility Score: inf
ROOT
ATOM      1  C   UNL     1      30.408  24.259  14.639  1.00  0.00     0.000 C 
ENDROOT
BRANCH   1   2
ATOM      2  C   UNL     1      29.518  25.394  15.169  1.00  0.00     0.000 C 
BRANCH   2   3
ATOM      3  C   UNL     1      28.375  24.892  16.065  1.00  0.00     0.000 C 
BRANCH   3   4
ATOM      4  C   UNL     1      27.502  23.875  15.315  1.00  0.00     0.000 C 
BRANCH   4   5
ATOM      5  C   UNL     1      26.367  24.540  14.520  1.00  0.00     0.000 C 
BRANCH   5   6
ATOM      6  C   UNL     1      26.535  24.373  12.998  1.00  0.00     0.000 C 
BRANCH   6   7
ATOM      7  C   UNL     1      27.060  25.656  12.321  1.00  0.00     0.000 C 
BRANCH   7   8
ATOM      8  C   UNL     1      26.396  26.944  12.836  1.00  0.00     0.000 C 
BRANCH   8   9
ATOM      9  C   UNL     1      27.391  27.908  13.496  1.00  0.00     0.000 C 
BRANCH   9  10
ATOM     10  C   UNL     1      27.284  29.313  12.885  1.00  0.00     0.006 C 
BRANCH  10  11
ATOM     11  C   UNL     1      28.532  29.692  12.074  1.00  0.00     0.053 C 
BRANCH  11  12
ATOM     12  C   UNL     1      28.315  29.527  10.600  1.00  0.00     0.041 C 
ATOM     13  O   UNL     1      27.215  29.094  10.165  1.00  0.00    -0.550 OA
ATOM     14  O   UNL     1      29.329  29.851   9.708  1.00  0.00    -0.550 OA
ENDBRANCH  11  12
ENDBRANCH  10  11
ENDBRANCH   9  10
ENDBRANCH   8   9
ENDBRANCH   7   8
ENDBRANCH   6   7
ENDBRANCH   5   6
ENDBRANCH   4   5
ENDBRANCH   3   4
ENDBRANCH   2   3
ENDBRANCH   1   2
BRANCH   1  15
ATOM     15  C   UNL     1      30.695  24.381  13.132  1.00  0.00     0.000 C 
BRANCH  15  16
ATOM     16  C   UNL     1      30.507  25.815  12.609  1.00  0.00     0.000 C 
BRANCH  16  17
ATOM     17  C   UNL     1      30.805  25.960  11.100  1.00  0.00     0.000 C 
BRANCH  17  18
ATOM     18  C   UNL     1      31.546  27.270  10.778  1.00  0.00    -0.000 C 
BRANCH  18  19
ATOM     19  C   UNL     1      31.755  28.150  12.019  1.00  0.00    -0.000 C 
BRANCH  19  20
ATOM     20  C   UNL     1      33.205  28.644  12.157  1.00  0.00    -0.000 C 
BRANCH  20  21
ATOM     21  C   UNL     1      34.180  27.885  11.238  1.00  0.00    -0.000 C 
BRANCH  21  22
ATOM     22  C   UNL     1      35.127  26.908  11.963  1.00  0.00    -0.000 C 
BRANCH  22  23
ATOM     23  C   UNL     1      34.573  25.483  12.159  1.00  0.00    -0.000 C 
BRANCH  23  24
ATOM     24  C   UNL     1      34.148  25.141  13.602  1.00  0.00    -0.000 C 
BRANCH  24  25
ATOM     25  C   UNL     1      34.481  26.220  14.648  1.00  0.00    -0.003 C 
ATOM     26  C   UNL     1      33.256  26.687  15.432  1.00  0.00     0.004 C 
ENDBRANCH  24  25
ENDBRANCH  23  24
ENDBRANCH  22  23
ENDBRANCH  21  22
ENDBRANCH  20  21
ENDBRANCH  19  20
ENDBRANCH  18  19
ENDBRANCH  17  18
ENDBRANCH  16  17
ENDBRANCH  15  16
ENDBRANCH   1  15
TORSDOF 22
ENDMDL
