MODEL 1
REMARK VINA RESULT:    -1.511      0.000      0.000
REMARK INTER + INTRA:          -4.107
REMARK INTER:                  -3.277
REMARK INTRA:                  -0.830
REMARK UNBOUND:                -0.830
REMARK SMILES CCCCCCCCCCCCCCCCCCCCCC(=O)[O-]
REMARK SMILES IDX 12 1 11 2 10 3 9 4 8 5 7 6 6 7 5 8 4 9 3 10 2 11 1 12 13 13
REMARK SMILES IDX 14 14 15 15 16 16 17 17 18 18 19 19 20 20 21 21 22 22 23 23
REMARK SMILES IDX 24 24
REMARK H PARENT
REMARK Flexibility Score: inf
ROOT
ATOM      1  C   UNL     1      14.287 -17.730  14.689  1.00  0.00     0.000 C 
ENDROOT
BRANCH   1   2
ATOM      2  C   UNL     1      15.166 -18.095  13.485  1.00  0.00     0.000 C 
BRANCH   2   3
ATOM      3  C   UNL     1      16.654 -18.060  13.854  1.00  0.00     0.000 C 
BRANCH   3   4
ATOM      4  C   UNL     1      17.531 -18.113  12.593  1.00  0.00    -0.000 C 
BRANCH   4   5
ATOM      5  C   UNL     1      16.707 -18.092  11.291  1.00  0.00    -0.000 C 
BRANCH   5   6
ATOM      6  C   UNL     1      17.513 -17.717  10.029  1.00  0.00    -0.000 C 
BRANCH   6   7
ATOM      7  C   UNL     1      18.385 -16.456  10.180  1.00  0.00    -0.000 C 
BRANCH   7   8
ATOM      8  C   UNL     1      19.868 -16.720   9.865  1.00  0.00    -0.000 C 
BRANCH   8   9
ATOM      9  C   UNL     1      20.419 -17.945  10.622  1.00  0.00    -0.000 C 
BRANCH   9  10
ATOM     10  C   UNL     1      21.482 -17.603  11.688  1.00  0.00    -0.000 C 
BRANCH  10  11
ATOM     11  C   UNL     1      22.935 -17.646  11.178  1.00  0.00    -0.003 C 
ATOM     12  C   UNL     1      23.045 -18.123   9.730  1.00  0.00     0.004 C 
ENDBRANCH  10  11
ENDBRANCH   9  10
ENDBRANCH   8   9
ENDBRANCH   7   8
ENDBRANCH   6   7
ENDBRANCH   5   6
ENDBRANCH   4   5
ENDBRANCH   3   4
ENDBRANCH   2   3
ENDBRANCH   1   2
BRANCH   1  13
ATOM     13  C   UNL     1      14.971 -18.125  16.005  1.00  0.00     0.000 C 
BRANCH  13  14
ATOM     14  C   UNL     1      15.109 -16.943  16.981  1.00  0.00     0.000 C 
BRANCH  14  15
ATOM     15  C   UNL     1      16.422 -16.145  16.850  1.00  0.00     0.000 C 
BRANCH  15  16
ATOM     16  C   UNL     1      17.711 -16.958  17.087  1.00  0.00     0.000 C 
BRANCH  16  17
ATOM     17  C   UNL     1      18.656 -17.065  15.871  1.00  0.00     0.000 C 
BRANCH  17  18
ATOM     18  C   UNL     1      19.857 -18.011  16.059  1.00  0.00     0.000 C 
BRANCH  18  19
ATOM     19  C   UNL     1      20.853 -17.507  17.119  1.00  0.00     0.000 C 
BRANCH  19  20
ATOM     20  C   UNL     1      21.665 -16.294  16.636  1.00  0.00     0.006 C 
BRANCH  20  21
ATOM     21  C   UNL     1      20.930 -15.471  15.569  1.00  0.00     0.053 C 
BRANCH  21  22
ATOM     22  C   UNL     1      21.767 -15.337  14.336  1.00  0.00     0.041 C 
ATOM     23  O   UNL     1      21.311 -14.736  13.326  1.00  0.00    -0.550 OA
ATOM     24  O   UNL     1      23.058 -15.850  14.307  1.00  0.00    -0.550 OA
ENDBRANCH  21  22
ENDBRANCH  20  21
ENDBRANCH  19  20
ENDBRANCH  18  19
ENDBRANCH  17  18
ENDBRANCH  16  17
ENDBRANCH  15  16
ENDBRANCH  14  15
ENDBRANCH  13  14
ENDBRANCH   1  13
TORSDOF 20
ENDMDL
MODEL 2
REMARK VINA RESULT:    -0.904     23.889     25.642
REMARK INTER + INTRA:          -2.790
REMARK INTER:                  -1.887
REMARK INTRA:                  -0.903
REMARK UNBOUND:                -0.830
REMARK SMILES CCCCCCCCCCCCCCCCCCCCCC(=O)[O-]
REMARK SMILES IDX 12 1 11 2 10 3 9 4 8 5 7 6 6 7 5 8 4 9 3 10 2 11 1 12 13 13
REMARK SMILES IDX 14 14 15 15 16 16 17 17 18 18 19 19 20 20 21 21 22 22 23 23
REMARK SMILES IDX 24 24
REMARK H PARENT
REMARK Flexibility Score: inf
ROOT
ATOM      1  C   UNL     1      11.450   0.562  -1.492  1.00  0.00     0.000 C 
ENDROOT
BRANCH   1   2
ATOM      2  C   UNL     1      10.176   0.606  -2.347  1.00  0.00     0.000 C 
BRANCH   2   3
ATOM      3  C   UNL     1       9.452   1.950  -2.196  1.00  0.00     0.000 C 
BRANCH   3   4
ATOM      4  C   UNL     1       8.050   1.889  -2.822  1.00  0.00    -0.000 C 
BRANCH   4   5
ATOM      5  C   UNL     1       7.075   1.007  -2.019  1.00  0.00    -0.000 C 
BRANCH   5   6
ATOM      6  C   UNL     1       6.901   1.426  -0.544  1.00  0.00    -0.000 C 
BRANCH   6   7
ATOM      7  C   UNL     1       5.677   0.805   0.156  1.00  0.00    -0.000 C 
BRANCH   7   8
ATOM      8  C   UNL     1       4.824  -0.054  -0.796  1.00  0.00    -0.000 C 
BRANCH   8   9
ATOM      9  C   UNL     1       4.635  -1.493  -0.277  1.00  0.00    -0.000 C 
BRANCH   9  10
ATOM     10  C   UNL     1       3.628  -2.332  -1.093  1.00  0.00    -0.000 C 
BRANCH  10  11
ATOM     11  C   UNL     1       4.016  -2.536  -2.570  1.00  0.00    -0.003 C 
ATOM     12  C   UNL     1       5.245  -3.429  -2.745  1.00  0.00     0.004 C 
ENDBRANCH  10  11
ENDBRANCH   9  10
ENDBRANCH   8   9
ENDBRANCH   7   8
ENDBRANCH   6   7
ENDBRANCH   5   6
ENDBRANCH   4   5
ENDBRANCH   3   4
ENDBRANCH   2   3
ENDBRANCH   1   2
BRANCH   1  13
ATOM     13  C   UNL     1      12.276   1.843  -1.677  1.00  0.00     0.000 C 
BRANCH  13  14
ATOM     14  C   UNL     1      13.393   1.683  -2.724  1.00  0.00     0.000 C 
BRANCH  14  15
ATOM     15  C   UNL     1      14.247   0.408  -2.570  1.00  0.00     0.000 C 
BRANCH  15  16
ATOM     16  C   UNL     1      15.705   0.530  -3.060  1.00  0.00     0.000 C 
BRANCH  16  17
ATOM     17  C   UNL     1      16.607   1.460  -2.222  1.00  0.00     0.000 C 
BRANCH  17  18
ATOM     18  C   UNL     1      17.768   2.114  -2.995  1.00  0.00     0.000 C 
BRANCH  18  19
ATOM     19  C   UNL     1      19.085   2.124  -2.199  1.00  0.00     0.000 C 
BRANCH  19  20
ATOM     20  C   UNL     1      20.324   2.066  -3.108  1.00  0.00     0.006 C 
BRANCH  20  21
ATOM     21  C   UNL     1      21.144   0.782  -2.917  1.00  0.00     0.053 C 
BRANCH  21  22
ATOM     22  C   UNL     1      22.098   0.928  -1.775  1.00  0.00     0.041 C 
ATOM     23  O   UNL     1      23.123   0.198  -1.711  1.00  0.00    -0.550 OA
ATOM     24  O   UNL     1      21.872   1.885  -0.793  1.00  0.00    -0.550 OA
ENDBRANCH  21  22
ENDBRANCH  20  21
ENDBRANCH  19  20
ENDBRANCH  18  19
ENDBRANCH  17  18
ENDBRANCH  16  17
ENDBRANCH  15  16
ENDBRANCH  14  15
ENDBRANCH  13  14
ENDBRANCH   1  13
TORSDOF 20
ENDMDL
MODEL 3
REMARK VINA RESULT:     1.222     23.743     25.950
REMARK INTER + INTRA:           1.822
REMARK INTER:                   2.746
REMARK INTRA:                  -0.924
REMARK UNBOUND:                -0.830
REMARK SMILES CCCCCCCCCCCCCCCCCCCCCC(=O)[O-]
REMARK SMILES IDX 12 1 11 2 10 3 9 4 8 5 7 6 6 7 5 8 4 9 3 10 2 11 1 12 13 13
REMARK SMILES IDX 14 14 15 15 16 16 17 17 18 18 19 19 20 20 21 21 22 22 23 23
REMARK SMILES IDX 24 24
REMARK H PARENT
REMARK Flexibility Score: inf
ROOT
ATOM      1  C   UNL     1      11.446   0.587  -1.519  1.00  0.00     0.000 C 
ENDROOT
BRANCH   1   2
ATOM      2  C   UNL     1      10.215   0.698  -2.429  1.00  0.00     0.000 C 
BRANCH   2   3
ATOM      3  C   UNL     1       9.378   1.934  -2.081  1.00  0.00     0.000 C 
BRANCH   3   4
ATOM      4  C   UNL     1       8.016   1.890  -2.793  1.00  0.00    -0.000 C 
BRANCH   4   5
ATOM      5  C   UNL     1       7.079   0.808  -2.222  1.00  0.00    -0.000 C 
BRANCH   5   6
ATOM      6  C   UNL     1       5.678   0.771  -2.868  1.00  0.00    -0.000 C 
BRANCH   6   7
ATOM      7  C   UNL     1       4.580   0.161  -1.974  1.00  0.00    -0.000 C 
BRANCH   7   8
ATOM      8  C   UNL     1       3.524   1.197  -1.545  1.00  0.00    -0.000 C 
BRANCH   8   9
ATOM      9  C   UNL     1       3.658   1.590  -0.061  1.00  0.00    -0.000 C 
BRANCH   9  10
ATOM     10  C   UNL     1       5.103   1.540   0.478  1.00  0.00    -0.000 C 
BRANCH  10  11
ATOM     11  C   UNL     1       5.219   1.131   1.959  1.00  0.00    -0.003 C 
ATOM     12  C   UNL     1       4.490   2.091   2.900  1.00  0.00     0.004 C 
ENDBRANCH  10  11
ENDBRANCH   9  10
ENDBRANCH   8   9
ENDBRANCH   7   8
ENDBRANCH   6   7
ENDBRANCH   5   6
ENDBRANCH   4   5
ENDBRANCH   3   4
ENDBRANCH   2   3
ENDBRANCH   1   2
BRANCH   1  13
ATOM     13  C   UNL     1      12.361   1.807  -1.685  1.00  0.00     0.000 C 
BRANCH  13  14
ATOM     14  C   UNL     1      13.490   1.569  -2.704  1.00  0.00     0.000 C 
BRANCH  14  15
ATOM     15  C   UNL     1      14.195   0.203  -2.581  1.00  0.00     0.000 C 
BRANCH  15  16
ATOM     16  C   UNL     1      15.677   0.187  -3.008  1.00  0.00     0.000 C 
BRANCH  16  17
ATOM     17  C   UNL     1      16.575   1.233  -2.315  1.00  0.00     0.000 C 
BRANCH  17  18
ATOM     18  C   UNL     1      17.808   1.676  -3.125  1.00  0.00     0.000 C 
BRANCH  18  19
ATOM     19  C   UNL     1      19.084   1.765  -2.269  1.00  0.00     0.000 C 
BRANCH  19  20
ATOM     20  C   UNL     1      20.357   1.905  -3.120  1.00  0.00     0.006 C 
BRANCH  20  21
ATOM     21  C   UNL     1      21.322   0.725  -2.948  1.00  0.00     0.053 C 
BRANCH  21  22
ATOM     22  C   UNL     1      22.028   0.805  -1.632  1.00  0.00     0.041 C 
ATOM     23  O   UNL     1      22.842   1.741  -1.408  1.00  0.00    -0.550 OA
ATOM     24  O   UNL     1      21.770  -0.134  -0.641  1.00  0.00    -0.550 OA
ENDBRANCH  21  22
ENDBRANCH  20  21
ENDBRANCH  19  20
ENDBRANCH  18  19
ENDBRANCH  17  18
ENDBRANCH  16  17
ENDBRANCH  15  16
ENDBRANCH  14  15
ENDBRANCH  13  14
ENDBRANCH   1  13
TORSDOF 20
ENDMDL
