MODEL 1
REMARK VINA RESULT:    -5.671      0.000      0.000
REMARK INTER + INTRA:          -6.234
REMARK INTER:                  -6.169
REMARK INTRA:                  -0.065
REMARK UNBOUND:                -0.065
REMARK SMILES COc1cc2ccc(=O)oc2cc1O
REMARK SMILES IDX 3 1 13 2 12 3 11 4 5 5 4 6 6 7 7 8 8 9 9 10 10 11 2 12 1 13
REMARK SMILES IDX 14 14
REMARK H PARENT 14 15
REMARK Flexibility Score: inf
ROOT
ATOM      1  C   UNL     1      44.518 -10.385  16.656  1.00  0.00     0.161 A 
ATOM      2  C   UNL     1      45.278  -9.266  17.050  1.00  0.00     0.161 A 
ATOM      3  C   UNL     1      46.665  -9.255  16.866  1.00  0.00     0.098 A 
ATOM      4  C   UNL     1      47.311 -10.351  16.289  1.00  0.00     0.142 A 
ATOM      5  C   UNL     1      46.559 -11.476  15.891  1.00  0.00     0.022 A 
ATOM      6  C   UNL     1      45.170 -11.492  16.073  1.00  0.00     0.062 A 
ATOM      7  C   UNL     1      47.235 -12.558  15.316  1.00  0.00     0.019 A 
ATOM      8  C   UNL     1      48.618 -12.494  15.155  1.00  0.00     0.094 A 
ATOM      9  C   UNL     1      49.297 -11.345  15.574  1.00  0.00     0.336 A 
ATOM     10  O   UNL     1      50.546 -11.268  15.437  1.00  0.00    -0.246 OA
ATOM     11  O   UNL     1      48.631 -10.331  16.118  1.00  0.00    -0.423 OA
ENDROOT
BRANCH   1  12
ATOM     12  O   UNL     1      43.129 -10.363  16.856  1.00  0.00    -0.493 OA
ATOM     13  C   UNL     1      42.174 -10.023  15.856  1.00  0.00     0.278 C 
ENDBRANCH   1  12
BRANCH   2  14
ATOM     14  O   UNL     1      44.669  -8.153  17.629  1.00  0.00    -0.504 OA
ATOM     15  H   UNL     1      44.974  -7.208  17.433  1.00  0.00     0.293 HD
ENDBRANCH   2  14
TORSDOF 2
ENDMDL
MODEL 2
REMARK VINA RESULT:    -5.270      1.813      5.305
REMARK INTER + INTRA:          -5.797
REMARK INTER:                  -5.738
REMARK INTRA:                  -0.059
REMARK UNBOUND:                -0.065
REMARK SMILES COc1cc2ccc(=O)oc2cc1O
REMARK SMILES IDX 3 1 13 2 12 3 11 4 5 5 4 6 6 7 7 8 8 9 9 10 10 11 2 12 1 13
REMARK SMILES IDX 14 14
REMARK H PARENT 14 15
REMARK Flexibility Score: inf
ROOT
ATOM      1  C   UNL     1      48.956 -10.850  16.315  1.00  0.00     0.161 A 
ATOM      2  C   UNL     1      48.853 -12.089  15.652  1.00  0.00     0.161 A 
ATOM      3  C   UNL     1      47.595 -12.638  15.376  1.00  0.00     0.098 A 
ATOM      4  C   UNL     1      46.431 -11.965  15.753  1.00  0.00     0.142 A 
ATOM      5  C   UNL     1      46.524 -10.724  16.417  1.00  0.00     0.022 A 
ATOM      6  C   UNL     1      47.780 -10.170  16.696  1.00  0.00     0.062 A 
ATOM      7  C   UNL     1      45.340 -10.073  16.782  1.00  0.00     0.019 A 
ATOM      8  C   UNL     1      44.114 -10.665  16.483  1.00  0.00     0.094 A 
ATOM      9  C   UNL     1      44.099 -11.898  15.822  1.00  0.00     0.336 A 
ATOM     10  O   UNL     1      43.002 -12.449  15.542  1.00  0.00    -0.246 OA
ATOM     11  O   UNL     1      45.239 -12.495  15.486  1.00  0.00    -0.423 OA
ENDROOT
BRANCH   1  12
ATOM     12  O   UNL     1      50.233 -10.328  16.576  1.00  0.00    -0.493 OA
ATOM     13  C   UNL     1      50.757 -10.089  17.879  1.00  0.00     0.278 C 
ENDBRANCH   1  12
BRANCH   2  14
ATOM     14  O   UNL     1      49.992 -12.791  15.259  1.00  0.00    -0.504 OA
ATOM     15  H   UNL     1      50.766 -12.342  14.786  1.00  0.00     0.293 HD
ENDBRANCH   2  14
TORSDOF 2
ENDMDL
MODEL 3
REMARK VINA RESULT:    -5.204      2.758      4.903
REMARK INTER + INTRA:          -5.725
REMARK INTER:                  -5.660
REMARK INTRA:                  -0.065
REMARK UNBOUND:                -0.065
REMARK SMILES COc1cc2ccc(=O)oc2cc1O
REMARK SMILES IDX 3 1 13 2 12 3 11 4 5 5 4 6 6 7 7 8 8 9 9 10 10 11 2 12 1 13
REMARK SMILES IDX 14 14
REMARK H PARENT 14 15
REMARK Flexibility Score: inf
ROOT
ATOM      1  C   UNL     1      50.302  -9.327  17.910  1.00  0.00     0.161 A 
ATOM      2  C   UNL     1      49.050  -8.691  18.023  1.00  0.00     0.161 A 
ATOM      3  C   UNL     1      47.909  -9.273  17.459  1.00  0.00     0.098 A 
ATOM      4  C   UNL     1      47.999 -10.489  16.779  1.00  0.00     0.142 A 
ATOM      5  C   UNL     1      49.247 -11.135  16.660  1.00  0.00     0.022 A 
ATOM      6  C   UNL     1      50.392 -10.556  17.223  1.00  0.00     0.062 A 
ATOM      7  C   UNL     1      49.305 -12.352  15.972  1.00  0.00     0.019 A 
ATOM      8  C   UNL     1      48.137 -12.888  15.430  1.00  0.00     0.094 A 
ATOM      9  C   UNL     1      46.935 -12.191  15.588  1.00  0.00     0.336 A 
ATOM     10  O   UNL     1      45.870 -12.658  15.105  1.00  0.00    -0.246 OA
ATOM     11  O   UNL     1      46.908 -11.036  16.245  1.00  0.00    -0.423 OA
ENDROOT
BRANCH   1  12
ATOM     12  O   UNL     1      51.425  -8.716  18.487  1.00  0.00    -0.493 OA
ATOM     13  C   UNL     1      51.970  -9.061  19.757  1.00  0.00     0.278 C 
ENDBRANCH   1  12
BRANCH   2  14
ATOM     14  O   UNL     1      48.920  -7.476  18.695  1.00  0.00    -0.504 OA
ATOM     15  H   UNL     1      49.173  -7.367  19.669  1.00  0.00     0.293 HD
ENDBRANCH   2  14
TORSDOF 2
ENDMDL
MODEL 4
REMARK VINA RESULT:    -5.088     18.809     19.934
REMARK INTER + INTRA:          -5.599
REMARK INTER:                  -5.537
REMARK INTRA:                  -0.063
REMARK UNBOUND:                -0.065
REMARK SMILES COc1cc2ccc(=O)oc2cc1O
REMARK SMILES IDX 3 1 13 2 12 3 11 4 5 5 4 6 6 7 7 8 8 9 9 10 10 11 2 12 1 13
REMARK SMILES IDX 14 14
REMARK H PARENT 14 15
REMARK Flexibility Score: inf
ROOT
ATOM      1  C   UNL     1      55.510 -10.018  33.992  1.00  0.00     0.161 A 
ATOM      2  C   UNL     1      54.808  -8.912  33.474  1.00  0.00     0.161 A 
ATOM      3  C   UNL     1      53.409  -8.913  33.450  1.00  0.00     0.098 A 
ATOM      4  C   UNL     1      52.694 -10.009  33.938  1.00  0.00     0.142 A 
ATOM      5  C   UNL     1      53.387 -11.122  34.458  1.00  0.00     0.022 A 
ATOM      6  C   UNL     1      54.788 -11.126  34.485  1.00  0.00     0.062 A 
ATOM      7  C   UNL     1      52.643 -12.205  34.940  1.00  0.00     0.019 A 
ATOM      8  C   UNL     1      51.251 -12.153  34.892  1.00  0.00     0.094 A 
ATOM      9  C   UNL     1      50.632 -11.016  34.362  1.00  0.00     0.336 A 
ATOM     10  O   UNL     1      49.376 -10.950  34.310  1.00  0.00    -0.246 OA
ATOM     11  O   UNL     1      51.363 -10.001  33.911  1.00  0.00    -0.423 OA
ENDROOT
BRANCH   1  12
ATOM     12  O   UNL     1      56.913  -9.985  34.001  1.00  0.00    -0.493 OA
ATOM     13  C   UNL     1      57.705  -9.572  35.110  1.00  0.00     0.278 C 
ENDBRANCH   1  12
BRANCH   2  14
ATOM     14  O   UNL     1      55.487  -7.799  32.978  1.00  0.00    -0.504 OA
ATOM     15  H   UNL     1      55.081  -6.872  32.986  1.00  0.00     0.293 HD
ENDBRANCH   2  14
TORSDOF 2
ENDMDL
MODEL 5
REMARK VINA RESULT:    -5.081     18.602     19.229
REMARK INTER + INTRA:          -5.591
REMARK INTER:                  -5.526
REMARK INTRA:                  -0.065
REMARK UNBOUND:                -0.065
REMARK SMILES COc1cc2ccc(=O)oc2cc1O
REMARK SMILES IDX 3 1 13 2 12 3 11 4 5 5 4 6 6 7 7 8 8 9 9 10 10 11 2 12 1 13
REMARK SMILES IDX 14 14
REMARK H PARENT 14 15
REMARK Flexibility Score: inf
ROOT
ATOM      1  C   UNL     1      50.711 -10.482  34.074  1.00  0.00     0.161 A 
ATOM      2  C   UNL     1      50.831 -11.760  34.656  1.00  0.00     0.161 A 
ATOM      3  C   UNL     1      52.095 -12.294  34.930  1.00  0.00     0.098 A 
ATOM      4  C   UNL     1      53.250 -11.568  34.631  1.00  0.00     0.142 A 
ATOM      5  C   UNL     1      53.141 -10.288  34.048  1.00  0.00     0.022 A 
ATOM      6  C   UNL     1      51.878  -9.749  33.771  1.00  0.00     0.062 A 
ATOM      7  C   UNL     1      54.316  -9.586  33.760  1.00  0.00     0.019 A 
ATOM      8  C   UNL     1      55.549 -10.165  34.054  1.00  0.00     0.094 A 
ATOM      9  C   UNL     1      55.580 -11.438  34.633  1.00  0.00     0.336 A 
ATOM     10  O   UNL     1      56.683 -11.978  34.906  1.00  0.00    -0.246 OA
ATOM     11  O   UNL     1      54.448 -12.085  34.896  1.00  0.00    -0.423 OA
ENDROOT
BRANCH   1  12
ATOM     12  O   UNL     1      49.428  -9.977  33.811  1.00  0.00    -0.493 OA
ATOM     13  C   UNL     1      48.792 -10.009  32.538  1.00  0.00     0.278 C 
ENDBRANCH   1  12
BRANCH   2  14
ATOM     14  O   UNL     1      49.701 -12.515  34.969  1.00  0.00    -0.504 OA
ATOM     15  H   UNL     1      49.765 -13.455  35.337  1.00  0.00     0.293 HD
ENDBRANCH   2  14
TORSDOF 2
ENDMDL
MODEL 6
REMARK VINA RESULT:    -5.050      1.117      4.914
REMARK INTER + INTRA:          -5.557
REMARK INTER:                  -5.514
REMARK INTRA:                  -0.044
REMARK UNBOUND:                -0.065
REMARK SMILES COc1cc2ccc(=O)oc2cc1O
REMARK SMILES IDX 3 1 13 2 12 3 11 4 5 5 4 6 6 7 7 8 8 9 9 10 10 11 2 12 1 13
REMARK SMILES IDX 14 14
REMARK H PARENT 14 15
REMARK Flexibility Score: inf
ROOT
ATOM      1  C   UNL     1      47.629 -11.002  16.347  1.00  0.00     0.161 A 
ATOM      2  C   UNL     1      47.575  -9.764  17.018  1.00  0.00     0.161 A 
ATOM      3  C   UNL     1      46.341  -9.188  17.337  1.00  0.00     0.098 A 
ATOM      4  C   UNL     1      45.150  -9.832  16.994  1.00  0.00     0.142 A 
ATOM      5  C   UNL     1      45.192 -11.071  16.322  1.00  0.00     0.022 A 
ATOM      6  C   UNL     1      46.426 -11.652  16.000  1.00  0.00     0.062 A 
ATOM      7  C   UNL     1      43.982 -11.691  15.991  1.00  0.00     0.019 A 
ATOM      8  C   UNL     1      42.780 -11.073  16.333  1.00  0.00     0.094 A 
ATOM      9  C   UNL     1      42.816  -9.844  17.000  1.00  0.00     0.336 A 
ATOM     10  O   UNL     1      41.742  -9.269  17.317  1.00  0.00    -0.246 OA
ATOM     11  O   UNL     1      43.979  -9.275  17.302  1.00  0.00    -0.423 OA
ENDROOT
BRANCH   1  12
ATOM     12  O   UNL     1      48.884 -11.551  16.042  1.00  0.00    -0.493 OA
ATOM     13  C   UNL     1      49.090 -12.663  15.176  1.00  0.00     0.278 C 
ENDBRANCH   1  12
BRANCH   2  14
ATOM     14  O   UNL     1      48.743  -9.091  17.378  1.00  0.00    -0.504 OA
ATOM     15  H   UNL     1      49.494  -8.925  16.721  1.00  0.00     0.293 HD
ENDBRANCH   2  14
TORSDOF 2
ENDMDL
MODEL 7
REMARK VINA RESULT:    -4.985      1.352      2.537
REMARK INTER + INTRA:          -5.487
REMARK INTER:                  -5.433
REMARK INTRA:                  -0.055
REMARK UNBOUND:                -0.065
REMARK SMILES COc1cc2ccc(=O)oc2cc1O
REMARK SMILES IDX 3 1 13 2 12 3 11 4 5 5 4 6 6 7 7 8 8 9 9 10 10 11 2 12 1 13
REMARK SMILES IDX 14 14
REMARK H PARENT 14 15
REMARK Flexibility Score: inf
ROOT
ATOM      1  C   UNL     1      44.189 -10.531  16.580  1.00  0.00     0.161 A 
ATOM      2  C   UNL     1      44.650 -11.724  15.988  1.00  0.00     0.161 A 
ATOM      3  C   UNL     1      46.022 -11.990  15.912  1.00  0.00     0.098 A 
ATOM      4  C   UNL     1      46.948 -11.077  16.422  1.00  0.00     0.142 A 
ATOM      5  C   UNL     1      46.497  -9.880  17.016  1.00  0.00     0.022 A 
ATOM      6  C   UNL     1      45.125  -9.609  17.094  1.00  0.00     0.062 A 
ATOM      7  C   UNL     1      47.449  -8.985  17.517  1.00  0.00     0.019 A 
ATOM      8  C   UNL     1      48.804  -9.300  17.416  1.00  0.00     0.094 A 
ATOM      9  C   UNL     1      49.176 -10.506  16.814  1.00  0.00     0.336 A 
ATOM     10  O   UNL     1      50.394 -10.808  16.713  1.00  0.00    -0.246 OA
ATOM     11  O   UNL     1      48.251 -11.338  16.345  1.00  0.00    -0.423 OA
ENDROOT
BRANCH   1  12
ATOM     12  O   UNL     1      42.806 -10.297  16.639  1.00  0.00    -0.493 OA
ATOM     13  C   UNL     1      42.060  -9.607  15.641  1.00  0.00     0.278 C 
ENDBRANCH   1  12
BRANCH   2  14
ATOM     14  O   UNL     1      43.756 -12.660  15.468  1.00  0.00    -0.504 OA
ATOM     15  H   UNL     1      44.004 -13.633  15.343  1.00  0.00     0.293 HD
ENDBRANCH   2  14
TORSDOF 2
ENDMDL
MODEL 8
REMARK VINA RESULT:    -4.915     18.562     19.210
REMARK INTER + INTRA:          -5.411
REMARK INTER:                  -5.348
REMARK INTRA:                  -0.063
REMARK UNBOUND:                -0.065
REMARK SMILES COc1cc2ccc(=O)oc2cc1O
REMARK SMILES IDX 3 1 13 2 12 3 11 4 5 5 4 6 6 7 7 8 8 9 9 10 10 11 2 12 1 13
REMARK SMILES IDX 14 14
REMARK H PARENT 14 15
REMARK Flexibility Score: inf
ROOT
ATOM      1  C   UNL     1      52.289 -10.418  34.070  1.00  0.00     0.161 A 
ATOM      2  C   UNL     1      52.326  -9.155  33.449  1.00  0.00     0.161 A 
ATOM      3  C   UNL     1      53.553  -8.555  33.143  1.00  0.00     0.098 A 
ATOM      4  C   UNL     1      54.752  -9.202  33.450  1.00  0.00     0.142 A 
ATOM      5  C   UNL     1      54.726 -10.467  34.072  1.00  0.00     0.022 A 
ATOM      6  C   UNL     1      53.500 -11.072  34.381  1.00  0.00     0.062 A 
ATOM      7  C   UNL     1      55.944 -11.090  34.368  1.00  0.00     0.019 A 
ATOM      8  C   UNL     1      57.138 -10.448  34.041  1.00  0.00     0.094 A 
ATOM      9  C   UNL     1      57.086  -9.194  33.424  1.00  0.00     0.336 A 
ATOM     10  O   UNL     1      58.153  -8.598  33.121  1.00  0.00    -0.246 OA
ATOM     11  O   UNL     1      55.915  -8.624  33.155  1.00  0.00    -0.423 OA
ENDROOT
BRANCH   1  12
ATOM     12  O   UNL     1      51.041 -10.991  34.363  1.00  0.00    -0.493 OA
ATOM     13  C   UNL     1      50.363 -11.922  33.526  1.00  0.00     0.278 C 
ENDBRANCH   1  12
BRANCH   2  14
ATOM     14  O   UNL     1      51.150  -8.478  33.126  1.00  0.00    -0.504 OA
ATOM     15  H   UNL     1      50.814  -7.691  33.667  1.00  0.00     0.293 HD
ENDBRANCH   2  14
TORSDOF 2
ENDMDL
MODEL 9
REMARK VINA RESULT:    -4.782     18.945     20.161
REMARK INTER + INTRA:          -5.266
REMARK INTER:                  -5.201
REMARK INTRA:                  -0.065
REMARK UNBOUND:                -0.065
REMARK SMILES COc1cc2ccc(=O)oc2cc1O
REMARK SMILES IDX 3 1 13 2 12 3 11 4 5 5 4 6 6 7 7 8 8 9 9 10 10 11 2 12 1 13
REMARK SMILES IDX 14 14
REMARK H PARENT 14 15
REMARK Flexibility Score: inf
ROOT
ATOM      1  C   UNL     1      55.763 -10.212  34.009  1.00  0.00     0.161 A 
ATOM      2  C   UNL     1      55.510 -11.475  34.579  1.00  0.00     0.161 A 
ATOM      3  C   UNL     1      54.194 -11.917  34.759  1.00  0.00     0.098 A 
ATOM      4  C   UNL     1      53.119 -11.112  34.376  1.00  0.00     0.142 A 
ATOM      5  C   UNL     1      53.362  -9.845  33.804  1.00  0.00     0.022 A 
ATOM      6  C   UNL     1      54.677  -9.399  33.622  1.00  0.00     0.062 A 
ATOM      7  C   UNL     1      52.265  -9.062  33.431  1.00  0.00     0.019 A 
ATOM      8  C   UNL     1      50.975  -9.550  33.632  1.00  0.00     0.094 A 
ATOM      9  C   UNL     1      50.811 -10.816  34.204  1.00  0.00     0.336 A 
ATOM     10  O   UNL     1      49.654 -11.275  34.394  1.00  0.00    -0.246 OA
ATOM     11  O   UNL     1      51.871 -11.540  34.551  1.00  0.00    -0.423 OA
ENDROOT
BRANCH   1  12
ATOM     12  O   UNL     1      57.095  -9.800  33.843  1.00  0.00    -0.493 OA
ATOM     13  C   UNL     1      57.793  -8.942  34.740  1.00  0.00     0.278 C 
ENDBRANCH   1  12
BRANCH   2  14
ATOM     14  O   UNL     1      56.557 -12.308  34.974  1.00  0.00    -0.504 OA
ATOM     15  H   UNL     1      57.155 -12.089  35.760  1.00  0.00     0.293 HD
ENDBRANCH   2  14
TORSDOF 2
ENDMDL
