MODEL 1
REMARK VINA RESULT:    -1.262      0.000      0.000
REMARK INTER + INTRA:          -3.704
REMARK INTER:                  -2.000
REMARK INTRA:                  -1.704
REMARK UNBOUND:                -1.704
REMARK SMILES CCCCCCCCCCCC(=O)[O-]
REMARK SMILES IDX 7 1 8 2 9 3 10 4 11 5 12 6 13 7 14 8 6 9 5 10 4 11 3 12 2 13
REMARK SMILES IDX 1 14
REMARK H PARENT
REMARK Flexibility Score: inf
ROOT
ATOM      1  C   UNL     1     142.584  55.858  -9.961  1.00  0.00     0.000 C 
ENDROOT
BRANCH   1   2
ATOM      2  C   UNL     1     142.449  54.529 -10.726  1.00  0.00     0.000 C 
BRANCH   2   3
ATOM      3  C   UNL     1     141.764  53.429  -9.901  1.00  0.00     0.000 C 
BRANCH   3   4
ATOM      4  C   UNL     1     140.898  52.532 -10.794  1.00  0.00     0.006 C 
BRANCH   4   5
ATOM      5  C   UNL     1     140.711  53.152 -12.181  1.00  0.00     0.053 C 
BRANCH   5   6
ATOM      6  C   UNL     1     139.301  52.977 -12.647  1.00  0.00     0.041 C 
ATOM      7  O   UNL     1     138.584  52.060 -12.167  1.00  0.00    -0.550 OA
ATOM      8  O   UNL     1     138.793  53.797 -13.646  1.00  0.00    -0.550 OA
ENDBRANCH   5   6
ENDBRANCH   4   5
ENDBRANCH   3   4
ENDBRANCH   2   3
ENDBRANCH   1   2
BRANCH   1   9
ATOM      9  C   UNL     1     141.927  57.073 -10.641  1.00  0.00     0.000 C 
BRANCH   9  10
ATOM     10  C   UNL     1     141.317  56.735 -12.012  1.00  0.00    -0.000 C 
BRANCH  10  11
ATOM     11  C   UNL     1     139.779  56.767 -11.996  1.00  0.00    -0.000 C 
BRANCH  11  12
ATOM     12  C   UNL     1     139.207  56.918 -10.576  1.00  0.00    -0.000 C 
BRANCH  12  13
ATOM     13  C   UNL     1     138.735  55.579  -9.987  1.00  0.00    -0.003 C 
ATOM     14  C   UNL     1     139.028  55.452  -8.492  1.00  0.00     0.004 C 
ENDBRANCH  12  13
ENDBRANCH  11  12
ENDBRANCH  10  11
ENDBRANCH   9  10
ENDBRANCH   1   9
TORSDOF 10
ENDMDL
MODEL 2
REMARK VINA RESULT:    -1.242      3.001      3.919
REMARK INTER + INTRA:          -3.673
REMARK INTER:                  -2.035
REMARK INTRA:                  -1.639
REMARK UNBOUND:                -1.704
REMARK SMILES CCCCCCCCCCCC(=O)[O-]
REMARK SMILES IDX 7 1 8 2 9 3 10 4 11 5 12 6 13 7 14 8 6 9 5 10 4 11 3 12 2 13
REMARK SMILES IDX 1 14
REMARK H PARENT
REMARK Flexibility Score: inf
ROOT
ATOM      1  C   UNL     1     139.488  54.335 -12.587  1.00  0.00     0.000 C 
ENDROOT
BRANCH   1   2
ATOM      2  C   UNL     1     140.078  53.216 -11.709  1.00  0.00     0.000 C 
BRANCH   2   3
ATOM      3  C   UNL     1     139.491  53.194 -10.290  1.00  0.00     0.000 C 
BRANCH   3   4
ATOM      4  C   UNL     1     140.578  53.465  -9.242  1.00  0.00     0.006 C 
BRANCH   4   5
ATOM      5  C   UNL     1     139.976  53.556  -7.837  1.00  0.00     0.053 C 
BRANCH   5   6
ATOM      6  C   UNL     1     140.684  54.599  -7.031  1.00  0.00     0.041 C 
ATOM      7  O   UNL     1     140.026  55.481  -6.418  1.00  0.00    -0.550 OA
ATOM      8  O   UNL     1     142.072  54.626  -6.996  1.00  0.00    -0.550 OA
ENDBRANCH   5   6
ENDBRANCH   4   5
ENDBRANCH   3   4
ENDBRANCH   2   3
ENDBRANCH   1   2
BRANCH   1   9
ATOM      9  C   UNL     1     140.481  55.439 -12.992  1.00  0.00     0.000 C 
BRANCH   9  10
ATOM     10  C   UNL     1     140.267  56.751 -12.220  1.00  0.00    -0.000 C 
BRANCH  10  11
ATOM     11  C   UNL     1     141.031  56.783 -10.885  1.00  0.00    -0.000 C 
BRANCH  11  12
ATOM     12  C   UNL     1     140.121  57.125  -9.692  1.00  0.00    -0.000 C 
BRANCH  12  13
ATOM     13  C   UNL     1     138.632  57.125 -10.071  1.00  0.00    -0.003 C 
ATOM     14  C   UNL     1     137.770  56.331  -9.089  1.00  0.00     0.004 C 
ENDBRANCH  12  13
ENDBRANCH  11  12
ENDBRANCH  10  11
ENDBRANCH   9  10
ENDBRANCH   1   9
TORSDOF 10
ENDMDL
MODEL 3
REMARK VINA RESULT:    -1.188      1.744      2.352
REMARK INTER + INTRA:          -3.586
REMARK INTER:                  -2.223
REMARK INTRA:                  -1.363
REMARK UNBOUND:                -1.704
REMARK SMILES CCCCCCCCCCCC(=O)[O-]
REMARK SMILES IDX 7 1 8 2 9 3 10 4 11 5 12 6 13 7 14 8 6 9 5 10 4 11 3 12 2 13
REMARK SMILES IDX 1 14
REMARK H PARENT
REMARK Flexibility Score: inf
ROOT
ATOM      1  C   UNL     1     142.677  55.096 -13.019  1.00  0.00     0.000 C 
ENDROOT
BRANCH   1   2
ATOM      2  C   UNL     1     141.694  54.218 -13.815  1.00  0.00     0.000 C 
BRANCH   2   3
ATOM      3  C   UNL     1     140.855  53.294 -12.920  1.00  0.00     0.000 C 
BRANCH   3   4
ATOM      4  C   UNL     1     139.377  53.331 -13.325  1.00  0.00     0.006 C 
BRANCH   4   5
ATOM      5  C   UNL     1     138.994  52.082 -14.124  1.00  0.00     0.053 C 
BRANCH   5   6
ATOM      6  C   UNL     1     138.027  51.242 -13.351  1.00  0.00     0.041 C 
ATOM      7  O   UNL     1     138.070  51.223 -12.093  1.00  0.00    -0.550 OA
ATOM      8  O   UNL     1     137.109  50.444 -14.022  1.00  0.00    -0.550 OA
ENDBRANCH   5   6
ENDBRANCH   4   5
ENDBRANCH   3   4
ENDBRANCH   2   3
ENDBRANCH   1   2
BRANCH   1   9
ATOM      9  C   UNL     1     142.082  56.398 -12.455  1.00  0.00     0.000 C 
BRANCH   9  10
ATOM     10  C   UNL     1     140.920  56.943 -13.303  1.00  0.00    -0.000 C 
BRANCH  10  11
ATOM     11  C   UNL     1     139.583  56.940 -12.542  1.00  0.00    -0.000 C 
BRANCH  11  12
ATOM     12  C   UNL     1     139.773  56.845 -11.018  1.00  0.00    -0.000 C 
BRANCH  12  13
ATOM     13  C   UNL     1     139.120  55.589 -10.421  1.00  0.00    -0.003 C 
ATOM     14  C   UNL     1     140.100  54.737  -9.615  1.00  0.00     0.004 C 
ENDBRANCH  12  13
ENDBRANCH  11  12
ENDBRANCH  10  11
ENDBRANCH   9  10
ENDBRANCH   1   9
TORSDOF 10
ENDMDL
MODEL 4
REMARK VINA RESULT:    -1.173      2.184      4.379
REMARK INTER + INTRA:          -3.563
REMARK INTER:                  -1.955
REMARK INTRA:                  -1.608
REMARK UNBOUND:                -1.704
REMARK SMILES CCCCCCCCCCCC(=O)[O-]
REMARK SMILES IDX 7 1 8 2 9 3 10 4 11 5 12 6 13 7 14 8 6 9 5 10 4 11 3 12 2 13
REMARK SMILES IDX 1 14
REMARK H PARENT
REMARK Flexibility Score: inf
ROOT
ATOM      1  C   UNL     1     140.699  56.093 -12.665  1.00  0.00     0.000 C 
ENDROOT
BRANCH   1   2
ATOM      2  C   UNL     1     140.578  56.781 -11.293  1.00  0.00     0.000 C 
BRANCH   2   3
ATOM      3  C   UNL     1     139.122  56.971 -10.843  1.00  0.00     0.000 C 
BRANCH   3   4
ATOM      4  C   UNL     1     139.032  57.125  -9.320  1.00  0.00     0.006 C 
BRANCH   4   5
ATOM      5  C   UNL     1     139.221  55.776  -8.620  1.00  0.00     0.053 C 
BRANCH   5   6
ATOM      6  C   UNL     1     137.899  55.119  -8.384  1.00  0.00     0.041 C 
ATOM      7  O   UNL     1     136.838  55.795  -8.433  1.00  0.00    -0.550 OA
ATOM      8  O   UNL     1     137.841  53.769  -8.062  1.00  0.00    -0.550 OA
ENDBRANCH   5   6
ENDBRANCH   4   5
ENDBRANCH   3   4
ENDBRANCH   2   3
ENDBRANCH   1   2
BRANCH   1   9
ATOM      9  C   UNL     1     139.637  55.017 -12.953  1.00  0.00     0.000 C 
BRANCH   9  10
ATOM     10  C   UNL     1     140.086  53.605 -12.539  1.00  0.00    -0.000 C 
BRANCH  10  11
ATOM     11  C   UNL     1     139.447  53.146 -11.217  1.00  0.00    -0.000 C 
BRANCH  11  12
ATOM     12  C   UNL     1     140.487  52.622 -10.211  1.00  0.00    -0.000 C 
BRANCH  12  13
ATOM     13  C   UNL     1     141.916  53.071 -10.555  1.00  0.00    -0.003 C 
ATOM     14  C   UNL     1     142.454  54.128  -9.590  1.00  0.00     0.004 C 
ENDBRANCH  12  13
ENDBRANCH  11  12
ENDBRANCH  10  11
ENDBRANCH   9  10
ENDBRANCH   1   9
TORSDOF 10
ENDMDL
MODEL 5
REMARK VINA RESULT:    -1.170      2.744      4.388
REMARK INTER + INTRA:          -3.559
REMARK INTER:                  -1.899
REMARK INTRA:                  -1.660
REMARK UNBOUND:                -1.704
REMARK SMILES CCCCCCCCCCCC(=O)[O-]
REMARK SMILES IDX 7 1 8 2 9 3 10 4 11 5 12 6 13 7 14 8 6 9 5 10 4 11 3 12 2 13
REMARK SMILES IDX 1 14
REMARK H PARENT
REMARK Flexibility Score: inf
ROOT
ATOM      1  C   UNL     1     139.898  56.320 -12.823  1.00  0.00     0.000 C 
ENDROOT
BRANCH   1   2
ATOM      2  C   UNL     1     139.498  54.833 -12.838  1.00  0.00     0.000 C 
BRANCH   2   3
ATOM      3  C   UNL     1     139.866  54.099 -11.540  1.00  0.00     0.000 C 
BRANCH   3   4
ATOM      4  C   UNL     1     139.231  54.783 -10.323  1.00  0.00     0.006 C 
BRANCH   4   5
ATOM      5  C   UNL     1     140.149  54.694  -9.101  1.00  0.00     0.053 C 
BRANCH   5   6
ATOM      6  C   UNL     1     140.768  56.025  -8.814  1.00  0.00     0.041 C 
ATOM      7  O   UNL     1     140.214  57.082  -9.218  1.00  0.00    -0.550 OA
ATOM      8  O   UNL     1     141.982  56.097  -8.143  1.00  0.00    -0.550 OA
ENDBRANCH   5   6
ENDBRANCH   4   5
ENDBRANCH   3   4
ENDBRANCH   2   3
ENDBRANCH   1   2
BRANCH   1   9
ATOM      9  C   UNL     1     141.334  56.616 -13.292  1.00  0.00     0.000 C 
BRANCH   9  10
ATOM     10  C   UNL     1     142.242  57.125 -12.159  1.00  0.00    -0.000 C 
BRANCH  10  11
ATOM     11  C   UNL     1     143.133  56.016 -11.574  1.00  0.00    -0.000 C 
BRANCH  11  12
ATOM     12  C   UNL     1     143.324  54.839 -12.546  1.00  0.00    -0.000 C 
BRANCH  12  13
ATOM     13  C   UNL     1     143.804  53.563 -11.837  1.00  0.00    -0.003 C 
ATOM     14  C   UNL     1     143.383  53.506 -10.369  1.00  0.00     0.004 C 
ENDBRANCH  12  13
ENDBRANCH  11  12
ENDBRANCH  10  11
ENDBRANCH   9  10
ENDBRANCH   1   9
TORSDOF 10
ENDMDL
MODEL 6
REMARK VINA RESULT:    -1.133      2.931      4.134
REMARK INTER + INTRA:          -3.500
REMARK INTER:                  -1.797
REMARK INTRA:                  -1.703
REMARK UNBOUND:                -1.704
REMARK SMILES CCCCCCCCCCCC(=O)[O-]
REMARK SMILES IDX 7 1 8 2 9 3 10 4 11 5 12 6 13 7 14 8 6 9 5 10 4 11 3 12 2 13
REMARK SMILES IDX 1 14
REMARK H PARENT
REMARK Flexibility Score: inf
ROOT
ATOM      1  C   UNL     1     139.457  53.215 -10.871  1.00  0.00     0.000 C 
ENDROOT
BRANCH   1   2
ATOM      2  C   UNL     1     140.568  52.965  -9.835  1.00  0.00     0.000 C 
BRANCH   2   3
ATOM      3  C   UNL     1     141.974  52.951 -10.453  1.00  0.00     0.000 C 
BRANCH   3   4
ATOM      4  C   UNL     1     142.762  54.204 -10.054  1.00  0.00     0.006 C 
BRANCH   4   5
ATOM      5  C   UNL     1     142.258  54.771  -8.724  1.00  0.00     0.053 C 
BRANCH   5   6
ATOM      6  C   UNL     1     142.528  56.240  -8.646  1.00  0.00     0.041 C 
ATOM      7  O   UNL     1     143.349  56.776  -9.436  1.00  0.00    -0.550 OA
ATOM      8  O   UNL     1     141.909  57.009  -7.669  1.00  0.00    -0.550 OA
ENDBRANCH   5   6
ENDBRANCH   4   5
ENDBRANCH   3   4
ENDBRANCH   2   3
ENDBRANCH   1   2
BRANCH   1   9
ATOM      9  C   UNL     1     139.934  53.304 -12.332  1.00  0.00     0.000 C 
BRANCH   9  10
ATOM     10  C   UNL     1     139.614  54.659 -12.986  1.00  0.00    -0.000 C 
BRANCH  10  11
ATOM     11  C   UNL     1     140.830  55.602 -13.013  1.00  0.00    -0.000 C 
BRANCH  11  12
ATOM     12  C   UNL     1     140.752  56.695 -11.932  1.00  0.00    -0.000 C 
BRANCH  12  13
ATOM     13  C   UNL     1     139.312  56.954 -11.462  1.00  0.00    -0.003 C 
ATOM     14  C   UNL     1     139.146  56.802  -9.949  1.00  0.00     0.004 C 
ENDBRANCH  12  13
ENDBRANCH  11  12
ENDBRANCH  10  11
ENDBRANCH   9  10
ENDBRANCH   1   9
TORSDOF 10
ENDMDL
MODEL 7
REMARK VINA RESULT:    -1.094      2.032      4.199
REMARK INTER + INTRA:          -3.438
REMARK INTER:                  -1.786
REMARK INTRA:                  -1.652
REMARK UNBOUND:                -1.704
REMARK SMILES CCCCCCCCCCCC(=O)[O-]
REMARK SMILES IDX 7 1 8 2 9 3 10 4 11 5 12 6 13 7 14 8 6 9 5 10 4 11 3 12 2 13
REMARK SMILES IDX 1 14
REMARK H PARENT
REMARK Flexibility Score: inf
ROOT
ATOM      1  C   UNL     1     139.859  55.309  -8.349  1.00  0.00     0.000 C 
ENDROOT
BRANCH   1   2
ATOM      2  C   UNL     1     139.428  56.671  -8.923  1.00  0.00     0.000 C 
BRANCH   2   3
ATOM      3  C   UNL     1     138.969  56.588 -10.386  1.00  0.00     0.000 C 
BRANCH   3   4
ATOM      4  C   UNL     1     140.152  56.771 -11.344  1.00  0.00     0.006 C 
BRANCH   4   5
ATOM      5  C   UNL     1     140.037  55.831 -12.547  1.00  0.00     0.053 C 
BRANCH   5   6
ATOM      6  C   UNL     1     141.276  55.894 -13.381  1.00  0.00     0.041 C 
ATOM      7  O   UNL     1     141.844  54.834 -13.754  1.00  0.00    -0.550 OA
ATOM      8  O   UNL     1     141.833  57.124 -13.707  1.00  0.00    -0.550 OA
ENDBRANCH   5   6
ENDBRANCH   4   5
ENDBRANCH   3   4
ENDBRANCH   2   3
ENDBRANCH   1   2
BRANCH   1   9
ATOM      9  C   UNL     1     139.294  54.081  -9.085  1.00  0.00     0.000 C 
BRANCH   9  10
ATOM     10  C   UNL     1     140.381  53.254  -9.794  1.00  0.00    -0.000 C 
BRANCH  10  11
ATOM     11  C   UNL     1     141.798  53.602  -9.307  1.00  0.00    -0.000 C 
BRANCH  11  12
ATOM     12  C   UNL     1     142.753  53.938 -10.466  1.00  0.00    -0.000 C 
BRANCH  12  13
ATOM     13  C   UNL     1     143.415  55.315 -10.302  1.00  0.00    -0.003 C 
ATOM     14  C   UNL     1     143.441  55.791  -8.850  1.00  0.00     0.004 C 
ENDBRANCH  12  13
ENDBRANCH  11  12
ENDBRANCH  10  11
ENDBRANCH   9  10
ENDBRANCH   1   9
TORSDOF 10
ENDMDL
MODEL 8
REMARK VINA RESULT:     0.783      2.860      4.292
REMARK INTER + INTRA:          -0.463
REMARK INTER:                   1.170
REMARK INTRA:                  -1.633
REMARK UNBOUND:                -1.704
REMARK SMILES CCCCCCCCCCCC(=O)[O-]
REMARK SMILES IDX 7 1 8 2 9 3 10 4 11 5 12 6 13 7 14 8 6 9 5 10 4 11 3 12 2 13
REMARK SMILES IDX 1 14
REMARK H PARENT
REMARK Flexibility Score: inf
ROOT
ATOM      1  C   UNL     1     140.494  55.733  -9.361  1.00  0.00     0.000 C 
ENDROOT
BRANCH   1   2
ATOM      2  C   UNL     1     141.170  57.079  -9.043  1.00  0.00     0.000 C 
BRANCH   2   3
ATOM      3  C   UNL     1     142.645  57.125  -9.467  1.00  0.00     0.000 C 
BRANCH   3   4
ATOM      4  C   UNL     1     142.953  56.038 -10.504  1.00  0.00     0.006 C 
BRANCH   4   5
ATOM      5  C   UNL     1     143.446  56.654 -11.817  1.00  0.00     0.053 C 
BRANCH   5   6
ATOM      6  C   UNL     1     144.472  55.774 -12.455  1.00  0.00     0.041 C 
ATOM      7  O   UNL     1     144.615  54.584 -12.068  1.00  0.00    -0.550 OA
ATOM      8  O   UNL     1     145.304  56.280 -13.445  1.00  0.00    -0.550 OA
ENDBRANCH   5   6
ENDBRANCH   4   5
ENDBRANCH   3   4
ENDBRANCH   2   3
ENDBRANCH   1   2
BRANCH   1   9
ATOM      9  C   UNL     1     139.238  55.826 -10.246  1.00  0.00     0.000 C 
BRANCH   9  10
ATOM     10  C   UNL     1     139.298  56.987 -11.253  1.00  0.00    -0.000 C 
BRANCH  10  11
ATOM     11  C   UNL     1     139.815  56.545 -12.633  1.00  0.00    -0.000 C 
BRANCH  11  12
ATOM     12  C   UNL     1     139.653  55.032 -12.866  1.00  0.00    -0.000 C 
BRANCH  12  13
ATOM     13  C   UNL     1     140.982  54.346 -13.216  1.00  0.00    -0.003 C 
ATOM     14  C   UNL     1     141.288  53.151 -12.313  1.00  0.00     0.004 C 
ENDBRANCH  12  13
ENDBRANCH  11  12
ENDBRANCH  10  11
ENDBRANCH   9  10
ENDBRANCH   1   9
TORSDOF 10
ENDMDL
