MODEL 1
REMARK VINA RESULT:    -3.468      0.000      0.000
REMARK INTER + INTRA:         -11.677
REMARK INTER:                  -7.927
REMARK INTRA:                  -3.750
REMARK UNBOUND:                -3.750
REMARK SMILES CCCCCCCCCCCCCCCCCCCCCCCC(=O)[O-]
REMARK SMILES IDX 13 1 14 2 15 3 16 4 17 5 18 6 19 7 20 8 21 9 22 10 23 11
REMARK SMILES IDX 24 12 25 13 26 14 12 15 11 16 10 17 9 18 8 19 7 20 6 21 5 22
REMARK SMILES IDX 4 23 3 24 2 25 1 26
REMARK H PARENT
REMARK Flexibility Score: inf
ROOT
ATOM      1  C   UNL     1      52.288  35.003  87.829  1.00  0.00     0.000 C 
ENDROOT
BRANCH   1   2
ATOM      2  C   UNL     1      50.880  34.456  88.120  1.00  0.00     0.000 C 
BRANCH   2   3
ATOM      3  C   UNL     1      49.747  35.444  87.766  1.00  0.00     0.000 C 
BRANCH   3   4
ATOM      4  C   UNL     1      48.430  34.726  87.424  1.00  0.00     0.000 C 
BRANCH   4   5
ATOM      5  C   UNL     1      48.642  33.535  86.463  1.00  0.00     0.000 C 
BRANCH   5   6
ATOM      6  C   UNL     1      48.135  32.193  87.021  1.00  0.00     0.000 C 
BRANCH   6   7
ATOM      7  C   UNL     1      47.773  32.206  88.518  1.00  0.00     0.000 C 
BRANCH   7   8
ATOM      8  C   UNL     1      48.772  31.482  89.438  1.00  0.00     0.000 C 
BRANCH   8   9
ATOM      9  C   UNL     1      48.095  30.550  90.453  1.00  0.00     0.000 C 
BRANCH   9  10
ATOM     10  C   UNL     1      46.828  31.194  91.026  1.00  0.00     0.006 C 
BRANCH  10  11
ATOM     11  C   UNL     1      45.821  30.131  91.473  1.00  0.00     0.053 C 
BRANCH  11  12
ATOM     12  C   UNL     1      44.436  30.695  91.497  1.00  0.00     0.041 C 
ATOM     13  O   UNL     1      44.044  31.455  90.572  1.00  0.00    -0.550 OA
ATOM     14  O   UNL     1      43.587  30.409  92.558  1.00  0.00    -0.550 OA
ENDBRANCH  11  12
ENDBRANCH  10  11
ENDBRANCH   9  10
ENDBRANCH   8   9
ENDBRANCH   7   8
ENDBRANCH   6   7
ENDBRANCH   5   6
ENDBRANCH   4   5
ENDBRANCH   3   4
ENDBRANCH   2   3
ENDBRANCH   1   2
BRANCH   1  15
ATOM     15  C   UNL     1      52.988  34.267  86.675  1.00  0.00     0.000 C 
BRANCH  15  16
ATOM     16  C   UNL     1      52.131  34.239  85.392  1.00  0.00     0.000 C 
BRANCH  16  17
ATOM     17  C   UNL     1      52.351  32.983  84.533  1.00  0.00     0.000 C 
BRANCH  17  18
ATOM     18  C   UNL     1      52.954  31.814  85.333  1.00  0.00    -0.000 C 
BRANCH  18  19
ATOM     19  C   UNL     1      51.892  30.792  85.771  1.00  0.00    -0.000 C 
BRANCH  19  20
ATOM     20  C   UNL     1      51.529  30.917  87.260  1.00  0.00    -0.000 C 
BRANCH  20  21
ATOM     21  C   UNL     1      52.637  30.391  88.187  1.00  0.00    -0.000 C 
BRANCH  21  22
ATOM     22  C   UNL     1      52.389  30.726  89.665  1.00  0.00    -0.000 C 
BRANCH  22  23
ATOM     23  C   UNL     1      52.972  32.098  90.023  1.00  0.00    -0.000 C 
BRANCH  23  24
ATOM     24  C   UNL     1      52.714  32.438  91.498  1.00  0.00    -0.000 C 
BRANCH  24  25
ATOM     25  C   UNL     1      51.828  31.396  92.197  1.00  0.00    -0.003 C 
ATOM     26  C   UNL     1      50.712  32.029  93.026  1.00  0.00     0.004 C 
ENDBRANCH  24  25
ENDBRANCH  23  24
ENDBRANCH  22  23
ENDBRANCH  21  22
ENDBRANCH  20  21
ENDBRANCH  19  20
ENDBRANCH  18  19
ENDBRANCH  17  18
ENDBRANCH  16  17
ENDBRANCH  15  16
ENDBRANCH   1  15
TORSDOF 22
ENDMDL
MODEL 2
REMARK VINA RESULT:    -3.460      1.289      4.373
REMARK INTER + INTRA:         -11.661
REMARK INTER:                  -7.684
REMARK INTRA:                  -3.977
REMARK UNBOUND:                -3.750
REMARK SMILES CCCCCCCCCCCCCCCCCCCCCCCC(=O)[O-]
REMARK SMILES IDX 13 1 14 2 15 3 16 4 17 5 18 6 19 7 20 8 21 9 22 10 23 11
REMARK SMILES IDX 24 12 25 13 26 14 12 15 11 16 10 17 9 18 8 19 7 20 6 21 5 22
REMARK SMILES IDX 4 23 3 24 2 25 1 26
REMARK H PARENT
REMARK Flexibility Score: inf
ROOT
ATOM      1  C   UNL     1      53.470  33.752  87.308  1.00  0.00     0.000 C 
ENDROOT
BRANCH   1   2
ATOM      2  C   UNL     1      53.496  33.583  88.837  1.00  0.00     0.000 C 
BRANCH   2   3
ATOM      3  C   UNL     1      53.046  32.185  89.313  1.00  0.00     0.000 C 
BRANCH   3   4
ATOM      4  C   UNL     1      52.898  32.107  90.843  1.00  0.00     0.000 C 
BRANCH   4   5
ATOM      5  C   UNL     1      51.467  31.717  91.276  1.00  0.00     0.000 C 
BRANCH   5   6
ATOM      6  C   UNL     1      50.445  31.740  90.124  1.00  0.00     0.000 C 
BRANCH   6   7
ATOM      7  C   UNL     1      49.184  30.887  90.358  1.00  0.00     0.000 C 
BRANCH   7   8
ATOM      8  C   UNL     1      48.161  30.906  89.208  1.00  0.00     0.000 C 
BRANCH   8   9
ATOM      9  C   UNL     1      46.900  31.720  89.534  1.00  0.00     0.000 C 
BRANCH   9  10
ATOM     10  C   UNL     1      46.302  31.287  90.876  1.00  0.00     0.006 C 
BRANCH  10  11
ATOM     11  C   UNL     1      44.871  30.770  90.703  1.00  0.00     0.053 C 
BRANCH  11  12
ATOM     12  C   UNL     1      44.114  30.875  91.989  1.00  0.00     0.041 C 
ATOM     13  O   UNL     1      43.176  30.072  92.241  1.00  0.00    -0.550 OA
ATOM     14  O   UNL     1      44.421  31.881  92.896  1.00  0.00    -0.550 OA
ENDBRANCH  11  12
ENDBRANCH  10  11
ENDBRANCH   9  10
ENDBRANCH   8   9
ENDBRANCH   7   8
ENDBRANCH   6   7
ENDBRANCH   5   6
ENDBRANCH   4   5
ENDBRANCH   3   4
ENDBRANCH   2   3
ENDBRANCH   1   2
BRANCH   1  15
ATOM     15  C   UNL     1      52.469  34.821  86.842  1.00  0.00     0.000 C 
BRANCH  15  16
ATOM     16  C   UNL     1      51.742  35.498  88.024  1.00  0.00     0.000 C 
BRANCH  16  17
ATOM     17  C   UNL     1      50.209  35.412  87.932  1.00  0.00     0.000 C 
BRANCH  17  18
ATOM     18  C   UNL     1      49.708  33.985  87.651  1.00  0.00    -0.000 C 
BRANCH  18  19
ATOM     19  C   UNL     1      48.349  33.970  86.931  1.00  0.00    -0.000 C 
BRANCH  19  20
ATOM     20  C   UNL     1      48.434  33.360  85.521  1.00  0.00    -0.000 C 
BRANCH  20  21
ATOM     21  C   UNL     1      49.180  34.266  84.527  1.00  0.00    -0.000 C 
BRANCH  21  22
ATOM     22  C   UNL     1      50.502  33.655  84.039  1.00  0.00    -0.000 C 
BRANCH  22  23
ATOM     23  C   UNL     1      50.473  32.125  84.146  1.00  0.00    -0.000 C 
BRANCH  23  24
ATOM     24  C   UNL     1      51.686  31.606  84.931  1.00  0.00    -0.000 C 
BRANCH  24  25
ATOM     25  C   UNL     1      51.291  30.959  86.267  1.00  0.00    -0.003 C 
ATOM     26  C   UNL     1      50.039  30.091  86.155  1.00  0.00     0.004 C 
ENDBRANCH  24  25
ENDBRANCH  23  24
ENDBRANCH  22  23
ENDBRANCH  21  22
ENDBRANCH  20  21
ENDBRANCH  19  20
ENDBRANCH  18  19
ENDBRANCH  17  18
ENDBRANCH  16  17
ENDBRANCH  15  16
ENDBRANCH   1  15
TORSDOF 22
ENDMDL
MODEL 3
REMARK VINA RESULT:    -3.451      2.869      5.453
REMARK INTER + INTRA:         -11.638
REMARK INTER:                  -6.952
REMARK INTRA:                  -4.686
REMARK UNBOUND:                -3.750
REMARK SMILES CCCCCCCCCCCCCCCCCCCCCCCC(=O)[O-]
REMARK SMILES IDX 13 1 14 2 15 3 16 4 17 5 18 6 19 7 20 8 21 9 22 10 23 11
REMARK SMILES IDX 24 12 25 13 26 14 12 15 11 16 10 17 9 18 8 19 7 20 6 21 5 22
REMARK SMILES IDX 4 23 3 24 2 25 1 26
REMARK H PARENT
REMARK Flexibility Score: inf
ROOT
ATOM      1  C   UNL     1      49.023  31.411  87.604  1.00  0.00     0.000 C 
ENDROOT
BRANCH   1   2
ATOM      2  C   UNL     1      47.601  31.097  87.108  1.00  0.00     0.000 C 
BRANCH   2   3
ATOM      3  C   UNL     1      46.572  30.929  88.247  1.00  0.00     0.000 C 
BRANCH   3   4
ATOM      4  C   UNL     1      46.858  31.861  89.437  1.00  0.00     0.000 C 
BRANCH   4   5
ATOM      5  C   UNL     1      46.302  31.303  90.767  1.00  0.00     0.000 C 
BRANCH   5   6
ATOM      6  C   UNL     1      46.451  29.777  90.908  1.00  0.00     0.000 C 
BRANCH   6   7
ATOM      7  C   UNL     1      47.802  29.306  91.479  1.00  0.00     0.000 C 
BRANCH   7   8
ATOM      8  C   UNL     1      48.842  28.883  90.427  1.00  0.00     0.000 C 
BRANCH   8   9
ATOM      9  C   UNL     1      50.200  29.578  90.605  1.00  0.00     0.000 C 
BRANCH   9  10
ATOM     10  C   UNL     1      50.027  30.958  91.247  1.00  0.00     0.006 C 
BRANCH  10  11
ATOM     11  C   UNL     1      50.872  31.086  92.518  1.00  0.00     0.053 C 
BRANCH  11  12
ATOM     12  C   UNL     1      52.269  31.501  92.182  1.00  0.00     0.041 C 
ATOM     13  O   UNL     1      52.477  32.549  91.513  1.00  0.00    -0.550 OA
ATOM     14  O   UNL     1      53.343  30.713  92.577  1.00  0.00    -0.550 OA
ENDBRANCH  11  12
ENDBRANCH  10  11
ENDBRANCH   9  10
ENDBRANCH   8   9
ENDBRANCH   7   8
ENDBRANCH   6   7
ENDBRANCH   5   6
ENDBRANCH   4   5
ENDBRANCH   3   4
ENDBRANCH   2   3
ENDBRANCH   1   2
BRANCH   1  15
ATOM     15  C   UNL     1      50.089  30.496  86.980  1.00  0.00     0.000 C 
BRANCH  15  16
ATOM     16  C   UNL     1      51.513  30.839  87.467  1.00  0.00     0.000 C 
BRANCH  16  17
ATOM     17  C   UNL     1      51.641  32.261  88.038  1.00  0.00     0.000 C 
BRANCH  17  18
ATOM     18  C   UNL     1      53.088  32.784  88.014  1.00  0.00    -0.000 C 
BRANCH  18  19
ATOM     19  C   UNL     1      53.283  33.930  87.007  1.00  0.00    -0.000 C 
BRANCH  19  20
ATOM     20  C   UNL     1      53.507  33.424  85.572  1.00  0.00    -0.000 C 
BRANCH  20  21
ATOM     21  C   UNL     1      52.418  33.901  84.598  1.00  0.00    -0.000 C 
BRANCH  21  22
ATOM     22  C   UNL     1      51.373  32.817  84.294  1.00  0.00    -0.000 C 
BRANCH  22  23
ATOM     23  C   UNL     1      49.953  33.332  84.565  1.00  0.00    -0.000 C 
BRANCH  23  24
ATOM     24  C   UNL     1      49.964  34.440  85.628  1.00  0.00    -0.000 C 
BRANCH  24  25
ATOM     25  C   UNL     1      48.604  34.604  86.322  1.00  0.00    -0.003 C 
ATOM     26  C   UNL     1      48.732  35.107  87.759  1.00  0.00     0.004 C 
ENDBRANCH  24  25
ENDBRANCH  23  24
ENDBRANCH  22  23
ENDBRANCH  21  22
ENDBRANCH  20  21
ENDBRANCH  19  20
ENDBRANCH  18  19
ENDBRANCH  17  18
ENDBRANCH  16  17
ENDBRANCH  15  16
ENDBRANCH   1  15
TORSDOF 22
ENDMDL
MODEL 4
REMARK VINA RESULT:    -3.426      3.509      6.012
REMARK INTER + INTRA:         -11.583
REMARK INTER:                  -6.889
REMARK INTRA:                  -4.693
REMARK UNBOUND:                -3.750
REMARK SMILES CCCCCCCCCCCCCCCCCCCCCCCC(=O)[O-]
REMARK SMILES IDX 13 1 14 2 15 3 16 4 17 5 18 6 19 7 20 8 21 9 22 10 23 11
REMARK SMILES IDX 24 12 25 13 26 14 12 15 11 16 10 17 9 18 8 19 7 20 6 21 5 22
REMARK SMILES IDX 4 23 3 24 2 25 1 26
REMARK H PARENT
REMARK Flexibility Score: inf
ROOT
ATOM      1  C   UNL     1      53.127  33.519  86.621  1.00  0.00     0.000 C 
ENDROOT
BRANCH   1   2
ATOM      2  C   UNL     1      52.085  34.652  86.615  1.00  0.00     0.000 C 
BRANCH   2   3
ATOM      3  C   UNL     1      51.145  34.633  87.839  1.00  0.00     0.000 C 
BRANCH   3   4
ATOM      4  C   UNL     1      49.866  35.457  87.607  1.00  0.00     0.000 C 
BRANCH   4   5
ATOM      5  C   UNL     1      48.583  34.614  87.783  1.00  0.00     0.000 C 
BRANCH   5   6
ATOM      6  C   UNL     1      48.851  33.105  87.931  1.00  0.00     0.000 C 
BRANCH   6   7
ATOM      7  C   UNL     1      48.183  32.218  86.863  1.00  0.00     0.000 C 
BRANCH   7   8
ATOM      8  C   UNL     1      49.150  31.346  86.042  1.00  0.00     0.000 C 
BRANCH   8   9
ATOM      9  C   UNL     1      49.983  32.150  85.034  1.00  0.00     0.000 C 
BRANCH   9  10
ATOM     10  C   UNL     1      49.116  33.185  84.311  1.00  0.00     0.006 C 
BRANCH  10  11
ATOM     11  C   UNL     1      49.979  34.260  83.644  1.00  0.00     0.053 C 
BRANCH  11  12
ATOM     12  C   UNL     1      49.778  34.253  82.162  1.00  0.00     0.041 C 
ATOM     13  O   UNL     1      48.678  33.880  81.672  1.00  0.00    -0.550 OA
ATOM     14  O   UNL     1      50.815  34.625  81.317  1.00  0.00    -0.550 OA
ENDBRANCH  11  12
ENDBRANCH  10  11
ENDBRANCH   9  10
ENDBRANCH   8   9
ENDBRANCH   7   8
ENDBRANCH   6   7
ENDBRANCH   5   6
ENDBRANCH   4   5
ENDBRANCH   3   4
ENDBRANCH   2   3
ENDBRANCH   1   2
BRANCH   1  15
ATOM     15  C   UNL     1      53.097  32.687  87.913  1.00  0.00     0.000 C 
BRANCH  15  16
ATOM     16  C   UNL     1      52.597  31.246  87.670  1.00  0.00     0.000 C 
BRANCH  16  17
ATOM     17  C   UNL     1      51.627  30.743  88.751  1.00  0.00     0.000 C 
BRANCH  17  18
ATOM     18  C   UNL     1      51.543  31.688  89.963  1.00  0.00    -0.000 C 
BRANCH  18  19
ATOM     19  C   UNL     1      51.350  30.931  91.287  1.00  0.00    -0.000 C 
BRANCH  19  20
ATOM     20  C   UNL     1      51.027  29.441  91.075  1.00  0.00    -0.000 C 
BRANCH  20  21
ATOM     21  C   UNL     1      49.646  29.050  91.623  1.00  0.00    -0.000 C 
BRANCH  21  22
ATOM     22  C   UNL     1      48.677  28.587  90.524  1.00  0.00    -0.000 C 
BRANCH  22  23
ATOM     23  C   UNL     1      48.111  29.785  89.751  1.00  0.00    -0.000 C 
BRANCH  23  24
ATOM     24  C   UNL     1      47.605  30.870  90.712  1.00  0.00    -0.000 C 
BRANCH  24  25
ATOM     25  C   UNL     1      46.324  31.552  90.210  1.00  0.00    -0.003 C 
ATOM     26  C   UNL     1      45.612  30.746  89.124  1.00  0.00     0.004 C 
ENDBRANCH  24  25
ENDBRANCH  23  24
ENDBRANCH  22  23
ENDBRANCH  21  22
ENDBRANCH  20  21
ENDBRANCH  19  20
ENDBRANCH  18  19
ENDBRANCH  17  18
ENDBRANCH  16  17
ENDBRANCH  15  16
ENDBRANCH   1  15
TORSDOF 22
ENDMDL
MODEL 5
REMARK VINA RESULT:    -3.417      1.339      4.875
REMARK INTER + INTRA:         -11.561
REMARK INTER:                  -7.755
REMARK INTRA:                  -3.806
REMARK UNBOUND:                -3.750
REMARK SMILES CCCCCCCCCCCCCCCCCCCCCCCC(=O)[O-]
REMARK SMILES IDX 13 1 14 2 15 3 16 4 17 5 18 6 19 7 20 8 21 9 22 10 23 11
REMARK SMILES IDX 24 12 25 13 26 14 12 15 11 16 10 17 9 18 8 19 7 20 6 21 5 22
REMARK SMILES IDX 4 23 3 24 2 25 1 26
REMARK H PARENT
REMARK Flexibility Score: inf
ROOT
ATOM      1  C   UNL     1      51.221  30.176  86.393  1.00  0.00     0.000 C 
ENDROOT
BRANCH   1   2
ATOM      2  C   UNL     1      50.974  30.404  87.894  1.00  0.00     0.000 C 
BRANCH   2   3
ATOM      3  C   UNL     1      52.270  30.585  88.714  1.00  0.00     0.000 C 
BRANCH   3   4
ATOM      4  C   UNL     1      51.997  31.133  90.126  1.00  0.00     0.000 C 
BRANCH   4   5
ATOM      5  C   UNL     1      50.546  31.635  90.292  1.00  0.00     0.000 C 
BRANCH   5   6
ATOM      6  C   UNL     1      49.756  30.894  91.386  1.00  0.00     0.000 C 
BRANCH   6   7
ATOM      7  C   UNL     1      48.317  30.504  90.998  1.00  0.00     0.000 C 
BRANCH   7   8
ATOM      8  C   UNL     1      47.812  31.105  89.674  1.00  0.00     0.000 C 
BRANCH   8   9
ATOM      9  C   UNL     1      46.391  31.677  89.772  1.00  0.00     0.000 C 
BRANCH   9  10
ATOM     10  C   UNL     1      45.835  31.517  91.191  1.00  0.00     0.006 C 
BRANCH  10  11
ATOM     11  C   UNL     1      44.359  31.107  91.163  1.00  0.00     0.053 C 
BRANCH  11  12
ATOM     12  C   UNL     1      44.098  30.013  92.149  1.00  0.00     0.041 C 
ATOM     13  O   UNL     1      45.030  29.240  92.502  1.00  0.00    -0.550 OA
ATOM     14  O   UNL     1      42.819  29.823  92.655  1.00  0.00    -0.550 OA
ENDBRANCH  11  12
ENDBRANCH  10  11
ENDBRANCH   9  10
ENDBRANCH   8   9
ENDBRANCH   7   8
ENDBRANCH   6   7
ENDBRANCH   5   6
ENDBRANCH   4   5
ENDBRANCH   3   4
ENDBRANCH   2   3
ENDBRANCH   1   2
BRANCH   1  15
ATOM     15  C   UNL     1      50.263  30.983  85.500  1.00  0.00     0.000 C 
BRANCH  15  16
ATOM     16  C   UNL     1      49.320  31.887  86.322  1.00  0.00     0.000 C 
BRANCH  16  17
ATOM     17  C   UNL     1      48.774  33.086  85.529  1.00  0.00     0.000 C 
BRANCH  17  18
ATOM     18  C   UNL     1      48.466  34.300  86.423  1.00  0.00    -0.000 C 
BRANCH  18  19
ATOM     19  C   UNL     1      49.189  34.230  87.779  1.00  0.00    -0.000 C 
BRANCH  19  20
ATOM     20  C   UNL     1      50.438  35.127  87.830  1.00  0.00    -0.000 C 
BRANCH  20  21
ATOM     21  C   UNL     1      51.734  34.329  88.043  1.00  0.00    -0.000 C 
BRANCH  21  22
ATOM     22  C   UNL     1      52.840  34.708  87.048  1.00  0.00    -0.000 C 
BRANCH  22  23
ATOM     23  C   UNL     1      53.044  33.602  86.005  1.00  0.00    -0.000 C 
BRANCH  23  24
ATOM     24  C   UNL     1      52.340  33.954  84.686  1.00  0.00    -0.000 C 
BRANCH  24  25
ATOM     25  C   UNL     1      53.292  33.922  83.482  1.00  0.00    -0.003 C 
ATOM     26  C   UNL     1      52.577  34.187  82.158  1.00  0.00     0.004 C 
ENDBRANCH  24  25
ENDBRANCH  23  24
ENDBRANCH  22  23
ENDBRANCH  21  22
ENDBRANCH  20  21
ENDBRANCH  19  20
ENDBRANCH  18  19
ENDBRANCH  17  18
ENDBRANCH  16  17
ENDBRANCH  15  16
ENDBRANCH   1  15
TORSDOF 22
ENDMDL
MODEL 6
REMARK VINA RESULT:    -3.401      1.549      3.846
REMARK INTER + INTRA:         -11.525
REMARK INTER:                  -7.860
REMARK INTRA:                  -3.665
REMARK UNBOUND:                -3.750
REMARK SMILES CCCCCCCCCCCCCCCCCCCCCCCC(=O)[O-]
REMARK SMILES IDX 13 1 14 2 15 3 16 4 17 5 18 6 19 7 20 8 21 9 22 10 23 11
REMARK SMILES IDX 24 12 25 13 26 14 12 15 11 16 10 17 9 18 8 19 7 20 6 21 5 22
REMARK SMILES IDX 4 23 3 24 2 25 1 26
REMARK H PARENT
REMARK Flexibility Score: inf
ROOT
ATOM      1  C   UNL     1      53.440  33.706  86.650  1.00  0.00     0.000 C 
ENDROOT
BRANCH   1   2
ATOM      2  C   UNL     1      53.861  34.590  87.837  1.00  0.00     0.000 C 
BRANCH   2   3
ATOM      3  C   UNL     1      53.203  34.185  89.174  1.00  0.00     0.000 C 
BRANCH   3   4
ATOM      4  C   UNL     1      52.355  32.908  89.046  1.00  0.00     0.000 C 
BRANCH   4   5
ATOM      5  C   UNL     1      53.037  31.682  89.695  1.00  0.00     0.000 C 
BRANCH   5   6
ATOM      6  C   UNL     1      52.089  30.835  90.564  1.00  0.00     0.000 C 
BRANCH   6   7
ATOM      7  C   UNL     1      50.602  31.225  90.474  1.00  0.00     0.000 C 
BRANCH   7   8
ATOM      8  C   UNL     1      49.662  30.430  91.397  1.00  0.00     0.000 C 
BRANCH   8   9
ATOM      9  C   UNL     1      48.347  30.023  90.716  1.00  0.00     0.000 C 
BRANCH   9  10
ATOM     10  C   UNL     1      47.442  31.240  90.504  1.00  0.00     0.006 C 
BRANCH  10  11
ATOM     11  C   UNL     1      46.023  30.970  91.015  1.00  0.00     0.053 C 
BRANCH  11  12
ATOM     12  C   UNL     1      45.041  31.015  89.887  1.00  0.00     0.041 C 
ATOM     13  O   UNL     1      45.349  30.550  88.757  1.00  0.00    -0.550 OA
ATOM     14  O   UNL     1      43.795  31.601  90.073  1.00  0.00    -0.550 OA
ENDBRANCH  11  12
ENDBRANCH  10  11
ENDBRANCH   9  10
ENDBRANCH   8   9
ENDBRANCH   7   8
ENDBRANCH   6   7
ENDBRANCH   5   6
ENDBRANCH   4   5
ENDBRANCH   3   4
ENDBRANCH   2   3
ENDBRANCH   1   2
BRANCH   1  15
ATOM     15  C   UNL     1      52.680  34.484  85.564  1.00  0.00     0.000 C 
BRANCH  15  16
ATOM     16  C   UNL     1      53.012  33.982  84.143  1.00  0.00     0.000 C 
BRANCH  16  17
ATOM     17  C   UNL     1      51.794  33.946  83.204  1.00  0.00     0.000 C 
BRANCH  17  18
ATOM     18  C   UNL     1      50.457  34.009  83.963  1.00  0.00    -0.000 C 
BRANCH  18  19
ATOM     19  C   UNL     1      49.426  33.004  83.422  1.00  0.00    -0.000 C 
BRANCH  19  20
ATOM     20  C   UNL     1      49.055  31.924  84.454  1.00  0.00    -0.000 C 
BRANCH  20  21
ATOM     21  C   UNL     1      50.182  31.660  85.465  1.00  0.00    -0.000 C 
BRANCH  21  22
ATOM     22  C   UNL     1      49.708  31.748  86.924  1.00  0.00    -0.000 C 
BRANCH  22  23
ATOM     23  C   UNL     1      48.293  32.336  87.007  1.00  0.00    -0.000 C 
BRANCH  23  24
ATOM     24  C   UNL     1      48.285  33.632  87.830  1.00  0.00    -0.000 C 
BRANCH  24  25
ATOM     25  C   UNL     1      48.880  34.822  87.063  1.00  0.00    -0.003 C 
ATOM     26  C   UNL     1      49.975  35.543  87.849  1.00  0.00     0.004 C 
ENDBRANCH  24  25
ENDBRANCH  23  24
ENDBRANCH  22  23
ENDBRANCH  21  22
ENDBRANCH  20  21
ENDBRANCH  19  20
ENDBRANCH  18  19
ENDBRANCH  17  18
ENDBRANCH  16  17
ENDBRANCH  15  16
ENDBRANCH   1  15
TORSDOF 22
ENDMDL
MODEL 7
REMARK VINA RESULT:    -3.394      3.039      6.827
REMARK INTER + INTRA:         -11.509
REMARK INTER:                  -7.868
REMARK INTRA:                  -3.641
REMARK UNBOUND:                -3.750
REMARK SMILES CCCCCCCCCCCCCCCCCCCCCCCC(=O)[O-]
REMARK SMILES IDX 13 1 14 2 15 3 16 4 17 5 18 6 19 7 20 8 21 9 22 10 23 11
REMARK SMILES IDX 24 12 25 13 26 14 12 15 11 16 10 17 9 18 8 19 7 20 6 21 5 22
REMARK SMILES IDX 4 23 3 24 2 25 1 26
REMARK H PARENT
REMARK Flexibility Score: inf
ROOT
ATOM      1  C   UNL     1      48.441  32.450  87.614  1.00  0.00     0.000 C 
ENDROOT
BRANCH   1   2
ATOM      2  C   UNL     1      48.445  33.987  87.664  1.00  0.00     0.000 C 
BRANCH   2   3
ATOM      3  C   UNL     1      49.630  34.628  86.909  1.00  0.00     0.000 C 
BRANCH   3   4
ATOM      4  C   UNL     1      50.466  35.553  87.810  1.00  0.00     0.000 C 
BRANCH   4   5
ATOM      5  C   UNL     1      51.732  34.855  88.356  1.00  0.00     0.000 C 
BRANCH   5   6
ATOM      6  C   UNL     1      52.871  34.746  87.326  1.00  0.00     0.000 C 
BRANCH   6   7
ATOM      7  C   UNL     1      53.249  33.308  86.924  1.00  0.00     0.000 C 
BRANCH   7   8
ATOM      8  C   UNL     1      52.991  32.954  85.448  1.00  0.00     0.000 C 
BRANCH   8   9
ATOM      9  C   UNL     1      52.794  34.188  84.556  1.00  0.00     0.000 C 
BRANCH   9  10
ATOM     10  C   UNL     1      51.924  33.851  83.341  1.00  0.00     0.006 C 
BRANCH  10  11
ATOM     11  C   UNL     1      50.724  32.988  83.743  1.00  0.00     0.053 C 
BRANCH  11  12
ATOM     12  C   UNL     1      49.442  33.662  83.369  1.00  0.00     0.041 C 
ATOM     13  O   UNL     1      48.353  33.280  83.874  1.00  0.00    -0.550 OA
ATOM     14  O   UNL     1      49.444  34.690  82.435  1.00  0.00    -0.550 OA
ENDBRANCH  11  12
ENDBRANCH  10  11
ENDBRANCH   9  10
ENDBRANCH   8   9
ENDBRANCH   7   8
ENDBRANCH   6   7
ENDBRANCH   5   6
ENDBRANCH   4   5
ENDBRANCH   3   4
ENDBRANCH   2   3
ENDBRANCH   1   2
BRANCH   1  15
ATOM     15  C   UNL     1      49.754  31.866  87.067  1.00  0.00     0.000 C 
BRANCH  15  16
ATOM     16  C   UNL     1      50.486  30.993  88.109  1.00  0.00     0.000 C 
BRANCH  16  17
ATOM     17  C   UNL     1      50.618  31.663  89.487  1.00  0.00     0.000 C 
BRANCH  17  18
ATOM     18  C   UNL     1      50.275  30.711  90.646  1.00  0.00    -0.000 C 
BRANCH  18  19
ATOM     19  C   UNL     1      48.844  30.916  91.172  1.00  0.00    -0.000 C 
BRANCH  19  20
ATOM     20  C   UNL     1      47.983  29.647  91.050  1.00  0.00    -0.000 C 
BRANCH  20  21
ATOM     21  C   UNL     1      47.245  29.558  89.705  1.00  0.00    -0.000 C 
BRANCH  21  22
ATOM     22  C   UNL     1      46.328  30.762  89.445  1.00  0.00    -0.000 C 
BRANCH  22  23
ATOM     23  C   UNL     1      44.881  30.445  89.843  1.00  0.00    -0.000 C 
BRANCH  23  24
ATOM     24  C   UNL     1      44.433  31.315  91.027  1.00  0.00    -0.000 C 
BRANCH  24  25
ATOM     25  C   UNL     1      43.907  30.483  92.205  1.00  0.00    -0.003 C 
ATOM     26  C   UNL     1      43.865  31.272  93.513  1.00  0.00     0.004 C 
ENDBRANCH  24  25
ENDBRANCH  23  24
ENDBRANCH  22  23
ENDBRANCH  21  22
ENDBRANCH  20  21
ENDBRANCH  19  20
ENDBRANCH  18  19
ENDBRANCH  17  18
ENDBRANCH  16  17
ENDBRANCH  15  16
ENDBRANCH   1  15
TORSDOF 22
ENDMDL
MODEL 8
REMARK VINA RESULT:    -3.386      2.969      6.628
REMARK INTER + INTRA:         -11.490
REMARK INTER:                  -7.886
REMARK INTRA:                  -3.604
REMARK UNBOUND:                -3.750
REMARK SMILES CCCCCCCCCCCCCCCCCCCCCCCC(=O)[O-]
REMARK SMILES IDX 13 1 14 2 15 3 16 4 17 5 18 6 19 7 20 8 21 9 22 10 23 11
REMARK SMILES IDX 24 12 25 13 26 14 12 15 11 16 10 17 9 18 8 19 7 20 6 21 5 22
REMARK SMILES IDX 4 23 3 24 2 25 1 26
REMARK H PARENT
REMARK Flexibility Score: inf
ROOT
ATOM      1  C   UNL     1      48.325  32.175  87.173  1.00  0.00     0.000 C 
ENDROOT
BRANCH   1   2
ATOM      2  C   UNL     1      48.422  33.661  87.560  1.00  0.00     0.000 C 
BRANCH   2   3
ATOM      3  C   UNL     1      48.623  34.602  86.353  1.00  0.00     0.000 C 
BRANCH   3   4
ATOM      4  C   UNL     1      48.661  33.841  85.016  1.00  0.00     0.000 C 
BRANCH   4   5
ATOM      5  C   UNL     1      49.831  34.293  84.114  1.00  0.00     0.000 C 
BRANCH   5   6
ATOM      6  C   UNL     1      51.048  33.352  84.162  1.00  0.00     0.000 C 
BRANCH   6   7
ATOM      7  C   UNL     1      52.358  34.005  84.642  1.00  0.00     0.000 C 
BRANCH   7   8
ATOM      8  C   UNL     1      52.338  34.515  86.094  1.00  0.00     0.000 C 
BRANCH   8   9
ATOM      9  C   UNL     1      52.644  33.419  87.124  1.00  0.00     0.000 C 
BRANCH   9  10
ATOM     10  C   UNL     1      52.090  33.794  88.502  1.00  0.00     0.006 C 
BRANCH  10  11
ATOM     11  C   UNL     1      51.611  32.554  89.263  1.00  0.00     0.053 C 
BRANCH  11  12
ATOM     12  C   UNL     1      52.577  32.196  90.347  1.00  0.00     0.041 C 
ATOM     13  O   UNL     1      52.356  32.549  91.537  1.00  0.00    -0.550 OA
ATOM     14  O   UNL     1      53.741  31.502  90.042  1.00  0.00    -0.550 OA
ENDBRANCH  11  12
ENDBRANCH  10  11
ENDBRANCH   9  10
ENDBRANCH   8   9
ENDBRANCH   7   8
ENDBRANCH   6   7
ENDBRANCH   5   6
ENDBRANCH   4   5
ENDBRANCH   3   4
ENDBRANCH   2   3
ENDBRANCH   1   2
BRANCH   1  15
ATOM     15  C   UNL     1      47.865  31.284  88.339  1.00  0.00     0.000 C 
BRANCH  15  16
ATOM     16  C   UNL     1      46.559  30.527  88.017  1.00  0.00     0.000 C 
BRANCH  16  17
ATOM     17  C   UNL     1      45.485  30.663  89.110  1.00  0.00     0.000 C 
BRANCH  17  18
ATOM     18  C   UNL     1      45.915  31.599  90.253  1.00  0.00    -0.000 C 
BRANCH  18  19
ATOM     19  C   UNL     1      45.183  31.293  91.570  1.00  0.00    -0.000 C 
BRANCH  19  20
ATOM     20  C   UNL     1      44.569  29.882  91.591  1.00  0.00    -0.000 C 
BRANCH  20  21
ATOM     21  C   UNL     1      45.308  28.928  92.544  1.00  0.00    -0.000 C 
BRANCH  21  22
ATOM     22  C   UNL     1      45.855  27.681  91.835  1.00  0.00    -0.000 C 
BRANCH  22  23
ATOM     23  C   UNL     1      47.387  27.634  91.909  1.00  0.00    -0.000 C 
BRANCH  23  24
ATOM     24  C   UNL     1      48.017  28.559  90.857  1.00  0.00    -0.000 C 
BRANCH  24  25
ATOM     25  C   UNL     1      49.346  29.168  91.327  1.00  0.00    -0.003 C 
ATOM     26  C   UNL     1      49.279  30.687  91.477  1.00  0.00     0.004 C 
ENDBRANCH  24  25
ENDBRANCH  23  24
ENDBRANCH  22  23
ENDBRANCH  21  22
ENDBRANCH  20  21
ENDBRANCH  19  20
ENDBRANCH  18  19
ENDBRANCH  17  18
ENDBRANCH  16  17
ENDBRANCH  15  16
ENDBRANCH   1  15
TORSDOF 22
ENDMDL
MODEL 9
REMARK VINA RESULT:    -3.381      1.453      4.708
REMARK INTER + INTRA:         -11.480
REMARK INTER:                  -8.007
REMARK INTRA:                  -3.472
REMARK UNBOUND:                -3.750
REMARK SMILES CCCCCCCCCCCCCCCCCCCCCCCC(=O)[O-]
REMARK SMILES IDX 13 1 14 2 15 3 16 4 17 5 18 6 19 7 20 8 21 9 22 10 23 11
REMARK SMILES IDX 24 12 25 13 26 14 12 15 11 16 10 17 9 18 8 19 7 20 6 21 5 22
REMARK SMILES IDX 4 23 3 24 2 25 1 26
REMARK H PARENT
REMARK Flexibility Score: inf
ROOT
ATOM      1  C   UNL     1      52.782  31.941  91.474  1.00  0.00     0.000 C 
ENDROOT
BRANCH   1   2
ATOM      2  C   UNL     1      51.261  32.075  91.285  1.00  0.00     0.000 C 
BRANCH   2   3
ATOM      3  C   UNL     1      50.480  30.787  91.622  1.00  0.00     0.000 C 
BRANCH   3   4
ATOM      4  C   UNL     1      49.826  30.157  90.380  1.00  0.00     0.000 C 
BRANCH   4   5
ATOM      5  C   UNL     1      49.385  31.217  89.346  1.00  0.00     0.000 C 
BRANCH   5   6
ATOM      6  C   UNL     1      47.970  30.984  88.785  1.00  0.00     0.000 C 
BRANCH   6   7
ATOM      7  C   UNL     1      46.912  32.003  89.248  1.00  0.00     0.000 C 
BRANCH   7   8
ATOM      8  C   UNL     1      45.779  31.420  90.112  1.00  0.00     0.000 C 
BRANCH   8   9
ATOM      9  C   UNL     1      46.288  30.567  91.282  1.00  0.00     0.000 C 
BRANCH   9  10
ATOM     10  C   UNL     1      45.394  29.341  91.494  1.00  0.00     0.006 C 
BRANCH  10  11
ATOM     11  C   UNL     1      44.803  29.326  92.907  1.00  0.00     0.053 C 
BRANCH  11  12
ATOM     12  C   UNL     1      43.641  30.263  93.001  1.00  0.00     0.041 C 
ATOM     13  O   UNL     1      42.565  30.003  92.399  1.00  0.00    -0.550 OA
ATOM     14  O   UNL     1      43.756  31.442  93.727  1.00  0.00    -0.550 OA
ENDBRANCH  11  12
ENDBRANCH  10  11
ENDBRANCH   9  10
ENDBRANCH   8   9
ENDBRANCH   7   8
ENDBRANCH   6   7
ENDBRANCH   5   6
ENDBRANCH   4   5
ENDBRANCH   3   4
ENDBRANCH   2   3
ENDBRANCH   1   2
BRANCH   1  15
ATOM     15  C   UNL     1      53.522  31.628  90.164  1.00  0.00     0.000 C 
BRANCH  15  16
ATOM     16  C   UNL     1      52.994  32.464  88.978  1.00  0.00     0.000 C 
BRANCH  16  17
ATOM     17  C   UNL     1      53.517  33.910  88.966  1.00  0.00     0.000 C 
BRANCH  17  18
ATOM     18  C   UNL     1      52.510  34.902  88.358  1.00  0.00    -0.000 C 
BRANCH  18  19
ATOM     19  C   UNL     1      51.107  34.293  88.202  1.00  0.00    -0.000 C 
BRANCH  19  20
ATOM     20  C   UNL     1      50.051  35.337  87.799  1.00  0.00    -0.000 C 
BRANCH  20  21
ATOM     21  C   UNL     1      48.704  34.702  87.419  1.00  0.00    -0.000 C 
BRANCH  21  22
ATOM     22  C   UNL     1      48.627  34.307  85.937  1.00  0.00    -0.000 C 
BRANCH  22  23
ATOM     23  C   UNL     1      49.026  32.839  85.738  1.00  0.00    -0.000 C 
BRANCH  23  24
ATOM     24  C   UNL     1      50.003  32.689  84.563  1.00  0.00    -0.000 C 
BRANCH  24  25
ATOM     25  C   UNL     1      51.470  32.670  85.015  1.00  0.00    -0.003 C 
ATOM     26  C   UNL     1      52.217  33.952  84.652  1.00  0.00     0.004 C 
ENDBRANCH  24  25
ENDBRANCH  23  24
ENDBRANCH  22  23
ENDBRANCH  21  22
ENDBRANCH  20  21
ENDBRANCH  19  20
ENDBRANCH  18  19
ENDBRANCH  17  18
ENDBRANCH  16  17
ENDBRANCH  15  16
ENDBRANCH   1  15
TORSDOF 22
ENDMDL
