MODEL 1
REMARK VINA RESULT:    -0.224      0.000      0.000
REMARK INTER + INTRA:          -0.598
REMARK INTER:                  -0.269
REMARK INTRA:                  -0.329
REMARK UNBOUND:                -0.329
REMARK SMILES O=c1c(O)c(-c2ccc(O)c(O)c2)oc2cc(O)cc(O)c12
REMARK SMILES IDX 5 1 3 2 2 3 1 4 22 5 20 6 19 7 17 8 16 9 15 10 14 11 6 12
REMARK SMILES IDX 7 13 8 14 9 15 13 16 11 17 10 18 12 20 4 22 21 24 18 26
REMARK H PARENT 10 19 12 21 4 23 21 25 18 27
REMARK Flexibility Score: inf
ROOT
ATOM      1  C   UNL     1      27.306  27.482  47.640  1.00  0.00     0.180 A 
ATOM      2  C   UNL     1      26.573  26.307  47.394  1.00  0.00     0.208 A 
ATOM      3  C   UNL     1      25.194  26.404  47.150  1.00  0.00     0.238 A 
ATOM      4  O   UNL     1      24.554  25.354  46.877  1.00  0.00    -0.285 OA
ATOM      5  C   UNL     1      24.562  27.670  47.169  1.00  0.00     0.111 A 
ATOM      6  C   UNL     1      23.164  27.881  46.974  1.00  0.00     0.134 A 
ATOM      7  C   UNL     1      22.668  29.187  46.884  1.00  0.00     0.093 A 
ATOM      8  C   UNL     1      23.507  30.289  47.047  1.00  0.00     0.123 A 
ATOM      9  C   UNL     1      24.866  30.094  47.297  1.00  0.00     0.094 A 
ATOM     10  C   UNL     1      25.397  28.803  47.357  1.00  0.00     0.146 A 
ATOM     11  O   UNL     1      26.697  28.660  47.587  1.00  0.00    -0.452 OA
ENDROOT
BRANCH   1  12
ATOM     12  C   UNL     1      28.758  27.459  47.930  1.00  0.00     0.025 A 
ATOM     13  C   UNL     1      29.677  27.580  46.875  1.00  0.00     0.016 A 
ATOM     14  C   UNL     1      31.050  27.582  47.129  1.00  0.00     0.051 A 
ATOM     15  C   UNL     1      31.526  27.479  48.442  1.00  0.00     0.157 A 
ATOM     16  C   UNL     1      29.240  27.377  49.250  1.00  0.00     0.062 A 
ATOM     17  C   UNL     1      30.619  27.381  49.505  1.00  0.00     0.158 A 
BRANCH  15  18
ATOM     18  O   UNL     1      32.895  27.479  48.700  1.00  0.00    -0.504 OA
ATOM     19  H   UNL     1      33.467  28.296  48.520  1.00  0.00     0.293 HD
ENDBRANCH  15  18
BRANCH  17  20
ATOM     20  O   UNL     1      31.094  27.293  50.813  1.00  0.00    -0.504 OA
ATOM     21  H   UNL     1      31.052  26.426  51.335  1.00  0.00     0.293 HD
ENDBRANCH  17  20
ENDBRANCH   1  12
BRANCH   2  22
ATOM     22  O   UNL     1      27.222  25.070  47.357  1.00  0.00    -0.502 OA
ATOM     23  H   UNL     1      27.400  24.576  46.492  1.00  0.00     0.293 HD
ENDBRANCH   2  22
BRANCH   6  24
ATOM     24  O   UNL     1      22.223  26.850  46.891  1.00  0.00    -0.507 OA
ATOM     25  H   UNL     1      21.431  26.845  46.266  1.00  0.00     0.293 HD
ENDBRANCH   6  24
BRANCH   8  26
ATOM     26  O   UNL     1      22.978  31.575  46.967  1.00  0.00    -0.508 OA
ATOM     27  H   UNL     1      23.545  32.394  47.148  1.00  0.00     0.293 HD
ENDBRANCH   8  26
TORSDOF 6
ENDMDL
MODEL 2
REMARK VINA RESULT:    -0.212      1.906      2.048
REMARK INTER + INTRA:          -0.584
REMARK INTER:                  -0.287
REMARK INTRA:                  -0.297
REMARK UNBOUND:                -0.329
REMARK SMILES O=c1c(O)c(-c2ccc(O)c(O)c2)oc2cc(O)cc(O)c12
REMARK SMILES IDX 5 1 3 2 2 3 1 4 22 5 20 6 19 7 17 8 16 9 15 10 14 11 6 12
REMARK SMILES IDX 7 13 8 14 9 15 13 16 11 17 10 18 12 20 4 22 21 24 18 26
REMARK H PARENT 10 19 12 21 4 23 21 25 18 27
REMARK Flexibility Score: inf
ROOT
ATOM      1  C   UNL     1      25.906  26.043  47.669  1.00  0.00     0.180 A 
ATOM      2  C   UNL     1      24.919  25.073  47.420  1.00  0.00     0.208 A 
ATOM      3  C   UNL     1      23.603  25.490  47.169  1.00  0.00     0.238 A 
ATOM      4  O   UNL     1      22.735  24.620  46.893  1.00  0.00    -0.285 OA
ATOM      5  C   UNL     1      23.286  26.870  47.185  1.00  0.00     0.111 A 
ATOM      6  C   UNL     1      21.977  27.403  46.983  1.00  0.00     0.134 A 
ATOM      7  C   UNL     1      21.803  28.789  46.891  1.00  0.00     0.093 A 
ATOM      8  C   UNL     1      22.876  29.663  47.057  1.00  0.00     0.123 A 
ATOM      9  C   UNL     1      24.150  29.154  47.314  1.00  0.00     0.094 A 
ATOM     10  C   UNL     1      24.362  27.775  47.376  1.00  0.00     0.146 A 
ATOM     11  O   UNL     1      25.591  27.331  47.612  1.00  0.00    -0.452 OA
ENDROOT
BRANCH   1  12
ATOM     12  C   UNL     1      27.311  25.680  47.966  1.00  0.00     0.025 A 
ATOM     13  C   UNL     1      28.191  25.399  46.909  1.00  0.00     0.016 A 
ATOM     14  C   UNL     1      29.526  25.075  47.166  1.00  0.00     0.051 A 
ATOM     15  C   UNL     1      30.003  25.042  48.482  1.00  0.00     0.157 A 
ATOM     16  C   UNL     1      27.800  25.666  49.285  1.00  0.00     0.062 A 
ATOM     17  C   UNL     1      29.141  25.343  49.543  1.00  0.00     0.158 A 
BRANCH  15  18
ATOM     18  O   UNL     1      31.333  24.718  48.743  1.00  0.00    -0.504 OA
ATOM     19  H   UNL     1      31.876  25.226  49.432  1.00  0.00     0.293 HD
ENDBRANCH  15  18
BRANCH  17  20
ATOM     20  O   UNL     1      29.622  25.324  50.851  1.00  0.00    -0.504 OA
ATOM     21  H   UNL     1      29.636  26.160  51.423  1.00  0.00     0.293 HD
ENDBRANCH  17  20
ENDBRANCH   1  12
BRANCH   2  22
ATOM     22  O   UNL     1      25.259  23.718  47.386  1.00  0.00    -0.502 OA
ATOM     23  H   UNL     1      25.892  23.300  48.057  1.00  0.00     0.293 HD
ENDBRANCH   2  22
BRANCH   6  24
ATOM     24  O   UNL     1      20.821  26.622  46.896  1.00  0.00    -0.507 OA
ATOM     25  H   UNL     1      20.685  25.868  46.238  1.00  0.00     0.293 HD
ENDBRANCH   6  24
BRANCH   8  26
ATOM     26  O   UNL     1      22.664  31.037  46.975  1.00  0.00    -0.508 OA
ATOM     27  H   UNL     1      23.356  31.701  47.301  1.00  0.00     0.293 HD
ENDBRANCH   8  26
TORSDOF 6
ENDMDL
MODEL 3
REMARK VINA RESULT:    -0.206      1.428      1.623
REMARK INTER + INTRA:          -0.577
REMARK INTER:                  -0.243
REMARK INTRA:                  -0.334
REMARK UNBOUND:                -0.329
REMARK SMILES O=c1c(O)c(-c2ccc(O)c(O)c2)oc2cc(O)cc(O)c12
REMARK SMILES IDX 5 1 3 2 2 3 1 4 22 5 20 6 19 7 17 8 16 9 15 10 14 11 6 12
REMARK SMILES IDX 7 13 8 14 9 15 13 16 11 17 10 18 12 20 4 22 21 24 18 26
REMARK H PARENT 10 19 12 21 4 23 21 25 18 27
REMARK Flexibility Score: inf
ROOT
ATOM      1  C   UNL     1      27.843  27.939  47.730  1.00  0.00     0.180 A 
ATOM      2  C   UNL     1      27.678  26.558  47.520  1.00  0.00     0.208 A 
ATOM      3  C   UNL     1      26.393  26.058  47.260  1.00  0.00     0.238 A 
ATOM      4  O   UNL     1      26.260  24.829  47.019  1.00  0.00    -0.285 OA
ATOM      5  C   UNL     1      25.286  26.940  47.230  1.00  0.00     0.111 A 
ATOM      6  C   UNL     1      23.933  26.536  47.015  1.00  0.00     0.134 A 
ATOM      7  C   UNL     1      22.937  27.509  46.875  1.00  0.00     0.093 A 
ATOM      8  C   UNL     1      23.230  28.866  47.006  1.00  0.00     0.123 A 
ATOM      9  C   UNL     1      24.539  29.268  47.274  1.00  0.00     0.094 A 
ATOM     10  C   UNL     1      25.562  28.323  47.384  1.00  0.00     0.146 A 
ATOM     11  O   UNL     1      26.795  28.748  47.630  1.00  0.00    -0.452 OA
ENDROOT
BRANCH   1  12
ATOM     12  C   UNL     1      29.162  28.538  48.033  1.00  0.00     0.025 A 
ATOM     13  C   UNL     1      29.946  29.052  46.987  1.00  0.00     0.016 A 
ATOM     14  C   UNL     1      31.184  29.641  47.253  1.00  0.00     0.051 A 
ATOM     15  C   UNL     1      31.651  29.738  48.570  1.00  0.00     0.157 A 
ATOM     16  C   UNL     1      29.626  28.656  49.356  1.00  0.00     0.062 A 
ATOM     17  C   UNL     1      30.869  29.249  49.624  1.00  0.00     0.158 A 
BRANCH  15  18
ATOM     18  O   UNL     1      32.886  30.323  48.841  1.00  0.00    -0.504 OA
ATOM     19  H   UNL     1      33.528  30.573  48.097  1.00  0.00     0.293 HD
ENDBRANCH  15  18
BRANCH  17  20
ATOM     20  O   UNL     1      31.329  29.360  50.935  1.00  0.00    -0.504 OA
ATOM     21  H   UNL     1      31.714  28.565  51.431  1.00  0.00     0.293 HD
ENDBRANCH  17  20
ENDBRANCH   1  12
BRANCH   2  22
ATOM     22  O   UNL     1      28.788  25.709  47.532  1.00  0.00    -0.502 OA
ATOM     23  H   UNL     1      29.725  26.038  47.335  1.00  0.00     0.293 HD
ENDBRANCH   2  22
BRANCH   6  24
ATOM     24  O   UNL     1      23.516  25.203  46.960  1.00  0.00    -0.507 OA
ATOM     25  H   UNL     1      22.555  24.899  47.011  1.00  0.00     0.293 HD
ENDBRANCH   6  24
BRANCH   8  26
ATOM     26  O   UNL     1      22.210  29.806  46.876  1.00  0.00    -0.508 OA
ATOM     27  H   UNL     1      21.308  29.560  46.487  1.00  0.00     0.293 HD
ENDBRANCH   8  26
TORSDOF 6
ENDMDL
MODEL 4
REMARK VINA RESULT:    -0.190      2.836      4.868
REMARK INTER + INTRA:          -0.558
REMARK INTER:                  -0.224
REMARK INTRA:                  -0.334
REMARK UNBOUND:                -0.329
REMARK SMILES O=c1c(O)c(-c2ccc(O)c(O)c2)oc2cc(O)cc(O)c12
REMARK SMILES IDX 5 1 3 2 2 3 1 4 22 5 20 6 19 7 17 8 16 9 15 10 14 11 6 12
REMARK SMILES IDX 7 13 8 14 9 15 13 16 11 17 10 18 12 20 4 22 21 24 18 26
REMARK H PARENT 10 19 12 21 4 23 21 25 18 27
REMARK Flexibility Score: inf
ROOT
ATOM      1  C   UNL     1      25.943  29.854  47.952  1.00  0.00     0.180 A 
ATOM      2  C   UNL     1      26.918  28.890  47.641  1.00  0.00     0.208 A 
ATOM      3  C   UNL     1      26.508  27.588  47.313  1.00  0.00     0.238 A 
ATOM      4  O   UNL     1      27.382  26.744  46.982  1.00  0.00    -0.285 OA
ATOM      5  C   UNL     1      25.130  27.262  47.315  1.00  0.00     0.111 A 
ATOM      6  C   UNL     1      24.604  25.964  47.036  1.00  0.00     0.134 A 
ATOM      7  C   UNL     1      23.219  25.787  46.938  1.00  0.00     0.093 A 
ATOM      8  C   UNL     1      22.339  26.843  47.172  1.00  0.00     0.123 A 
ATOM      9  C   UNL     1      22.841  28.102  47.503  1.00  0.00     0.094 A 
ATOM     10  C   UNL     1      24.219  28.319  47.573  1.00  0.00     0.146 A 
ATOM     11  O   UNL     1      24.656  29.534  47.881  1.00  0.00    -0.452 OA
ENDROOT
BRANCH   1  12
ATOM     12  C   UNL     1      26.298  31.240  48.333  1.00  0.00     0.025 A 
ATOM     13  C   UNL     1      26.337  32.239  47.347  1.00  0.00     0.016 A 
ATOM     14  C   UNL     1      26.649  33.558  47.687  1.00  0.00     0.051 A 
ATOM     15  C   UNL     1      26.912  33.900  49.020  1.00  0.00     0.157 A 
ATOM     16  C   UNL     1      26.543  31.592  49.672  1.00  0.00     0.062 A 
ATOM     17  C   UNL     1      26.855  32.916  50.015  1.00  0.00     0.158 A 
BRANCH  15  18
ATOM     18  O   UNL     1      27.225  35.213  49.363  1.00  0.00    -0.504 OA
ATOM     19  H   UNL     1      26.644  35.747  49.998  1.00  0.00     0.293 HD
ENDBRANCH  15  18
BRANCH  17  20
ATOM     20  O   UNL     1      27.103  33.262  51.342  1.00  0.00    -0.504 OA
ATOM     21  H   UNL     1      28.040  33.250  51.727  1.00  0.00     0.293 HD
ENDBRANCH  17  20
ENDBRANCH   1  12
BRANCH   2  22
ATOM     22  O   UNL     1      28.271  29.240  47.624  1.00  0.00    -0.502 OA
ATOM     23  H   UNL     1      28.993  28.638  48.001  1.00  0.00     0.293 HD
ENDBRANCH   2  22
BRANCH   6  24
ATOM     24  O   UNL     1      25.392  24.820  46.876  1.00  0.00    -0.507 OA
ATOM     25  H   UNL     1      26.312  24.810  46.460  1.00  0.00     0.293 HD
ENDBRANCH   6  24
BRANCH   8  26
ATOM     26  O   UNL     1      20.966  26.627  47.081  1.00  0.00    -0.508 OA
ATOM     27  H   UNL     1      20.319  27.390  46.922  1.00  0.00     0.293 HD
ENDBRANCH   8  26
TORSDOF 6
ENDMDL
MODEL 5
REMARK VINA RESULT:    -0.185      1.587      2.963
REMARK INTER + INTRA:          -0.552
REMARK INTER:                  -0.228
REMARK INTRA:                  -0.323
REMARK UNBOUND:                -0.329
REMARK SMILES O=c1c(O)c(-c2ccc(O)c(O)c2)oc2cc(O)cc(O)c12
REMARK SMILES IDX 5 1 3 2 2 3 1 4 22 5 20 6 19 7 17 8 16 9 15 10 14 11 6 12
REMARK SMILES IDX 7 13 8 14 9 15 13 16 11 17 10 18 12 20 4 22 21 24 18 26
REMARK H PARENT 10 19 12 21 4 23 21 25 18 27
REMARK Flexibility Score: inf
ROOT
ATOM      1  C   UNL     1      26.623  27.404  47.959  1.00  0.00     0.180 A 
ATOM      2  C   UNL     1      26.463  28.800  48.003  1.00  0.00     0.208 A 
ATOM      3  C   UNL     1      25.195  29.348  47.754  1.00  0.00     0.238 A 
ATOM      4  O   UNL     1      25.047  30.594  47.849  1.00  0.00    -0.285 OA
ATOM      5  C   UNL     1      24.107  28.495  47.448  1.00  0.00     0.111 A 
ATOM      6  C   UNL     1      22.787  28.945  47.139  1.00  0.00     0.134 A 
ATOM      7  C   UNL     1      21.759  28.009  46.980  1.00  0.00     0.093 A 
ATOM      8  C   UNL     1      22.013  26.640  47.054  1.00  0.00     0.123 A 
ATOM      9  C   UNL     1      23.311  26.188  47.297  1.00  0.00     0.094 A 
ATOM     10  C   UNL     1      24.351  27.098  47.495  1.00  0.00     0.146 A 
ATOM     11  O   UNL     1      25.570  26.628  47.734  1.00  0.00    -0.452 OA
ENDROOT
BRANCH   1  12
ATOM     12  C   UNL     1      27.934  26.753  48.186  1.00  0.00     0.025 A 
ATOM     13  C   UNL     1      28.808  26.561  47.104  1.00  0.00     0.016 A 
ATOM     14  C   UNL     1      30.058  25.968  47.300  1.00  0.00     0.051 A 
ATOM     15  C   UNL     1      30.459  25.573  48.583  1.00  0.00     0.157 A 
ATOM     16  C   UNL     1      28.349  26.373  49.476  1.00  0.00     0.062 A 
ATOM     17  C   UNL     1      29.605  25.780  49.673  1.00  0.00     0.158 A 
BRANCH  15  18
ATOM     18  O   UNL     1      31.703  24.980  48.783  1.00  0.00    -0.504 OA
ATOM     19  H   UNL     1      32.473  25.134  48.140  1.00  0.00     0.293 HD
ENDBRANCH  15  18
BRANCH  17  20
ATOM     20  O   UNL     1      30.012  25.398  50.951  1.00  0.00    -0.504 OA
ATOM     21  H   UNL     1      30.991  25.369  51.209  1.00  0.00     0.293 HD
ENDBRANCH  17  20
ENDBRANCH   1  12
BRANCH   2  22
ATOM     22  O   UNL     1      27.546  29.621  48.330  1.00  0.00    -0.502 OA
ATOM     23  H   UNL     1      28.051  30.157  47.634  1.00  0.00     0.293 HD
ENDBRANCH   2  22
BRANCH   6  24
ATOM     24  O   UNL     1      22.444  30.287  46.952  1.00  0.00    -0.507 OA
ATOM     25  H   UNL     1      21.800  30.801  47.533  1.00  0.00     0.293 HD
ENDBRANCH   6  24
BRANCH   8  26
ATOM     26  O   UNL     1      20.968  25.736  46.875  1.00  0.00    -0.508 OA
ATOM     27  H   UNL     1      20.588  25.205  47.649  1.00  0.00     0.293 HD
ENDBRANCH   8  26
TORSDOF 6
ENDMDL
MODEL 6
REMARK VINA RESULT:    -0.176      3.588      6.432
REMARK INTER + INTRA:          -0.541
REMARK INTER:                  -0.218
REMARK INTRA:                  -0.323
REMARK UNBOUND:                -0.329
REMARK SMILES O=c1c(O)c(-c2ccc(O)c(O)c2)oc2cc(O)cc(O)c12
REMARK SMILES IDX 5 1 3 2 2 3 1 4 22 5 20 6 19 7 17 8 16 9 15 10 14 11 6 12
REMARK SMILES IDX 7 13 8 14 9 15 13 16 11 17 10 18 12 20 4 22 21 24 18 26
REMARK H PARENT 10 19 12 21 4 23 21 25 18 27
REMARK Flexibility Score: inf
ROOT
ATOM      1  C   UNL     1      23.853  26.916  47.991  1.00  0.00     0.180 A 
ATOM      2  C   UNL     1      25.090  26.311  47.707  1.00  0.00     0.208 A 
ATOM      3  C   UNL     1      25.119  24.951  47.360  1.00  0.00     0.238 A 
ATOM      4  O   UNL     1      26.223  24.429  47.054  1.00  0.00    -0.285 OA
ATOM      5  C   UNL     1      23.914  24.209  47.317  1.00  0.00     0.111 A 
ATOM      6  C   UNL     1      23.830  22.815  47.017  1.00  0.00     0.134 A 
ATOM      7  C   UNL     1      22.574  22.214  46.875  1.00  0.00     0.093 A 
ATOM      8  C   UNL     1      21.401  22.937  47.085  1.00  0.00     0.123 A 
ATOM      9  C   UNL     1      21.472  24.286  47.437  1.00  0.00     0.094 A 
ATOM     10  C   UNL     1      22.710  24.923  47.552  1.00  0.00     0.146 A 
ATOM     11  O   UNL     1      22.734  26.210  47.879  1.00  0.00    -0.452 OA
ENDROOT
BRANCH   1  12
ATOM     12  C   UNL     1      23.744  28.338  48.388  1.00  0.00     0.025 A 
ATOM     13  C   UNL     1      23.867  28.690  49.742  1.00  0.00     0.016 A 
ATOM     14  C   UNL     1      23.789  30.028  50.136  1.00  0.00     0.051 A 
ATOM     15  C   UNL     1      23.601  31.035  49.181  1.00  0.00     0.157 A 
ATOM     16  C   UNL     1      23.577  29.355  47.430  1.00  0.00     0.062 A 
ATOM     17  C   UNL     1      23.500  30.699  47.825  1.00  0.00     0.158 A 
BRANCH  15  18
ATOM     18  O   UNL     1      23.521  32.371  49.569  1.00  0.00    -0.504 OA
ATOM     19  H   UNL     1      22.701  32.932  49.371  1.00  0.00     0.293 HD
ENDBRANCH  15  18
BRANCH  17  20
ATOM     20  O   UNL     1      23.328  31.704  46.875  1.00  0.00    -0.504 OA
ATOM     21  H   UNL     1      23.347  32.684  47.131  1.00  0.00     0.293 HD
ENDBRANCH  17  20
ENDBRANCH   1  12
BRANCH   2  22
ATOM     22  O   UNL     1      26.264  27.068  47.733  1.00  0.00    -0.502 OA
ATOM     23  H   UNL     1      27.182  26.645  47.800  1.00  0.00     0.293 HD
ENDBRANCH   2  22
BRANCH   6  24
ATOM     24  O   UNL     1      24.942  21.979  46.877  1.00  0.00    -0.507 OA
ATOM     25  H   UNL     1      25.460  21.851  46.021  1.00  0.00     0.293 HD
ENDBRANCH   6  24
BRANCH   8  26
ATOM     26  O   UNL     1      20.168  22.303  46.951  1.00  0.00    -0.508 OA
ATOM     27  H   UNL     1      20.054  21.483  46.367  1.00  0.00     0.293 HD
ENDBRANCH   8  26
TORSDOF 6
ENDMDL
MODEL 7
REMARK VINA RESULT:    -0.171      2.922      7.335
REMARK INTER + INTRA:          -0.535
REMARK INTER:                  -0.200
REMARK INTRA:                  -0.334
REMARK UNBOUND:                -0.329
REMARK SMILES O=c1c(O)c(-c2ccc(O)c(O)c2)oc2cc(O)cc(O)c12
REMARK SMILES IDX 5 1 3 2 2 3 1 4 22 5 20 6 19 7 17 8 16 9 15 10 14 11 6 12
REMARK SMILES IDX 7 13 8 14 9 15 13 16 11 17 10 18 12 20 4 22 21 24 18 26
REMARK H PARENT 10 19 12 21 4 23 21 25 18 27
REMARK Flexibility Score: inf
ROOT
ATOM      1  C   UNL     1      24.757  26.488  47.868  1.00  0.00     0.180 A 
ATOM      2  C   UNL     1      25.964  27.016  47.378  1.00  0.00     0.208 A 
ATOM      3  C   UNL     1      27.108  26.201  47.366  1.00  0.00     0.238 A 
ATOM      4  O   UNL     1      28.172  26.662  46.875  1.00  0.00    -0.285 OA
ATOM      5  C   UNL     1      27.034  24.876  47.859  1.00  0.00     0.111 A 
ATOM      6  C   UNL     1      28.140  23.976  47.931  1.00  0.00     0.134 A 
ATOM      7  C   UNL     1      27.924  22.647  48.314  1.00  0.00     0.093 A 
ATOM      8  C   UNL     1      26.657  22.202  48.689  1.00  0.00     0.123 A 
ATOM      9  C   UNL     1      25.580  23.089  48.679  1.00  0.00     0.094 A 
ATOM     10  C   UNL     1      25.757  24.412  48.267  1.00  0.00     0.146 A 
ATOM     11  O   UNL     1      24.704  25.221  48.262  1.00  0.00    -0.452 OA
ENDROOT
BRANCH   1  12
ATOM     12  C   UNL     1      23.515  27.292  47.936  1.00  0.00     0.025 A 
ATOM     13  C   UNL     1      22.596  27.237  46.875  1.00  0.00     0.016 A 
ATOM     14  C   UNL     1      21.409  27.971  46.928  1.00  0.00     0.051 A 
ATOM     15  C   UNL     1      21.115  28.759  48.048  1.00  0.00     0.157 A 
ATOM     16  C   UNL     1      23.206  28.069  49.067  1.00  0.00     0.062 A 
ATOM     17  C   UNL     1      22.013  28.805  49.121  1.00  0.00     0.158 A 
BRANCH  15  18
ATOM     18  O   UNL     1      19.933  29.494  48.104  1.00  0.00    -0.504 OA
ATOM     19  H   UNL     1      19.447  29.649  48.980  1.00  0.00     0.293 HD
ENDBRANCH  15  18
BRANCH  17  20
ATOM     20  O   UNL     1      21.712  29.578  50.241  1.00  0.00    -0.504 OA
ATOM     21  H   UNL     1      21.740  29.191  51.177  1.00  0.00     0.293 HD
ENDBRANCH  17  20
ENDBRANCH   1  12
BRANCH   2  22
ATOM     22  O   UNL     1      26.008  28.319  46.875  1.00  0.00    -0.502 OA
ATOM     23  H   UNL     1      26.172  28.519  45.896  1.00  0.00     0.293 HD
ENDBRANCH   2  22
BRANCH   6  24
ATOM     24  O   UNL     1      29.463  24.342  47.666  1.00  0.00    -0.507 OA
ATOM     25  H   UNL     1      29.750  25.243  47.315  1.00  0.00     0.293 HD
ENDBRANCH   6  24
BRANCH   8  26
ATOM     26  O   UNL     1      26.482  20.876  49.080  1.00  0.00    -0.508 OA
ATOM     27  H   UNL     1      27.109  20.144  48.769  1.00  0.00     0.293 HD
ENDBRANCH   8  26
TORSDOF 6
ENDMDL
MODEL 8
REMARK VINA RESULT:    -0.160      2.745      6.940
REMARK INTER + INTRA:          -0.522
REMARK INTER:                  -0.204
REMARK INTRA:                  -0.317
REMARK UNBOUND:                -0.329
REMARK SMILES O=c1c(O)c(-c2ccc(O)c(O)c2)oc2cc(O)cc(O)c12
REMARK SMILES IDX 5 1 3 2 2 3 1 4 22 5 20 6 19 7 17 8 16 9 15 10 14 11 6 12
REMARK SMILES IDX 7 13 8 14 9 15 13 16 11 17 10 18 12 20 4 22 21 24 18 26
REMARK H PARENT 10 19 12 21 4 23 21 25 18 27
REMARK Flexibility Score: inf
ROOT
ATOM      1  C   UNL     1      24.103  26.222  48.057  1.00  0.00     0.180 A 
ATOM      2  C   UNL     1      23.753  24.861  48.102  1.00  0.00     0.208 A 
ATOM      3  C   UNL     1      24.736  23.896  47.832  1.00  0.00     0.238 A 
ATOM      4  O   UNL     1      24.429  22.678  47.926  1.00  0.00    -0.285 OA
ATOM      5  C   UNL     1      26.052  24.303  47.506  1.00  0.00     0.111 A 
ATOM      6  C   UNL     1      27.118  23.412  47.176  1.00  0.00     0.134 A 
ATOM      7  C   UNL     1      28.410  23.917  46.998  1.00  0.00     0.093 A 
ATOM      8  C   UNL     1      28.666  25.286  47.074  1.00  0.00     0.123 A 
ATOM      9  C   UNL     1      27.620  26.172  47.338  1.00  0.00     0.094 A 
ATOM     10  C   UNL     1      26.326  25.694  47.555  1.00  0.00     0.146 A 
ATOM     11  O   UNL     1      25.361  26.569  47.813  1.00  0.00    -0.452 OA
ENDROOT
BRANCH   1  12
ATOM     12  C   UNL     1      23.117  27.298  48.306  1.00  0.00     0.025 A 
ATOM     13  C   UNL     1      22.298  27.742  47.255  1.00  0.00     0.016 A 
ATOM     14  C   UNL     1      21.346  28.741  47.472  1.00  0.00     0.051 A 
ATOM     15  C   UNL     1      21.189  29.301  48.747  1.00  0.00     0.157 A 
ATOM     16  C   UNL     1      22.941  27.849  49.588  1.00  0.00     0.062 A 
ATOM     17  C   UNL     1      21.985  28.851  49.807  1.00  0.00     0.158 A 
BRANCH  15  18
ATOM     18  O   UNL     1      20.242  30.299  48.968  1.00  0.00    -0.504 OA
ATOM     19  H   UNL     1      19.543  30.530  48.271  1.00  0.00     0.293 HD
ENDBRANCH  15  18
BRANCH  17  20
ATOM     20  O   UNL     1      21.816  29.400  51.078  1.00  0.00    -0.504 OA
ATOM     21  H   UNL     1      21.643  30.389  51.210  1.00  0.00     0.293 HD
ENDBRANCH  17  20
ENDBRANCH   1  12
BRANCH   2  22
ATOM     22  O   UNL     1      22.453  24.482  48.448  1.00  0.00    -0.502 OA
ATOM     23  H   UNL     1      22.253  23.895  49.249  1.00  0.00     0.293 HD
ENDBRANCH   2  22
BRANCH   6  24
ATOM     24  O   UNL     1      26.954  22.036  46.985  1.00  0.00    -0.507 OA
ATOM     25  H   UNL     1      26.095  21.595  46.690  1.00  0.00     0.293 HD
ENDBRANCH   6  24
BRANCH   8  26
ATOM     26  O   UNL     1      29.962  25.756  46.876  1.00  0.00    -0.508 OA
ATOM     27  H   UNL     1      30.681  25.643  47.580  1.00  0.00     0.293 HD
ENDBRANCH   8  26
TORSDOF 6
ENDMDL
MODEL 9
REMARK VINA RESULT:    -0.151      3.359      3.956
REMARK INTER + INTRA:          -0.511
REMARK INTER:                  -0.183
REMARK INTRA:                  -0.329
REMARK UNBOUND:                -0.329
REMARK SMILES O=c1c(O)c(-c2ccc(O)c(O)c2)oc2cc(O)cc(O)c12
REMARK SMILES IDX 5 1 3 2 2 3 1 4 22 5 20 6 19 7 17 8 16 9 15 10 14 11 6 12
REMARK SMILES IDX 7 13 8 14 9 15 13 16 11 17 10 18 12 20 4 22 21 24 18 26
REMARK H PARENT 10 19 12 21 4 23 21 25 18 27
REMARK Flexibility Score: inf
ROOT
ATOM      1  C   UNL     1      26.842  24.082  49.235  1.00  0.00     0.180 A 
ATOM      2  C   UNL     1      25.843  23.182  48.822  1.00  0.00     0.208 A 
ATOM      3  C   UNL     1      24.726  23.675  48.129  1.00  0.00     0.238 A 
ATOM      4  O   UNL     1      23.863  22.858  47.715  1.00  0.00    -0.285 OA
ATOM      5  C   UNL     1      24.614  25.063  47.870  1.00  0.00     0.111 A 
ATOM      6  C   UNL     1      23.506  25.677  47.211  1.00  0.00     0.134 A 
ATOM      7  C   UNL     1      23.561  27.039  46.893  1.00  0.00     0.093 A 
ATOM      8  C   UNL     1      24.652  27.822  47.266  1.00  0.00     0.123 A 
ATOM      9  C   UNL     1      25.714  27.245  47.963  1.00  0.00     0.094 A 
ATOM     10  C   UNL     1      25.704  25.881  48.264  1.00  0.00     0.146 A 
ATOM     11  O   UNL     1      26.739  25.368  48.919  1.00  0.00    -0.452 OA
ENDROOT
BRANCH   1  12
ATOM     12  C   UNL     1      28.036  23.642  49.991  1.00  0.00     0.025 A 
ATOM     13  C   UNL     1      29.199  23.273  49.296  1.00  0.00     0.016 A 
ATOM     14  C   UNL     1      30.343  22.875  49.990  1.00  0.00     0.051 A 
ATOM     15  C   UNL     1      30.348  22.854  51.391  1.00  0.00     0.157 A 
ATOM     16  C   UNL     1      28.052  23.639  51.398  1.00  0.00     0.062 A 
ATOM     17  C   UNL     1      29.202  23.241  52.096  1.00  0.00     0.158 A 
BRANCH  15  18
ATOM     18  O   UNL     1      31.486  22.456  52.088  1.00  0.00    -0.504 OA
ATOM     19  H   UNL     1      31.732  22.869  52.981  1.00  0.00     0.293 HD
ENDBRANCH  15  18
BRANCH  17  20
ATOM     20  O   UNL     1      29.213  23.233  53.490  1.00  0.00    -0.504 OA
ATOM     21  H   UNL     1      29.792  22.587  54.012  1.00  0.00     0.293 HD
ENDBRANCH  17  20
ENDBRANCH   1  12
BRANCH   2  22
ATOM     22  O   UNL     1      25.986  21.814  49.069  1.00  0.00    -0.502 OA
ATOM     23  H   UNL     1      26.805  21.293  48.781  1.00  0.00     0.293 HD
ENDBRANCH   2  22
BRANCH   6  24
ATOM     24  O   UNL     1      22.327  25.004  46.875  1.00  0.00    -0.507 OA
ATOM     25  H   UNL     1      21.808  24.407  47.501  1.00  0.00     0.293 HD
ENDBRANCH   6  24
BRANCH   8  26
ATOM     26  O   UNL     1      24.667  29.178  46.946  1.00  0.00    -0.508 OA
ATOM     27  H   UNL     1      24.000  29.825  47.350  1.00  0.00     0.293 HD
ENDBRANCH   8  26
TORSDOF 6
ENDMDL
