MODEL 1
REMARK VINA RESULT:    -3.056      0.000      0.000
REMARK INTER + INTRA:          -6.686
REMARK INTER:                  -5.737
REMARK INTRA:                  -0.949
REMARK UNBOUND:                -0.949
REMARK SMILES CCCCCCCCC=CCCCCCCCC(=O)[O-]
REMARK SMILES IDX 10 1 9 2 11 3 12 4 13 5 14 6 15 7 16 8 17 9 18 10 19 11
REMARK SMILES IDX 20 12 8 13 7 14 6 15 5 16 4 17 3 18 2 19 1 20
REMARK H PARENT
REMARK Flexibility Score: inf
ROOT
ATOM      1  C   UNL     1       1.753 -14.642 -17.993  1.00  0.00    -0.031 C 
ATOM      2  C   UNL     1       0.740 -15.526 -17.946  1.00  0.00    -0.031 C 
ENDROOT
BRANCH   1   3
ATOM      3  C   UNL     1       1.764 -13.389 -18.836  1.00  0.00     0.027 C 
BRANCH   3   4
ATOM      4  C   UNL     1       2.877 -12.412 -18.409  1.00  0.00     0.004 C 
BRANCH   4   5
ATOM      5  C   UNL     1       2.676 -10.969 -18.908  1.00  0.00     0.000 C 
BRANCH   5   6
ATOM      6  C   UNL     1       3.601  -9.962 -18.209  1.00  0.00     0.000 C 
BRANCH   6   7
ATOM      7  C   UNL     1       2.808  -9.069 -17.241  1.00  0.00     0.000 C 
BRANCH   7   8
ATOM      8  C   UNL     1       3.367  -9.101 -15.810  1.00  0.00     0.006 C 
BRANCH   8   9
ATOM      9  C   UNL     1       3.370  -7.718 -15.142  1.00  0.00     0.053 C 
BRANCH   9  10
ATOM     10  C   UNL     1       3.709  -7.833 -13.690  1.00  0.00     0.041 C 
ATOM     11  O   UNL     1       3.176  -7.060 -12.852  1.00  0.00    -0.550 OA
ATOM     12  O   UNL     1       4.625  -8.789 -13.261  1.00  0.00    -0.550 OA
ENDBRANCH   9  10
ENDBRANCH   8   9
ENDBRANCH   7   8
ENDBRANCH   6   7
ENDBRANCH   5   6
ENDBRANCH   4   5
ENDBRANCH   3   4
ENDBRANCH   1   3
BRANCH   2  13
ATOM     13  C   UNL     1      -0.589 -15.346 -18.634  1.00  0.00     0.027 C 
BRANCH  13  14
ATOM     14  C   UNL     1      -1.410 -16.638 -18.562  1.00  0.00     0.004 C 
BRANCH  14  15
ATOM     15  C   UNL     1      -1.782 -17.138 -19.963  1.00  0.00     0.000 C 
BRANCH  15  16
ATOM     16  C   UNL     1      -1.793 -18.673 -20.010  1.00  0.00     0.000 C 
BRANCH  16  17
ATOM     17  C   UNL     1      -1.436 -19.317 -18.659  1.00  0.00    -0.000 C 
BRANCH  17  18
ATOM     18  C   UNL     1      -0.079 -20.054 -18.665  1.00  0.00    -0.000 C 
BRANCH  18  19
ATOM     19  C   UNL     1       1.032 -19.223 -18.005  1.00  0.00    -0.003 C 
ATOM     20  C   UNL     1       1.394 -19.773 -16.630  1.00  0.00     0.004 C 
ENDBRANCH  18  19
ENDBRANCH  17  18
ENDBRANCH  16  17
ENDBRANCH  15  16
ENDBRANCH  14  15
ENDBRANCH  13  14
ENDBRANCH   2  13
TORSDOF 15
ENDMDL
MODEL 2
REMARK VINA RESULT:    -2.614      2.997      3.820
REMARK INTER + INTRA:          -5.855
REMARK INTER:                  -4.512
REMARK INTRA:                  -1.343
REMARK UNBOUND:                -0.949
REMARK SMILES CCCCCCCCC=CCCCCCCCC(=O)[O-]
REMARK SMILES IDX 10 1 9 2 11 3 12 4 13 5 14 6 15 7 16 8 17 9 18 10 19 11
REMARK SMILES IDX 20 12 8 13 7 14 6 15 5 16 4 17 3 18 2 19 1 20
REMARK H PARENT
REMARK Flexibility Score: inf
ROOT
ATOM      1  C   UNL     1      -0.812 -15.589 -17.976  1.00  0.00    -0.031 C 
ATOM      2  C   UNL     1      -1.900 -16.003 -18.650  1.00  0.00    -0.031 C 
ENDROOT
BRANCH   1   3
ATOM      3  C   UNL     1       0.608 -15.718 -18.471  1.00  0.00     0.027 C 
BRANCH   3   4
ATOM      4  C   UNL     1       1.558 -14.722 -17.777  1.00  0.00     0.004 C 
BRANCH   4   5
ATOM      5  C   UNL     1       2.221 -13.712 -18.732  1.00  0.00     0.000 C 
BRANCH   5   6
ATOM      6  C   UNL     1       2.893 -12.545 -17.993  1.00  0.00     0.000 C 
BRANCH   6   7
ATOM      7  C   UNL     1       2.458 -11.197 -18.587  1.00  0.00     0.000 C 
BRANCH   7   8
ATOM      8  C   UNL     1       3.645 -10.269 -18.891  1.00  0.00     0.006 C 
BRANCH   8   9
ATOM      9  C   UNL     1       4.520 -10.782 -20.044  1.00  0.00     0.053 C 
BRANCH   9  10
ATOM     10  C   UNL     1       5.889 -11.131 -19.554  1.00  0.00     0.041 C 
ATOM     11  O   UNL     1       6.030 -11.857 -18.535  1.00  0.00    -0.550 OA
ATOM     12  O   UNL     1       7.012 -10.645 -20.215  1.00  0.00    -0.550 OA
ENDBRANCH   9  10
ENDBRANCH   8   9
ENDBRANCH   7   8
ENDBRANCH   6   7
ENDBRANCH   5   6
ENDBRANCH   4   5
ENDBRANCH   3   4
ENDBRANCH   1   3
BRANCH   2  13
ATOM     13  C   UNL     1      -1.883 -16.553 -20.054  1.00  0.00     0.027 C 
BRANCH  13  14
ATOM     14  C   UNL     1      -2.124 -18.066 -20.041  1.00  0.00     0.004 C 
BRANCH  14  15
ATOM     15  C   UNL     1      -0.800 -18.839 -20.069  1.00  0.00     0.000 C 
BRANCH  15  16
ATOM     16  C   UNL     1      -0.899 -20.125 -19.236  1.00  0.00     0.000 C 
BRANCH  16  17
ATOM     17  C   UNL     1      -1.486 -19.887 -17.833  1.00  0.00    -0.000 C 
BRANCH  17  18
ATOM     18  C   UNL     1      -0.468 -20.103 -16.692  1.00  0.00    -0.000 C 
BRANCH  18  19
ATOM     19  C   UNL     1       0.801 -19.259 -16.882  1.00  0.00    -0.003 C 
ATOM     20  C   UNL     1       2.047 -20.027 -16.458  1.00  0.00     0.004 C 
ENDBRANCH  18  19
ENDBRANCH  17  18
ENDBRANCH  16  17
ENDBRANCH  15  16
ENDBRANCH  14  15
ENDBRANCH  13  14
ENDBRANCH   2  13
TORSDOF 15
ENDMDL
MODEL 3
REMARK VINA RESULT:    -2.523      0.878      1.645
REMARK INTER + INTRA:          -5.685
REMARK INTER:                  -4.952
REMARK INTRA:                  -0.733
REMARK UNBOUND:                -0.949
REMARK SMILES CCCCCCCCC=CCCCCCCCC(=O)[O-]
REMARK SMILES IDX 10 1 9 2 11 3 12 4 13 5 14 6 15 7 16 8 17 9 18 10 19 11
REMARK SMILES IDX 20 12 8 13 7 14 6 15 5 16 4 17 3 18 2 19 1 20
REMARK H PARENT
REMARK Flexibility Score: inf
ROOT
ATOM      1  C   UNL     1       2.410 -12.797 -19.111  1.00  0.00    -0.031 C 
ATOM      2  C   UNL     1       1.497 -13.746 -18.832  1.00  0.00    -0.031 C 
ENDROOT
BRANCH   1   3
ATOM      3  C   UNL     1       3.644 -12.521 -18.287  1.00  0.00     0.027 C 
BRANCH   3   4
ATOM      4  C   UNL     1       4.470 -11.348 -18.851  1.00  0.00     0.004 C 
BRANCH   4   5
ATOM      5  C   UNL     1       3.694 -10.022 -18.954  1.00  0.00     0.000 C 
BRANCH   5   6
ATOM      6  C   UNL     1       2.602  -9.885 -17.884  1.00  0.00     0.000 C 
BRANCH   6   7
ATOM      7  C   UNL     1       2.787  -8.592 -17.073  1.00  0.00     0.000 C 
BRANCH   7   8
ATOM      8  C   UNL     1       3.447  -8.836 -15.707  1.00  0.00     0.006 C 
BRANCH   8   9
ATOM      9  C   UNL     1       3.413  -7.596 -14.801  1.00  0.00     0.053 C 
BRANCH   9  10
ATOM     10  C   UNL     1       3.840  -7.946 -13.411  1.00  0.00     0.041 C 
ATOM     11  O   UNL     1       4.492  -7.119 -12.722  1.00  0.00    -0.550 OA
ATOM     12  O   UNL     1       3.525  -9.192 -12.878  1.00  0.00    -0.550 OA
ENDBRANCH   9  10
ENDBRANCH   8   9
ENDBRANCH   7   8
ENDBRANCH   6   7
ENDBRANCH   5   6
ENDBRANCH   4   5
ENDBRANCH   3   4
ENDBRANCH   1   3
BRANCH   2  13
ATOM     13  C   UNL     1       1.624 -14.759 -17.724  1.00  0.00     0.027 C 
BRANCH  13  14
ATOM     14  C   UNL     1       0.812 -16.017 -18.051  1.00  0.00     0.004 C 
BRANCH  14  15
ATOM     15  C   UNL     1      -0.615 -15.658 -18.485  1.00  0.00     0.000 C 
BRANCH  15  16
ATOM     16  C   UNL     1      -1.415 -16.921 -18.832  1.00  0.00     0.000 C 
BRANCH  16  17
ATOM     17  C   UNL     1      -0.519 -18.119 -19.190  1.00  0.00    -0.000 C 
BRANCH  17  18
ATOM     18  C   UNL     1      -1.043 -19.467 -18.650  1.00  0.00    -0.000 C 
BRANCH  18  19
ATOM     19  C   UNL     1      -0.203 -19.982 -17.471  1.00  0.00    -0.003 C 
ATOM     20  C   UNL     1       1.201 -19.388 -17.489  1.00  0.00     0.004 C 
ENDBRANCH  18  19
ENDBRANCH  17  18
ENDBRANCH  16  17
ENDBRANCH  15  16
ENDBRANCH  14  15
ENDBRANCH  13  14
ENDBRANCH   2  13
TORSDOF 15
ENDMDL
MODEL 4
REMARK VINA RESULT:    -2.458      4.410     10.236
REMARK INTER + INTRA:          -5.562
REMARK INTER:                  -4.728
REMARK INTRA:                  -0.834
REMARK UNBOUND:                -0.949
REMARK SMILES CCCCCCCCC=CCCCCCCCC(=O)[O-]
REMARK SMILES IDX 10 1 9 2 11 3 12 4 13 5 14 6 15 7 16 8 17 9 18 10 19 11
REMARK SMILES IDX 20 12 8 13 7 14 6 15 5 16 4 17 3 18 2 19 1 20
REMARK H PARENT
REMARK Flexibility Score: inf
ROOT
ATOM      1  C   UNL     1       3.121 -13.291 -18.566  1.00  0.00    -0.031 C 
ATOM      2  C   UNL     1       3.534 -12.011 -18.551  1.00  0.00    -0.031 C 
ENDROOT
BRANCH   1   3
ATOM      3  C   UNL     1       1.686 -13.730 -18.724  1.00  0.00     0.027 C 
BRANCH   3   4
ATOM      4  C   UNL     1       1.303 -14.836 -17.721  1.00  0.00     0.004 C 
BRANCH   4   5
ATOM      5  C   UNL     1       0.492 -15.993 -18.334  1.00  0.00     0.000 C 
BRANCH   5   6
ATOM      6  C   UNL     1      -0.970 -15.613 -18.615  1.00  0.00     0.000 C 
BRANCH   6   7
ATOM      7  C   UNL     1      -1.881 -16.848 -18.542  1.00  0.00     0.000 C 
BRANCH   7   8
ATOM      8  C   UNL     1      -1.843 -17.693 -19.825  1.00  0.00     0.006 C 
BRANCH   8   9
ATOM      9  C   UNL     1      -1.838 -19.203 -19.544  1.00  0.00     0.053 C 
BRANCH   9  10
ATOM     10  C   UNL     1      -0.645 -19.584 -18.726  1.00  0.00     0.041 C 
ATOM     11  O   UNL     1       0.493 -19.647 -19.260  1.00  0.00    -0.550 OA
ATOM     12  O   UNL     1      -0.791 -19.880 -17.375  1.00  0.00    -0.550 OA
ENDBRANCH   9  10
ENDBRANCH   8   9
ENDBRANCH   7   8
ENDBRANCH   6   7
ENDBRANCH   5   6
ENDBRANCH   4   5
ENDBRANCH   3   4
ENDBRANCH   1   3
BRANCH   2  13
ATOM     13  C   UNL     1       2.647 -10.819 -18.807  1.00  0.00     0.027 C 
BRANCH  13  14
ATOM     14  C   UNL     1       3.220  -9.568 -18.133  1.00  0.00     0.004 C 
BRANCH  14  15
ATOM     15  C   UNL     1       2.418  -9.196 -16.880  1.00  0.00     0.000 C 
BRANCH  15  16
ATOM     16  C   UNL     1       3.205  -8.217 -15.998  1.00  0.00     0.000 C 
BRANCH  16  17
ATOM     17  C   UNL     1       4.018  -8.922 -14.898  1.00  0.00    -0.000 C 
BRANCH  17  18
ATOM     18  C   UNL     1       3.564  -8.563 -13.466  1.00  0.00    -0.000 C 
BRANCH  18  19
ATOM     19  C   UNL     1       3.747  -7.069 -13.160  1.00  0.00    -0.003 C 
ATOM     20  C   UNL     1       2.456  -6.446 -12.644  1.00  0.00     0.004 C 
ENDBRANCH  18  19
ENDBRANCH  17  18
ENDBRANCH  16  17
ENDBRANCH  15  16
ENDBRANCH  14  15
ENDBRANCH  13  14
ENDBRANCH   2  13
TORSDOF 15
ENDMDL
MODEL 5
REMARK VINA RESULT:    -2.397      4.000      9.795
REMARK INTER + INTRA:          -5.448
REMARK INTER:                  -4.450
REMARK INTRA:                  -0.999
REMARK UNBOUND:                -0.949
REMARK SMILES CCCCCCCCC=CCCCCCCCC(=O)[O-]
REMARK SMILES IDX 10 1 9 2 11 3 12 4 13 5 14 6 15 7 16 8 17 9 18 10 19 11
REMARK SMILES IDX 20 12 8 13 7 14 6 15 5 16 4 17 3 18 2 19 1 20
REMARK H PARENT
REMARK Flexibility Score: inf
ROOT
ATOM      1  C   UNL     1       1.614 -13.491 -18.749  1.00  0.00    -0.031 C 
ATOM      2  C   UNL     1       2.411 -12.419 -18.908  1.00  0.00    -0.031 C 
ENDROOT
BRANCH   1   3
ATOM      3  C   UNL     1       2.042 -14.798 -18.126  1.00  0.00     0.027 C 
BRANCH   3   4
ATOM      4  C   UNL     1       0.865 -15.779 -17.968  1.00  0.00     0.004 C 
BRANCH   4   5
ATOM      5  C   UNL     1      -0.485 -15.233 -18.468  1.00  0.00     0.000 C 
BRANCH   5   6
ATOM      6  C   UNL     1      -1.537 -16.334 -18.669  1.00  0.00     0.000 C 
BRANCH   6   7
ATOM      7  C   UNL     1      -1.132 -17.278 -19.812  1.00  0.00     0.000 C 
BRANCH   7   8
ATOM      8  C   UNL     1      -1.402 -18.756 -19.487  1.00  0.00     0.006 C 
BRANCH   8   9
ATOM      9  C   UNL     1      -0.112 -19.570 -19.306  1.00  0.00     0.053 C 
BRANCH   9  10
ATOM     10  C   UNL     1       0.300 -19.593 -17.868  1.00  0.00     0.041 C 
ATOM     11  O   UNL     1      -0.533 -19.900 -16.977  1.00  0.00    -0.550 OA
ATOM     12  O   UNL     1       1.603 -19.263 -17.511  1.00  0.00    -0.550 OA
ENDBRANCH   9  10
ENDBRANCH   8   9
ENDBRANCH   7   8
ENDBRANCH   6   7
ENDBRANCH   5   6
ENDBRANCH   4   5
ENDBRANCH   3   4
ENDBRANCH   1   3
BRANCH   2  13
ATOM     13  C   UNL     1       3.820 -12.312 -18.383  1.00  0.00     0.027 C 
BRANCH  13  14
ATOM     14  C   UNL     1       4.317 -10.865 -18.473  1.00  0.00     0.004 C 
BRANCH  14  15
ATOM     15  C   UNL     1       3.178  -9.908 -18.843  1.00  0.00     0.000 C 
BRANCH  15  16
ATOM     16  C   UNL     1       2.537  -9.307 -17.584  1.00  0.00     0.000 C 
BRANCH  16  17
ATOM     17  C   UNL     1       3.493  -9.283 -16.378  1.00  0.00    -0.000 C 
BRANCH  17  18
ATOM     18  C   UNL     1       3.302  -8.056 -15.461  1.00  0.00    -0.000 C 
BRANCH  18  19
ATOM     19  C   UNL     1       3.866  -8.294 -14.052  1.00  0.00    -0.003 C 
ATOM     20  C   UNL     1       3.552  -7.126 -13.125  1.00  0.00     0.004 C 
ENDBRANCH  18  19
ENDBRANCH  17  18
ENDBRANCH  16  17
ENDBRANCH  15  16
ENDBRANCH  14  15
ENDBRANCH  13  14
ENDBRANCH   2  13
TORSDOF 15
ENDMDL
MODEL 6
REMARK VINA RESULT:    -2.318      4.353     10.073
REMARK INTER + INTRA:          -5.299
REMARK INTER:                  -4.596
REMARK INTRA:                  -0.703
REMARK UNBOUND:                -0.949
REMARK SMILES CCCCCCCCC=CCCCCCCCC(=O)[O-]
REMARK SMILES IDX 10 1 9 2 11 3 12 4 13 5 14 6 15 7 16 8 17 9 18 10 19 11
REMARK SMILES IDX 20 12 8 13 7 14 6 15 5 16 4 17 3 18 2 19 1 20
REMARK H PARENT
REMARK Flexibility Score: inf
ROOT
ATOM      1  C   UNL     1       3.027 -13.368 -18.763  1.00  0.00    -0.031 C 
ATOM      2  C   UNL     1       3.500 -12.109 -18.723  1.00  0.00    -0.031 C 
ENDROOT
BRANCH   1   3
ATOM      3  C   UNL     1       1.569 -13.744 -18.657  1.00  0.00     0.027 C 
BRANCH   3   4
ATOM      4  C   UNL     1       1.351 -14.983 -17.766  1.00  0.00     0.004 C 
BRANCH   4   5
ATOM      5  C   UNL     1       0.488 -16.082 -18.412  1.00  0.00     0.000 C 
BRANCH   5   6
ATOM      6  C   UNL     1      -1.005 -15.723 -18.450  1.00  0.00     0.000 C 
BRANCH   6   7
ATOM      7  C   UNL     1      -1.763 -16.632 -19.429  1.00  0.00     0.000 C 
BRANCH   7   8
ATOM      8  C   UNL     1      -0.987 -17.912 -19.776  1.00  0.00     0.006 C 
BRANCH   8   9
ATOM      9  C   UNL     1      -1.585 -19.166 -19.121  1.00  0.00     0.053 C 
BRANCH   9  10
ATOM     10  C   UNL     1      -0.707 -19.652 -18.011  1.00  0.00     0.041 C 
ATOM     11  O   UNL     1       0.502 -19.920 -18.233  1.00  0.00    -0.550 OA
ATOM     12  O   UNL     1      -1.228 -19.820 -16.733  1.00  0.00    -0.550 OA
ENDBRANCH   9  10
ENDBRANCH   8   9
ENDBRANCH   7   8
ENDBRANCH   6   7
ENDBRANCH   5   6
ENDBRANCH   4   5
ENDBRANCH   3   4
ENDBRANCH   1   3
BRANCH   2  13
ATOM     13  C   UNL     1       2.641 -10.871 -18.685  1.00  0.00     0.027 C 
BRANCH  13  14
ATOM     14  C   UNL     1       3.453  -9.669 -18.191  1.00  0.00     0.004 C 
BRANCH  14  15
ATOM     15  C   UNL     1       2.657  -8.843 -17.172  1.00  0.00     0.000 C 
BRANCH  15  16
ATOM     16  C   UNL     1       3.429  -8.711 -15.852  1.00  0.00     0.000 C 
BRANCH  16  17
ATOM     17  C   UNL     1       3.126  -7.398 -15.109  1.00  0.00    -0.000 C 
BRANCH  17  18
ATOM     18  C   UNL     1       3.681  -7.360 -13.669  1.00  0.00    -0.000 C 
BRANCH  18  19
ATOM     19  C   UNL     1       3.642  -8.741 -12.998  1.00  0.00    -0.003 C 
ATOM     20  C   UNL     1       5.038  -9.343 -12.885  1.00  0.00     0.004 C 
ENDBRANCH  18  19
ENDBRANCH  17  18
ENDBRANCH  16  17
ENDBRANCH  15  16
ENDBRANCH  14  15
ENDBRANCH  13  14
ENDBRANCH   2  13
TORSDOF 15
ENDMDL
MODEL 7
REMARK VINA RESULT:    -1.822      1.257      3.014
REMARK INTER + INTRA:          -4.368
REMARK INTER:                  -4.667
REMARK INTRA:                   0.299
REMARK UNBOUND:                -0.949
REMARK SMILES CCCCCCCCC=CCCCCCCCC(=O)[O-]
REMARK SMILES IDX 10 1 9 2 11 3 12 4 13 5 14 6 15 7 16 8 17 9 18 10 19 11
REMARK SMILES IDX 20 12 8 13 7 14 6 15 5 16 4 17 3 18 2 19 1 20
REMARK H PARENT
REMARK Flexibility Score: inf
ROOT
ATOM      1  C   UNL     1       4.664 -11.487 -18.667  1.00  0.00    -0.031 C 
ATOM      2  C   UNL     1       3.917 -12.548 -18.311  1.00  0.00    -0.031 C 
ENDROOT
BRANCH   1   3
ATOM      3  C   UNL     1       4.222 -10.402 -19.618  1.00  0.00     0.027 C 
BRANCH   3   4
ATOM      4  C   UNL     1       3.019  -9.608 -19.073  1.00  0.00     0.004 C 
BRANCH   4   5
ATOM      5  C   UNL     1       2.809  -9.741 -17.554  1.00  0.00     0.000 C 
BRANCH   5   6
ATOM      6  C   UNL     1       2.680  -8.383 -16.848  1.00  0.00     0.000 C 
BRANCH   6   7
ATOM      7  C   UNL     1       3.549  -8.338 -15.581  1.00  0.00     0.000 C 
BRANCH   7   8
ATOM      8  C   UNL     1       3.246  -7.121 -14.694  1.00  0.00     0.006 C 
BRANCH   8   9
ATOM      9  C   UNL     1       3.731  -7.303 -13.248  1.00  0.00     0.053 C 
BRANCH   9  10
ATOM     10  C   UNL     1       3.969  -8.749 -12.949  1.00  0.00     0.041 C 
ATOM     11  O   UNL     1       5.125  -9.234 -13.052  1.00  0.00    -0.550 OA
ATOM     12  O   UNL     1       2.909  -9.565 -12.567  1.00  0.00    -0.550 OA
ENDBRANCH   9  10
ENDBRANCH   8   9
ENDBRANCH   7   8
ENDBRANCH   6   7
ENDBRANCH   5   6
ENDBRANCH   4   5
ENDBRANCH   3   4
ENDBRANCH   1   3
BRANCH   2  13
ATOM     13  C   UNL     1       2.479 -12.758 -18.712  1.00  0.00     0.027 C 
BRANCH  13  14
ATOM     14  C   UNL     1       2.137 -14.251 -18.722  1.00  0.00     0.004 C 
BRANCH  14  15
ATOM     15  C   UNL     1       0.984 -14.563 -17.760  1.00  0.00     0.000 C 
BRANCH  15  16
ATOM     16  C   UNL     1       0.058 -15.638 -18.346  1.00  0.00     0.000 C 
BRANCH  16  17
ATOM     17  C   UNL     1       0.692 -17.040 -18.347  1.00  0.00    -0.000 C 
BRANCH  17  18
ATOM     18  C   UNL     1      -0.249 -18.144 -18.877  1.00  0.00    -0.000 C 
BRANCH  18  19
ATOM     19  C   UNL     1       0.294 -19.552 -18.588  1.00  0.00    -0.003 C 
ATOM     20  C   UNL     1       1.339 -19.527 -17.479  1.00  0.00     0.004 C 
ENDBRANCH  18  19
ENDBRANCH  17  18
ENDBRANCH  16  17
ENDBRANCH  15  16
ENDBRANCH  14  15
ENDBRANCH  13  14
ENDBRANCH   2  13
TORSDOF 15
ENDMDL
MODEL 8
REMARK VINA RESULT:    -1.544      4.414      9.554
REMARK INTER + INTRA:          -3.846
REMARK INTER:                  -2.681
REMARK INTRA:                  -1.165
REMARK UNBOUND:                -0.949
REMARK SMILES CCCCCCCCC=CCCCCCCCC(=O)[O-]
REMARK SMILES IDX 10 1 9 2 11 3 12 4 13 5 14 6 15 7 16 8 17 9 18 10 19 11
REMARK SMILES IDX 20 12 8 13 7 14 6 15 5 16 4 17 3 18 2 19 1 20
REMARK H PARENT
REMARK Flexibility Score: inf
ROOT
ATOM      1  C   UNL     1       0.998 -14.958 -17.777  1.00  0.00    -0.031 C 
ATOM      2  C   UNL     1       1.986 -14.046 -17.743  1.00  0.00    -0.031 C 
ENDROOT
BRANCH   1   3
ATOM      3  C   UNL     1       0.235 -15.357 -19.017  1.00  0.00     0.027 C 
BRANCH   3   4
ATOM      4  C   UNL     1      -1.278 -15.482 -18.753  1.00  0.00     0.004 C 
BRANCH   4   5
ATOM      5  C   UNL     1      -1.932 -16.718 -19.399  1.00  0.00     0.000 C 
BRANCH   5   6
ATOM      6  C   UNL     1      -1.691 -18.007 -18.600  1.00  0.00     0.000 C 
BRANCH   6   7
ATOM      7  C   UNL     1      -1.236 -19.147 -19.523  1.00  0.00     0.000 C 
BRANCH   7   8
ATOM      8  C   UNL     1      -0.230 -20.094 -18.849  1.00  0.00     0.006 C 
BRANCH   8   9
ATOM      9  C   UNL     1       0.884 -19.344 -18.104  1.00  0.00     0.053 C 
BRANCH   9  10
ATOM     10  C   UNL     1       1.013 -19.847 -16.702  1.00  0.00     0.041 C 
ATOM     11  O   UNL     1      -0.016 -20.125 -16.033  1.00  0.00    -0.550 OA
ATOM     12  O   UNL     1       2.271 -20.000 -16.128  1.00  0.00    -0.550 OA
ENDBRANCH   9  10
ENDBRANCH   8   9
ENDBRANCH   7   8
ENDBRANCH   6   7
ENDBRANCH   5   6
ENDBRANCH   4   5
ENDBRANCH   3   4
ENDBRANCH   1   3
BRANCH   2  13
ATOM     13  C   UNL     1       2.566 -13.365 -18.956  1.00  0.00     0.027 C 
BRANCH  13  14
ATOM     14  C   UNL     1       2.279 -11.860 -18.916  1.00  0.00     0.004 C 
BRANCH  14  15
ATOM     15  C   UNL     1       3.208 -11.144 -17.928  1.00  0.00     0.000 C 
BRANCH  15  16
ATOM     16  C   UNL     1       4.641 -11.078 -18.473  1.00  0.00     0.000 C 
BRANCH  16  17
ATOM     17  C   UNL     1       4.721 -10.450 -19.876  1.00  0.00    -0.000 C 
BRANCH  17  18
ATOM     18  C   UNL     1       5.959 -10.896 -20.684  1.00  0.00    -0.000 C 
BRANCH  18  19
ATOM     19  C   UNL     1       7.258 -10.747 -19.879  1.00  0.00    -0.003 C 
ATOM     20  C   UNL     1       8.323 -10.006 -20.678  1.00  0.00     0.004 C 
ENDBRANCH  18  19
ENDBRANCH  17  18
ENDBRANCH  16  17
ENDBRANCH  15  16
ENDBRANCH  14  15
ENDBRANCH  13  14
ENDBRANCH   2  13
TORSDOF 15
ENDMDL
MODEL 9
REMARK VINA RESULT:    -1.369      1.861      2.894
REMARK INTER + INTRA:          -3.519
REMARK INTER:                  -2.449
REMARK INTRA:                  -1.070
REMARK UNBOUND:                -0.949
REMARK SMILES CCCCCCCCC=CCCCCCCCC(=O)[O-]
REMARK SMILES IDX 10 1 9 2 11 3 12 4 13 5 14 6 15 7 16 8 17 9 18 10 19 11
REMARK SMILES IDX 20 12 8 13 7 14 6 15 5 16 4 17 3 18 2 19 1 20
REMARK H PARENT
REMARK Flexibility Score: inf
ROOT
ATOM      1  C   UNL     1      -0.384 -14.705 -18.973  1.00  0.00    -0.031 C 
ATOM      2  C   UNL     1      -1.488 -15.267 -19.497  1.00  0.00    -0.031 C 
ENDROOT
BRANCH   1   3
ATOM      3  C   UNL     1       0.325 -15.193 -17.732  1.00  0.00     0.027 C 
BRANCH   3   4
ATOM      4  C   UNL     1       1.819 -14.817 -17.731  1.00  0.00     0.004 C 
BRANCH   4   5
ATOM      5  C   UNL     1       2.168 -13.612 -18.624  1.00  0.00     0.000 C 
BRANCH   5   6
ATOM      6  C   UNL     1       3.424 -12.864 -18.154  1.00  0.00     0.000 C 
BRANCH   6   7
ATOM      7  C   UNL     1       3.899 -11.864 -19.219  1.00  0.00     0.000 C 
BRANCH   7   8
ATOM      8  C   UNL     1       4.325 -10.514 -18.621  1.00  0.00     0.006 C 
BRANCH   8   9
ATOM      9  C   UNL     1       3.257  -9.423 -18.794  1.00  0.00     0.053 C 
BRANCH   9  10
ATOM     10  C   UNL     1       2.445  -9.277 -17.546  1.00  0.00     0.041 C 
ATOM     11  O   UNL     1       1.189  -9.250 -17.608  1.00  0.00    -0.550 OA
ATOM     12  O   UNL     1       3.077  -9.159 -16.313  1.00  0.00    -0.550 OA
ENDBRANCH   9  10
ENDBRANCH   8   9
ENDBRANCH   7   8
ENDBRANCH   6   7
ENDBRANCH   5   6
ENDBRANCH   4   5
ENDBRANCH   3   4
ENDBRANCH   1   3
BRANCH   2  13
ATOM     13  C   UNL     1      -2.123 -16.540 -18.998  1.00  0.00     0.027 C 
BRANCH  13  14
ATOM     14  C   UNL     1      -1.849 -17.693 -19.969  1.00  0.00     0.004 C 
BRANCH  14  15
ATOM     15  C   UNL     1      -1.978 -19.051 -19.269  1.00  0.00     0.000 C 
BRANCH  15  16
ATOM     16  C   UNL     1      -1.038 -20.086 -19.903  1.00  0.00     0.000 C 
BRANCH  16  17
ATOM     17  C   UNL     1       0.436 -19.871 -19.520  1.00  0.00    -0.000 C 
BRANCH  17  18
ATOM     18  C   UNL     1       0.636 -18.865 -18.366  1.00  0.00    -0.000 C 
BRANCH  18  19
ATOM     19  C   UNL     1       1.279 -19.521 -17.134  1.00  0.00    -0.003 C 
ATOM     20  C   UNL     1       0.225 -20.125 -16.214  1.00  0.00     0.004 C 
ENDBRANCH  18  19
ENDBRANCH  17  18
ENDBRANCH  16  17
ENDBRANCH  15  16
ENDBRANCH  14  15
ENDBRANCH  13  14
ENDBRANCH   2  13
TORSDOF 15
ENDMDL
