MODEL 1
REMARK VINA RESULT:    -7.071      0.000      0.000
REMARK INTER + INTRA:          -7.717
REMARK INTER:                  -7.691
REMARK INTRA:                  -0.026
REMARK UNBOUND:                -0.026
REMARK SMILES CC1(C)CC[C@@]2(C(=O)[O-])CC[C@@]3(C)C(=CC[C@H]4[C@@]5(C)CC[C@@H](O)C(C)(C)[C@H]5CC[C@]43C)[C@H]2C1
REMARK SMILES IDX 6 1 5 2 10 3 32 4 4 5 11 6 14 7 33 8 2 9 12 10 15 11 1 12
REMARK SMILES IDX 3 13 13 14 30 15 16 16 17 17 29 18 31 19 18 20 28 21 27 22
REMARK SMILES IDX 20 23 19 24 24 25 21 26 22 27 25 28 26 29 7 30 8 31 9 32
REMARK SMILES IDX 23 33
REMARK H PARENT 23 34
REMARK Flexibility Score: inf
ROOT
ATOM      1  C   UNL     1     -22.048  47.145  38.268  1.00  0.00     0.017 C 
ATOM      2  C   UNL     1     -22.709  48.092  39.298  1.00  0.00     0.014 C 
ATOM      3  C   UNL     1     -22.468  45.668  38.478  1.00  0.00     0.014 C 
ATOM      4  C   UNL     1     -22.530  47.568  36.847  1.00  0.00     0.028 C 
ATOM      5  C   UNL     1     -22.196  49.525  39.151  1.00  0.00     0.007 C 
ATOM      6  C   UNL     1     -23.986  45.489  38.610  1.00  0.00     0.013 C 
ATOM      7  C   UNL     1     -24.035  47.218  36.588  1.00  0.00    -0.064 C 
ATOM      8  C   UNL     1     -22.182  49.072  36.584  1.00  0.00     0.015 C 
ATOM      9  C   UNL     1     -22.474  50.105  37.738  1.00  0.00    -0.035 C 
ATOM     10  C   UNL     1     -24.833  46.191  37.473  1.00  0.00    -0.006 C 
ATOM     11  C   UNL     1     -24.618  47.613  35.415  1.00  0.00    -0.027 C 
ATOM     12  C   UNL     1     -21.483  51.289  37.529  1.00  0.00     0.011 C 
ATOM     13  C   UNL     1     -23.911  50.629  37.635  1.00  0.00     0.011 C 
ATOM     14  C   UNL     1     -25.999  46.989  38.184  1.00  0.00     0.017 C 
ATOM     15  C   UNL     1     -25.451  45.057  36.512  1.00  0.00    -0.020 C 
ATOM     16  C   UNL     1     -26.061  47.282  35.159  1.00  0.00     0.032 C 
ATOM     17  C   UNL     1     -26.367  45.765  35.426  1.00  0.00     0.006 C 
ATOM     18  C   UNL     1     -24.320  44.283  35.755  1.00  0.00     0.008 C 
ATOM     19  C   UNL     1     -26.309  44.031  37.365  1.00  0.00     0.012 C 
ATOM     20  C   UNL     1     -26.654  44.922  34.101  1.00  0.00    -0.025 C 
ATOM     21  C   UNL     1     -24.869  43.128  34.929  1.00  0.00     0.005 C 
ATOM     22  C   UNL     1     -26.282  43.363  34.278  1.00  0.00     0.003 C 
ATOM     23  C   UNL     1     -25.810  45.384  32.863  1.00  0.00     0.010 C 
ATOM     24  C   UNL     1     -28.157  45.267  33.769  1.00  0.00     0.012 C 
ATOM     25  C   UNL     1     -26.554  42.466  33.012  1.00  0.00    -0.006 C 
ATOM     26  C   UNL     1     -26.200  44.586  31.596  1.00  0.00     0.033 C 
ATOM     27  C   UNL     1     -25.878  43.066  31.733  1.00  0.00     0.120 C 
ATOM     28  C   UNL     1     -26.026  41.013  33.194  1.00  0.00     0.014 C 
ATOM     29  C   UNL     1     -28.115  42.309  32.844  1.00  0.00     0.014 C 
ENDROOT
BRANCH   1  30
ATOM     30  C   UNL     1     -20.522  47.147  38.412  1.00  0.00     0.048 C 
ATOM     31  O   UNL     1     -19.814  47.145  37.335  1.00  0.00    -0.550 OA
ATOM     32  O   UNL     1     -19.895  47.023  39.634  1.00  0.00    -0.550 OA
ENDBRANCH   1  30
BRANCH  27  33
ATOM     33  O   UNL     1     -24.488  42.910  31.802  1.00  0.00    -0.393 OA
ATOM     34  H   UNL     1     -24.310  42.171  32.444  1.00  0.00     0.210 HD
ENDBRANCH  27  33
TORSDOF 2
ENDMDL
MODEL 2
REMARK VINA RESULT:    -6.978      3.791      5.126
REMARK INTER + INTRA:          -7.616
REMARK INTER:                  -7.651
REMARK INTRA:                   0.036
REMARK UNBOUND:                -0.026
REMARK SMILES CC1(C)CC[C@@]2(C(=O)[O-])CC[C@@]3(C)C(=CC[C@H]4[C@@]5(C)CC[C@@H](O)C(C)(C)[C@H]5CC[C@]43C)[C@H]2C1
REMARK SMILES IDX 6 1 5 2 10 3 32 4 4 5 11 6 14 7 33 8 2 9 12 10 15 11 1 12
REMARK SMILES IDX 3 13 13 14 30 15 16 16 17 17 29 18 31 19 18 20 28 21 27 22
REMARK SMILES IDX 20 23 19 24 24 25 21 26 22 27 25 28 26 29 7 30 8 31 9 32
REMARK SMILES IDX 23 33
REMARK H PARENT 23 34
REMARK Flexibility Score: inf
ROOT
ATOM      1  C   UNL     1     -21.432  48.275  37.137  1.00  0.00     0.017 C 
ATOM      2  C   UNL     1     -22.495  48.055  38.239  1.00  0.00     0.014 C 
ATOM      3  C   UNL     1     -21.477  47.169  36.051  1.00  0.00     0.014 C 
ATOM      4  C   UNL     1     -21.741  49.631  36.433  1.00  0.00     0.028 C 
ATOM      5  C   UNL     1     -22.362  49.086  39.360  1.00  0.00     0.007 C 
ATOM      6  C   UNL     1     -22.890  46.913  35.515  1.00  0.00     0.013 C 
ATOM      7  C   UNL     1     -23.027  49.570  35.540  1.00  0.00    -0.064 C 
ATOM      8  C   UNL     1     -21.761  50.792  37.483  1.00  0.00     0.015 C 
ATOM      9  C   UNL     1     -22.521  50.540  38.840  1.00  0.00    -0.035 C 
ATOM     10  C   UNL     1     -23.672  48.215  35.070  1.00  0.00    -0.006 C 
ATOM     11  C   UNL     1     -23.469  50.714  34.932  1.00  0.00    -0.027 C 
ATOM     12  C   UNL     1     -21.857  51.476  39.896  1.00  0.00     0.011 C 
ATOM     13  C   UNL     1     -24.001  50.912  38.701  1.00  0.00     0.011 C 
ATOM     14  C   UNL     1     -25.117  48.135  35.708  1.00  0.00     0.017 C 
ATOM     15  C   UNL     1     -23.782  48.229  33.463  1.00  0.00    -0.020 C 
ATOM     16  C   UNL     1     -24.702  50.665  34.074  1.00  0.00     0.032 C 
ATOM     17  C   UNL     1     -24.639  49.493  33.031  1.00  0.00     0.006 C 
ATOM     18  C   UNL     1     -22.369  48.359  32.803  1.00  0.00     0.008 C 
ATOM     19  C   UNL     1     -24.479  46.897  32.956  1.00  0.00     0.012 C 
ATOM     20  C   UNL     1     -24.447  49.981  31.523  1.00  0.00    -0.025 C 
ATOM     21  C   UNL     1     -22.433  48.256  31.285  1.00  0.00     0.005 C 
ATOM     22  C   UNL     1     -23.715  48.871  30.611  1.00  0.00     0.003 C 
ATOM     23  C   UNL     1     -23.544  51.256  31.383  1.00  0.00     0.010 C 
ATOM     24  C   UNL     1     -25.901  50.416  31.094  1.00  0.00     0.012 C 
ATOM     25  C   UNL     1     -23.505  49.280  29.105  1.00  0.00    -0.006 C 
ATOM     26  C   UNL     1     -23.472  51.725  29.909  1.00  0.00     0.033 C 
ATOM     27  C   UNL     1     -22.790  50.669  28.987  1.00  0.00     0.120 C 
ATOM     28  C   UNL     1     -22.653  48.237  28.323  1.00  0.00     0.014 C 
ATOM     29  C   UNL     1     -24.910  49.270  28.390  1.00  0.00     0.014 C 
ENDROOT
BRANCH   1  30
ATOM     30  C   UNL     1     -20.013  48.205  37.713  1.00  0.00     0.048 C 
ATOM     31  O   UNL     1     -19.044  48.653  36.990  1.00  0.00    -0.550 OA
ATOM     32  O   UNL     1     -19.730  47.573  38.906  1.00  0.00    -0.550 OA
ENDBRANCH   1  30
BRANCH  27  33
ATOM     33  O   UNL     1     -21.445  50.554  29.360  1.00  0.00    -0.393 OA
ATOM     34  H   UNL     1     -21.067  49.787  28.851  1.00  0.00     0.210 HD
ENDBRANCH  27  33
TORSDOF 2
ENDMDL
MODEL 3
REMARK VINA RESULT:    -6.961      4.078      8.624
REMARK INTER + INTRA:          -7.597
REMARK INTER:                  -7.644
REMARK INTRA:                   0.046
REMARK UNBOUND:                -0.026
REMARK SMILES CC1(C)CC[C@@]2(C(=O)[O-])CC[C@@]3(C)C(=CC[C@H]4[C@@]5(C)CC[C@@H](O)C(C)(C)[C@H]5CC[C@]43C)[C@H]2C1
REMARK SMILES IDX 6 1 5 2 10 3 32 4 4 5 11 6 14 7 33 8 2 9 12 10 15 11 1 12
REMARK SMILES IDX 3 13 13 14 30 15 16 16 17 17 29 18 31 19 18 20 28 21 27 22
REMARK SMILES IDX 20 23 19 24 24 25 21 26 22 27 25 28 26 29 7 30 8 31 9 32
REMARK SMILES IDX 23 33
REMARK H PARENT 23 34
REMARK Flexibility Score: inf
ROOT
ATOM      1  C   UNL     1     -21.059  49.267  35.756  1.00  0.00     0.017 C 
ATOM      2  C   UNL     1     -21.173  48.338  34.523  1.00  0.00     0.014 C 
ATOM      3  C   UNL     1     -20.610  50.699  35.370  1.00  0.00     0.014 C 
ATOM      4  C   UNL     1     -22.471  49.381  36.405  1.00  0.00     0.028 C 
ATOM      5  C   UNL     1     -21.503  46.903  34.931  1.00  0.00     0.007 C 
ATOM      6  C   UNL     1     -21.425  51.292  34.213  1.00  0.00     0.013 C 
ATOM      7  C   UNL     1     -23.469  50.225  35.541  1.00  0.00    -0.064 C 
ATOM      8  C   UNL     1     -23.011  47.959  36.777  1.00  0.00     0.015 C 
ATOM      9  C   UNL     1     -22.842  46.809  35.713  1.00  0.00    -0.035 C 
ATOM     10  C   UNL     1     -22.993  51.189  34.393  1.00  0.00    -0.006 C 
ATOM     11  C   UNL     1     -24.772  50.334  35.945  1.00  0.00    -0.027 C 
ATOM     12  C   UNL     1     -22.809  45.471  36.513  1.00  0.00     0.011 C 
ATOM     13  C   UNL     1     -24.036  46.790  34.752  1.00  0.00     0.011 C 
ATOM     14  C   UNL     1     -23.584  50.632  33.035  1.00  0.00     0.017 C 
ATOM     15  C   UNL     1     -23.579  52.661  34.683  1.00  0.00    -0.020 C 
ATOM     16  C   UNL     1     -25.736  51.141  35.122  1.00  0.00     0.032 C 
ATOM     17  C   UNL     1     -25.160  52.561  34.778  1.00  0.00     0.006 C 
ATOM     18  C   UNL     1     -23.050  53.218  36.047  1.00  0.00     0.008 C 
ATOM     19  C   UNL     1     -23.163  53.650  33.514  1.00  0.00     0.012 C 
ATOM     20  C   UNL     1     -25.888  53.756  35.546  1.00  0.00    -0.025 C 
ATOM     21  C   UNL     1     -23.494  54.654  36.290  1.00  0.00     0.005 C 
ATOM     22  C   UNL     1     -24.921  55.031  35.745  1.00  0.00     0.003 C 
ATOM     23  C   UNL     1     -26.345  53.385  37.000  1.00  0.00     0.010 C 
ATOM     24  C   UNL     1     -27.205  53.978  34.709  1.00  0.00     0.012 C 
ATOM     25  C   UNL     1     -25.579  56.255  36.485  1.00  0.00    -0.006 C 
ATOM     26  C   UNL     1     -27.119  54.556  37.654  1.00  0.00     0.033 C 
ATOM     27  C   UNL     1     -26.225  55.820  37.844  1.00  0.00     0.120 C 
ATOM     28  C   UNL     1     -24.551  57.385  36.787  1.00  0.00     0.014 C 
ATOM     29  C   UNL     1     -26.629  56.916  35.511  1.00  0.00     0.014 C 
ENDROOT
BRANCH   1  30
ATOM     30  C   UNL     1     -19.986  48.765  36.729  1.00  0.00     0.048 C 
ATOM     31  O   UNL     1     -18.792  48.591  36.275  1.00  0.00    -0.550 OA
ATOM     32  O   UNL     1     -20.281  48.380  38.020  1.00  0.00    -0.550 OA
ENDBRANCH   1  30
BRANCH  27  33
ATOM     33  O   UNL     1     -25.228  55.523  38.781  1.00  0.00    -0.393 OA
ATOM     34  H   UNL     1     -24.918  56.390  39.159  1.00  0.00     0.210 HD
ENDBRANCH  27  33
TORSDOF 2
ENDMDL
MODEL 4
REMARK VINA RESULT:    -6.904      1.853      7.633
REMARK INTER + INTRA:          -7.535
REMARK INTER:                  -7.501
REMARK INTRA:                  -0.034
REMARK UNBOUND:                -0.026
REMARK SMILES CC1(C)CC[C@@]2(C(=O)[O-])CC[C@@]3(C)C(=CC[C@H]4[C@@]5(C)CC[C@@H](O)C(C)(C)[C@H]5CC[C@]43C)[C@H]2C1
REMARK SMILES IDX 6 1 5 2 10 3 32 4 4 5 11 6 14 7 33 8 2 9 12 10 15 11 1 12
REMARK SMILES IDX 3 13 13 14 30 15 16 16 17 17 29 18 31 19 18 20 28 21 27 22
REMARK SMILES IDX 20 23 19 24 24 25 21 26 22 27 25 28 26 29 7 30 8 31 9 32
REMARK SMILES IDX 23 33
REMARK H PARENT 23 34
REMARK Flexibility Score: inf
ROOT
ATOM      1  C   UNL     1     -23.876  45.298  31.164  1.00  0.00     0.017 C 
ATOM      2  C   UNL     1     -25.191  45.819  30.537  1.00  0.00     0.014 C 
ATOM      3  C   UNL     1     -22.904  46.449  31.527  1.00  0.00     0.014 C 
ATOM      4  C   UNL     1     -24.234  44.555  32.486  1.00  0.00     0.028 C 
ATOM      5  C   UNL     1     -26.088  44.669  30.078  1.00  0.00     0.007 C 
ATOM      6  C   UNL     1     -23.577  47.571  32.328  1.00  0.00     0.013 C 
ATOM      7  C   UNL     1     -24.690  45.531  33.624  1.00  0.00    -0.064 C 
ATOM      8  C   UNL     1     -25.256  43.404  32.200  1.00  0.00     0.015 C 
ATOM      9  C   UNL     1     -26.470  43.722  31.247  1.00  0.00    -0.035 C 
ATOM     10  C   UNL     1     -24.410  47.078  33.580  1.00  0.00    -0.006 C 
ATOM     11  C   UNL     1     -25.121  45.011  34.814  1.00  0.00    -0.027 C 
ATOM     12  C   UNL     1     -26.897  42.364  30.612  1.00  0.00     0.011 C 
ATOM     13  C   UNL     1     -27.645  44.292  32.051  1.00  0.00     0.011 C 
ATOM     14  C   UNL     1     -25.812  47.809  33.527  1.00  0.00     0.017 C 
ATOM     15  C   UNL     1     -23.624  47.496  34.922  1.00  0.00    -0.020 C 
ATOM     16  C   UNL     1     -25.561  45.940  35.911  1.00  0.00     0.032 C 
ATOM     17  C   UNL     1     -24.506  47.073  36.172  1.00  0.00     0.006 C 
ATOM     18  C   UNL     1     -22.253  46.749  35.027  1.00  0.00     0.008 C 
ATOM     19  C   UNL     1     -23.371  49.063  34.937  1.00  0.00     0.012 C 
ATOM     20  C   UNL     1     -23.725  46.922  37.555  1.00  0.00    -0.025 C 
ATOM     21  C   UNL     1     -21.436  47.213  36.225  1.00  0.00     0.005 C 
ATOM     22  C   UNL     1     -22.263  47.600  37.508  1.00  0.00     0.003 C 
ATOM     23  C   UNL     1     -23.450  45.433  37.965  1.00  0.00     0.010 C 
ATOM     24  C   UNL     1     -24.746  47.492  38.613  1.00  0.00     0.012 C 
ATOM     25  C   UNL     1     -21.440  47.501  38.846  1.00  0.00    -0.006 C 
ATOM     26  C   UNL     1     -22.770  45.356  39.353  1.00  0.00     0.033 C 
ATOM     27  C   UNL     1     -21.359  46.022  39.357  1.00  0.00     0.120 C 
ATOM     28  C   UNL     1     -19.983  48.028  38.684  1.00  0.00     0.014 C 
ATOM     29  C   UNL     1     -22.101  48.463  39.906  1.00  0.00     0.014 C 
ENDROOT
BRANCH   1  30
ATOM     30  C   UNL     1     -23.099  44.423  30.173  1.00  0.00     0.048 C 
ATOM     31  O   UNL     1     -22.338  43.498  30.651  1.00  0.00    -0.550 OA
ATOM     32  O   UNL     1     -23.088  44.672  28.816  1.00  0.00    -0.550 OA
ENDBRANCH   1  30
BRANCH  27  33
ATOM     33  O   UNL     1     -20.510  45.271  38.536  1.00  0.00    -0.393 OA
ATOM     34  H   UNL     1     -19.585  45.403  38.878  1.00  0.00     0.210 HD
ENDBRANCH  27  33
TORSDOF 2
ENDMDL
MODEL 5
REMARK VINA RESULT:    -6.901      1.972      3.018
REMARK INTER + INTRA:          -7.532
REMARK INTER:                  -7.589
REMARK INTRA:                   0.057
REMARK UNBOUND:                -0.026
REMARK SMILES CC1(C)CC[C@@]2(C(=O)[O-])CC[C@@]3(C)C(=CC[C@H]4[C@@]5(C)CC[C@@H](O)C(C)(C)[C@H]5CC[C@]43C)[C@H]2C1
REMARK SMILES IDX 6 1 5 2 10 3 32 4 4 5 11 6 14 7 33 8 2 9 12 10 15 11 1 12
REMARK SMILES IDX 3 13 13 14 30 15 16 16 17 17 29 18 31 19 18 20 28 21 27 22
REMARK SMILES IDX 20 23 19 24 24 25 21 26 22 27 25 28 26 29 7 30 8 31 9 32
REMARK SMILES IDX 23 33
REMARK H PARENT 23 34
REMARK Flexibility Score: inf
ROOT
ATOM      1  C   UNL     1     -22.270  48.448  37.826  1.00  0.00     0.017 C 
ATOM      2  C   UNL     1     -22.002  49.762  37.053  1.00  0.00     0.014 C 
ATOM      3  C   UNL     1     -23.717  48.377  38.376  1.00  0.00     0.014 C 
ATOM      4  C   UNL     1     -22.090  47.260  36.834  1.00  0.00     0.028 C 
ATOM      5  C   UNL     1     -20.541  49.868  36.618  1.00  0.00     0.007 C 
ATOM      6  C   UNL     1     -24.777  48.707  37.318  1.00  0.00     0.013 C 
ATOM      7  C   UNL     1     -23.243  47.174  35.777  1.00  0.00    -0.064 C 
ATOM      8  C   UNL     1     -20.659  47.298  36.200  1.00  0.00     0.015 C 
ATOM      9  C   UNL     1     -20.115  48.690  35.701  1.00  0.00    -0.035 C 
ATOM     10  C   UNL     1     -24.618  47.915  35.957  1.00  0.00    -0.006 C 
ATOM     11  C   UNL     1     -23.169  46.232  34.786  1.00  0.00    -0.027 C 
ATOM     12  C   UNL     1     -18.560  48.603  35.764  1.00  0.00     0.011 C 
ATOM     13  C   UNL     1     -20.544  48.944  34.251  1.00  0.00     0.011 C 
ATOM     14  C   UNL     1     -24.743  48.969  34.784  1.00  0.00     0.017 C 
ATOM     15  C   UNL     1     -25.804  46.831  35.848  1.00  0.00    -0.020 C 
ATOM     16  C   UNL     1     -24.270  46.143  33.768  1.00  0.00     0.032 C 
ATOM     17  C   UNL     1     -25.686  46.099  34.444  1.00  0.00     0.006 C 
ATOM     18  C   UNL     1     -25.677  45.744  36.968  1.00  0.00     0.008 C 
ATOM     19  C   UNL     1     -27.212  47.552  35.972  1.00  0.00     0.012 C 
ATOM     20  C   UNL     1     -26.409  44.681  34.336  1.00  0.00    -0.025 C 
ATOM     21  C   UNL     1     -26.851  44.774  36.961  1.00  0.00     0.005 C 
ATOM     22  C   UNL     1     -27.447  44.431  35.545  1.00  0.00     0.003 C 
ATOM     23  C   UNL     1     -25.424  43.462  34.413  1.00  0.00     0.010 C 
ATOM     24  C   UNL     1     -26.999  44.684  32.874  1.00  0.00     0.012 C 
ATOM     25  C   UNL     1     -28.209  43.054  35.494  1.00  0.00    -0.006 C 
ATOM     26  C   UNL     1     -26.178  42.125  34.214  1.00  0.00     0.033 C 
ATOM     27  C   UNL     1     -27.210  41.855  35.352  1.00  0.00     0.120 C 
ATOM     28  C   UNL     1     -29.069  42.808  36.769  1.00  0.00     0.014 C 
ATOM     29  C   UNL     1     -29.249  43.107  34.310  1.00  0.00     0.014 C 
ENDROOT
BRANCH   1  30
ATOM     30  C   UNL     1     -21.371  48.341  39.064  1.00  0.00     0.048 C 
ATOM     31  O   UNL     1     -21.464  49.265  39.959  1.00  0.00    -0.550 OA
ATOM     32  O   UNL     1     -20.395  47.375  39.188  1.00  0.00    -0.550 OA
ENDBRANCH   1  30
BRANCH  27  33
ATOM     33  O   UNL     1     -26.512  41.662  36.550  1.00  0.00    -0.393 OA
ATOM     34  H   UNL     1     -25.772  41.025  36.355  1.00  0.00     0.210 HD
ENDBRANCH  27  33
TORSDOF 2
ENDMDL
MODEL 6
REMARK VINA RESULT:    -6.827      4.646      6.577
REMARK INTER + INTRA:          -7.452
REMARK INTER:                  -7.412
REMARK INTRA:                  -0.039
REMARK UNBOUND:                -0.026
REMARK SMILES CC1(C)CC[C@@]2(C(=O)[O-])CC[C@@]3(C)C(=CC[C@H]4[C@@]5(C)CC[C@@H](O)C(C)(C)[C@H]5CC[C@]43C)[C@H]2C1
REMARK SMILES IDX 6 1 5 2 10 3 32 4 4 5 11 6 14 7 33 8 2 9 12 10 15 11 1 12
REMARK SMILES IDX 3 13 13 14 30 15 16 16 17 17 29 18 31 19 18 20 28 21 27 22
REMARK SMILES IDX 20 23 19 24 24 25 21 26 22 27 25 28 26 29 7 30 8 31 9 32
REMARK SMILES IDX 23 33
REMARK H PARENT 23 34
REMARK Flexibility Score: inf
ROOT
ATOM      1  C   UNL     1     -23.311  49.784  37.117  1.00  0.00     0.017 C 
ATOM      2  C   UNL     1     -22.031  50.420  37.711  1.00  0.00     0.014 C 
ATOM      3  C   UNL     1     -24.303  50.850  36.587  1.00  0.00     0.014 C 
ATOM      4  C   UNL     1     -22.890  48.897  35.907  1.00  0.00     0.028 C 
ATOM      5  C   UNL     1     -21.117  49.365  38.333  1.00  0.00     0.007 C 
ATOM      6  C   UNL     1     -23.637  51.886  35.673  1.00  0.00     0.013 C 
ATOM      7  C   UNL     1     -22.426  49.740  34.670  1.00  0.00    -0.064 C 
ATOM      8  C   UNL     1     -21.846  47.823  36.361  1.00  0.00     0.015 C 
ATOM      9  C   UNL     1     -20.671  48.294  37.301  1.00  0.00    -0.035 C 
ATOM     10  C   UNL     1     -22.751  51.271  34.516  1.00  0.00    -0.006 C 
ATOM     11  C   UNL     1     -21.943  49.091  33.566  1.00  0.00    -0.027 C 
ATOM     12  C   UNL     1     -20.226  47.038  38.111  1.00  0.00     0.011 C 
ATOM     13  C   UNL     1     -19.488  48.798  36.467  1.00  0.00     0.011 C 
ATOM     14  C   UNL     1     -21.373  52.047  34.517  1.00  0.00     0.017 C 
ATOM     15  C   UNL     1     -23.505  51.495  33.111  1.00  0.00    -0.020 C 
ATOM     16  C   UNL     1     -21.495  49.892  32.376  1.00  0.00     0.032 C 
ATOM     17  C   UNL     1     -22.572  50.951  31.948  1.00  0.00     0.006 C 
ATOM     18  C   UNL     1     -24.851  50.697  33.060  1.00  0.00     0.008 C 
ATOM     19  C   UNL     1     -23.802  53.039  32.895  1.00  0.00     0.012 C 
ATOM     20  C   UNL     1     -23.304  50.606  30.572  1.00  0.00    -0.025 C 
ATOM     21  C   UNL     1     -25.642  50.984  31.791  1.00  0.00     0.005 C 
ATOM     22  C   UNL     1     -24.786  51.237  30.495  1.00  0.00     0.003 C 
ATOM     23  C   UNL     1     -23.525  49.070  30.342  1.00  0.00     0.010 C 
ATOM     24  C   UNL     1     -22.267  51.075  29.481  1.00  0.00     0.012 C 
ATOM     25  C   UNL     1     -25.564  50.949  29.156  1.00  0.00    -0.006 C 
ATOM     26  C   UNL     1     -24.158  48.802  28.955  1.00  0.00     0.033 C 
ATOM     27  C   UNL     1     -25.586  49.417  28.829  1.00  0.00     0.120 C 
ATOM     28  C   UNL     1     -27.039  51.445  29.211  1.00  0.00     0.014 C 
ATOM     29  C   UNL     1     -24.897  51.795  28.004  1.00  0.00     0.014 C 
ENDROOT
BRANCH   1  30
ATOM     30  C   UNL     1     -24.094  49.013  38.186  1.00  0.00     0.048 C 
ATOM     31  O   UNL     1     -24.797  48.001  37.807  1.00  0.00    -0.550 OA
ATOM     32  O   UNL     1     -24.170  49.436  39.497  1.00  0.00    -0.550 OA
ENDBRANCH   1  30
BRANCH  27  33
ATOM     33  O   UNL     1     -26.439  48.745  29.713  1.00  0.00    -0.393 OA
ATOM     34  H   UNL     1     -25.862  48.292  30.386  1.00  0.00     0.210 HD
ENDBRANCH  27  33
TORSDOF 2
ENDMDL
MODEL 7
REMARK VINA RESULT:    -6.792      4.207      7.827
REMARK INTER + INTRA:          -7.413
REMARK INTER:                  -7.371
REMARK INTRA:                  -0.042
REMARK UNBOUND:                -0.026
REMARK SMILES CC1(C)CC[C@@]2(C(=O)[O-])CC[C@@]3(C)C(=CC[C@H]4[C@@]5(C)CC[C@@H](O)C(C)(C)[C@H]5CC[C@]43C)[C@H]2C1
REMARK SMILES IDX 6 1 5 2 10 3 32 4 4 5 11 6 14 7 33 8 2 9 12 10 15 11 1 12
REMARK SMILES IDX 3 13 13 14 30 15 16 16 17 17 29 18 31 19 18 20 28 21 27 22
REMARK SMILES IDX 20 23 19 24 24 25 21 26 22 27 25 28 26 29 7 30 8 31 9 32
REMARK SMILES IDX 23 33
REMARK H PARENT 23 34
REMARK Flexibility Score: inf
ROOT
ATOM      1  C   UNL     1     -23.291  50.130  30.902  1.00  0.00     0.017 C 
ATOM      2  C   UNL     1     -23.541  51.632  30.622  1.00  0.00     0.014 C 
ATOM      3  C   UNL     1     -21.846  49.859  31.393  1.00  0.00     0.014 C 
ATOM      4  C   UNL     1     -24.260  49.684  32.038  1.00  0.00     0.028 C 
ATOM      5  C   UNL     1     -24.930  51.867  30.030  1.00  0.00     0.007 C 
ATOM      6  C   UNL     1     -21.417  50.789  32.535  1.00  0.00     0.013 C 
ATOM      7  C   UNL     1     -23.867  50.274  33.436  1.00  0.00    -0.064 C 
ATOM      8  C   UNL     1     -25.742  49.975  31.630  1.00  0.00     0.015 C 
ATOM      9  C   UNL     1     -26.061  51.372  30.972  1.00  0.00    -0.035 C 
ATOM     10  C   UNL     1     -22.445  50.877  33.734  1.00  0.00    -0.006 C 
ATOM     11  C   UNL     1     -24.681  50.038  34.511  1.00  0.00    -0.027 C 
ATOM     12  C   UNL     1     -27.330  51.164  30.091  1.00  0.00     0.011 C 
ATOM     13  C   UNL     1     -26.367  52.414  32.054  1.00  0.00     0.011 C 
ATOM     14  C   UNL     1     -22.645  52.410  34.068  1.00  0.00     0.017 C 
ATOM     15  C   UNL     1     -21.822  50.115  35.008  1.00  0.00    -0.020 C 
ATOM     16  C   UNL     1     -24.312  50.601  35.854  1.00  0.00     0.032 C 
ATOM     17  C   UNL     1     -22.821  50.280  36.230  1.00  0.00     0.006 C 
ATOM     18  C   UNL     1     -21.659  48.584  34.725  1.00  0.00     0.008 C 
ATOM     19  C   UNL     1     -20.407  50.735  35.373  1.00  0.00     0.012 C 
ATOM     20  C   UNL     1     -22.668  49.210  37.404  1.00  0.00    -0.025 C 
ATOM     21  C   UNL     1     -20.963  47.859  35.868  1.00  0.00     0.005 C 
ATOM     22  C   UNL     1     -21.277  48.399  37.313  1.00  0.00     0.003 C 
ATOM     23  C   UNL     1     -23.770  48.094  37.389  1.00  0.00     0.010 C 
ATOM     24  C   UNL     1     -22.916  50.063  38.708  1.00  0.00     0.012 C 
ATOM     25  C   UNL     1     -21.052  47.334  38.451  1.00  0.00    -0.006 C 
ATOM     26  C   UNL     1     -23.614  47.144  38.601  1.00  0.00     0.033 C 
ATOM     27  C   UNL     1     -22.269  46.355  38.564  1.00  0.00     0.120 C 
ATOM     28  C   UNL     1     -19.772  46.478  38.213  1.00  0.00     0.014 C 
ATOM     29  C   UNL     1     -20.777  48.103  39.800  1.00  0.00     0.014 C 
ENDROOT
BRANCH   1  30
ATOM     30  C   UNL     1     -23.436  49.296  29.624  1.00  0.00     0.048 C 
ATOM     31  O   UNL     1     -23.834  48.075  29.741  1.00  0.00    -0.550 OA
ATOM     32  O   UNL     1     -23.041  49.763  28.388  1.00  0.00    -0.550 OA
ENDBRANCH   1  30
BRANCH  27  33
ATOM     33  O   UNL     1     -22.294  45.484  37.467  1.00  0.00    -0.393 OA
ATOM     34  H   UNL     1     -21.351  45.360  37.174  1.00  0.00     0.210 HD
ENDBRANCH  27  33
TORSDOF 2
ENDMDL
MODEL 8
REMARK VINA RESULT:    -6.787      4.553      8.169
REMARK INTER + INTRA:          -7.408
REMARK INTER:                  -7.366
REMARK INTRA:                  -0.042
REMARK UNBOUND:                -0.026
REMARK SMILES CC1(C)CC[C@@]2(C(=O)[O-])CC[C@@]3(C)C(=CC[C@H]4[C@@]5(C)CC[C@@H](O)C(C)(C)[C@H]5CC[C@]43C)[C@H]2C1
REMARK SMILES IDX 6 1 5 2 10 3 32 4 4 5 11 6 14 7 33 8 2 9 12 10 15 11 1 12
REMARK SMILES IDX 3 13 13 14 30 15 16 16 17 17 29 18 31 19 18 20 28 21 27 22
REMARK SMILES IDX 20 23 19 24 24 25 21 26 22 27 25 28 26 29 7 30 8 31 9 32
REMARK SMILES IDX 23 33
REMARK H PARENT 23 34
REMARK Flexibility Score: inf
ROOT
ATOM      1  C   UNL     1     -24.883  53.069  32.410  1.00  0.00     0.017 C 
ATOM      2  C   UNL     1     -25.201  54.508  32.881  1.00  0.00     0.014 C 
ATOM      3  C   UNL     1     -23.358  52.796  32.350  1.00  0.00     0.014 C 
ATOM      4  C   UNL     1     -25.492  52.077  33.446  1.00  0.00     0.028 C 
ATOM      5  C   UNL     1     -26.701  54.797  32.824  1.00  0.00     0.007 C 
ATOM      6  C   UNL     1     -22.624  53.213  33.631  1.00  0.00     0.013 C 
ATOM      7  C   UNL     1     -24.721  52.076  34.811  1.00  0.00    -0.064 C 
ATOM      8  C   UNL     1     -27.030  52.329  33.596  1.00  0.00     0.015 C 
ATOM      9  C   UNL     1     -27.520  53.823  33.712  1.00  0.00    -0.035 C 
ATOM     10  C   UNL     1     -23.273  52.669  34.968  1.00  0.00    -0.006 C 
ATOM     11  C   UNL     1     -25.199  51.319  35.845  1.00  0.00    -0.027 C 
ATOM     12  C   UNL     1     -28.986  53.847  33.182  1.00  0.00     0.011 C 
ATOM     13  C   UNL     1     -27.508  54.276  35.176  1.00  0.00     0.011 C 
ATOM     14  C   UNL     1     -23.369  53.888  35.971  1.00  0.00     0.017 C 
ATOM     15  C   UNL     1     -22.316  51.529  35.582  1.00  0.00    -0.020 C 
ATOM     16  C   UNL     1     -24.466  51.313  37.157  1.00  0.00     0.032 C 
ATOM     17  C   UNL     1     -22.931  51.049  36.964  1.00  0.00     0.006 C 
ATOM     18  C   UNL     1     -22.241  50.286  34.633  1.00  0.00     0.008 C 
ATOM     19  C   UNL     1     -20.855  52.108  35.805  1.00  0.00     0.012 C 
ATOM     20  C   UNL     1     -22.453  49.616  37.478  1.00  0.00    -0.025 C 
ATOM     21  C   UNL     1     -21.250  49.242  35.131  1.00  0.00     0.005 C 
ATOM     22  C   UNL     1     -21.145  49.091  36.694  1.00  0.00     0.003 C 
ATOM     23  C   UNL     1     -23.515  48.482  37.262  1.00  0.00     0.010 C 
ATOM     24  C   UNL     1     -22.323  49.813  39.037  1.00  0.00     0.012 C 
ATOM     25  C   UNL     1     -20.608  47.686  37.161  1.00  0.00    -0.006 C 
ATOM     26  C   UNL     1     -23.024  47.141  37.861  1.00  0.00     0.033 C 
ATOM     27  C   UNL     1     -21.745  46.609  37.145  1.00  0.00     0.120 C 
ATOM     28  C   UNL     1     -19.448  47.168  36.260  1.00  0.00     0.014 C 
ATOM     29  C   UNL     1     -19.964  47.853  38.591  1.00  0.00     0.014 C 
ENDROOT
BRANCH   1  30
ATOM     30  C   UNL     1     -25.383  52.830  30.980  1.00  0.00     0.048 C 
ATOM     31  O   UNL     1     -25.726  51.631  30.653  1.00  0.00    -0.550 OA
ATOM     32  O   UNL     1     -25.358  53.813  30.014  1.00  0.00    -0.550 OA
ENDBRANCH   1  30
BRANCH  27  33
ATOM     33  O   UNL     1     -22.078  46.276  35.826  1.00  0.00    -0.393 OA
ATOM     34  H   UNL     1     -23.049  46.466  35.715  1.00  0.00     0.210 HD
ENDBRANCH  27  33
TORSDOF 2
ENDMDL
MODEL 9
REMARK VINA RESULT:    -6.759      4.692      8.297
REMARK INTER + INTRA:          -7.378
REMARK INTER:                  -7.339
REMARK INTRA:                  -0.039
REMARK UNBOUND:                -0.026
REMARK SMILES CC1(C)CC[C@@]2(C(=O)[O-])CC[C@@]3(C)C(=CC[C@H]4[C@@]5(C)CC[C@@H](O)C(C)(C)[C@H]5CC[C@]43C)[C@H]2C1
REMARK SMILES IDX 6 1 5 2 10 3 32 4 4 5 11 6 14 7 33 8 2 9 12 10 15 11 1 12
REMARK SMILES IDX 3 13 13 14 30 15 16 16 17 17 29 18 31 19 18 20 28 21 27 22
REMARK SMILES IDX 20 23 19 24 24 25 21 26 22 27 25 28 26 29 7 30 8 31 9 32
REMARK SMILES IDX 23 33
REMARK H PARENT 23 34
REMARK Flexibility Score: inf
ROOT
ATOM      1  C   UNL     1     -24.566  51.666  31.344  1.00  0.00     0.017 C 
ATOM      2  C   UNL     1     -24.110  53.098  30.971  1.00  0.00     0.014 C 
ATOM      3  C   UNL     1     -23.368  50.698  31.521  1.00  0.00     0.014 C 
ATOM      4  C   UNL     1     -25.310  51.739  32.712  1.00  0.00     0.028 C 
ATOM      5  C   UNL     1     -25.304  54.009  30.688  1.00  0.00     0.007 C 
ATOM      6  C   UNL     1     -22.270  51.263  32.430  1.00  0.00     0.013 C 
ATOM      7  C   UNL     1     -24.344  52.022  33.913  1.00  0.00    -0.064 C 
ATOM      8  C   UNL     1     -26.509  52.742  32.621  1.00  0.00     0.015 C 
ATOM      9  C   UNL     1     -26.256  54.125  31.909  1.00  0.00    -0.035 C 
ATOM     10  C   UNL     1     -22.787  51.827  33.815  1.00  0.00    -0.006 C 
ATOM     11  C   UNL     1     -24.872  52.201  35.163  1.00  0.00    -0.027 C 
ATOM     12  C   UNL     1     -27.638  54.599  31.366  1.00  0.00     0.011 C 
ATOM     13  C   UNL     1     -25.731  55.156  32.915  1.00  0.00     0.011 C 
ATOM     14  C   UNL     1     -22.120  53.246  34.021  1.00  0.00     0.017 C 
ATOM     15  C   UNL     1     -22.321  50.827  34.988  1.00  0.00    -0.020 C 
ATOM     16  C   UNL     1     -23.953  52.474  36.321  1.00  0.00     0.032 C 
ATOM     17  C   UNL     1     -22.770  51.442  36.380  1.00  0.00     0.006 C 
ATOM     18  C   UNL     1     -23.005  49.426  34.839  1.00  0.00     0.008 C 
ATOM     19  C   UNL     1     -20.744  50.648  34.954  1.00  0.00     0.012 C 
ATOM     20  C   UNL     1     -22.872  50.413  37.596  1.00  0.00    -0.025 C 
ATOM     21  C   UNL     1     -22.492  48.425  35.865  1.00  0.00     0.005 C 
ATOM     22  C   UNL     1     -22.130  49.018  37.277  1.00  0.00     0.003 C 
ATOM     23  C   UNL     1     -24.343  49.998  37.949  1.00  0.00     0.010 C 
ATOM     24  C   UNL     1     -22.338  51.246  38.823  1.00  0.00     0.012 C 
ATOM     25  C   UNL     1     -22.178  47.958  38.441  1.00  0.00    -0.006 C 
ATOM     26  C   UNL     1     -24.375  49.071  39.188  1.00  0.00     0.033 C 
ATOM     27  C   UNL     1     -23.647  47.716  38.930  1.00  0.00     0.120 C 
ATOM     28  C   UNL     1     -21.587  46.582  38.011  1.00  0.00     0.014 C 
ATOM     29  C   UNL     1     -21.236  48.455  39.603  1.00  0.00     0.014 C 
ENDROOT
BRANCH   1  30
ATOM     30  C   UNL     1     -25.414  51.046  30.228  1.00  0.00     0.048 C 
ATOM     31  O   UNL     1     -26.364  50.243  30.568  1.00  0.00    -0.550 OA
ATOM     32  O   UNL     1     -25.118  51.216  28.892  1.00  0.00    -0.550 OA
ENDBRANCH   1  30
BRANCH  27  33
ATOM     33  O   UNL     1     -24.367  46.999  37.967  1.00  0.00    -0.393 OA
ATOM     34  H   UNL     1     -23.781  46.256  37.660  1.00  0.00     0.210 HD
ENDBRANCH  27  33
TORSDOF 2
ENDMDL
