MODEL 1
REMARK VINA RESULT:    -4.320      0.000      0.000
REMARK INTER + INTRA:         -10.469
REMARK INTER:                  -8.361
REMARK INTRA:                  -2.109
REMARK UNBOUND:                -2.109
REMARK SMILES CCCCCCCCCCCCCCCCCC(=O)[O-]
REMARK SMILES IDX 10 1 11 2 12 3 13 4 14 5 15 6 16 7 17 8 18 9 19 10 20 11
REMARK SMILES IDX 9 12 8 13 7 14 6 15 5 16 4 17 3 18 2 19 1 20
REMARK H PARENT
REMARK Flexibility Score: inf
ROOT
ATOM      1  C   UNL     1       6.116  -6.645 -17.984  1.00  0.00     0.000 C 
ENDROOT
BRANCH   1   2
ATOM      2  C   UNL     1       6.096  -5.476 -16.988  1.00  0.00     0.000 C 
BRANCH   2   3
ATOM      3  C   UNL     1       7.492  -5.135 -16.436  1.00  0.00     0.000 C 
BRANCH   3   4
ATOM      4  C   UNL     1       7.639  -5.261 -14.906  1.00  0.00     0.000 C 
BRANCH   4   5
ATOM      5  C   UNL     1       6.532  -6.075 -14.212  1.00  0.00     0.000 C 
BRANCH   5   6
ATOM      6  C   UNL     1       6.951  -7.528 -13.928  1.00  0.00     0.000 C 
BRANCH   6   7
ATOM      7  C   UNL     1       5.815  -8.530 -14.188  1.00  0.00     0.006 C 
BRANCH   7   8
ATOM      8  C   UNL     1       4.484  -7.839 -14.510  1.00  0.00     0.053 C 
BRANCH   8   9
ATOM      9  C   UNL     1       3.534  -7.978 -13.364  1.00  0.00     0.041 C 
ATOM     10  O   UNL     1       3.025  -6.954 -12.835  1.00  0.00    -0.550 OA
ATOM     11  O   UNL     1       3.171  -9.239 -12.909  1.00  0.00    -0.550 OA
ENDBRANCH   8   9
ENDBRANCH   7   8
ENDBRANCH   6   7
ENDBRANCH   5   6
ENDBRANCH   4   5
ENDBRANCH   3   4
ENDBRANCH   2   3
ENDBRANCH   1   2
BRANCH   1  12
ATOM     12  C   UNL     1       7.527  -6.850 -18.558  1.00  0.00     0.000 C 
BRANCH  12  13
ATOM     13  C   UNL     1       8.057  -8.274 -18.333  1.00  0.00    -0.000 C 
BRANCH  13  14
ATOM     14  C   UNL     1       7.273  -9.035 -17.253  1.00  0.00    -0.000 C 
BRANCH  14  15
ATOM     15  C   UNL     1       6.659 -10.321 -17.825  1.00  0.00    -0.000 C 
BRANCH  15  16
ATOM     16  C   UNL     1       6.595 -10.325 -19.363  1.00  0.00    -0.000 C 
BRANCH  16  17
ATOM     17  C   UNL     1       5.271 -10.839 -19.958  1.00  0.00    -0.000 C 
BRANCH  17  18
ATOM     18  C   UNL     1       4.602 -11.916 -19.091  1.00  0.00    -0.000 C 
BRANCH  18  19
ATOM     19  C   UNL     1       3.089 -11.688 -19.003  1.00  0.00    -0.003 C 
ATOM     20  C   UNL     1       2.345 -13.002 -18.788  1.00  0.00     0.004 C 
ENDBRANCH  18  19
ENDBRANCH  17  18
ENDBRANCH  16  17
ENDBRANCH  15  16
ENDBRANCH  14  15
ENDBRANCH  13  14
ENDBRANCH  12  13
ENDBRANCH   1  12
TORSDOF 16
ENDMDL
MODEL 2
REMARK VINA RESULT:    -4.196      2.255      5.639
REMARK INTER + INTRA:         -10.230
REMARK INTER:                  -8.115
REMARK INTRA:                  -2.115
REMARK UNBOUND:                -2.109
REMARK SMILES CCCCCCCCCCCCCCCCCC(=O)[O-]
REMARK SMILES IDX 10 1 11 2 12 3 13 4 14 5 15 6 16 7 17 8 18 9 19 10 20 11
REMARK SMILES IDX 9 12 8 13 7 14 6 15 5 16 4 17 3 18 2 19 1 20
REMARK H PARENT
REMARK Flexibility Score: inf
ROOT
ATOM      1  C   UNL     1       6.180  -6.425 -17.985  1.00  0.00     0.000 C 
ENDROOT
BRANCH   1   2
ATOM      2  C   UNL     1       7.619  -6.803 -18.361  1.00  0.00     0.000 C 
BRANCH   2   3
ATOM      3  C   UNL     1       7.886  -8.317 -18.263  1.00  0.00     0.000 C 
BRANCH   3   4
ATOM      4  C   UNL     1       6.943  -9.087 -17.316  1.00  0.00     0.000 C 
BRANCH   4   5
ATOM      5  C   UNL     1       6.515 -10.479 -17.815  1.00  0.00     0.000 C 
BRANCH   5   6
ATOM      6  C   UNL     1       6.313 -10.527 -19.340  1.00  0.00     0.000 C 
BRANCH   6   7
ATOM      7  C   UNL     1       4.942 -11.099 -19.735  1.00  0.00     0.006 C 
BRANCH   7   8
ATOM      8  C   UNL     1       4.361 -12.028 -18.661  1.00  0.00     0.053 C 
BRANCH   8   9
ATOM      9  C   UNL     1       2.872 -12.098 -18.783  1.00  0.00     0.041 C 
ATOM     10  O   UNL     1       2.193 -11.041 -18.875  1.00  0.00    -0.550 OA
ATOM     11  O   UNL     1       2.236 -13.332 -18.844  1.00  0.00    -0.550 OA
ENDBRANCH   8   9
ENDBRANCH   7   8
ENDBRANCH   6   7
ENDBRANCH   5   6
ENDBRANCH   4   5
ENDBRANCH   3   4
ENDBRANCH   2   3
ENDBRANCH   1   2
BRANCH   1  12
ATOM     12  C   UNL     1       6.163  -5.253 -16.992  1.00  0.00     0.000 C 
BRANCH  12  13
ATOM     13  C   UNL     1       7.445  -5.172 -16.149  1.00  0.00    -0.000 C 
BRANCH  13  14
ATOM     14  C   UNL     1       7.203  -5.504 -14.669  1.00  0.00    -0.000 C 
BRANCH  14  15
ATOM     15  C   UNL     1       7.225  -7.023 -14.437  1.00  0.00    -0.000 C 
BRANCH  15  16
ATOM     16  C   UNL     1       6.469  -7.448 -13.166  1.00  0.00    -0.000 C 
BRANCH  16  17
ATOM     17  C   UNL     1       5.492  -8.623 -13.353  1.00  0.00    -0.000 C 
BRANCH  17  18
ATOM     18  C   UNL     1       4.048  -8.167 -13.607  1.00  0.00    -0.000 C 
BRANCH  18  19
ATOM     19  C   UNL     1       3.886  -7.627 -15.033  1.00  0.00    -0.003 C 
ATOM     20  C   UNL     1       3.417  -6.176 -15.023  1.00  0.00     0.004 C 
ENDBRANCH  18  19
ENDBRANCH  17  18
ENDBRANCH  16  17
ENDBRANCH  15  16
ENDBRANCH  14  15
ENDBRANCH  13  14
ENDBRANCH  12  13
ENDBRANCH   1  12
TORSDOF 16
ENDMDL
MODEL 3
REMARK VINA RESULT:    -4.017      1.595      2.336
REMARK INTER + INTRA:          -9.884
REMARK INTER:                  -8.289
REMARK INTRA:                  -1.594
REMARK UNBOUND:                -2.109
REMARK SMILES CCCCCCCCCCCCCCCCCC(=O)[O-]
REMARK SMILES IDX 10 1 11 2 12 3 13 4 14 5 15 6 16 7 17 8 18 9 19 10 20 11
REMARK SMILES IDX 9 12 8 13 7 14 6 15 5 16 4 17 3 18 2 19 1 20
REMARK H PARENT
REMARK Flexibility Score: inf
ROOT
ATOM      1  C   UNL     1       7.798  -5.584 -17.085  1.00  0.00     0.000 C 
ENDROOT
BRANCH   1   2
ATOM      2  C   UNL     1       6.658  -5.272 -16.105  1.00  0.00     0.000 C 
BRANCH   2   3
ATOM      3  C   UNL     1       5.303  -5.845 -16.561  1.00  0.00     0.000 C 
BRANCH   3   4
ATOM      4  C   UNL     1       4.073  -5.281 -15.822  1.00  0.00     0.000 C 
BRANCH   4   5
ATOM      5  C   UNL     1       3.307  -6.303 -14.961  1.00  0.00     0.000 C 
BRANCH   5   6
ATOM      6  C   UNL     1       3.964  -7.694 -14.965  1.00  0.00     0.000 C 
BRANCH   6   7
ATOM      7  C   UNL     1       3.947  -8.357 -13.579  1.00  0.00     0.006 C 
BRANCH   7   8
ATOM      8  C   UNL     1       5.314  -8.934 -13.186  1.00  0.00     0.053 C 
BRANCH   8   9
ATOM      9  C   UNL     1       6.406  -7.976 -13.544  1.00  0.00     0.041 C 
ATOM     10  O   UNL     1       7.231  -8.266 -14.451  1.00  0.00    -0.550 OA
ATOM     11  O   UNL     1       6.484  -6.742 -12.912  1.00  0.00    -0.550 OA
ENDBRANCH   8   9
ENDBRANCH   7   8
ENDBRANCH   6   7
ENDBRANCH   5   6
ENDBRANCH   4   5
ENDBRANCH   3   4
ENDBRANCH   2   3
ENDBRANCH   1   2
BRANCH   1  12
ATOM     12  C   UNL     1       7.272  -6.341 -18.314  1.00  0.00     0.000 C 
BRANCH  12  13
ATOM     13  C   UNL     1       7.986  -7.684 -18.534  1.00  0.00    -0.000 C 
BRANCH  13  14
ATOM     14  C   UNL     1       7.746  -8.678 -17.388  1.00  0.00    -0.000 C 
BRANCH  14  15
ATOM     15  C   UNL     1       6.438  -9.456 -17.602  1.00  0.00    -0.000 C 
BRANCH  15  16
ATOM     16  C   UNL     1       6.642 -10.775 -18.368  1.00  0.00    -0.000 C 
BRANCH  16  17
ATOM     17  C   UNL     1       6.150 -10.762 -19.827  1.00  0.00    -0.000 C 
BRANCH  17  18
ATOM     18  C   UNL     1       4.621 -10.844 -19.945  1.00  0.00    -0.000 C 
BRANCH  18  19
ATOM     19  C   UNL     1       4.047 -11.853 -18.943  1.00  0.00    -0.003 C 
ATOM     20  C   UNL     1       2.523 -11.799 -18.920  1.00  0.00     0.004 C 
ENDBRANCH  18  19
ENDBRANCH  17  18
ENDBRANCH  16  17
ENDBRANCH  15  16
ENDBRANCH  14  15
ENDBRANCH  13  14
ENDBRANCH  12  13
ENDBRANCH   1  12
TORSDOF 16
ENDMDL
MODEL 4
REMARK VINA RESULT:    -3.995      2.306      5.861
REMARK INTER + INTRA:          -9.840
REMARK INTER:                  -7.963
REMARK INTRA:                  -1.877
REMARK UNBOUND:                -2.109
REMARK SMILES CCCCCCCCCCCCCCCCCC(=O)[O-]
REMARK SMILES IDX 10 1 11 2 12 3 13 4 14 5 15 6 16 7 17 8 18 9 19 10 20 11
REMARK SMILES IDX 9 12 8 13 7 14 6 15 5 16 4 17 3 18 2 19 1 20
REMARK H PARENT
REMARK Flexibility Score: inf
ROOT
ATOM      1  C   UNL     1       6.709  -6.276 -17.903  1.00  0.00     0.000 C 
ENDROOT
BRANCH   1   2
ATOM      2  C   UNL     1       7.872  -6.937 -18.656  1.00  0.00     0.000 C 
BRANCH   2   3
ATOM      3  C   UNL     1       8.055  -8.422 -18.291  1.00  0.00     0.000 C 
BRANCH   3   4
ATOM      4  C   UNL     1       7.043  -8.972 -17.264  1.00  0.00     0.000 C 
BRANCH   4   5
ATOM      5  C   UNL     1       6.237 -10.195 -17.738  1.00  0.00     0.000 C 
BRANCH   5   6
ATOM      6  C   UNL     1       6.258 -10.366 -19.267  1.00  0.00     0.000 C 
BRANCH   6   7
ATOM      7  C   UNL     1       4.925 -10.892 -19.820  1.00  0.00     0.006 C 
BRANCH   7   8
ATOM      8  C   UNL     1       4.473 -12.187 -19.133  1.00  0.00     0.053 C 
BRANCH   8   9
ATOM      9  C   UNL     1       2.998 -12.161 -18.888  1.00  0.00     0.041 C 
ATOM     10  O   UNL     1       2.397 -11.061 -18.760  1.00  0.00    -0.550 OA
ATOM     11  O   UNL     1       2.277 -13.347 -18.851  1.00  0.00    -0.550 OA
ENDBRANCH   8   9
ENDBRANCH   7   8
ENDBRANCH   6   7
ENDBRANCH   5   6
ENDBRANCH   4   5
ENDBRANCH   3   4
ENDBRANCH   2   3
ENDBRANCH   1   2
BRANCH   1  12
ATOM     12  C   UNL     1       7.208  -5.578 -16.629  1.00  0.00     0.000 C 
BRANCH  12  13
ATOM     13  C   UNL     1       6.060  -5.037 -15.762  1.00  0.00    -0.000 C 
BRANCH  13  14
ATOM     14  C   UNL     1       4.679  -5.275 -16.389  1.00  0.00    -0.000 C 
BRANCH  14  15
ATOM     15  C   UNL     1       3.720  -5.918 -15.376  1.00  0.00    -0.000 C 
BRANCH  15  16
ATOM     16  C   UNL     1       3.996  -7.416 -15.153  1.00  0.00    -0.000 C 
BRANCH  16  17
ATOM     17  C   UNL     1       4.050  -7.854 -13.678  1.00  0.00    -0.000 C 
BRANCH  17  18
ATOM     18  C   UNL     1       5.139  -8.902 -13.403  1.00  0.00    -0.000 C 
BRANCH  18  19
ATOM     19  C   UNL     1       6.529  -8.348 -13.734  1.00  0.00    -0.003 C 
ATOM     20  C   UNL     1       6.753  -6.991 -13.075  1.00  0.00     0.004 C 
ENDBRANCH  18  19
ENDBRANCH  17  18
ENDBRANCH  16  17
ENDBRANCH  15  16
ENDBRANCH  14  15
ENDBRANCH  13  14
ENDBRANCH  12  13
ENDBRANCH   1  12
TORSDOF 16
ENDMDL
MODEL 5
REMARK VINA RESULT:    -3.945      2.786      5.621
REMARK INTER + INTRA:          -9.743
REMARK INTER:                  -7.596
REMARK INTRA:                  -2.147
REMARK UNBOUND:                -2.109
REMARK SMILES CCCCCCCCCCCCCCCCCC(=O)[O-]
REMARK SMILES IDX 10 1 11 2 12 3 13 4 14 5 15 6 16 7 17 8 18 9 19 10 20 11
REMARK SMILES IDX 9 12 8 13 7 14 6 15 5 16 4 17 3 18 2 19 1 20
REMARK H PARENT
REMARK Flexibility Score: inf
ROOT
ATOM      1  C   UNL     1       7.212  -5.158 -17.245  1.00  0.00     0.000 C 
ENDROOT
BRANCH   1   2
ATOM      2  C   UNL     1       6.703  -6.387 -18.012  1.00  0.00     0.000 C 
BRANCH   2   3
ATOM      3  C   UNL     1       7.775  -7.008 -18.927  1.00  0.00     0.000 C 
BRANCH   3   4
ATOM      4  C   UNL     1       8.120  -8.481 -18.624  1.00  0.00     0.000 C 
BRANCH   4   5
ATOM      5  C   UNL     1       7.732  -8.963 -17.215  1.00  0.00     0.000 C 
BRANCH   5   6
ATOM      6  C   UNL     1       6.379  -9.696 -17.188  1.00  0.00     0.000 C 
BRANCH   6   7
ATOM      7  C   UNL     1       6.490 -11.155 -17.658  1.00  0.00     0.006 C 
BRANCH   7   8
ATOM      8  C   UNL     1       5.307 -11.580 -18.537  1.00  0.00     0.053 C 
BRANCH   8   9
ATOM      9  C   UNL     1       5.400 -10.935 -19.884  1.00  0.00     0.041 C 
ATOM     10  O   UNL     1       4.386 -10.389 -20.396  1.00  0.00    -0.550 OA
ATOM     11  O   UNL     1       6.616 -10.892 -20.553  1.00  0.00    -0.550 OA
ENDBRANCH   8   9
ENDBRANCH   7   8
ENDBRANCH   6   7
ENDBRANCH   5   6
ENDBRANCH   4   5
ENDBRANCH   3   4
ENDBRANCH   2   3
ENDBRANCH   1   2
BRANCH   1  12
ATOM     12  C   UNL     1       7.923  -5.577 -15.949  1.00  0.00     0.000 C 
BRANCH  12  13
ATOM     13  C   UNL     1       7.241  -5.018 -14.691  1.00  0.00    -0.000 C 
BRANCH  13  14
ATOM     14  C   UNL     1       6.862  -6.114 -13.685  1.00  0.00    -0.000 C 
BRANCH  14  15
ATOM     15  C   UNL     1       7.090  -7.511 -14.284  1.00  0.00    -0.000 C 
BRANCH  15  16
ATOM     16  C   UNL     1       6.043  -8.541 -13.825  1.00  0.00    -0.000 C 
BRANCH  16  17
ATOM     17  C   UNL     1       4.630  -7.973 -13.594  1.00  0.00    -0.000 C 
BRANCH  17  18
ATOM     18  C   UNL     1       3.861  -7.729 -14.901  1.00  0.00    -0.000 C 
BRANCH  18  19
ATOM     19  C   UNL     1       3.251  -6.322 -14.924  1.00  0.00    -0.003 C 
ATOM     20  C   UNL     1       3.995  -5.415 -15.898  1.00  0.00     0.004 C 
ENDBRANCH  18  19
ENDBRANCH  17  18
ENDBRANCH  16  17
ENDBRANCH  15  16
ENDBRANCH  14  15
ENDBRANCH  13  14
ENDBRANCH  12  13
ENDBRANCH   1  12
TORSDOF 16
ENDMDL
MODEL 6
REMARK VINA RESULT:    -3.895      1.080      2.276
REMARK INTER + INTRA:          -9.646
REMARK INTER:                  -8.476
REMARK INTRA:                  -1.170
REMARK UNBOUND:                -2.109
REMARK SMILES CCCCCCCCCCCCCCCCCC(=O)[O-]
REMARK SMILES IDX 10 1 11 2 12 3 13 4 14 5 15 6 16 7 17 8 18 9 19 10 20 11
REMARK SMILES IDX 9 12 8 13 7 14 6 15 5 16 4 17 3 18 2 19 1 20
REMARK H PARENT
REMARK Flexibility Score: inf
ROOT
ATOM      1  C   UNL     1       7.604  -7.747 -14.403  1.00  0.00     0.000 C 
ENDROOT
BRANCH   1   2
ATOM      2  C   UNL     1       6.864  -6.403 -14.453  1.00  0.00     0.000 C 
BRANCH   2   3
ATOM      3  C   UNL     1       7.522  -5.393 -15.412  1.00  0.00     0.000 C 
BRANCH   3   4
ATOM      4  C   UNL     1       6.727  -5.104 -16.702  1.00  0.00     0.000 C 
BRANCH   4   5
ATOM      5  C   UNL     1       5.382  -5.843 -16.816  1.00  0.00     0.000 C 
BRANCH   5   6
ATOM      6  C   UNL     1       4.218  -5.061 -16.183  1.00  0.00     0.000 C 
BRANCH   6   7
ATOM      7  C   UNL     1       3.384  -5.922 -15.220  1.00  0.00     0.006 C 
BRANCH   7   8
ATOM      8  C   UNL     1       3.936  -7.346 -15.078  1.00  0.00     0.053 C 
BRANCH   8   9
ATOM      9  C   UNL     1       3.777  -7.828 -13.671  1.00  0.00     0.041 C 
ATOM     10  O   UNL     1       4.357  -8.880 -13.292  1.00  0.00    -0.550 OA
ATOM     11  O   UNL     1       3.028  -7.090 -12.763  1.00  0.00    -0.550 OA
ENDBRANCH   8   9
ENDBRANCH   7   8
ENDBRANCH   6   7
ENDBRANCH   5   6
ENDBRANCH   4   5
ENDBRANCH   3   4
ENDBRANCH   2   3
ENDBRANCH   1   2
BRANCH   1  12
ATOM     12  C   UNL     1       7.361  -8.554 -15.688  1.00  0.00     0.000 C 
BRANCH  12  13
ATOM     13  C   UNL     1       8.348  -8.194 -16.809  1.00  0.00    -0.000 C 
BRANCH  13  14
ATOM     14  C   UNL     1       7.690  -8.181 -18.197  1.00  0.00    -0.000 C 
BRANCH  14  15
ATOM     15  C   UNL     1       6.603  -9.262 -18.298  1.00  0.00    -0.000 C 
BRANCH  15  16
ATOM     16  C   UNL     1       7.031 -10.466 -19.156  1.00  0.00    -0.000 C 
BRANCH  16  17
ATOM     17  C   UNL     1       6.046 -10.850 -20.276  1.00  0.00    -0.000 C 
BRANCH  17  18
ATOM     18  C   UNL     1       4.576 -10.679 -19.866  1.00  0.00    -0.000 C 
BRANCH  18  19
ATOM     19  C   UNL     1       4.092 -11.880 -19.045  1.00  0.00    -0.003 C 
ATOM     20  C   UNL     1       2.580 -11.841 -18.850  1.00  0.00     0.004 C 
ENDBRANCH  18  19
ENDBRANCH  17  18
ENDBRANCH  16  17
ENDBRANCH  15  16
ENDBRANCH  14  15
ENDBRANCH  13  14
ENDBRANCH  12  13
ENDBRANCH   1  12
TORSDOF 16
ENDMDL
MODEL 7
REMARK VINA RESULT:    -3.876      2.342      5.757
REMARK INTER + INTRA:          -9.611
REMARK INTER:                  -7.755
REMARK INTRA:                  -1.856
REMARK UNBOUND:                -2.109
REMARK SMILES CCCCCCCCCCCCCCCCCC(=O)[O-]
REMARK SMILES IDX 10 1 11 2 12 3 13 4 14 5 15 6 16 7 17 8 18 9 19 10 20 11
REMARK SMILES IDX 9 12 8 13 7 14 6 15 5 16 4 17 3 18 2 19 1 20
REMARK H PARENT
REMARK Flexibility Score: inf
ROOT
ATOM      1  C   UNL     1       7.306  -5.450 -17.188  1.00  0.00     0.000 C 
ENDROOT
BRANCH   1   2
ATOM      2  C   UNL     1       6.843  -6.497 -18.211  1.00  0.00     0.000 C 
BRANCH   2   3
ATOM      3  C   UNL     1       7.976  -6.964 -19.143  1.00  0.00     0.000 C 
BRANCH   3   4
ATOM      4  C   UNL     1       8.425  -8.426 -18.946  1.00  0.00     0.000 C 
BRANCH   4   5
ATOM      5  C   UNL     1       8.600  -9.234 -20.244  1.00  0.00     0.000 C 
BRANCH   5   6
ATOM      6  C   UNL     1       7.557 -10.356 -20.392  1.00  0.00     0.000 C 
BRANCH   6   7
ATOM      7  C   UNL     1       6.431 -10.255 -19.350  1.00  0.00     0.006 C 
BRANCH   7   8
ATOM      8  C   UNL     1       5.103 -10.826 -19.862  1.00  0.00     0.053 C 
BRANCH   8   9
ATOM      9  C   UNL     1       4.395 -11.561 -18.769  1.00  0.00     0.041 C 
ATOM     10  O   UNL     1       5.007 -11.865 -17.710  1.00  0.00    -0.550 OA
ATOM     11  O   UNL     1       3.047 -11.869 -18.896  1.00  0.00    -0.550 OA
ENDBRANCH   8   9
ENDBRANCH   7   8
ENDBRANCH   6   7
ENDBRANCH   5   6
ENDBRANCH   4   5
ENDBRANCH   3   4
ENDBRANCH   2   3
ENDBRANCH   1   2
BRANCH   1  12
ATOM     12  C   UNL     1       6.293  -5.320 -16.041  1.00  0.00     0.000 C 
BRANCH  12  13
ATOM     13  C   UNL     1       4.839  -5.480 -16.512  1.00  0.00    -0.000 C 
BRANCH  13  14
ATOM     14  C   UNL     1       3.871  -5.779 -15.358  1.00  0.00    -0.000 C 
BRANCH  14  15
ATOM     15  C   UNL     1       3.854  -7.280 -15.031  1.00  0.00    -0.000 C 
BRANCH  15  16
ATOM     16  C   UNL     1       4.377  -7.593 -13.617  1.00  0.00    -0.000 C 
BRANCH  16  17
ATOM     17  C   UNL     1       5.606  -8.519 -13.568  1.00  0.00    -0.000 C 
BRANCH  17  18
ATOM     18  C   UNL     1       6.920  -7.788 -13.875  1.00  0.00    -0.000 C 
BRANCH  18  19
ATOM     19  C   UNL     1       7.641  -8.430 -15.066  1.00  0.00    -0.003 C 
ATOM     20  C   UNL     1       6.647  -9.047 -16.044  1.00  0.00     0.004 C 
ENDBRANCH  18  19
ENDBRANCH  17  18
ENDBRANCH  16  17
ENDBRANCH  15  16
ENDBRANCH  14  15
ENDBRANCH  13  14
ENDBRANCH  12  13
ENDBRANCH   1  12
TORSDOF 16
ENDMDL
MODEL 8
REMARK VINA RESULT:    -3.754      2.349      6.248
REMARK INTER + INTRA:          -9.375
REMARK INTER:                  -7.896
REMARK INTRA:                  -1.479
REMARK UNBOUND:                -2.109
REMARK SMILES CCCCCCCCCCCCCCCCCC(=O)[O-]
REMARK SMILES IDX 10 1 11 2 12 3 13 4 14 5 15 6 16 7 17 8 18 9 19 10 20 11
REMARK SMILES IDX 9 12 8 13 7 14 6 15 5 16 4 17 3 18 2 19 1 20
REMARK H PARENT
REMARK Flexibility Score: inf
ROOT
ATOM      1  C   UNL     1       7.660  -8.172 -14.332  1.00  0.00     0.000 C 
ENDROOT
BRANCH   1   2
ATOM      2  C   UNL     1       7.208  -8.707 -15.699  1.00  0.00     0.000 C 
BRANCH   2   3
ATOM      3  C   UNL     1       8.076  -8.190 -16.860  1.00  0.00     0.000 C 
BRANCH   3   4
ATOM      4  C   UNL     1       7.572  -8.561 -18.270  1.00  0.00     0.000 C 
BRANCH   4   5
ATOM      5  C   UNL     1       6.546  -9.709 -18.312  1.00  0.00     0.000 C 
BRANCH   5   6
ATOM      6  C   UNL     1       6.543 -10.454 -19.658  1.00  0.00     0.000 C 
BRANCH   6   7
ATOM      7  C   UNL     1       5.281 -11.310 -19.855  1.00  0.00     0.006 C 
BRANCH   7   8
ATOM      8  C   UNL     1       4.522 -11.548 -18.543  1.00  0.00     0.053 C 
BRANCH   8   9
ATOM      9  C   UNL     1       3.130 -12.019 -18.824  1.00  0.00     0.041 C 
ATOM     10  O   UNL     1       2.906 -13.239 -19.039  1.00  0.00    -0.550 OA
ATOM     11  O   UNL     1       2.073 -11.118 -18.801  1.00  0.00    -0.550 OA
ENDBRANCH   8   9
ENDBRANCH   7   8
ENDBRANCH   6   7
ENDBRANCH   5   6
ENDBRANCH   4   5
ENDBRANCH   3   4
ENDBRANCH   2   3
ENDBRANCH   1   2
BRANCH   1  12
ATOM     12  C   UNL     1       6.449  -7.850 -13.442  1.00  0.00     0.000 C 
BRANCH  12  13
ATOM     13  C   UNL     1       5.134  -8.414 -14.004  1.00  0.00    -0.000 C 
BRANCH  13  14
ATOM     14  C   UNL     1       3.899  -7.658 -13.493  1.00  0.00    -0.000 C 
BRANCH  14  15
ATOM     15  C   UNL     1       3.338  -6.727 -14.578  1.00  0.00    -0.000 C 
BRANCH  15  16
ATOM     16  C   UNL     1       4.238  -6.644 -15.824  1.00  0.00    -0.000 C 
BRANCH  16  17
ATOM     17  C   UNL     1       4.793  -5.242 -16.134  1.00  0.00    -0.000 C 
BRANCH  17  18
ATOM     18  C   UNL     1       5.875  -5.253 -17.224  1.00  0.00    -0.000 C 
BRANCH  18  19
ATOM     19  C   UNL     1       7.277  -5.312 -16.605  1.00  0.00    -0.003 C 
ATOM     20  C   UNL     1       7.250  -4.895 -15.139  1.00  0.00     0.004 C 
ENDBRANCH  18  19
ENDBRANCH  17  18
ENDBRANCH  16  17
ENDBRANCH  15  16
ENDBRANCH  14  15
ENDBRANCH  13  14
ENDBRANCH  12  13
ENDBRANCH   1  12
TORSDOF 16
ENDMDL
MODEL 9
REMARK VINA RESULT:    -3.502      2.195      3.876
REMARK INTER + INTRA:          -8.886
REMARK INTER:                  -6.876
REMARK INTRA:                  -2.010
REMARK UNBOUND:                -2.109
REMARK SMILES CCCCCCCCCCCCCCCCCC(=O)[O-]
REMARK SMILES IDX 10 1 11 2 12 3 13 4 14 5 15 6 16 7 17 8 18 9 19 10 20 11
REMARK SMILES IDX 9 12 8 13 7 14 6 15 5 16 4 17 3 18 2 19 1 20
REMARK H PARENT
REMARK Flexibility Score: inf
ROOT
ATOM      1  C   UNL     1       7.646  -8.186 -14.381  1.00  0.00     0.000 C 
ENDROOT
BRANCH   1   2
ATOM      2  C   UNL     1       6.496  -7.872 -13.412  1.00  0.00     0.000 C 
BRANCH   2   3
ATOM      3  C   UNL     1       5.153  -8.477 -13.862  1.00  0.00     0.000 C 
BRANCH   3   4
ATOM      4  C   UNL     1       3.903  -7.682 -13.437  1.00  0.00     0.000 C 
BRANCH   4   5
ATOM      5  C   UNL     1       3.433  -6.621 -14.449  1.00  0.00     0.000 C 
BRANCH   5   6
ATOM      6  C   UNL     1       4.233  -6.657 -15.763  1.00  0.00     0.000 C 
BRANCH   6   7
ATOM      7  C   UNL     1       4.673  -5.259 -16.224  1.00  0.00     0.006 C 
BRANCH   7   8
ATOM      8  C   UNL     1       6.006  -5.283 -16.983  1.00  0.00     0.053 C 
BRANCH   8   9
ATOM      9  C   UNL     1       7.149  -5.097 -16.036  1.00  0.00     0.041 C 
ATOM     10  O   UNL     1       8.335  -5.182 -16.451  1.00  0.00    -0.550 OA
ATOM     11  O   UNL     1       6.906  -4.782 -14.706  1.00  0.00    -0.550 OA
ENDBRANCH   8   9
ENDBRANCH   7   8
ENDBRANCH   6   7
ENDBRANCH   5   6
ENDBRANCH   4   5
ENDBRANCH   3   4
ENDBRANCH   2   3
ENDBRANCH   1   2
BRANCH   1  12
ATOM     12  C   UNL     1       7.105  -8.692 -15.727  1.00  0.00     0.000 C 
BRANCH  12  13
ATOM     13  C   UNL     1       8.087  -8.457 -16.886  1.00  0.00    -0.000 C 
BRANCH  13  14
ATOM     14  C   UNL     1       7.376  -8.231 -18.228  1.00  0.00    -0.000 C 
BRANCH  14  15
ATOM     15  C   UNL     1       8.384  -8.214 -19.387  1.00  0.00    -0.000 C 
BRANCH  15  16
ATOM     16  C   UNL     1       8.345  -9.496 -20.237  1.00  0.00    -0.000 C 
BRANCH  16  17
ATOM     17  C   UNL     1       7.409 -10.599 -19.709  1.00  0.00    -0.000 C 
BRANCH  17  18
ATOM     18  C   UNL     1       6.129 -10.749 -20.543  1.00  0.00    -0.000 C 
BRANCH  18  19
ATOM     19  C   UNL     1       4.908 -10.965 -19.642  1.00  0.00    -0.003 C 
ATOM     20  C   UNL     1       5.327 -11.391 -18.239  1.00  0.00     0.004 C 
ENDBRANCH  18  19
ENDBRANCH  17  18
ENDBRANCH  16  17
ENDBRANCH  15  16
ENDBRANCH  14  15
ENDBRANCH  13  14
ENDBRANCH  12  13
ENDBRANCH   1  12
TORSDOF 16
ENDMDL
