MODEL 1
REMARK VINA RESULT:    -6.177      0.000      0.000
REMARK INTER + INTRA:          -7.765
REMARK INTER:                  -7.441
REMARK INTRA:                  -0.324
REMARK UNBOUND:                -0.324
REMARK SMILES O=c1c(O)c(-c2ccc(O)c(O)c2)oc2cc(O)cc(O)c12
REMARK SMILES IDX 5 1 3 2 2 3 1 4 22 5 20 6 19 7 17 8 16 9 15 10 14 11 6 12
REMARK SMILES IDX 7 13 8 14 9 15 13 16 11 17 10 18 12 20 4 22 21 24 18 26
REMARK H PARENT 10 19 12 21 4 23 21 25 18 27
REMARK Flexibility Score: inf
ROOT
ATOM      1  C   UNL     1      26.164  16.321  -3.720  1.00  0.00     0.180 A 
ATOM      2  C   UNL     1      27.190  16.936  -2.984  1.00  0.00     0.208 A 
ATOM      3  C   UNL     1      26.856  17.921  -2.040  1.00  0.00     0.238 A 
ATOM      4  O   UNL     1      27.774  18.429  -1.346  1.00  0.00    -0.285 OA
ATOM      5  C   UNL     1      25.502  18.288  -1.856  1.00  0.00     0.111 A 
ATOM      6  C   UNL     1      25.052  19.301  -0.957  1.00  0.00     0.134 A 
ATOM      7  C   UNL     1      23.679  19.491  -0.760  1.00  0.00     0.093 A 
ATOM      8  C   UNL     1      22.739  18.748  -1.480  1.00  0.00     0.123 A 
ATOM      9  C   UNL     1      23.168  17.798  -2.403  1.00  0.00     0.094 A 
ATOM     10  C   UNL     1      24.532  17.562  -2.595  1.00  0.00     0.146 A 
ATOM     11  O   UNL     1      24.898  16.640  -3.477  1.00  0.00    -0.452 OA
ENDROOT
BRANCH   1  12
ATOM     12  C   UNL     1      26.440  15.292  -4.749  1.00  0.00     0.025 A 
ATOM     13  C   UNL     1      26.498  13.927  -4.422  1.00  0.00     0.016 A 
ATOM     14  C   UNL     1      26.784  12.975  -5.405  1.00  0.00     0.051 A 
ATOM     15  C   UNL     1      27.029  13.375  -6.725  1.00  0.00     0.157 A 
ATOM     16  C   UNL     1      26.708  15.689  -6.070  1.00  0.00     0.062 A 
ATOM     17  C   UNL     1      26.994  14.739  -7.057  1.00  0.00     0.158 A 
BRANCH  15  18
ATOM     18  O   UNL     1      27.312  12.423  -7.704  1.00  0.00    -0.504 OA
ATOM     19  H   UNL     1      27.512  12.689  -8.660  1.00  0.00     0.293 HD
ENDBRANCH  15  18
BRANCH  17  20
ATOM     20  O   UNL     1      27.240  15.170  -8.360  1.00  0.00    -0.504 OA
ATOM     21  H   UNL     1      27.850  14.662  -8.989  1.00  0.00     0.293 HD
ENDBRANCH  17  20
ENDBRANCH   1  12
BRANCH   2  22
ATOM     22  O   UNL     1      28.519  16.542  -3.166  1.00  0.00    -0.502 OA
ATOM     23  H   UNL     1      28.791  15.571  -3.260  1.00  0.00     0.293 HD
ENDBRANCH   2  22
BRANCH   6  24
ATOM     24  O   UNL     1      25.906  20.160  -0.258  1.00  0.00    -0.507 OA
ATOM     25  H   UNL     1      25.603  20.866   0.394  1.00  0.00     0.293 HD
ENDBRANCH   6  24
BRANCH   8  26
ATOM     26  O   UNL     1      21.374  18.954  -1.290  1.00  0.00    -0.508 OA
ATOM     27  H   UNL     1      20.736  18.180  -1.143  1.00  0.00     0.293 HD
ENDBRANCH   8  26
TORSDOF 6
ENDMDL
MODEL 2
REMARK VINA RESULT:    -5.887      1.653      7.145
REMARK INTER + INTRA:          -7.415
REMARK INTER:                  -7.408
REMARK INTRA:                  -0.007
REMARK UNBOUND:                -0.324
REMARK SMILES O=c1c(O)c(-c2ccc(O)c(O)c2)oc2cc(O)cc(O)c12
REMARK SMILES IDX 5 1 3 2 2 3 1 4 22 5 20 6 19 7 17 8 16 9 15 10 14 11 6 12
REMARK SMILES IDX 7 13 8 14 9 15 13 16 11 17 10 18 12 20 4 22 21 24 18 26
REMARK H PARENT 10 19 12 21 4 23 21 25 18 27
REMARK Flexibility Score: inf
ROOT
ATOM      1  C   UNL     1      25.388  17.236  -3.751  1.00  0.00     0.180 A 
ATOM      2  C   UNL     1      24.952  17.395  -5.077  1.00  0.00     0.208 A 
ATOM      3  C   UNL     1      25.576  16.652  -6.093  1.00  0.00     0.238 A 
ATOM      4  O   UNL     1      25.144  16.758  -7.271  1.00  0.00    -0.285 OA
ATOM      5  C   UNL     1      26.637  15.773  -5.772  1.00  0.00     0.111 A 
ATOM      6  C   UNL     1      27.366  15.002  -6.726  1.00  0.00     0.134 A 
ATOM      7  C   UNL     1      28.310  14.067  -6.282  1.00  0.00     0.093 A 
ATOM      8  C   UNL     1      28.596  13.923  -4.921  1.00  0.00     0.123 A 
ATOM      9  C   UNL     1      27.931  14.712  -3.987  1.00  0.00     0.094 A 
ATOM     10  C   UNL     1      26.959  15.629  -4.397  1.00  0.00     0.146 A 
ATOM     11  O   UNL     1      26.342  16.354  -3.473  1.00  0.00    -0.452 OA
ENDROOT
BRANCH   1  12
ATOM     12  C   UNL     1      24.797  18.002  -2.629  1.00  0.00     0.025 A 
ATOM     13  C   UNL     1      25.602  18.723  -1.731  1.00  0.00     0.016 A 
ATOM     14  C   UNL     1      25.025  19.419  -0.666  1.00  0.00     0.051 A 
ATOM     15  C   UNL     1      23.637  19.393  -0.474  1.00  0.00     0.157 A 
ATOM     16  C   UNL     1      23.409  17.962  -2.419  1.00  0.00     0.062 A 
ATOM     17  C   UNL     1      22.826  18.658  -1.354  1.00  0.00     0.158 A 
BRANCH  15  18
ATOM     18  O   UNL     1      23.064  20.090   0.589  1.00  0.00    -0.504 OA
ATOM     19  H   UNL     1      22.067  20.068   0.761  1.00  0.00     0.293 HD
ENDBRANCH  15  18
BRANCH  17  20
ATOM     20  O   UNL     1      21.444  18.606  -1.186  1.00  0.00    -0.504 OA
ATOM     21  H   UNL     1      20.803  18.692  -1.966  1.00  0.00     0.293 HD
ENDBRANCH  17  20
ENDBRANCH   1  12
BRANCH   2  22
ATOM     22  O   UNL     1      23.887  18.252  -5.369  1.00  0.00    -0.502 OA
ATOM     23  H   UNL     1      23.700  18.589  -6.306  1.00  0.00     0.293 HD
ENDBRANCH   2  22
BRANCH   6  24
ATOM     24  O   UNL     1      27.224  15.134  -8.110  1.00  0.00    -0.507 OA
ATOM     25  H   UNL     1      27.550  14.463  -8.788  1.00  0.00     0.293 HD
ENDBRANCH   6  24
BRANCH   8  26
ATOM     26  O   UNL     1      29.547  13.001  -4.489  1.00  0.00    -0.508 OA
ATOM     27  H   UNL     1      30.007  13.093  -3.591  1.00  0.00     0.293 HD
ENDBRANCH   8  26
TORSDOF 6
ENDMDL
MODEL 3
REMARK VINA RESULT:    -5.884      2.534      3.256
REMARK INTER + INTRA:          -7.412
REMARK INTER:                  -7.152
REMARK INTRA:                  -0.260
REMARK UNBOUND:                -0.324
REMARK SMILES O=c1c(O)c(-c2ccc(O)c(O)c2)oc2cc(O)cc(O)c12
REMARK SMILES IDX 5 1 3 2 2 3 1 4 22 5 20 6 19 7 17 8 16 9 15 10 14 11 6 12
REMARK SMILES IDX 7 13 8 14 9 15 13 16 11 17 10 18 12 20 4 22 21 24 18 26
REMARK H PARENT 10 19 12 21 4 23 21 25 18 27
REMARK Flexibility Score: inf
ROOT
ATOM      1  C   UNL     1      25.931  15.745  -5.706  1.00  0.00     0.180 A 
ATOM      2  C   UNL     1      26.022  15.840  -4.307  1.00  0.00     0.208 A 
ATOM      3  C   UNL     1      25.555  17.003  -3.672  1.00  0.00     0.238 A 
ATOM      4  O   UNL     1      25.589  17.059  -2.415  1.00  0.00    -0.285 OA
ATOM      5  C   UNL     1      25.018  18.060  -4.445  1.00  0.00     0.111 A 
ATOM      6  C   UNL     1      24.552  19.298  -3.910  1.00  0.00     0.134 A 
ATOM      7  C   UNL     1      23.920  20.221  -4.753  1.00  0.00     0.093 A 
ATOM      8  C   UNL     1      23.796  19.977  -6.124  1.00  0.00     0.123 A 
ATOM      9  C   UNL     1      24.300  18.797  -6.664  1.00  0.00     0.094 A 
ATOM     10  C   UNL     1      24.904  17.841  -5.842  1.00  0.00     0.146 A 
ATOM     11  O   UNL     1      25.362  16.726  -6.397  1.00  0.00    -0.452 OA
ENDROOT
BRANCH   1  12
ATOM     12  C   UNL     1      26.424  14.562  -6.450  1.00  0.00     0.025 A 
ATOM     13  C   UNL     1      27.608  14.615  -7.206  1.00  0.00     0.016 A 
ATOM     14  C   UNL     1      28.042  13.494  -7.919  1.00  0.00     0.051 A 
ATOM     15  C   UNL     1      27.293  12.310  -7.898  1.00  0.00     0.157 A 
ATOM     16  C   UNL     1      25.666  13.380  -6.450  1.00  0.00     0.062 A 
ATOM     17  C   UNL     1      26.098  12.255  -7.163  1.00  0.00     0.158 A 
BRANCH  15  18
ATOM     18  O   UNL     1      27.730  11.194  -8.609  1.00  0.00    -0.504 OA
ATOM     19  H   UNL     1      27.423  10.259  -8.369  1.00  0.00     0.293 HD
ENDBRANCH  15  18
BRANCH  17  20
ATOM     20  O   UNL     1      25.327  11.094  -7.128  1.00  0.00    -0.504 OA
ATOM     21  H   UNL     1      25.211  10.500  -7.939  1.00  0.00     0.293 HD
ENDBRANCH  17  20
ENDBRANCH   1  12
BRANCH   2  22
ATOM     22  O   UNL     1      26.535  14.776  -3.562  1.00  0.00    -0.502 OA
ATOM     23  H   UNL     1      27.109  14.914  -2.738  1.00  0.00     0.293 HD
ENDBRANCH   2  22
BRANCH   6  24
ATOM     24  O   UNL     1      24.709  19.680  -2.574  1.00  0.00    -0.507 OA
ATOM     25  H   UNL     1      24.002  20.140  -2.021  1.00  0.00     0.293 HD
ENDBRANCH   6  24
BRANCH   8  26
ATOM     26  O   UNL     1      23.180  20.906  -6.957  1.00  0.00    -0.508 OA
ATOM     27  H   UNL     1      23.180  20.798  -7.965  1.00  0.00     0.293 HD
ENDBRANCH   8  26
TORSDOF 6
ENDMDL
MODEL 4
REMARK VINA RESULT:    -5.636      1.485      1.493
REMARK INTER + INTRA:          -7.113
REMARK INTER:                  -6.982
REMARK INTRA:                  -0.131
REMARK UNBOUND:                -0.324
REMARK SMILES O=c1c(O)c(-c2ccc(O)c(O)c2)oc2cc(O)cc(O)c12
REMARK SMILES IDX 5 1 3 2 2 3 1 4 22 5 20 6 19 7 17 8 16 9 15 10 14 11 6 12
REMARK SMILES IDX 7 13 8 14 9 15 13 16 11 17 10 18 12 20 4 22 21 24 18 26
REMARK H PARENT 10 19 12 21 4 23 21 25 18 27
REMARK Flexibility Score: inf
ROOT
ATOM      1  C   UNL     1      25.917  17.232  -4.358  1.00  0.00     0.180 A 
ATOM      2  C   UNL     1      26.735  18.372  -4.286  1.00  0.00     0.208 A 
ATOM      3  C   UNL     1      26.260  19.509  -3.613  1.00  0.00     0.238 A 
ATOM      4  O   UNL     1      27.018  20.508  -3.504  1.00  0.00    -0.285 OA
ATOM      5  C   UNL     1      24.968  19.497  -3.035  1.00  0.00     0.111 A 
ATOM      6  C   UNL     1      24.370  20.606  -2.364  1.00  0.00     0.134 A 
ATOM      7  C   UNL     1      23.140  20.440  -1.717  1.00  0.00     0.093 A 
ATOM      8  C   UNL     1      22.455  19.223  -1.772  1.00  0.00     0.123 A 
ATOM      9  C   UNL     1      23.003  18.153  -2.474  1.00  0.00     0.094 A 
ATOM     10  C   UNL     1      24.246  18.277  -3.100  1.00  0.00     0.146 A 
ATOM     11  O   UNL     1      24.737  17.229  -3.749  1.00  0.00    -0.452 OA
ENDROOT
BRANCH   1  12
ATOM     12  C   UNL     1      26.338  16.004  -5.072  1.00  0.00     0.025 A 
ATOM     13  C   UNL     1      26.536  14.792  -4.387  1.00  0.00     0.016 A 
ATOM     14  C   UNL     1      26.957  13.652  -5.077  1.00  0.00     0.051 A 
ATOM     15  C   UNL     1      27.198  13.708  -6.456  1.00  0.00     0.157 A 
ATOM     16  C   UNL     1      26.603  16.060  -6.450  1.00  0.00     0.062 A 
ATOM     17  C   UNL     1      27.024  14.920  -7.144  1.00  0.00     0.158 A 
BRANCH  15  18
ATOM     18  O   UNL     1      27.617  12.569  -7.141  1.00  0.00    -0.504 OA
ATOM     19  H   UNL     1      28.149  11.840  -6.682  1.00  0.00     0.293 HD
ENDBRANCH  15  18
BRANCH  17  20
ATOM     20  O   UNL     1      27.263  15.012  -8.514  1.00  0.00    -0.504 OA
ATOM     21  H   UNL     1      26.849  15.737  -9.086  1.00  0.00     0.293 HD
ENDBRANCH  17  20
ENDBRANCH   1  12
BRANCH   2  22
ATOM     22  O   UNL     1      28.015  18.355  -4.844  1.00  0.00    -0.502 OA
ATOM     23  H   UNL     1      28.476  17.497  -5.124  1.00  0.00     0.293 HD
ENDBRANCH   2  22
BRANCH   6  24
ATOM     24  O   UNL     1      24.926  21.889  -2.328  1.00  0.00    -0.507 OA
ATOM     25  H   UNL     1      25.911  22.090  -2.400  1.00  0.00     0.293 HD
ENDBRANCH   6  24
BRANCH   8  26
ATOM     26  O   UNL     1      21.224  19.071  -1.138  1.00  0.00    -0.508 OA
ATOM     27  H   UNL     1      21.010  19.551  -0.271  1.00  0.00     0.293 HD
ENDBRANCH   8  26
TORSDOF 6
ENDMDL
MODEL 5
REMARK VINA RESULT:    -5.621      1.747      2.061
REMARK INTER + INTRA:          -7.094
REMARK INTER:                  -6.785
REMARK INTRA:                  -0.309
REMARK UNBOUND:                -0.324
REMARK SMILES O=c1c(O)c(-c2ccc(O)c(O)c2)oc2cc(O)cc(O)c12
REMARK SMILES IDX 5 1 3 2 2 3 1 4 22 5 20 6 19 7 17 8 16 9 15 10 14 11 6 12
REMARK SMILES IDX 7 13 8 14 9 15 13 16 11 17 10 18 12 20 4 22 21 24 18 26
REMARK H PARENT 10 19 12 21 4 23 21 25 18 27
REMARK Flexibility Score: inf
ROOT
ATOM      1  C   UNL     1      26.345  17.283  -4.620  1.00  0.00     0.180 A 
ATOM      2  C   UNL     1      27.040  18.493  -4.459  1.00  0.00     0.208 A 
ATOM      3  C   UNL     1      26.455  19.518  -3.697  1.00  0.00     0.238 A 
ATOM      4  O   UNL     1      27.106  20.579  -3.510  1.00  0.00    -0.285 OA
ATOM      5  C   UNL     1      25.177  19.325  -3.120  1.00  0.00     0.111 A 
ATOM      6  C   UNL     1      24.473  20.309  -2.363  1.00  0.00     0.134 A 
ATOM      7  C   UNL     1      23.273  19.965  -1.730  1.00  0.00     0.093 A 
ATOM      8  C   UNL     1      22.718  18.691  -1.880  1.00  0.00     0.123 A 
ATOM      9  C   UNL     1      23.368  17.742  -2.665  1.00  0.00     0.094 A 
ATOM     10  C   UNL     1      24.586  18.045  -3.281  1.00  0.00     0.146 A 
ATOM     11  O   UNL     1      25.177  17.109  -4.012  1.00  0.00    -0.452 OA
ENDROOT
BRANCH   1  12
ATOM     12  C   UNL     1      26.885  16.165  -5.428  1.00  0.00     0.025 A 
ATOM     13  C   UNL     1      26.477  15.961  -6.758  1.00  0.00     0.016 A 
ATOM     14  C   UNL     1      26.981  14.886  -7.494  1.00  0.00     0.051 A 
ATOM     15  C   UNL     1      27.889  13.993  -6.910  1.00  0.00     0.157 A 
ATOM     16  C   UNL     1      27.778  15.254  -4.841  1.00  0.00     0.062 A 
ATOM     17  C   UNL     1      28.285  14.177  -5.575  1.00  0.00     0.158 A 
BRANCH  15  18
ATOM     18  O   UNL     1      28.391  12.922  -7.648  1.00  0.00    -0.504 OA
ATOM     19  H   UNL     1      27.935  12.599  -8.493  1.00  0.00     0.293 HD
ENDBRANCH  15  18
BRANCH  17  20
ATOM     20  O   UNL     1      29.181  13.301  -4.963  1.00  0.00    -0.504 OA
ATOM     21  H   UNL     1      30.165  13.519  -4.865  1.00  0.00     0.293 HD
ENDBRANCH  17  20
ENDBRANCH   1  12
BRANCH   2  22
ATOM     22  O   UNL     1      28.310  18.654  -5.018  1.00  0.00    -0.502 OA
ATOM     23  H   UNL     1      28.499  18.483  -5.998  1.00  0.00     0.293 HD
ENDBRANCH   2  22
BRANCH   6  24
ATOM     24  O   UNL     1      24.892  21.636  -2.226  1.00  0.00    -0.507 OA
ATOM     25  H   UNL     1      24.384  22.350  -1.728  1.00  0.00     0.293 HD
ENDBRANCH   6  24
BRANCH   8  26
ATOM     26  O   UNL     1      21.516  18.361  -1.259  1.00  0.00    -0.508 OA
ATOM     27  H   UNL     1      21.153  17.415  -1.271  1.00  0.00     0.293 HD
ENDBRANCH   8  26
TORSDOF 6
ENDMDL
MODEL 6
REMARK VINA RESULT:    -5.528      1.660      6.730
REMARK INTER + INTRA:          -6.983
REMARK INTER:                  -6.755
REMARK INTRA:                  -0.228
REMARK UNBOUND:                -0.324
REMARK SMILES O=c1c(O)c(-c2ccc(O)c(O)c2)oc2cc(O)cc(O)c12
REMARK SMILES IDX 5 1 3 2 2 3 1 4 22 5 20 6 19 7 17 8 16 9 15 10 14 11 6 12
REMARK SMILES IDX 7 13 8 14 9 15 13 16 11 17 10 18 12 20 4 22 21 24 18 26
REMARK H PARENT 10 19 12 21 4 23 21 25 18 27
REMARK Flexibility Score: inf
ROOT
ATOM      1  C   UNL     1      25.827  17.031  -3.804  1.00  0.00     0.180 A 
ATOM      2  C   UNL     1      26.789  16.663  -2.849  1.00  0.00     0.208 A 
ATOM      3  C   UNL     1      27.732  15.676  -3.178  1.00  0.00     0.238 A 
ATOM      4  O   UNL     1      28.626  15.390  -2.338  1.00  0.00    -0.285 OA
ATOM      5  C   UNL     1      27.690  15.057  -4.450  1.00  0.00     0.111 A 
ATOM      6  C   UNL     1      28.571  14.018  -4.875  1.00  0.00     0.134 A 
ATOM      7  C   UNL     1      28.522  13.570  -6.201  1.00  0.00     0.093 A 
ATOM      8  C   UNL     1      27.580  14.080  -7.099  1.00  0.00     0.123 A 
ATOM      9  C   UNL     1      26.678  15.053  -6.677  1.00  0.00     0.094 A 
ATOM     10  C   UNL     1      26.726  15.545  -5.369  1.00  0.00     0.146 A 
ATOM     11  O   UNL     1      25.854  16.479  -5.012  1.00  0.00    -0.452 OA
ENDROOT
BRANCH   1  12
ATOM     12  C   UNL     1      24.785  18.046  -3.523  1.00  0.00     0.025 A 
ATOM     13  C   UNL     1      24.838  19.327  -4.099  1.00  0.00     0.016 A 
ATOM     14  C   UNL     1      23.858  20.277  -3.801  1.00  0.00     0.051 A 
ATOM     15  C   UNL     1      22.819  19.967  -2.913  1.00  0.00     0.157 A 
ATOM     16  C   UNL     1      23.754  17.748  -2.617  1.00  0.00     0.062 A 
ATOM     17  C   UNL     1      22.770  18.696  -2.316  1.00  0.00     0.158 A 
BRANCH  15  18
ATOM     18  O   UNL     1      21.842  20.916  -2.619  1.00  0.00    -0.504 OA
ATOM     19  H   UNL     1      21.161  21.208  -3.310  1.00  0.00     0.293 HD
ENDBRANCH  15  18
BRANCH  17  20
ATOM     20  O   UNL     1      21.754  18.359  -1.423  1.00  0.00    -0.504 OA
ATOM     21  H   UNL     1      20.944  18.949  -1.280  1.00  0.00     0.293 HD
ENDBRANCH  17  20
ENDBRANCH   1  12
BRANCH   2  22
ATOM     22  O   UNL     1      26.827  17.302  -1.607  1.00  0.00    -0.502 OA
ATOM     23  H   UNL     1      27.078  18.279  -1.504  1.00  0.00     0.293 HD
ENDBRANCH   2  22
BRANCH   6  24
ATOM     24  O   UNL     1      29.485  13.376  -4.034  1.00  0.00    -0.507 OA
ATOM     25  H   UNL     1      29.704  12.393  -4.067  1.00  0.00     0.293 HD
ENDBRANCH   6  24
BRANCH   8  26
ATOM     26  O   UNL     1      27.529  13.619  -8.412  1.00  0.00    -0.508 OA
ATOM     27  H   UNL     1      28.147  12.887  -8.743  1.00  0.00     0.293 HD
ENDBRANCH   8  26
TORSDOF 6
ENDMDL
MODEL 7
REMARK VINA RESULT:    -5.281      2.856      3.458
REMARK INTER + INTRA:          -6.685
REMARK INTER:                  -6.764
REMARK INTRA:                   0.078
REMARK UNBOUND:                -0.324
REMARK SMILES O=c1c(O)c(-c2ccc(O)c(O)c2)oc2cc(O)cc(O)c12
REMARK SMILES IDX 5 1 3 2 2 3 1 4 22 5 20 6 19 7 17 8 16 9 15 10 14 11 6 12
REMARK SMILES IDX 7 13 8 14 9 15 13 16 11 17 10 18 12 20 4 22 21 24 18 26
REMARK H PARENT 10 19 12 21 4 23 21 25 18 27
REMARK Flexibility Score: inf
ROOT
ATOM      1  C   UNL     1      25.394  17.231  -4.880  1.00  0.00     0.180 A 
ATOM      2  C   UNL     1      24.694  17.154  -3.665  1.00  0.00     0.208 A 
ATOM      3  C   UNL     1      23.796  18.181  -3.330  1.00  0.00     0.238 A 
ATOM      4  O   UNL     1      23.131  18.080  -2.266  1.00  0.00    -0.285 OA
ATOM      5  C   UNL     1      23.623  19.278  -4.207  1.00  0.00     0.111 A 
ATOM      6  C   UNL     1      22.770  20.394  -3.950  1.00  0.00     0.134 A 
ATOM      7  C   UNL     1      22.576  21.359  -4.946  1.00  0.00     0.093 A 
ATOM      8  C   UNL     1      23.255  21.282  -6.166  1.00  0.00     0.123 A 
ATOM      9  C   UNL     1      24.134  20.229  -6.402  1.00  0.00     0.094 A 
ATOM     10  C   UNL     1      24.321  19.231  -5.441  1.00  0.00     0.146 A 
ATOM     11  O   UNL     1      25.160  18.239  -5.712  1.00  0.00    -0.452 OA
ENDROOT
BRANCH   1  12
ATOM     12  C   UNL     1      26.375  16.199  -5.292  1.00  0.00     0.025 A 
ATOM     13  C   UNL     1      27.299  15.665  -4.378  1.00  0.00     0.016 A 
ATOM     14  C   UNL     1      28.232  14.710  -4.794  1.00  0.00     0.051 A 
ATOM     15  C   UNL     1      28.263  14.287  -6.129  1.00  0.00     0.157 A 
ATOM     16  C   UNL     1      26.425  15.788  -6.634  1.00  0.00     0.062 A 
ATOM     17  C   UNL     1      27.357  14.832  -7.053  1.00  0.00     0.158 A 
BRANCH  15  18
ATOM     18  O   UNL     1      29.194  13.334  -6.540  1.00  0.00    -0.504 OA
ATOM     19  H   UNL     1      29.372  13.155  -7.520  1.00  0.00     0.293 HD
ENDBRANCH  15  18
BRANCH  17  20
ATOM     20  O   UNL     1      27.367  14.437  -8.390  1.00  0.00    -0.504 OA
ATOM     21  H   UNL     1      27.264  13.469  -8.667  1.00  0.00     0.293 HD
ENDBRANCH  17  20
ENDBRANCH   1  12
BRANCH   2  22
ATOM     22  O   UNL     1      24.863  16.051  -2.824  1.00  0.00    -0.502 OA
ATOM     23  H   UNL     1      25.777  15.690  -2.576  1.00  0.00     0.293 HD
ENDBRANCH   2  22
BRANCH   6  24
ATOM     24  O   UNL     1      22.118  20.614  -2.733  1.00  0.00    -0.507 OA
ATOM     25  H   UNL     1      21.591  19.917  -2.229  1.00  0.00     0.293 HD
ENDBRANCH   6  24
BRANCH   8  26
ATOM     26  O   UNL     1      23.067  22.254  -7.145  1.00  0.00    -0.508 OA
ATOM     27  H   UNL     1      23.357  23.215  -7.002  1.00  0.00     0.293 HD
ENDBRANCH   8  26
TORSDOF 6
ENDMDL
MODEL 8
REMARK VINA RESULT:    -5.247      3.302      6.586
REMARK INTER + INTRA:          -6.644
REMARK INTER:                  -6.317
REMARK INTRA:                  -0.327
REMARK UNBOUND:                -0.324
REMARK SMILES O=c1c(O)c(-c2ccc(O)c(O)c2)oc2cc(O)cc(O)c12
REMARK SMILES IDX 5 1 3 2 2 3 1 4 22 5 20 6 19 7 17 8 16 9 15 10 14 11 6 12
REMARK SMILES IDX 7 13 8 14 9 15 13 16 11 17 10 18 12 20 4 22 21 24 18 26
REMARK H PARENT 10 19 12 21 4 23 21 25 18 27
REMARK Flexibility Score: inf
ROOT
ATOM      1  C   UNL     1      25.140  17.779  -5.466  1.00  0.00     0.180 A 
ATOM      2  C   UNL     1      25.760  17.739  -4.205  1.00  0.00     0.208 A 
ATOM      3  C   UNL     1      26.705  16.734  -3.943  1.00  0.00     0.238 A 
ATOM      4  O   UNL     1      27.297  16.737  -2.831  1.00  0.00    -0.285 OA
ATOM      5  C   UNL     1      27.007  15.774  -4.937  1.00  0.00     0.111 A 
ATOM      6  C   UNL     1      27.919  14.689  -4.766  1.00  0.00     0.134 A 
ATOM      7  C   UNL     1      28.239  13.877  -5.860  1.00  0.00     0.093 A 
ATOM      8  C   UNL     1      27.630  14.070  -7.104  1.00  0.00     0.123 A 
ATOM      9  C   UNL     1      26.695  15.089  -7.265  1.00  0.00     0.094 A 
ATOM     10  C   UNL     1      26.382  15.939  -6.200  1.00  0.00     0.146 A 
ATOM     11  O   UNL     1      25.493  16.904  -6.401  1.00  0.00    -0.452 OA
ENDROOT
BRANCH   1  12
ATOM     12  C   UNL     1      24.116  18.793  -5.809  1.00  0.00     0.025 A 
ATOM     13  C   UNL     1      22.765  18.612  -5.466  1.00  0.00     0.016 A 
ATOM     14  C   UNL     1      21.812  19.570  -5.821  1.00  0.00     0.051 A 
ATOM     15  C   UNL     1      22.191  20.714  -6.536  1.00  0.00     0.157 A 
ATOM     16  C   UNL     1      24.487  19.930  -6.545  1.00  0.00     0.062 A 
ATOM     17  C   UNL     1      23.535  20.892  -6.902  1.00  0.00     0.158 A 
BRANCH  15  18
ATOM     18  O   UNL     1      21.238  21.668  -6.887  1.00  0.00    -0.504 OA
ATOM     19  H   UNL     1      20.316  21.676  -6.469  1.00  0.00     0.293 HD
ENDBRANCH  15  18
BRANCH  17  20
ATOM     20  O   UNL     1      23.944  22.015  -7.620  1.00  0.00    -0.504 OA
ATOM     21  H   UNL     1      23.566  22.937  -7.439  1.00  0.00     0.293 HD
ENDBRANCH  17  20
ENDBRANCH   1  12
BRANCH   2  22
ATOM     22  O   UNL     1      25.464  18.711  -3.246  1.00  0.00    -0.502 OA
ATOM     23  H   UNL     1      24.765  19.430  -3.396  1.00  0.00     0.293 HD
ENDBRANCH   2  22
BRANCH   6  24
ATOM     24  O   UNL     1      28.511  14.353  -3.545  1.00  0.00    -0.507 OA
ATOM     25  H   UNL     1      29.428  14.649  -3.251  1.00  0.00     0.293 HD
ENDBRANCH   6  24
BRANCH   8  26
ATOM     26  O   UNL     1      27.943  13.247  -8.183  1.00  0.00    -0.508 OA
ATOM     27  H   UNL     1      27.876  13.577  -9.139  1.00  0.00     0.293 HD
ENDBRANCH   8  26
TORSDOF 6
ENDMDL
MODEL 9
REMARK VINA RESULT:    -5.234      2.167      3.167
REMARK INTER + INTRA:          -6.629
REMARK INTER:                  -7.162
REMARK INTRA:                   0.534
REMARK UNBOUND:                -0.324
REMARK SMILES O=c1c(O)c(-c2ccc(O)c(O)c2)oc2cc(O)cc(O)c12
REMARK SMILES IDX 5 1 3 2 2 3 1 4 22 5 20 6 19 7 17 8 16 9 15 10 14 11 6 12
REMARK SMILES IDX 7 13 8 14 9 15 13 16 11 17 10 18 12 20 4 22 21 24 18 26
REMARK H PARENT 10 19 12 21 4 23 21 25 18 27
REMARK Flexibility Score: inf
ROOT
ATOM      1  C   UNL     1      25.054  17.438  -4.775  1.00  0.00     0.180 A 
ATOM      2  C   UNL     1      24.290  18.204  -5.672  1.00  0.00     0.208 A 
ATOM      3  C   UNL     1      23.342  19.106  -5.161  1.00  0.00     0.238 A 
ATOM      4  O   UNL     1      22.700  19.829  -5.967  1.00  0.00    -0.285 OA
ATOM      5  C   UNL     1      23.159  19.217  -3.762  1.00  0.00     0.111 A 
ATOM      6  C   UNL     1      22.199  20.068  -3.136  1.00  0.00     0.134 A 
ATOM      7  C   UNL     1      22.194  20.195  -1.741  1.00  0.00     0.093 A 
ATOM      8  C   UNL     1      23.072  19.451  -0.947  1.00  0.00     0.123 A 
ATOM      9  C   UNL     1      23.972  18.575  -1.546  1.00  0.00     0.094 A 
ATOM     10  C   UNL     1      24.025  18.453  -2.937  1.00  0.00     0.146 A 
ATOM     11  O   UNL     1      24.905  17.613  -3.467  1.00  0.00    -0.452 OA
ENDROOT
BRANCH   1  12
ATOM     12  C   UNL     1      26.055  16.449  -5.238  1.00  0.00     0.025 A 
ATOM     13  C   UNL     1      26.939  15.829  -4.339  1.00  0.00     0.016 A 
ATOM     14  C   UNL     1      27.893  14.917  -4.801  1.00  0.00     0.051 A 
ATOM     15  C   UNL     1      27.985  14.623  -6.168  1.00  0.00     0.157 A 
ATOM     16  C   UNL     1      26.167  16.167  -6.610  1.00  0.00     0.062 A 
ATOM     17  C   UNL     1      27.120  15.255  -7.076  1.00  0.00     0.158 A 
BRANCH  15  18
ATOM     18  O   UNL     1      28.936  13.712  -6.626  1.00  0.00    -0.504 OA
ATOM     19  H   UNL     1      29.873  13.686  -6.244  1.00  0.00     0.293 HD
ENDBRANCH  15  18
BRANCH  17  20
ATOM     20  O   UNL     1      27.191  14.989  -8.443  1.00  0.00    -0.504 OA
ATOM     21  H   UNL     1      26.541  14.366  -8.905  1.00  0.00     0.293 HD
ENDBRANCH  17  20
ENDBRANCH   1  12
BRANCH   2  22
ATOM     22  O   UNL     1      24.503  18.095  -7.048  1.00  0.00    -0.502 OA
ATOM     23  H   UNL     1      25.430  18.099  -7.458  1.00  0.00     0.293 HD
ENDBRANCH   2  22
BRANCH   6  24
ATOM     24  O   UNL     1      21.219  20.783  -3.831  1.00  0.00    -0.507 OA
ATOM     25  H   UNL     1      21.397  21.382  -4.621  1.00  0.00     0.293 HD
ENDBRANCH   6  24
BRANCH   8  26
ATOM     26  O   UNL     1      23.050  19.573   0.440  1.00  0.00    -0.508 OA
ATOM     27  H   UNL     1      22.980  20.477   0.893  1.00  0.00     0.293 HD
ENDBRANCH   8  26
TORSDOF 6
ENDMDL
