MODEL 1
REMARK VINA RESULT:    -5.570      0.000      0.000
REMARK INTER + INTRA:          -6.673
REMARK INTER:                  -6.547
REMARK INTRA:                  -0.125
REMARK UNBOUND:                -0.125
REMARK SMILES O=C([O-])C=Cc1ccc(O)c(O)c1
REMARK SMILES IDX 6 1 13 2 7 3 11 4 8 5 9 6 5 7 4 8 2 9 1 10 3 11 12 12 10 14
REMARK H PARENT 12 13 10 15
REMARK Flexibility Score: inf
ROOT
ATOM      1  C   UNL     1     -46.457 -12.829  11.105  1.00  0.00    -0.022 A 
ATOM      2  C   UNL     1     -47.695 -12.181  10.969  1.00  0.00     0.058 A 
ATOM      3  C   UNL     1     -46.433 -14.155  11.582  1.00  0.00     0.012 A 
ATOM      4  C   UNL     1     -48.888 -12.829  11.323  1.00  0.00     0.157 A 
ATOM      5  C   UNL     1     -47.622 -14.801  11.934  1.00  0.00     0.051 A 
ATOM      6  C   UNL     1     -48.849 -14.145  11.810  1.00  0.00     0.157 A 
ENDROOT
BRANCH   1   7
ATOM      7  C   UNL     1     -45.226 -12.102  10.708  1.00  0.00     0.010 C 
ATOM      8  C   UNL     1     -44.348 -11.590  11.581  1.00  0.00     0.025 C 
BRANCH   8   9
ATOM      9  C   UNL     1     -43.145 -10.867  11.140  1.00  0.00     0.064 C 
ATOM     10  O   UNL     1     -42.148 -11.514  10.726  1.00  0.00    -0.545 OA
ATOM     11  O   UNL     1     -43.091  -9.478  11.172  1.00  0.00    -0.545 OA
ENDBRANCH   8   9
ENDBRANCH   1   7
BRANCH   4  12
ATOM     12  O   UNL     1     -50.110 -12.169  11.191  1.00  0.00    -0.504 OA
ATOM     13  H   UNL     1     -50.558 -12.056  10.289  1.00  0.00     0.293 HD
ENDBRANCH   4  12
BRANCH   6  14
ATOM     14  O   UNL     1     -50.017 -14.816  12.172  1.00  0.00    -0.504 OA
ATOM     15  H   UNL     1     -50.413 -15.552  11.599  1.00  0.00     0.293 HD
ENDBRANCH   6  14
TORSDOF 4
ENDMDL
MODEL 2
REMARK VINA RESULT:    -5.354      7.185      9.045
REMARK INTER + INTRA:          -6.418
REMARK INTER:                  -6.292
REMARK INTRA:                  -0.126
REMARK UNBOUND:                -0.125
REMARK SMILES O=C([O-])C=Cc1ccc(O)c(O)c1
REMARK SMILES IDX 6 1 13 2 7 3 11 4 8 5 9 6 5 7 4 8 2 9 1 10 3 11 12 12 10 14
REMARK H PARENT 12 13 10 15
REMARK Flexibility Score: inf
ROOT
ATOM      1  C   UNL     1     -41.664  -9.497   4.800  1.00  0.00    -0.022 A 
ATOM      2  C   UNL     1     -43.015  -9.766   4.528  1.00  0.00     0.058 A 
ATOM      3  C   UNL     1     -40.728  -9.588   3.750  1.00  0.00     0.012 A 
ATOM      4  C   UNL     1     -43.428 -10.142   3.241  1.00  0.00     0.157 A 
ATOM      5  C   UNL     1     -41.139  -9.961   2.468  1.00  0.00     0.051 A 
ATOM      6  C   UNL     1     -42.483 -10.242   2.207  1.00  0.00     0.157 A 
ENDROOT
BRANCH   1   7
ATOM      7  C   UNL     1     -41.282  -9.094   6.177  1.00  0.00     0.010 C 
ATOM      8  C   UNL     1     -41.467  -9.865   7.257  1.00  0.00     0.025 C 
BRANCH   8   9
ATOM      9  C   UNL     1     -41.082  -9.419   8.605  1.00  0.00     0.064 C 
ATOM     10  O   UNL     1     -39.884  -9.113   8.840  1.00  0.00    -0.545 OA
ATOM     11  O   UNL     1     -42.021  -9.328   9.626  1.00  0.00    -0.545 OA
ENDBRANCH   8   9
ENDBRANCH   1   7
BRANCH   4  12
ATOM     12  O   UNL     1     -44.772 -10.415   2.988  1.00  0.00    -0.504 OA
ATOM     13  H   UNL     1     -45.054 -11.193   2.403  1.00  0.00     0.293 HD
ENDBRANCH   4  12
BRANCH   6  14
ATOM     14  O   UNL     1     -42.861 -10.614   0.918  1.00  0.00    -0.504 OA
ATOM     15  H   UNL     1     -42.239 -10.510   0.124  1.00  0.00     0.293 HD
ENDBRANCH   6  14
TORSDOF 4
ENDMDL
MODEL 3
REMARK VINA RESULT:    -5.322      2.998      6.602
REMARK INTER + INTRA:          -6.381
REMARK INTER:                  -6.251
REMARK INTRA:                  -0.130
REMARK UNBOUND:                -0.125
REMARK SMILES O=C([O-])C=Cc1ccc(O)c(O)c1
REMARK SMILES IDX 6 1 13 2 7 3 11 4 8 5 9 6 5 7 4 8 2 9 1 10 3 11 12 12 10 14
REMARK H PARENT 12 13 10 15
REMARK Flexibility Score: inf
ROOT
ATOM      1  C   UNL     1     -49.411 -13.266  12.463  1.00  0.00    -0.022 A 
ATOM      2  C   UNL     1     -48.287 -13.901  13.017  1.00  0.00     0.058 A 
ATOM      3  C   UNL     1     -49.252 -12.512  11.284  1.00  0.00     0.012 A 
ATOM      4  C   UNL     1     -47.023 -13.770  12.424  1.00  0.00     0.157 A 
ATOM      5  C   UNL     1     -47.993 -12.383  10.692  1.00  0.00     0.051 A 
ATOM      6  C   UNL     1     -46.876 -13.005  11.256  1.00  0.00     0.157 A 
ENDROOT
BRANCH   1   7
ATOM      7  C   UNL     1     -50.727 -13.446  13.126  1.00  0.00     0.010 C 
ATOM      8  C   UNL     1     -50.885 -13.552  14.452  1.00  0.00     0.025 C 
BRANCH   8   9
ATOM      9  C   UNL     1     -52.210 -13.740  15.065  1.00  0.00     0.064 C 
ATOM     10  O   UNL     1     -52.915 -14.726  14.728  1.00  0.00    -0.545 OA
ATOM     11  O   UNL     1     -52.696 -12.845  16.011  1.00  0.00    -0.545 OA
ENDBRANCH   8   9
ENDBRANCH   1   7
BRANCH   4  12
ATOM     12  O   UNL     1     -45.914 -14.399  12.990  1.00  0.00    -0.504 OA
ATOM     13  H   UNL     1     -44.986 -14.294  12.597  1.00  0.00     0.293 HD
ENDBRANCH   4  12
BRANCH   6  14
ATOM     14  O   UNL     1     -45.633 -12.853  10.643  1.00  0.00    -0.504 OA
ATOM     15  H   UNL     1     -45.019 -12.077  10.858  1.00  0.00     0.293 HD
ENDBRANCH   6  14
TORSDOF 4
ENDMDL
MODEL 4
REMARK VINA RESULT:    -5.274      1.262      1.943
REMARK INTER + INTRA:          -6.324
REMARK INTER:                  -6.186
REMARK INTRA:                  -0.138
REMARK UNBOUND:                -0.125
REMARK SMILES O=C([O-])C=Cc1ccc(O)c(O)c1
REMARK SMILES IDX 6 1 13 2 7 3 11 4 8 5 9 6 5 7 4 8 2 9 1 10 3 11 12 12 10 14
REMARK H PARENT 12 13 10 15
REMARK Flexibility Score: inf
ROOT
ATOM      1  C   UNL     1     -45.933 -12.306  11.643  1.00  0.00    -0.022 A 
ATOM      2  C   UNL     1     -46.523 -12.806  12.815  1.00  0.00     0.058 A 
ATOM      3  C   UNL     1     -46.520 -12.617  10.401  1.00  0.00     0.012 A 
ATOM      4  C   UNL     1     -47.663 -13.621  12.754  1.00  0.00     0.157 A 
ATOM      5  C   UNL     1     -47.657 -13.428  10.340  1.00  0.00     0.051 A 
ATOM      6  C   UNL     1     -48.230 -13.934  11.509  1.00  0.00     0.157 A 
ENDROOT
BRANCH   1   7
ATOM      7  C   UNL     1     -44.733 -11.440  11.765  1.00  0.00     0.010 C 
ATOM      8  C   UNL     1     -43.779 -11.354  10.828  1.00  0.00     0.025 C 
BRANCH   8   9
ATOM      9  C   UNL     1     -42.600 -10.488  10.997  1.00  0.00     0.064 C 
ATOM     10  O   UNL     1     -42.740  -9.338  11.489  1.00  0.00    -0.545 OA
ATOM     11  O   UNL     1     -41.334 -10.921  10.623  1.00  0.00    -0.545 OA
ENDBRANCH   8   9
ENDBRANCH   1   7
BRANCH   4  12
ATOM     12  O   UNL     1     -48.233 -14.118  13.926  1.00  0.00    -0.504 OA
ATOM     13  H   UNL     1     -48.200 -15.105  14.155  1.00  0.00     0.293 HD
ENDBRANCH   4  12
BRANCH   6  14
ATOM     14  O   UNL     1     -49.362 -14.743  11.414  1.00  0.00    -0.504 OA
ATOM     15  H   UNL     1     -50.299 -14.370  11.508  1.00  0.00     0.293 HD
ENDBRANCH   6  14
TORSDOF 4
ENDMDL
MODEL 5
REMARK VINA RESULT:    -5.210      2.266      2.830
REMARK INTER + INTRA:          -6.249
REMARK INTER:                  -6.119
REMARK INTRA:                  -0.130
REMARK UNBOUND:                -0.125
REMARK SMILES O=C([O-])C=Cc1ccc(O)c(O)c1
REMARK SMILES IDX 6 1 13 2 7 3 11 4 8 5 9 6 5 7 4 8 2 9 1 10 3 11 12 12 10 14
REMARK H PARENT 12 13 10 15
REMARK Flexibility Score: inf
ROOT
ATOM      1  C   UNL     1     -48.407 -13.244  12.610  1.00  0.00    -0.022 A 
ATOM      2  C   UNL     1     -49.594 -13.246  11.860  1.00  0.00     0.058 A 
ATOM      3  C   UNL     1     -48.493 -13.271  14.017  1.00  0.00     0.012 A 
ATOM      4  C   UNL     1     -50.845 -13.251  12.493  1.00  0.00     0.157 A 
ATOM      5  C   UNL     1     -49.740 -13.276  14.649  1.00  0.00     0.051 A 
ATOM      6  C   UNL     1     -50.916 -13.263  13.895  1.00  0.00     0.157 A 
ENDROOT
BRANCH   1   7
ATOM      7  C   UNL     1     -47.110 -13.249  11.890  1.00  0.00     0.010 C 
ATOM      8  C   UNL     1     -46.180 -12.293  12.022  1.00  0.00     0.025 C 
BRANCH   8   9
ATOM      9  C   UNL     1     -44.911 -12.334  11.278  1.00  0.00     0.064 C 
ATOM     10  O   UNL     1     -44.912 -12.126  10.037  1.00  0.00    -0.545 OA
ATOM     11  O   UNL     1     -43.709 -12.597  11.924  1.00  0.00    -0.545 OA
ENDBRANCH   8   9
ENDBRANCH   1   7
BRANCH   4  12
ATOM     12  O   UNL     1     -52.015 -13.243  11.735  1.00  0.00    -0.504 OA
ATOM     13  H   UNL     1     -52.653 -12.456  11.750  1.00  0.00     0.293 HD
ENDBRANCH   4  12
BRANCH   6  14
ATOM     14  O   UNL     1     -52.144 -13.266  14.556  1.00  0.00    -0.504 OA
ATOM     15  H   UNL     1     -52.908 -12.663  14.274  1.00  0.00     0.293 HD
ENDBRANCH   6  14
TORSDOF 4
ENDMDL
MODEL 6
REMARK VINA RESULT:    -5.202      2.420      3.490
REMARK INTER + INTRA:          -6.239
REMARK INTER:                  -6.113
REMARK INTRA:                  -0.127
REMARK UNBOUND:                -0.125
REMARK SMILES O=C([O-])C=Cc1ccc(O)c(O)c1
REMARK SMILES IDX 6 1 13 2 7 3 11 4 8 5 9 6 5 7 4 8 2 9 1 10 3 11 12 12 10 14
REMARK H PARENT 12 13 10 15
REMARK Flexibility Score: inf
ROOT
ATOM      1  C   UNL     1     -44.276 -11.633  11.545  1.00  0.00    -0.022 A 
ATOM      2  C   UNL     1     -44.180 -12.116  12.860  1.00  0.00     0.058 A 
ATOM      3  C   UNL     1     -45.227 -12.207  10.678  1.00  0.00     0.012 A 
ATOM      4  C   UNL     1     -44.998 -13.166  13.301  1.00  0.00     0.157 A 
ATOM      5  C   UNL     1     -46.043 -13.253  11.117  1.00  0.00     0.051 A 
ATOM      6  C   UNL     1     -45.932 -13.738  12.423  1.00  0.00     0.157 A 
ENDROOT
BRANCH   1   7
ATOM      7  C   UNL     1     -43.393 -10.513  11.133  1.00  0.00     0.010 C 
ATOM      8  C   UNL     1     -43.319  -9.345  11.784  1.00  0.00     0.025 C 
BRANCH   8   9
ATOM      9  C   UNL     1     -42.436  -8.257  11.332  1.00  0.00     0.064 C 
ATOM     10  O   UNL     1     -42.934  -7.245  10.775  1.00  0.00    -0.545 OA
ATOM     11  O   UNL     1     -41.060  -8.328  11.512  1.00  0.00    -0.545 OA
ENDBRANCH   8   9
ENDBRANCH   1   7
BRANCH   4  12
ATOM     12  O   UNL     1     -44.886 -13.642  14.607  1.00  0.00    -0.504 OA
ATOM     13  H   UNL     1     -45.618 -13.492  15.292  1.00  0.00     0.293 HD
ENDBRANCH   4  12
BRANCH   6  14
ATOM     14  O   UNL     1     -46.759 -14.785  12.829  1.00  0.00    -0.504 OA
ATOM     15  H   UNL     1     -46.737 -15.152  13.774  1.00  0.00     0.293 HD
ENDBRANCH   6  14
TORSDOF 4
ENDMDL
MODEL 7
REMARK VINA RESULT:    -5.180      2.021      5.987
REMARK INTER + INTRA:          -6.214
REMARK INTER:                  -6.085
REMARK INTRA:                  -0.129
REMARK UNBOUND:                -0.125
REMARK SMILES O=C([O-])C=Cc1ccc(O)c(O)c1
REMARK SMILES IDX 6 1 13 2 7 3 11 4 8 5 9 6 5 7 4 8 2 9 1 10 3 11 12 12 10 14
REMARK H PARENT 12 13 10 15
REMARK Flexibility Score: inf
ROOT
ATOM      1  C   UNL     1     -47.170 -13.078  11.811  1.00  0.00    -0.022 A 
ATOM      2  C   UNL     1     -46.519 -13.423  13.007  1.00  0.00     0.058 A 
ATOM      3  C   UNL     1     -46.410 -12.538  10.755  1.00  0.00     0.012 A 
ATOM      4  C   UNL     1     -45.140 -13.214  13.160  1.00  0.00     0.157 A 
ATOM      5  C   UNL     1     -45.036 -12.331  10.907  1.00  0.00     0.051 A 
ATOM      6  C   UNL     1     -44.397 -12.663  12.105  1.00  0.00     0.157 A 
ENDROOT
BRANCH   1   7
ATOM      7  C   UNL     1     -48.628 -13.329  11.698  1.00  0.00     0.010 C 
ATOM      8  C   UNL     1     -49.511 -13.041  12.664  1.00  0.00     0.025 C 
BRANCH   8   9
ATOM      9  C   UNL     1     -50.948 -13.318  12.512  1.00  0.00     0.064 C 
ATOM     10  O   UNL     1     -51.562 -12.879  11.504  1.00  0.00    -0.545 OA
ATOM     11  O   UNL     1     -51.641 -14.058  13.462  1.00  0.00    -0.545 OA
ENDBRANCH   8   9
ENDBRANCH   1   7
BRANCH   4  12
ATOM     12  O   UNL     1     -44.508 -13.553  14.357  1.00  0.00    -0.504 OA
ATOM     13  H   UNL     1     -44.978 -13.459  15.250  1.00  0.00     0.293 HD
ENDBRANCH   4  12
BRANCH   6  14
ATOM     14  O   UNL     1     -43.026 -12.440  12.226  1.00  0.00    -0.504 OA
ATOM     15  H   UNL     1     -42.485 -12.821  12.993  1.00  0.00     0.293 HD
ENDBRANCH   6  14
TORSDOF 4
ENDMDL
MODEL 8
REMARK VINA RESULT:    -5.173      2.400      3.156
REMARK INTER + INTRA:          -6.205
REMARK INTER:                  -6.071
REMARK INTRA:                  -0.134
REMARK UNBOUND:                -0.125
REMARK SMILES O=C([O-])C=Cc1ccc(O)c(O)c1
REMARK SMILES IDX 6 1 13 2 7 3 11 4 8 5 9 6 5 7 4 8 2 9 1 10 3 11 12 12 10 14
REMARK H PARENT 12 13 10 15
REMARK Flexibility Score: inf
ROOT
ATOM      1  C   UNL     1     -48.242 -12.889  13.036  1.00  0.00    -0.022 A 
ATOM      2  C   UNL     1     -49.110 -13.220  14.089  1.00  0.00     0.058 A 
ATOM      3  C   UNL     1     -48.770 -12.762  11.735  1.00  0.00     0.012 A 
ATOM      4  C   UNL     1     -50.474 -13.445  13.852  1.00  0.00     0.157 A 
ATOM      5  C   UNL     1     -50.129 -12.986  11.499  1.00  0.00     0.051 A 
ATOM      6  C   UNL     1     -50.985 -13.329  12.550  1.00  0.00     0.157 A 
ENDROOT
BRANCH   1   7
ATOM      7  C   UNL     1     -46.810 -12.651  13.343  1.00  0.00     0.010 C 
ATOM      8  C   UNL     1     -45.800 -13.154  12.620  1.00  0.00     0.025 C 
BRANCH   8   9
ATOM      9  C   UNL     1     -44.393 -12.901  12.969  1.00  0.00     0.064 C 
ATOM     10  O   UNL     1     -44.036 -12.940  14.175  1.00  0.00    -0.545 OA
ATOM     11  O   UNL     1     -43.450 -12.620  11.987  1.00  0.00    -0.545 OA
ENDBRANCH   8   9
ENDBRANCH   1   7
BRANCH   4  12
ATOM     12  O   UNL     1     -51.323 -13.783  14.907  1.00  0.00    -0.504 OA
ATOM     13  H   UNL     1     -51.427 -13.184  15.717  1.00  0.00     0.293 HD
ENDBRANCH   4  12
BRANCH   6  14
ATOM     14  O   UNL     1     -52.335 -13.549  12.280  1.00  0.00    -0.504 OA
ATOM     15  H   UNL     1     -52.645 -14.257  11.625  1.00  0.00     0.293 HD
ENDBRANCH   6  14
TORSDOF 4
ENDMDL
MODEL 9
REMARK VINA RESULT:    -5.102      2.365      3.096
REMARK INTER + INTRA:          -6.123
REMARK INTER:                  -5.994
REMARK INTRA:                  -0.128
REMARK UNBOUND:                -0.125
REMARK SMILES O=C([O-])C=Cc1ccc(O)c(O)c1
REMARK SMILES IDX 6 1 13 2 7 3 11 4 8 5 9 6 5 7 4 8 2 9 1 10 3 11 12 12 10 14
REMARK H PARENT 12 13 10 15
REMARK Flexibility Score: inf
ROOT
ATOM      1  C   UNL     1     -44.263 -11.543  11.728  1.00  0.00    -0.022 A 
ATOM      2  C   UNL     1     -45.141 -12.049  10.756  1.00  0.00     0.058 A 
ATOM      3  C   UNL     1     -44.217 -12.164  12.992  1.00  0.00     0.012 A 
ATOM      4  C   UNL     1     -45.977 -13.139  11.041  1.00  0.00     0.157 A 
ATOM      5  C   UNL     1     -45.049 -13.250  13.276  1.00  0.00     0.051 A 
ATOM      6  C   UNL     1     -45.931 -13.740  12.309  1.00  0.00     0.157 A 
ENDROOT
BRANCH   1   7
ATOM      7  C   UNL     1     -43.393 -10.394  11.371  1.00  0.00     0.010 C 
ATOM      8  C   UNL     1     -43.439  -9.205  11.986  1.00  0.00     0.025 C 
BRANCH   8   9
ATOM      9  C   UNL     1     -42.564  -8.090  11.591  1.00  0.00     0.064 C 
ATOM     10  O   UNL     1     -42.973  -7.248  10.750  1.00  0.00    -0.545 OA
ATOM     11  O   UNL     1     -41.291  -7.951  12.132  1.00  0.00    -0.545 OA
ENDBRANCH   8   9
ENDBRANCH   1   7
BRANCH   4  12
ATOM     12  O   UNL     1     -46.851 -13.625  10.069  1.00  0.00    -0.504 OA
ATOM     13  H   UNL     1     -47.468 -13.008   9.554  1.00  0.00     0.293 HD
ENDBRANCH   4  12
BRANCH   6  14
ATOM     14  O   UNL     1     -46.751 -14.823  12.625  1.00  0.00    -0.504 OA
ATOM     15  H   UNL     1     -46.721 -15.273  13.532  1.00  0.00     0.293 HD
ENDBRANCH   6  14
TORSDOF 4
ENDMDL
