MODEL 1
REMARK VINA RESULT:    -4.347      0.000      0.000
REMARK INTER + INTRA:          -7.595
REMARK INTER:                  -6.888
REMARK INTRA:                  -0.707
REMARK UNBOUND:                -0.707
REMARK SMILES CCCCCCCCCCCC(=O)[O-]
REMARK SMILES IDX 7 1 8 2 9 3 10 4 11 5 12 6 13 7 14 8 6 9 5 10 4 11 3 12 2 13
REMARK SMILES IDX 1 14
REMARK H PARENT
REMARK Flexibility Score: inf
ROOT
ATOM      1  C   UNL     1      23.228  -4.242  53.501  1.00  0.00     0.000 C 
ENDROOT
BRANCH   1   2
ATOM      2  C   UNL     1      23.579  -2.749  53.615  1.00  0.00     0.000 C 
BRANCH   2   3
ATOM      3  C   UNL     1      23.524  -2.240  55.066  1.00  0.00     0.000 C 
BRANCH   3   4
ATOM      4  C   UNL     1      24.304  -3.140  56.038  1.00  0.00     0.006 C 
BRANCH   4   5
ATOM      5  C   UNL     1      23.697  -3.158  57.447  1.00  0.00     0.053 C 
BRANCH   5   6
ATOM      6  C   UNL     1      22.222  -3.399  57.376  1.00  0.00     0.041 C 
ATOM      7  O   UNL     1      21.416  -2.511  57.760  1.00  0.00    -0.550 OA
ATOM      8  O   UNL     1      21.738  -4.622  56.931  1.00  0.00    -0.550 OA
ENDBRANCH   5   6
ENDBRANCH   4   5
ENDBRANCH   3   4
ENDBRANCH   2   3
ENDBRANCH   1   2
BRANCH   1   9
ATOM      9  C   UNL     1      24.306  -5.045  52.751  1.00  0.00     0.000 C 
BRANCH   9  10
ATOM     10  C   UNL     1      25.047  -6.042  53.661  1.00  0.00    -0.000 C 
BRANCH  10  11
ATOM     11  C   UNL     1      26.572  -5.832  53.759  1.00  0.00    -0.000 C 
BRANCH  11  12
ATOM     12  C   UNL     1      27.366  -6.212  52.497  1.00  0.00    -0.000 C 
BRANCH  12  13
ATOM     13  C   UNL     1      28.854  -5.850  52.597  1.00  0.00    -0.003 C 
ATOM     14  C   UNL     1      29.722  -7.104  52.646  1.00  0.00     0.004 C 
ENDBRANCH  12  13
ENDBRANCH  11  12
ENDBRANCH  10  11
ENDBRANCH   9  10
ENDBRANCH   1   9
TORSDOF 10
ENDMDL
MODEL 2
REMARK VINA RESULT:    -4.170      1.655      2.833
REMARK INTER + INTRA:          -7.316
REMARK INTER:                  -6.469
REMARK INTRA:                  -0.846
REMARK UNBOUND:                -0.707
REMARK SMILES CCCCCCCCCCCC(=O)[O-]
REMARK SMILES IDX 7 1 8 2 9 3 10 4 11 5 12 6 13 7 14 8 6 9 5 10 4 11 3 12 2 13
REMARK SMILES IDX 1 14
REMARK H PARENT
REMARK Flexibility Score: inf
ROOT
ATOM      1  C   UNL     1      23.574  -3.790  55.292  1.00  0.00     0.000 C 
ENDROOT
BRANCH   1   2
ATOM      2  C   UNL     1      24.230  -2.906  56.366  1.00  0.00     0.000 C 
BRANCH   2   3
ATOM      3  C   UNL     1      23.521  -3.009  57.728  1.00  0.00     0.000 C 
BRANCH   3   4
ATOM      4  C   UNL     1      21.990  -3.053  57.594  1.00  0.00     0.006 C 
BRANCH   4   5
ATOM      5  C   UNL     1      21.333  -1.691  57.858  1.00  0.00     0.053 C 
BRANCH   5   6
ATOM      6  C   UNL     1      21.021  -1.004  56.567  1.00  0.00     0.041 C 
ATOM      7  O   UNL     1      21.899  -0.310  55.989  1.00  0.00    -0.550 OA
ATOM      8  O   UNL     1      19.745  -1.090  56.024  1.00  0.00    -0.550 OA
ENDBRANCH   5   6
ENDBRANCH   4   5
ENDBRANCH   3   4
ENDBRANCH   2   3
ENDBRANCH   1   2
BRANCH   1   9
ATOM      9  C   UNL     1      23.118  -2.984  54.063  1.00  0.00     0.000 C 
BRANCH   9  10
ATOM     10  C   UNL     1      23.417  -3.702  52.734  1.00  0.00    -0.000 C 
BRANCH  10  11
ATOM     11  C   UNL     1      23.785  -5.194  52.862  1.00  0.00    -0.000 C 
BRANCH  11  12
ATOM     12  C   UNL     1      25.192  -5.565  52.361  1.00  0.00    -0.000 C 
BRANCH  12  13
ATOM     13  C   UNL     1      26.166  -5.889  53.502  1.00  0.00    -0.003 C 
ATOM     14  C   UNL     1      27.557  -6.208  52.963  1.00  0.00     0.004 C 
ENDBRANCH  12  13
ENDBRANCH  11  12
ENDBRANCH  10  11
ENDBRANCH   9  10
ENDBRANCH   1   9
TORSDOF 10
ENDMDL
MODEL 3
REMARK VINA RESULT:    -4.025      4.121      6.784
REMARK INTER + INTRA:          -7.086
REMARK INTER:                  -6.325
REMARK INTRA:                  -0.761
REMARK UNBOUND:                -0.707
REMARK SMILES CCCCCCCCCCCC(=O)[O-]
REMARK SMILES IDX 7 1 8 2 9 3 10 4 11 5 12 6 13 7 14 8 6 9 5 10 4 11 3 12 2 13
REMARK SMILES IDX 1 14
REMARK H PARENT
REMARK Flexibility Score: inf
ROOT
ATOM      1  C   UNL     1      24.586  -5.437  52.192  1.00  0.00     0.000 C 
ENDROOT
BRANCH   1   2
ATOM      2  C   UNL     1      24.997  -5.925  53.591  1.00  0.00     0.000 C 
BRANCH   2   3
ATOM      3  C   UNL     1      26.524  -5.961  53.779  1.00  0.00     0.000 C 
BRANCH   3   4
ATOM      4  C   UNL     1      27.274  -6.222  52.463  1.00  0.00     0.006 C 
BRANCH   4   5
ATOM      5  C   UNL     1      28.756  -5.831  52.538  1.00  0.00     0.053 C 
BRANCH   5   6
ATOM      6  C   UNL     1      29.623  -7.015  52.248  1.00  0.00     0.041 C 
ATOM      7  O   UNL     1      30.500  -7.377  53.077  1.00  0.00    -0.550 OA
ATOM      8  O   UNL     1      29.496  -7.691  51.041  1.00  0.00    -0.550 OA
ENDBRANCH   5   6
ENDBRANCH   4   5
ENDBRANCH   3   4
ENDBRANCH   2   3
ENDBRANCH   1   2
BRANCH   1   9
ATOM      9  C   UNL     1      23.083  -5.126  52.093  1.00  0.00     0.000 C 
BRANCH   9  10
ATOM     10  C   UNL     1      22.788  -3.615  52.049  1.00  0.00    -0.000 C 
BRANCH  10  11
ATOM     11  C   UNL     1      23.282  -2.814  53.272  1.00  0.00    -0.000 C 
BRANCH  11  12
ATOM     12  C   UNL     1      22.356  -2.861  54.500  1.00  0.00    -0.000 C 
BRANCH  12  13
ATOM     13  C   UNL     1      22.974  -3.617  55.684  1.00  0.00    -0.003 C 
ATOM     14  C   UNL     1      24.118  -2.823  56.307  1.00  0.00     0.004 C 
ENDBRANCH  12  13
ENDBRANCH  11  12
ENDBRANCH  10  11
ENDBRANCH   9  10
ENDBRANCH   1   9
TORSDOF 10
ENDMDL
MODEL 4
REMARK VINA RESULT:    -3.929     15.185     16.593
REMARK INTER + INTRA:          -6.934
REMARK INTER:                  -6.279
REMARK INTRA:                  -0.655
REMARK UNBOUND:                -0.707
REMARK SMILES CCCCCCCCCCCC(=O)[O-]
REMARK SMILES IDX 7 1 8 2 9 3 10 4 11 5 12 6 13 7 14 8 6 9 5 10 4 11 3 12 2 13
REMARK SMILES IDX 1 14
REMARK H PARENT
REMARK Flexibility Score: inf
ROOT
ATOM      1  C   UNL     1      31.441   5.360  45.407  1.00  0.00     0.000 C 
ENDROOT
BRANCH   1   2
ATOM      2  C   UNL     1      32.338   6.126  44.420  1.00  0.00     0.000 C 
BRANCH   2   3
ATOM      3  C   UNL     1      31.676   6.310  43.042  1.00  0.00     0.000 C 
BRANCH   3   4
ATOM      4  C   UNL     1      31.361   4.971  42.356  1.00  0.00     0.006 C 
BRANCH   4   5
ATOM      5  C   UNL     1      30.217   5.081  41.340  1.00  0.00     0.053 C 
BRANCH   5   6
ATOM      6  C   UNL     1      30.736   4.901  39.948  1.00  0.00     0.041 C 
ATOM      7  O   UNL     1      29.988   4.435  39.048  1.00  0.00    -0.550 OA
ATOM      8  O   UNL     1      32.060   5.201  39.655  1.00  0.00    -0.550 OA
ENDBRANCH   5   6
ENDBRANCH   4   5
ENDBRANCH   3   4
ENDBRANCH   2   3
ENDBRANCH   1   2
BRANCH   1   9
ATOM      9  C   UNL     1      30.146   6.121  45.739  1.00  0.00     0.000 C 
BRANCH   9  10
ATOM     10  C   UNL     1      30.088   6.588  47.205  1.00  0.00    -0.000 C 
BRANCH  10  11
ATOM     11  C   UNL     1      29.110   5.805  48.105  1.00  0.00    -0.000 C 
BRANCH  11  12
ATOM     12  C   UNL     1      29.768   5.006  49.244  1.00  0.00    -0.000 C 
BRANCH  12  13
ATOM     13  C   UNL     1      31.297   4.951  49.128  1.00  0.00    -0.003 C 
ATOM     14  C   UNL     1      31.850   3.677  49.759  1.00  0.00     0.004 C 
ENDBRANCH  12  13
ENDBRANCH  11  12
ENDBRANCH  10  11
ENDBRANCH   9  10
ENDBRANCH   1   9
TORSDOF 10
ENDMDL
MODEL 5
REMARK VINA RESULT:    -3.925     16.053     17.215
REMARK INTER + INTRA:          -6.927
REMARK INTER:                  -6.251
REMARK INTRA:                  -0.676
REMARK UNBOUND:                -0.707
REMARK SMILES CCCCCCCCCCCC(=O)[O-]
REMARK SMILES IDX 7 1 8 2 9 3 10 4 11 5 12 6 13 7 14 8 6 9 5 10 4 11 3 12 2 13
REMARK SMILES IDX 1 14
REMARK H PARENT
REMARK Flexibility Score: inf
ROOT
ATOM      1  C   UNL     1      26.453   5.527  41.256  1.00  0.00     0.000 C 
ENDROOT
BRANCH   1   2
ATOM      2  C   UNL     1      25.812   4.131  41.324  1.00  0.00     0.000 C 
BRANCH   2   3
ATOM      3  C   UNL     1      24.630   3.977  40.351  1.00  0.00     0.000 C 
BRANCH   3   4
ATOM      4  C   UNL     1      24.821   2.809  39.370  1.00  0.00     0.006 C 
BRANCH   4   5
ATOM      5  C   UNL     1      23.522   2.035  39.109  1.00  0.00     0.053 C 
BRANCH   5   6
ATOM      6  C   UNL     1      23.521   0.747  39.870  1.00  0.00     0.041 C 
ATOM      7  O   UNL     1      23.178   0.727  41.082  1.00  0.00    -0.550 OA
ATOM      8  O   UNL     1      23.945  -0.425  39.256  1.00  0.00    -0.550 OA
ENDBRANCH   5   6
ENDBRANCH   4   5
ENDBRANCH   3   4
ENDBRANCH   2   3
ENDBRANCH   1   2
BRANCH   1   9
ATOM      9  C   UNL     1      27.976   5.487  41.471  1.00  0.00     0.000 C 
BRANCH   9  10
ATOM     10  C   UNL     1      28.620   4.194  40.938  1.00  0.00    -0.000 C 
BRANCH  10  11
ATOM     11  C   UNL     1      28.831   4.147  39.411  1.00  0.00    -0.000 C 
BRANCH  11  12
ATOM     12  C   UNL     1      29.934   5.078  38.876  1.00  0.00    -0.000 C 
BRANCH  12  13
ATOM     13  C   UNL     1      31.273   4.895  39.601  1.00  0.00    -0.003 C 
ATOM     14  C   UNL     1      32.105   6.173  39.550  1.00  0.00     0.004 C 
ENDBRANCH  12  13
ENDBRANCH  11  12
ENDBRANCH  10  11
ENDBRANCH   9  10
ENDBRANCH   1   9
TORSDOF 10
ENDMDL
MODEL 6
REMARK VINA RESULT:    -3.910      2.723      6.364
REMARK INTER + INTRA:          -6.902
REMARK INTER:                  -5.918
REMARK INTRA:                  -0.985
REMARK UNBOUND:                -0.707
REMARK SMILES CCCCCCCCCCCC(=O)[O-]
REMARK SMILES IDX 7 1 8 2 9 3 10 4 11 5 12 6 13 7 14 8 6 9 5 10 4 11 3 12 2 13
REMARK SMILES IDX 1 14
REMARK H PARENT
REMARK Flexibility Score: inf
ROOT
ATOM      1  C   UNL     1      23.233  -2.947  54.137  1.00  0.00     0.000 C 
ENDROOT
BRANCH   1   2
ATOM      2  C   UNL     1      22.917  -4.417  54.457  1.00  0.00     0.000 C 
BRANCH   2   3
ATOM      3  C   UNL     1      22.768  -5.278  53.190  1.00  0.00     0.000 C 
BRANCH   3   4
ATOM      4  C   UNL     1      23.957  -6.230  52.980  1.00  0.00     0.006 C 
BRANCH   4   5
ATOM      5  C   UNL     1      25.179  -5.528  52.373  1.00  0.00     0.053 C 
BRANCH   5   6
ATOM      6  C   UNL     1      26.414  -5.871  53.145  1.00  0.00     0.041 C 
ATOM      7  O   UNL     1      26.458  -5.678  54.388  1.00  0.00    -0.550 OA
ATOM      8  O   UNL     1      27.534  -6.360  52.483  1.00  0.00    -0.550 OA
ENDBRANCH   5   6
ENDBRANCH   4   5
ENDBRANCH   3   4
ENDBRANCH   2   3
ENDBRANCH   1   2
BRANCH   1   9
ATOM      9  C   UNL     1      23.620  -2.142  55.390  1.00  0.00     0.000 C 
BRANCH   9  10
ATOM     10  C   UNL     1      24.149  -3.030  56.531  1.00  0.00    -0.000 C 
BRANCH  10  11
ATOM     11  C   UNL     1      23.234  -3.123  57.770  1.00  0.00    -0.000 C 
BRANCH  11  12
ATOM     12  C   UNL     1      22.032  -2.162  57.767  1.00  0.00    -0.000 C 
BRANCH  12  13
ATOM     13  C   UNL     1      20.692  -2.884  57.572  1.00  0.00    -0.003 C 
ATOM     14  C   UNL     1      20.887  -4.395  57.504  1.00  0.00     0.004 C 
ENDBRANCH  12  13
ENDBRANCH  11  12
ENDBRANCH  10  11
ENDBRANCH   9  10
ENDBRANCH   1   9
TORSDOF 10
ENDMDL
MODEL 7
REMARK VINA RESULT:    -3.884      3.812      6.375
REMARK INTER + INTRA:          -6.862
REMARK INTER:                  -5.468
REMARK INTRA:                  -1.394
REMARK UNBOUND:                -0.707
REMARK SMILES CCCCCCCCCCCC(=O)[O-]
REMARK SMILES IDX 7 1 8 2 9 3 10 4 11 5 12 6 13 7 14 8 6 9 5 10 4 11 3 12 2 13
REMARK SMILES IDX 1 14
REMARK H PARENT
REMARK Flexibility Score: inf
ROOT
ATOM      1  C   UNL     1      23.553  -2.145  55.223  1.00  0.00     0.000 C 
ENDROOT
BRANCH   1   2
ATOM      2  C   UNL     1      23.133  -2.926  53.967  1.00  0.00     0.000 C 
BRANCH   2   3
ATOM      3  C   UNL     1      21.648  -3.330  53.993  1.00  0.00     0.000 C 
BRANCH   3   4
ATOM      4  C   UNL     1      21.452  -4.843  54.184  1.00  0.00     0.006 C 
BRANCH   4   5
ATOM      5  C   UNL     1      21.550  -5.624  52.868  1.00  0.00     0.053 C 
BRANCH   5   6
ATOM      6  C   UNL     1      22.814  -6.425  52.830  1.00  0.00     0.041 C 
ATOM      7  O   UNL     1      22.864  -7.557  53.380  1.00  0.00    -0.550 OA
ATOM      8  O   UNL     1      23.952  -5.900  52.230  1.00  0.00    -0.550 OA
ENDBRANCH   5   6
ENDBRANCH   4   5
ENDBRANCH   3   4
ENDBRANCH   2   3
ENDBRANCH   1   2
BRANCH   1   9
ATOM      9  C   UNL     1      24.247  -3.037  56.267  1.00  0.00     0.000 C 
BRANCH   9  10
ATOM     10  C   UNL     1      23.490  -3.088  57.607  1.00  0.00    -0.000 C 
BRANCH  10  11
ATOM     11  C   UNL     1      22.259  -4.016  57.631  1.00  0.00    -0.000 C 
BRANCH  11  12
ATOM     12  C   UNL     1      20.899  -3.297  57.644  1.00  0.00    -0.000 C 
BRANCH  12  13
ATOM     13  C   UNL     1      21.024  -1.789  57.900  1.00  0.00    -0.003 C 
ATOM     14  C   UNL     1      20.421  -0.985  56.752  1.00  0.00     0.004 C 
ENDBRANCH  12  13
ENDBRANCH  11  12
ENDBRANCH  10  11
ENDBRANCH   9  10
ENDBRANCH   1   9
TORSDOF 10
ENDMDL
MODEL 8
REMARK VINA RESULT:    -3.834     15.040     16.269
REMARK INTER + INTRA:          -6.783
REMARK INTER:                  -5.681
REMARK INTRA:                  -1.102
REMARK UNBOUND:                -0.707
REMARK SMILES CCCCCCCCCCCC(=O)[O-]
REMARK SMILES IDX 7 1 8 2 9 3 10 4 11 5 12 6 13 7 14 8 6 9 5 10 4 11 3 12 2 13
REMARK SMILES IDX 1 14
REMARK H PARENT
REMARK Flexibility Score: inf
ROOT
ATOM      1  C   UNL     1      30.440   5.274  45.475  1.00  0.00     0.000 C 
ENDROOT
BRANCH   1   2
ATOM      2  C   UNL     1      31.796   5.768  46.007  1.00  0.00     0.000 C 
BRANCH   2   3
ATOM      3  C   UNL     1      31.714   7.182  46.609  1.00  0.00     0.000 C 
BRANCH   3   4
ATOM      4  C   UNL     1      32.948   8.036  46.280  1.00  0.00     0.006 C 
BRANCH   4   5
ATOM      5  C   UNL     1      33.605   7.641  44.950  1.00  0.00     0.053 C 
BRANCH   5   6
ATOM      6  C   UNL     1      33.785   8.844  44.079  1.00  0.00     0.041 C 
ATOM      7  O   UNL     1      33.487   9.989  44.511  1.00  0.00    -0.550 OA
ATOM      8  O   UNL     1      34.235   8.696  42.773  1.00  0.00    -0.550 OA
ENDBRANCH   5   6
ENDBRANCH   4   5
ENDBRANCH   3   4
ENDBRANCH   2   3
ENDBRANCH   1   2
BRANCH   1   9
ATOM      9  C   UNL     1      29.258   6.083  46.035  1.00  0.00     0.000 C 
BRANCH   9  10
ATOM     10  C   UNL     1      28.468   5.317  47.113  1.00  0.00    -0.000 C 
BRANCH  10  11
ATOM     11  C   UNL     1      28.805   5.700  48.569  1.00  0.00    -0.000 C 
BRANCH  11  12
ATOM     12  C   UNL     1      29.570   4.628  49.366  1.00  0.00    -0.000 C 
BRANCH  12  13
ATOM     13  C   UNL     1      31.061   4.955  49.526  1.00  0.00    -0.003 C 
ATOM     14  C   UNL     1      31.900   3.682  49.571  1.00  0.00     0.004 C 
ENDBRANCH  12  13
ENDBRANCH  11  12
ENDBRANCH  10  11
ENDBRANCH   9  10
ENDBRANCH   1   9
TORSDOF 10
ENDMDL
MODEL 9
REMARK VINA RESULT:    -3.802     17.764     19.244
REMARK INTER + INTRA:          -6.731
REMARK INTER:                  -6.222
REMARK INTRA:                  -0.509
REMARK UNBOUND:                -0.707
REMARK SMILES CCCCCCCCCCCC(=O)[O-]
REMARK SMILES IDX 7 1 8 2 9 3 10 4 11 5 12 6 13 7 14 8 6 9 5 10 4 11 3 12 2 13
REMARK SMILES IDX 1 14
REMARK H PARENT
REMARK Flexibility Score: inf
ROOT
ATOM      1  C   UNL     1      28.568   4.271  41.218  1.00  0.00     0.000 C 
ENDROOT
BRANCH   1   2
ATOM      2  C   UNL     1      28.518   4.135  39.687  1.00  0.00     0.000 C 
BRANCH   2   3
ATOM      3  C   UNL     1      29.819   4.605  39.011  1.00  0.00     0.000 C 
BRANCH   3   4
ATOM      4  C   UNL     1      29.990   6.132  39.060  1.00  0.00     0.006 C 
BRANCH   4   5
ATOM      5  C   UNL     1      30.800   6.676  37.876  1.00  0.00     0.053 C 
BRANCH   5   6
ATOM      6  C   UNL     1      32.095   7.255  38.352  1.00  0.00     0.041 C 
ATOM      7  O   UNL     1      32.789   6.640  39.205  1.00  0.00    -0.550 OA
ATOM      8  O   UNL     1      32.513   8.497  37.891  1.00  0.00    -0.550 OA
ENDBRANCH   5   6
ENDBRANCH   4   5
ENDBRANCH   3   4
ENDBRANCH   2   3
ENDBRANCH   1   2
BRANCH   1   9
ATOM      9  C   UNL     1      27.168   4.250  41.857  1.00  0.00     0.000 C 
BRANCH   9  10
ATOM     10  C   UNL     1      26.048   4.572  40.850  1.00  0.00    -0.000 C 
BRANCH  10  11
ATOM     11  C   UNL     1      24.933   3.510  40.747  1.00  0.00    -0.000 C 
BRANCH  11  12
ATOM     12  C   UNL     1      24.775   2.864  39.359  1.00  0.00    -0.000 C 
BRANCH  12  13
ATOM     13  C   UNL     1      23.782   1.693  39.357  1.00  0.00    -0.003 C 
ATOM     14  C   UNL     1      22.597   1.980  38.440  1.00  0.00     0.004 C 
ENDBRANCH  12  13
ENDBRANCH  11  12
ENDBRANCH  10  11
ENDBRANCH   9  10
ENDBRANCH   1   9
TORSDOF 10
ENDMDL
