MODEL 1
REMARK VINA RESULT:     9.574      0.000      0.000
REMARK INTER + INTRA:          22.697
REMARK INTER:                  24.126
REMARK INTRA:                  -1.428
REMARK UNBOUND:                -1.428
REMARK SMILES CCCCCCCCCCCCCCCCCCCCCCCCCCCC(=O)[O-]
REMARK SMILES IDX 15 1 16 2 17 3 18 4 19 5 20 6 21 7 22 8 23 9 24 10 25 11
REMARK SMILES IDX 26 12 27 13 28 14 29 15 30 16 14 17 13 18 12 19 11 20 10 21
REMARK SMILES IDX 9 22 8 23 7 24 6 25 5 26 4 27 3 28 2 29 1 30
REMARK H PARENT
REMARK Flexibility Score: inf
ROOT
ATOM      1  C   UNL     1      23.762  38.285  26.202  1.00  0.00     0.000 C 
ENDROOT
BRANCH   1   2
ATOM      2  C   UNL     1      24.230  38.065  24.753  1.00  0.00     0.000 C 
BRANCH   2   3
ATOM      3  C   UNL     1      23.638  39.045  23.718  1.00  0.00     0.000 C 
BRANCH   3   4
ATOM      4  C   UNL     1      22.353  38.563  23.021  1.00  0.00     0.000 C 
BRANCH   4   5
ATOM      5  C   UNL     1      22.542  38.325  21.516  1.00  0.00     0.000 C 
BRANCH   5   6
ATOM      6  C   UNL     1      22.855  36.848  21.232  1.00  0.00     0.000 C 
BRANCH   6   7
ATOM      7  C   UNL     1      23.455  36.625  19.834  1.00  0.00     0.000 C 
BRANCH   7   8
ATOM      8  C   UNL     1      23.345  35.183  19.303  1.00  0.00     0.000 C 
BRANCH   8   9
ATOM      9  C   UNL     1      24.303  34.878  18.132  1.00  0.00     0.000 C 
BRANCH   9  10
ATOM     10  C   UNL     1      25.600  35.701  18.213  1.00  0.00     0.000 C 
BRANCH  10  11
ATOM     11  C   UNL     1      26.856  34.875  17.882  1.00  0.00     0.000 C 
BRANCH  11  12
ATOM     12  C   UNL     1      28.182  35.655  17.948  1.00  0.00     0.006 C 
BRANCH  12  13
ATOM     13  C   UNL     1      28.859  35.573  19.322  1.00  0.00     0.053 C 
BRANCH  13  14
ATOM     14  C   UNL     1      29.987  36.554  19.407  1.00  0.00     0.041 C 
ATOM     15  O   UNL     1      29.763  37.789  19.305  1.00  0.00    -0.550 OA
ATOM     16  O   UNL     1      31.282  36.107  19.641  1.00  0.00    -0.550 OA
ENDBRANCH  13  14
ENDBRANCH  12  13
ENDBRANCH  11  12
ENDBRANCH  10  11
ENDBRANCH   9  10
ENDBRANCH   8   9
ENDBRANCH   7   8
ENDBRANCH   6   7
ENDBRANCH   5   6
ENDBRANCH   4   5
ENDBRANCH   3   4
ENDBRANCH   2   3
ENDBRANCH   1   2
BRANCH   1  17
ATOM     17  C   UNL     1      23.420  39.752  26.504  1.00  0.00     0.000 C 
BRANCH  17  18
ATOM     18  C   UNL     1      22.741  39.886  27.872  1.00  0.00     0.000 C 
BRANCH  18  19
ATOM     19  C   UNL     1      22.758  38.552  28.628  1.00  0.00     0.000 C 
BRANCH  19  20
ATOM     20  C   UNL     1      22.122  38.698  30.016  1.00  0.00     0.000 C 
BRANCH  20  21
ATOM     21  C   UNL     1      22.081  37.348  30.748  1.00  0.00     0.000 C 
BRANCH  21  22
ATOM     22  C   UNL     1      21.858  37.496  32.261  1.00  0.00    -0.000 C 
BRANCH  22  23
ATOM     23  C   UNL     1      21.923  38.957  32.731  1.00  0.00    -0.000 C 
BRANCH  23  24
ATOM     24  C   UNL     1      21.646  39.067  34.239  1.00  0.00    -0.000 C 
BRANCH  24  25
ATOM     25  C   UNL     1      22.399  40.244  34.894  1.00  0.00    -0.000 C 
BRANCH  25  26
ATOM     26  C   UNL     1      23.465  40.884  33.987  1.00  0.00    -0.000 C 
BRANCH  26  27
ATOM     27  C   UNL     1      23.152  42.347  33.626  1.00  0.00    -0.000 C 
BRANCH  27  28
ATOM     28  C   UNL     1      22.276  43.045  34.679  1.00  0.00    -0.000 C 
BRANCH  28  29
ATOM     29  C   UNL     1      22.401  44.574  34.635  1.00  0.00    -0.003 C 
ATOM     30  C   UNL     1      21.026  45.235  34.585  1.00  0.00     0.004 C 
ENDBRANCH  28  29
ENDBRANCH  27  28
ENDBRANCH  26  27
ENDBRANCH  25  26
ENDBRANCH  24  25
ENDBRANCH  23  24
ENDBRANCH  22  23
ENDBRANCH  21  22
ENDBRANCH  20  21
ENDBRANCH  19  20
ENDBRANCH  18  19
ENDBRANCH  17  18
ENDBRANCH   1  17
TORSDOF 26
ENDMDL
MODEL 2
REMARK VINA RESULT:     9.599      4.467     13.352
REMARK INTER + INTRA:          22.761
REMARK INTER:                  23.618
REMARK INTRA:                  -0.856
REMARK UNBOUND:                -1.428
REMARK SMILES CCCCCCCCCCCCCCCCCCCCCCCCCCCC(=O)[O-]
REMARK SMILES IDX 15 1 16 2 17 3 18 4 19 5 20 6 21 7 22 8 23 9 24 10 25 11
REMARK SMILES IDX 26 12 27 13 28 14 29 15 30 16 14 17 13 18 12 19 11 20 10 21
REMARK SMILES IDX 9 22 8 23 7 24 6 25 5 26 4 27 3 28 2 29 1 30
REMARK H PARENT
REMARK Flexibility Score: inf
ROOT
ATOM      1  C   UNL     1      23.582  40.231  24.593  1.00  0.00     0.000 C 
ENDROOT
BRANCH   1   2
ATOM      2  C   UNL     1      24.266  39.293  25.602  1.00  0.00     0.000 C 
BRANCH   2   3
ATOM      3  C   UNL     1      24.288  37.803  25.199  1.00  0.00     0.000 C 
BRANCH   3   4
ATOM      4  C   UNL     1      23.000  37.021  25.516  1.00  0.00     0.000 C 
BRANCH   4   5
ATOM      5  C   UNL     1      21.860  37.921  26.011  1.00  0.00     0.000 C 
BRANCH   5   6
ATOM      6  C   UNL     1      21.629  37.731  27.519  1.00  0.00     0.000 C 
BRANCH   6   7
ATOM      7  C   UNL     1      21.668  39.056  28.298  1.00  0.00     0.000 C 
BRANCH   7   8
ATOM      8  C   UNL     1      22.320  38.970  29.691  1.00  0.00     0.000 C 
BRANCH   8   9
ATOM      9  C   UNL     1      21.569  38.044  30.671  1.00  0.00     0.000 C 
BRANCH   9  10
ATOM     10  C   UNL     1      21.314  38.720  32.029  1.00  0.00     0.000 C 
BRANCH  10  11
ATOM     11  C   UNL     1      22.468  38.519  33.027  1.00  0.00     0.000 C 
BRANCH  11  12
ATOM     12  C   UNL     1      22.166  38.966  34.468  1.00  0.00     0.006 C 
BRANCH  12  13
ATOM     13  C   UNL     1      21.827  40.458  34.576  1.00  0.00     0.053 C 
BRANCH  13  14
ATOM     14  C   UNL     1      23.049  41.289  34.334  1.00  0.00     0.041 C 
ATOM     15  O   UNL     1      24.155  40.736  34.092  1.00  0.00    -0.550 OA
ATOM     16  O   UNL     1      22.959  42.676  34.333  1.00  0.00    -0.550 OA
ENDBRANCH  13  14
ENDBRANCH  12  13
ENDBRANCH  11  12
ENDBRANCH  10  11
ENDBRANCH   9  10
ENDBRANCH   8   9
ENDBRANCH   7   8
ENDBRANCH   6   7
ENDBRANCH   5   6
ENDBRANCH   4   5
ENDBRANCH   3   4
ENDBRANCH   2   3
ENDBRANCH   1   2
BRANCH   1  17
ATOM     17  C   UNL     1      24.416  40.457  23.324  1.00  0.00     0.000 C 
BRANCH  17  18
ATOM     18  C   UNL     1      23.700  39.897  22.089  1.00  0.00     0.000 C 
BRANCH  18  19
ATOM     19  C   UNL     1      23.332  38.422  22.288  1.00  0.00     0.000 C 
BRANCH  19  20
ATOM     20  C   UNL     1      22.559  37.879  21.079  1.00  0.00     0.000 C 
BRANCH  20  21
ATOM     21  C   UNL     1      23.488  37.101  20.135  1.00  0.00     0.000 C 
BRANCH  21  22
ATOM     22  C   UNL     1      23.183  35.595  20.107  1.00  0.00    -0.000 C 
BRANCH  22  23
ATOM     23  C   UNL     1      23.645  34.920  18.806  1.00  0.00    -0.000 C 
BRANCH  23  24
ATOM     24  C   UNL     1      24.699  35.775  18.084  1.00  0.00    -0.000 C 
BRANCH  24  25
ATOM     25  C   UNL     1      26.029  35.021  17.875  1.00  0.00    -0.000 C 
BRANCH  25  26
ATOM     26  C   UNL     1      27.278  35.853  18.216  1.00  0.00    -0.000 C 
BRANCH  26  27
ATOM     27  C   UNL     1      28.512  34.988  18.529  1.00  0.00    -0.000 C 
BRANCH  27  28
ATOM     28  C   UNL     1      28.974  35.116  19.990  1.00  0.00    -0.000 C 
BRANCH  28  29
ATOM     29  C   UNL     1      30.358  35.765  20.121  1.00  0.00    -0.003 C 
ATOM     30  C   UNL     1      30.279  37.273  19.900  1.00  0.00     0.004 C 
ENDBRANCH  28  29
ENDBRANCH  27  28
ENDBRANCH  26  27
ENDBRANCH  25  26
ENDBRANCH  24  25
ENDBRANCH  23  24
ENDBRANCH  22  23
ENDBRANCH  21  22
ENDBRANCH  20  21
ENDBRANCH  19  20
ENDBRANCH  18  19
ENDBRANCH  17  18
ENDBRANCH   1  17
TORSDOF 26
ENDMDL
MODEL 3
REMARK VINA RESULT:     9.723      5.209     14.552
REMARK INTER + INTRA:          23.073
REMARK INTER:                  24.325
REMARK INTRA:                  -1.252
REMARK UNBOUND:                -1.428
REMARK SMILES CCCCCCCCCCCCCCCCCCCCCCCCCCCC(=O)[O-]
REMARK SMILES IDX 15 1 16 2 17 3 18 4 19 5 20 6 21 7 22 8 23 9 24 10 25 11
REMARK SMILES IDX 26 12 27 13 28 14 29 15 30 16 14 17 13 18 12 19 11 20 10 21
REMARK SMILES IDX 9 22 8 23 7 24 6 25 5 26 4 27 3 28 2 29 1 30
REMARK H PARENT
REMARK Flexibility Score: inf
ROOT
ATOM      1  C   UNL     1      23.492  39.327  25.868  1.00  0.00     0.000 C 
ENDROOT
BRANCH   1   2
ATOM      2  C   UNL     1      22.666  38.372  26.745  1.00  0.00     0.000 C 
BRANCH   2   3
ATOM      3  C   UNL     1      22.028  39.017  27.994  1.00  0.00     0.000 C 
BRANCH   3   4
ATOM      4  C   UNL     1      22.678  38.629  29.335  1.00  0.00     0.000 C 
BRANCH   4   5
ATOM      5  C   UNL     1      21.674  38.584  30.495  1.00  0.00     0.000 C 
BRANCH   5   6
ATOM      6  C   UNL     1      21.890  37.330  31.356  1.00  0.00     0.000 C 
BRANCH   6   7
ATOM      7  C   UNL     1      21.755  37.612  32.862  1.00  0.00     0.000 C 
BRANCH   7   8
ATOM      8  C   UNL     1      21.757  39.104  33.245  1.00  0.00     0.000 C 
BRANCH   8   9
ATOM      9  C   UNL     1      23.080  39.580  33.882  1.00  0.00     0.000 C 
BRANCH   9  10
ATOM     10  C   UNL     1      23.105  41.102  34.102  1.00  0.00     0.000 C 
BRANCH  10  11
ATOM     11  C   UNL     1      21.769  41.653  34.632  1.00  0.00     0.000 C 
BRANCH  11  12
ATOM     12  C   UNL     1      21.806  43.126  35.078  1.00  0.00     0.006 C 
BRANCH  12  13
ATOM     13  C   UNL     1      21.320  44.094  33.992  1.00  0.00     0.053 C 
BRANCH  13  14
ATOM     14  C   UNL     1      21.192  45.479  34.546  1.00  0.00     0.041 C 
ATOM     15  O   UNL     1      20.640  46.385  33.867  1.00  0.00    -0.550 OA
ATOM     16  O   UNL     1      21.644  45.760  35.829  1.00  0.00    -0.550 OA
ENDBRANCH  13  14
ENDBRANCH  12  13
ENDBRANCH  11  12
ENDBRANCH  10  11
ENDBRANCH   9  10
ENDBRANCH   8   9
ENDBRANCH   7   8
ENDBRANCH   6   7
ENDBRANCH   5   6
ENDBRANCH   4   5
ENDBRANCH   3   4
ENDBRANCH   2   3
ENDBRANCH   1   2
BRANCH   1  17
ATOM     17  C   UNL     1      24.256  38.603  24.749  1.00  0.00     0.000 C 
BRANCH  17  18
ATOM     18  C   UNL     1      23.677  38.954  23.374  1.00  0.00     0.000 C 
BRANCH  18  19
ATOM     19  C   UNL     1      22.331  38.255  23.148  1.00  0.00     0.000 C 
BRANCH  19  20
ATOM     20  C   UNL     1      22.060  38.050  21.652  1.00  0.00     0.000 C 
BRANCH  20  21
ATOM     21  C   UNL     1      23.347  37.664  20.907  1.00  0.00     0.000 C 
BRANCH  21  22
ATOM     22  C   UNL     1      23.232  36.316  20.178  1.00  0.00    -0.000 C 
BRANCH  22  23
ATOM     23  C   UNL     1      24.067  36.264  18.890  1.00  0.00    -0.000 C 
BRANCH  23  24
ATOM     24  C   UNL     1      24.709  34.880  18.703  1.00  0.00    -0.000 C 
BRANCH  24  25
ATOM     25  C   UNL     1      26.165  34.968  18.196  1.00  0.00    -0.000 C 
BRANCH  25  26
ATOM     26  C   UNL     1      26.664  36.408  17.980  1.00  0.00    -0.000 C 
BRANCH  26  27
ATOM     27  C   UNL     1      28.196  36.507  17.876  1.00  0.00    -0.000 C 
BRANCH  27  28
ATOM     28  C   UNL     1      28.790  37.563  18.822  1.00  0.00    -0.000 C 
BRANCH  28  29
ATOM     29  C   UNL     1      30.309  37.713  18.666  1.00  0.00    -0.003 C 
ATOM     30  C   UNL     1      31.039  36.493  19.222  1.00  0.00     0.004 C 
ENDBRANCH  28  29
ENDBRANCH  27  28
ENDBRANCH  26  27
ENDBRANCH  25  26
ENDBRANCH  24  25
ENDBRANCH  23  24
ENDBRANCH  22  23
ENDBRANCH  21  22
ENDBRANCH  20  21
ENDBRANCH  19  20
ENDBRANCH  18  19
ENDBRANCH  17  18
ENDBRANCH   1  17
TORSDOF 26
ENDMDL
MODEL 4
REMARK VINA RESULT:    10.800      5.475     14.608
REMARK INTER + INTRA:          25.786
REMARK INTER:                  26.858
REMARK INTRA:                  -1.072
REMARK UNBOUND:                -1.428
REMARK SMILES CCCCCCCCCCCCCCCCCCCCCCCCCCCC(=O)[O-]
REMARK SMILES IDX 15 1 16 2 17 3 18 4 19 5 20 6 21 7 22 8 23 9 24 10 25 11
REMARK SMILES IDX 26 12 27 13 28 14 29 15 30 16 14 17 13 18 12 19 11 20 10 21
REMARK SMILES IDX 9 22 8 23 7 24 6 25 5 26 4 27 3 28 2 29 1 30
REMARK H PARENT
REMARK Flexibility Score: inf
ROOT
ATOM      1  C   UNL     1      22.883  38.805  27.601  1.00  0.00     0.000 C 
ENDROOT
BRANCH   1   2
ATOM      2  C   UNL     1      21.973  38.793  28.840  1.00  0.00     0.000 C 
BRANCH   2   3
ATOM      3  C   UNL     1      22.518  37.997  30.044  1.00  0.00     0.000 C 
BRANCH   3   4
ATOM      4  C   UNL     1      21.497  37.721  31.163  1.00  0.00     0.000 C 
BRANCH   4   5
ATOM      5  C   UNL     1      21.903  38.336  32.509  1.00  0.00     0.000 C 
BRANCH   5   6
ATOM      6  C   UNL     1      20.900  39.418  32.941  1.00  0.00     0.000 C 
BRANCH   6   7
ATOM      7  C   UNL     1      21.354  40.184  34.194  1.00  0.00     0.000 C 
BRANCH   7   8
ATOM      8  C   UNL     1      22.814  39.931  34.615  1.00  0.00     0.000 C 
BRANCH   8   9
ATOM      9  C   UNL     1      23.832  40.855  33.914  1.00  0.00     0.000 C 
BRANCH   9  10
ATOM     10  C   UNL     1      23.263  42.263  33.665  1.00  0.00     0.000 C 
BRANCH  10  11
ATOM     11  C   UNL     1      22.513  42.831  34.883  1.00  0.00     0.000 C 
BRANCH  11  12
ATOM     12  C   UNL     1      21.359  43.791  34.544  1.00  0.00     0.006 C 
BRANCH  12  13
ATOM     13  C   UNL     1      21.757  45.269  34.650  1.00  0.00     0.053 C 
BRANCH  13  14
ATOM     14  C   UNL     1      21.863  45.679  36.086  1.00  0.00     0.041 C 
ATOM     15  O   UNL     1      22.894  46.271  36.501  1.00  0.00    -0.550 OA
ATOM     16  O   UNL     1      20.806  45.445  36.957  1.00  0.00    -0.550 OA
ENDBRANCH  13  14
ENDBRANCH  12  13
ENDBRANCH  11  12
ENDBRANCH  10  11
ENDBRANCH   9  10
ENDBRANCH   8   9
ENDBRANCH   7   8
ENDBRANCH   6   7
ENDBRANCH   5   6
ENDBRANCH   4   5
ENDBRANCH   3   4
ENDBRANCH   2   3
ENDBRANCH   1   2
BRANCH   1  17
ATOM     17  C   UNL     1      22.189  38.262  26.343  1.00  0.00     0.000 C 
BRANCH  17  18
ATOM     18  C   UNL     1      23.219  37.838  25.288  1.00  0.00     0.000 C 
BRANCH  18  19
ATOM     19  C   UNL     1      23.896  39.061  24.657  1.00  0.00     0.000 C 
BRANCH  19  20
ATOM     20  C   UNL     1      23.855  38.984  23.126  1.00  0.00     0.000 C 
BRANCH  20  21
ATOM     21  C   UNL     1      22.416  39.120  22.606  1.00  0.00     0.000 C 
BRANCH  21  22
ATOM     22  C   UNL     1      21.921  37.856  21.886  1.00  0.00    -0.000 C 
BRANCH  22  23
ATOM     23  C   UNL     1      23.045  36.843  21.624  1.00  0.00    -0.000 C 
BRANCH  23  24
ATOM     24  C   UNL     1      23.533  36.923  20.168  1.00  0.00    -0.000 C 
BRANCH  24  25
ATOM     25  C   UNL     1      23.829  35.532  19.568  1.00  0.00    -0.000 C 
BRANCH  25  26
ATOM     26  C   UNL     1      24.415  35.578  18.145  1.00  0.00    -0.000 C 
BRANCH  26  27
ATOM     27  C   UNL     1      25.297  36.815  17.895  1.00  0.00    -0.000 C 
BRANCH  27  28
ATOM     28  C   UNL     1      26.798  36.481  17.875  1.00  0.00    -0.000 C 
BRANCH  28  29
ATOM     29  C   UNL     1      27.671  37.645  18.362  1.00  0.00    -0.003 C 
ATOM     30  C   UNL     1      28.842  37.139  19.200  1.00  0.00     0.004 C 
ENDBRANCH  28  29
ENDBRANCH  27  28
ENDBRANCH  26  27
ENDBRANCH  25  26
ENDBRANCH  24  25
ENDBRANCH  23  24
ENDBRANCH  22  23
ENDBRANCH  21  22
ENDBRANCH  20  21
ENDBRANCH  19  20
ENDBRANCH  18  19
ENDBRANCH  17  18
ENDBRANCH   1  17
TORSDOF 26
ENDMDL
MODEL 5
REMARK VINA RESULT:    11.278      1.366      2.303
REMARK INTER + INTRA:          26.993
REMARK INTER:                  25.241
REMARK INTRA:                   1.752
REMARK UNBOUND:                -1.428
REMARK SMILES CCCCCCCCCCCCCCCCCCCCCCCCCCCC(=O)[O-]
REMARK SMILES IDX 15 1 16 2 17 3 18 4 19 5 20 6 21 7 22 8 23 9 24 10 25 11
REMARK SMILES IDX 26 12 27 13 28 14 29 15 30 16 14 17 13 18 12 19 11 20 10 21
REMARK SMILES IDX 9 22 8 23 7 24 6 25 5 26 4 27 3 28 2 29 1 30
REMARK H PARENT
REMARK Flexibility Score: inf
ROOT
ATOM      1  C   UNL     1      22.775  37.679  24.674  1.00  0.00     0.000 C 
ENDROOT
BRANCH   1   2
ATOM      2  C   UNL     1      23.472  38.814  23.905  1.00  0.00     0.000 C 
BRANCH   2   3
ATOM      3  C   UNL     1      22.966  39.034  22.463  1.00  0.00     0.000 C 
BRANCH   3   4
ATOM      4  C   UNL     1      23.902  38.517  21.356  1.00  0.00     0.000 C 
BRANCH   4   5
ATOM      5  C   UNL     1      23.232  37.481  20.442  1.00  0.00     0.000 C 
BRANCH   5   6
ATOM      6  C   UNL     1      24.175  37.069  19.300  1.00  0.00     0.000 C 
BRANCH   6   7
ATOM      7  C   UNL     1      23.631  35.891  18.476  1.00  0.00     0.000 C 
BRANCH   7   8
ATOM      8  C   UNL     1      24.695  34.876  18.015  1.00  0.00     0.000 C 
BRANCH   8   9
ATOM      9  C   UNL     1      26.108  35.480  17.875  1.00  0.00     0.000 C 
BRANCH   9  10
ATOM     10  C   UNL     1      26.149  36.965  18.274  1.00  0.00     0.000 C 
BRANCH  10  11
ATOM     11  C   UNL     1      27.526  37.612  18.042  1.00  0.00     0.000 C 
BRANCH  11  12
ATOM     12  C   UNL     1      28.715  36.635  18.075  1.00  0.00     0.006 C 
BRANCH  12  13
ATOM     13  C   UNL     1      30.006  37.280  18.597  1.00  0.00     0.053 C 
BRANCH  13  14
ATOM     14  C   UNL     1      30.359  36.728  19.943  1.00  0.00     0.041 C 
ATOM     15  O   UNL     1      31.470  37.001  20.469  1.00  0.00    -0.550 OA
ATOM     16  O   UNL     1      29.443  35.945  20.636  1.00  0.00    -0.550 OA
ENDBRANCH  13  14
ENDBRANCH  12  13
ENDBRANCH  11  12
ENDBRANCH  10  11
ENDBRANCH   9  10
ENDBRANCH   8   9
ENDBRANCH   7   8
ENDBRANCH   6   7
ENDBRANCH   5   6
ENDBRANCH   4   5
ENDBRANCH   3   4
ENDBRANCH   2   3
ENDBRANCH   1   2
BRANCH   1  17
ATOM     17  C   UNL     1      23.446  37.368  26.020  1.00  0.00     0.000 C 
BRANCH  17  18
ATOM     18  C   UNL     1      23.859  38.658  26.739  1.00  0.00     0.000 C 
BRANCH  18  19
ATOM     19  C   UNL     1      22.644  39.556  26.998  1.00  0.00     0.000 C 
BRANCH  19  20
ATOM     20  C   UNL     1      21.567  38.810  27.795  1.00  0.00     0.000 C 
BRANCH  20  21
ATOM     21  C   UNL     1      21.722  39.062  29.302  1.00  0.00     0.000 C 
BRANCH  21  22
ATOM     22  C   UNL     1      22.621  38.023  29.991  1.00  0.00    -0.000 C 
BRANCH  22  23
ATOM     23  C   UNL     1      22.010  37.478  31.291  1.00  0.00    -0.000 C 
BRANCH  23  24
ATOM     24  C   UNL     1      20.818  38.337  31.744  1.00  0.00    -0.000 C 
BRANCH  24  25
ATOM     25  C   UNL     1      21.243  39.490  32.678  1.00  0.00    -0.000 C 
BRANCH  25  26
ATOM     26  C   UNL     1      22.551  39.224  33.443  1.00  0.00    -0.000 C 
BRANCH  26  27
ATOM     27  C   UNL     1      22.423  39.460  34.959  1.00  0.00    -0.000 C 
BRANCH  27  28
ATOM     28  C   UNL     1      22.372  40.952  35.326  1.00  0.00    -0.000 C 
BRANCH  28  29
ATOM     29  C   UNL     1      23.004  41.849  34.253  1.00  0.00    -0.003 C 
ATOM     30  C   UNL     1      24.312  41.252  33.741  1.00  0.00     0.004 C 
ENDBRANCH  28  29
ENDBRANCH  27  28
ENDBRANCH  26  27
ENDBRANCH  25  26
ENDBRANCH  24  25
ENDBRANCH  23  24
ENDBRANCH  22  23
ENDBRANCH  21  22
ENDBRANCH  20  21
ENDBRANCH  19  20
ENDBRANCH  18  19
ENDBRANCH  17  18
ENDBRANCH   1  17
TORSDOF 26
ENDMDL
MODEL 6
REMARK VINA RESULT:    11.532      1.125      2.438
REMARK INTER + INTRA:          27.633
REMARK INTER:                  29.106
REMARK INTRA:                  -1.474
REMARK UNBOUND:                -1.428
REMARK SMILES CCCCCCCCCCCCCCCCCCCCCCCCCCCC(=O)[O-]
REMARK SMILES IDX 15 1 16 2 17 3 18 4 19 5 20 6 21 7 22 8 23 9 24 10 25 11
REMARK SMILES IDX 26 12 27 13 28 14 29 15 30 16 14 17 13 18 12 19 11 20 10 21
REMARK SMILES IDX 9 22 8 23 7 24 6 25 5 26 4 27 3 28 2 29 1 30
REMARK H PARENT
REMARK Flexibility Score: inf
ROOT
ATOM      1  C   UNL     1      23.017  39.066  27.601  1.00  0.00     0.000 C 
ENDROOT
BRANCH   1   2
ATOM      2  C   UNL     1      21.953  38.244  26.856  1.00  0.00     0.000 C 
BRANCH   2   3
ATOM      3  C   UNL     1      22.331  37.835  25.416  1.00  0.00     0.000 C 
BRANCH   3   4
ATOM      4  C   UNL     1      23.748  38.242  24.971  1.00  0.00     0.000 C 
BRANCH   4   5
ATOM      5  C   UNL     1      23.769  38.933  23.601  1.00  0.00     0.000 C 
BRANCH   5   6
ATOM      6  C   UNL     1      22.574  38.485  22.745  1.00  0.00     0.000 C 
BRANCH   6   7
ATOM      7  C   UNL     1      22.920  38.379  21.250  1.00  0.00     0.000 C 
BRANCH   7   8
ATOM      8  C   UNL     1      22.971  36.943  20.697  1.00  0.00     0.000 C 
BRANCH   8   9
ATOM      9  C   UNL     1      24.051  36.732  19.614  1.00  0.00     0.000 C 
BRANCH   9  10
ATOM     10  C   UNL     1      23.695  35.585  18.653  1.00  0.00     0.000 C 
BRANCH  10  11
ATOM     11  C   UNL     1      24.934  34.876  18.080  1.00  0.00     0.000 C 
BRANCH  11  12
ATOM     12  C   UNL     1      26.169  35.775  17.893  1.00  0.00     0.006 C 
BRANCH  12  13
ATOM     13  C   UNL     1      27.349  35.367  18.785  1.00  0.00     0.053 C 
BRANCH  13  14
ATOM     14  C   UNL     1      28.404  36.429  18.773  1.00  0.00     0.041 C 
ATOM     15  O   UNL     1      29.558  36.182  19.213  1.00  0.00    -0.550 OA
ATOM     16  O   UNL     1      28.127  37.680  18.236  1.00  0.00    -0.550 OA
ENDBRANCH  13  14
ENDBRANCH  12  13
ENDBRANCH  11  12
ENDBRANCH  10  11
ENDBRANCH   9  10
ENDBRANCH   8   9
ENDBRANCH   7   8
ENDBRANCH   6   7
ENDBRANCH   5   6
ENDBRANCH   4   5
ENDBRANCH   3   4
ENDBRANCH   2   3
ENDBRANCH   1   2
BRANCH   1  17
ATOM     17  C   UNL     1      22.787  39.109  29.119  1.00  0.00     0.000 C 
BRANCH  17  18
ATOM     18  C   UNL     1      21.367  38.650  29.471  1.00  0.00     0.000 C 
BRANCH  18  19
ATOM     19  C   UNL     1      21.354  37.857  30.783  1.00  0.00     0.000 C 
BRANCH  19  20
ATOM     20  C   UNL     1      21.868  38.711  31.949  1.00  0.00     0.000 C 
BRANCH  20  21
ATOM     21  C   UNL     1      22.126  37.848  33.193  1.00  0.00     0.000 C 
BRANCH  21  22
ATOM     22  C   UNL     1      22.638  38.665  34.390  1.00  0.00    -0.000 C 
BRANCH  22  23
ATOM     23  C   UNL     1      22.060  40.088  34.427  1.00  0.00    -0.000 C 
BRANCH  23  24
ATOM     24  C   UNL     1      23.181  41.141  34.400  1.00  0.00    -0.000 C 
BRANCH  24  25
ATOM     25  C   UNL     1      22.723  42.474  33.773  1.00  0.00    -0.000 C 
BRANCH  25  26
ATOM     26  C   UNL     1      21.618  43.191  34.569  1.00  0.00    -0.000 C 
BRANCH  26  27
ATOM     27  C   UNL     1      21.150  44.500  33.909  1.00  0.00    -0.000 C 
BRANCH  27  28
ATOM     28  C   UNL     1      20.985  45.650  34.917  1.00  0.00    -0.000 C 
BRANCH  28  29
ATOM     29  C   UNL     1      22.296  46.005  35.631  1.00  0.00    -0.003 C 
ATOM     30  C   UNL     1      22.178  45.785  37.136  1.00  0.00     0.004 C 
ENDBRANCH  28  29
ENDBRANCH  27  28
ENDBRANCH  26  27
ENDBRANCH  25  26
ENDBRANCH  24  25
ENDBRANCH  23  24
ENDBRANCH  22  23
ENDBRANCH  21  22
ENDBRANCH  20  21
ENDBRANCH  19  20
ENDBRANCH  18  19
ENDBRANCH  17  18
ENDBRANCH   1  17
TORSDOF 26
ENDMDL
MODEL 7
REMARK VINA RESULT:    12.146      1.171      2.096
REMARK INTER + INTRA:          29.178
REMARK INTER:                  30.585
REMARK INTRA:                  -1.407
REMARK UNBOUND:                -1.428
REMARK SMILES CCCCCCCCCCCCCCCCCCCCCCCCCCCC(=O)[O-]
REMARK SMILES IDX 15 1 16 2 17 3 18 4 19 5 20 6 21 7 22 8 23 9 24 10 25 11
REMARK SMILES IDX 26 12 27 13 28 14 29 15 30 16 14 17 13 18 12 19 11 20 10 21
REMARK SMILES IDX 9 22 8 23 7 24 6 25 5 26 4 27 3 28 2 29 1 30
REMARK H PARENT
REMARK Flexibility Score: inf
ROOT
ATOM      1  C   UNL     1      21.870  38.409  26.919  1.00  0.00     0.000 C 
ENDROOT
BRANCH   1   2
ATOM      2  C   UNL     1      23.287  38.393  26.323  1.00  0.00     0.000 C 
BRANCH   2   3
ATOM      3  C   UNL     1      23.585  39.522  25.314  1.00  0.00     0.000 C 
BRANCH   3   4
ATOM      4  C   UNL     1      24.269  39.071  24.010  1.00  0.00     0.000 C 
BRANCH   4   5
ATOM      5  C   UNL     1      23.426  39.361  22.760  1.00  0.00     0.000 C 
BRANCH   5   6
ATOM      6  C   UNL     1      22.461  38.201  22.471  1.00  0.00     0.000 C 
BRANCH   6   7
ATOM      7  C   UNL     1      22.734  37.522  21.120  1.00  0.00     0.000 C 
BRANCH   7   8
ATOM      8  C   UNL     1      22.491  36.001  21.097  1.00  0.00     0.000 C 
BRANCH   8   9
ATOM      9  C   UNL     1      23.230  35.271  19.955  1.00  0.00     0.000 C 
BRANCH   9  10
ATOM     10  C   UNL     1      23.933  36.249  18.999  1.00  0.00     0.000 C 
BRANCH  10  11
ATOM     11  C   UNL     1      24.707  35.538  17.875  1.00  0.00     0.000 C 
BRANCH  11  12
ATOM     12  C   UNL     1      26.239  35.662  17.962  1.00  0.00     0.006 C 
BRANCH  12  13
ATOM     13  C   UNL     1      26.723  37.117  17.971  1.00  0.00     0.053 C 
BRANCH  13  14
ATOM     14  C   UNL     1      28.202  37.174  18.202  1.00  0.00     0.041 C 
ATOM     15  O   UNL     1      28.905  36.138  18.067  1.00  0.00    -0.550 OA
ATOM     16  O   UNL     1      28.810  38.380  18.526  1.00  0.00    -0.550 OA
ENDBRANCH  13  14
ENDBRANCH  12  13
ENDBRANCH  11  12
ENDBRANCH  10  11
ENDBRANCH   9  10
ENDBRANCH   8   9
ENDBRANCH   7   8
ENDBRANCH   6   7
ENDBRANCH   5   6
ENDBRANCH   4   5
ENDBRANCH   3   4
ENDBRANCH   2   3
ENDBRANCH   1   2
BRANCH   1  17
ATOM     17  C   UNL     1      21.710  39.429  28.056  1.00  0.00     0.000 C 
BRANCH  17  18
ATOM     18  C   UNL     1      22.496  38.994  29.298  1.00  0.00     0.000 C 
BRANCH  18  19
ATOM     19  C   UNL     1      22.324  37.493  29.561  1.00  0.00     0.000 C 
BRANCH  19  20
ATOM     20  C   UNL     1      22.132  37.214  31.057  1.00  0.00     0.000 C 
BRANCH  20  21
ATOM     21  C   UNL     1      21.316  38.330  31.726  1.00  0.00     0.000 C 
BRANCH  21  22
ATOM     22  C   UNL     1      21.703  38.553  33.196  1.00  0.00    -0.000 C 
BRANCH  22  23
ATOM     23  C   UNL     1      21.753  40.040  33.578  1.00  0.00    -0.000 C 
BRANCH  23  24
ATOM     24  C   UNL     1      22.995  40.351  34.429  1.00  0.00    -0.000 C 
BRANCH  24  25
ATOM     25  C   UNL     1      22.818  41.619  35.290  1.00  0.00    -0.000 C 
BRANCH  25  26
ATOM     26  C   UNL     1      22.114  42.776  34.560  1.00  0.00    -0.000 C 
BRANCH  26  27
ATOM     27  C   UNL     1      22.255  44.125  35.288  1.00  0.00    -0.000 C 
BRANCH  27  28
ATOM     28  C   UNL     1      21.467  45.255  34.605  1.00  0.00    -0.000 C 
BRANCH  28  29
ATOM     29  C   UNL     1      20.412  44.733  33.621  1.00  0.00    -0.003 C 
ATOM     30  C   UNL     1      19.311  45.767  33.398  1.00  0.00     0.004 C 
ENDBRANCH  28  29
ENDBRANCH  27  28
ENDBRANCH  26  27
ENDBRANCH  25  26
ENDBRANCH  24  25
ENDBRANCH  23  24
ENDBRANCH  22  23
ENDBRANCH  21  22
ENDBRANCH  20  21
ENDBRANCH  19  20
ENDBRANCH  18  19
ENDBRANCH  17  18
ENDBRANCH   1  17
TORSDOF 26
ENDMDL
