MODEL 1
REMARK VINA RESULT:    -7.573      0.000      0.000
REMARK INTER + INTRA:         -14.880
REMARK INTER:                 -12.443
REMARK INTRA:                  -2.438
REMARK UNBOUND:                -2.438
REMARK SMILES C[C@@H]1O[C@@H](OC[C@@H]2O[C@@H](Oc3c(-c4ccc(O)c(O)c4)oc4cc(O)cc(O)c4c3=O)[C@@H](O)[C@@H](O)[C@@H]2O)[C@H](O)[C@@H](O)[C@H]1O
REMARK SMILES IDX 7 1 36 2 34 3 32 4 9 5 8 6 6 7 5 8 4 9 1 10 2 11 42 12 3 13
REMARK SMILES IDX 40 14 38 15 43 16 41 18 39 20 37 22 35 24 10 26 11 27 12 28
REMARK SMILES IDX 30 29 21 30 29 31 31 32 22 33 27 34 23 35 26 36 24 37 13 38
REMARK SMILES IDX 20 39 14 40 18 41 15 42 16 43 19 44 17 46 28 48 25 50 33 52
REMARK H PARENT 43 17 41 19 39 21 37 23 35 25 19 45 17 47 28 49 25 51 33 53
REMARK Flexibility Score: inf
ROOT
ATOM      1  C   UNL     1      12.133  37.768 122.770  1.00  0.00     0.180 C 
ATOM      2  C   UNL     1      11.171  37.369 121.626  1.00  0.00     0.177 C 
ATOM      3  C   UNL     1      11.721  36.132 120.905  1.00  0.00     0.180 C 
ATOM      4  C   UNL     1      13.189  36.365 120.500  1.00  0.00     0.214 C 
ATOM      5  C   UNL     1      14.031  36.938 121.669  1.00  0.00     0.339 C 
ATOM      6  O   UNL     1      13.413  38.080 122.246  1.00  0.00    -0.332 OA
ENDROOT
BRANCH   1   7
ATOM      7  C   UNL     1      11.591  38.975 123.557  1.00  0.00     0.198 C 
BRANCH   7   8
ATOM      8  O   UNL     1      11.757  38.785 124.950  1.00  0.00    -0.347 OA
BRANCH   8   9
ATOM      9  C   UNL     1      12.919  39.427 125.462  1.00  0.00     0.281 C 
ATOM     10  C   UNL     1      13.395  37.424 128.513  1.00  0.00     0.041 C 
ATOM     11  C   UNL     1      12.682  38.388 127.563  1.00  0.00     0.150 C 
ATOM     12  C   UNL     1      12.337  39.716 128.288  1.00  0.00     0.174 C 
ATOM     13  O   UNL     1      13.541  38.630 126.460  1.00  0.00    -0.344 OA
ATOM     14  C   UNL     1      11.717  40.732 127.305  1.00  0.00     0.179 C 
ATOM     15  C   UNL     1      12.547  40.823 126.009  1.00  0.00     0.202 C 
BRANCH  12  16
ATOM     16  O   UNL     1      11.450  39.494 129.355  1.00  0.00    -0.388 OA
ATOM     17  H   UNL     1      11.774  40.044 130.113  1.00  0.00     0.211 HD
ENDBRANCH  12  16
BRANCH  14  18
ATOM     18  O   UNL     1      10.363  40.464 127.018  1.00  0.00    -0.387 OA
ATOM     19  H   UNL     1       9.807  41.195 127.384  1.00  0.00     0.211 HD
ENDBRANCH  14  18
BRANCH  15  20
ATOM     20  O   UNL     1      13.721  41.547 126.270  1.00  0.00    -0.385 OA
ATOM     21  H   UNL     1      14.016  41.298 127.187  1.00  0.00     0.211 HD
ENDBRANCH  15  20
ENDBRANCH   8   9
ENDBRANCH   7   8
ENDBRANCH   1   7
BRANCH   2  22
ATOM     22  O   UNL     1      11.044  38.421 120.701  1.00  0.00    -0.387 OA
ATOM     23  H   UNL     1      11.544  39.194 121.073  1.00  0.00     0.211 HD
ENDBRANCH   2  22
BRANCH   3  24
ATOM     24  O   UNL     1      11.608  35.014 121.747  1.00  0.00    -0.387 OA
ATOM     25  H   UNL     1      11.857  35.308 122.661  1.00  0.00     0.211 HD
ENDBRANCH   3  24
BRANCH   5  26
ATOM     26  O   UNL     1      14.311  35.969 122.693  1.00  0.00    -0.454 OA
BRANCH  26  27
ATOM     27  C   UNL     1      15.117  36.184 123.823  1.00  0.00     0.214 A 
ATOM     28  C   UNL     1      14.817  35.660 125.101  1.00  0.00     0.180 A 
ATOM     29  C   UNL     1      16.277  36.955 123.671  1.00  0.00     0.239 A 
ATOM     30  O   UNL     1      15.572  35.995 126.140  1.00  0.00    -0.452 OA
ATOM     31  C   UNL     1      17.034  37.330 124.806  1.00  0.00     0.111 A 
ATOM     32  O   UNL     1      16.630  37.285 122.509  1.00  0.00    -0.285 OA
ATOM     33  C   UNL     1      16.635  36.785 126.051  1.00  0.00     0.146 A 
ATOM     34  C   UNL     1      18.174  38.188 124.771  1.00  0.00     0.134 A 
ATOM     35  C   UNL     1      17.369  37.050 127.211  1.00  0.00     0.094 A 
ATOM     36  C   UNL     1      18.918  38.399 125.940  1.00  0.00     0.093 A 
ATOM     37  C   UNL     1      18.516  37.841 127.157  1.00  0.00     0.123 A 
BRANCH  28  38
ATOM     38  C   UNL     1      13.716  34.703 125.344  1.00  0.00     0.025 A 
ATOM     39  C   UNL     1      13.931  33.317 125.279  1.00  0.00     0.062 A 
ATOM     40  C   UNL     1      12.450  35.184 125.704  1.00  0.00     0.016 A 
ATOM     41  C   UNL     1      12.885  32.415 125.520  1.00  0.00     0.158 A 
ATOM     42  C   UNL     1      11.403  34.294 125.948  1.00  0.00     0.051 A 
ATOM     43  C   UNL     1      11.602  32.912 125.853  1.00  0.00     0.157 A 
BRANCH  41  44
ATOM     44  O   UNL     1      13.162  31.048 125.416  1.00  0.00    -0.504 OA
ATOM     45  H   UNL     1      13.942  30.666 124.904  1.00  0.00     0.293 HD
ENDBRANCH  41  44
BRANCH  43  46
ATOM     46  O   UNL     1      10.510  32.077 126.104  1.00  0.00    -0.504 OA
ATOM     47  H   UNL     1       9.570  32.269 125.791  1.00  0.00     0.293 HD
ENDBRANCH  43  46
ENDBRANCH  28  38
BRANCH  34  48
ATOM     48  O   UNL     1      18.594  38.880 123.631  1.00  0.00    -0.507 OA
ATOM     49  H   UNL     1      17.969  39.266 122.935  1.00  0.00     0.293 HD
ENDBRANCH  34  48
BRANCH  37  50
ATOM     50  O   UNL     1      19.246  38.073 128.320  1.00  0.00    -0.508 OA
ATOM     51  H   UNL     1      20.258  38.006 128.329  1.00  0.00     0.293 HD
ENDBRANCH  37  50
ENDBRANCH  26  27
ENDBRANCH   5  26
BRANCH   4  52
ATOM     52  O   UNL     1      13.760  35.181 120.016  1.00  0.00    -0.384 OA
ATOM     53  H   UNL     1      14.734  35.228 120.209  1.00  0.00     0.211 HD
ENDBRANCH   4  52
TORSDOF 16
ENDMDL
MODEL 2
REMARK VINA RESULT:    -7.449      1.051      1.866
REMARK INTER + INTRA:         -14.677
REMARK INTER:                 -11.716
REMARK INTRA:                  -2.960
REMARK UNBOUND:                -2.438
REMARK SMILES C[C@@H]1O[C@@H](OC[C@@H]2O[C@@H](Oc3c(-c4ccc(O)c(O)c4)oc4cc(O)cc(O)c4c3=O)[C@@H](O)[C@@H](O)[C@@H]2O)[C@H](O)[C@@H](O)[C@H]1O
REMARK SMILES IDX 7 1 36 2 34 3 32 4 9 5 8 6 6 7 5 8 4 9 1 10 2 11 42 12 3 13
REMARK SMILES IDX 40 14 38 15 43 16 41 18 39 20 37 22 35 24 10 26 11 27 12 28
REMARK SMILES IDX 30 29 21 30 29 31 31 32 22 33 27 34 23 35 26 36 24 37 13 38
REMARK SMILES IDX 20 39 14 40 18 41 15 42 16 43 19 44 17 46 28 48 25 50 33 52
REMARK H PARENT 43 17 41 19 39 21 37 23 35 25 19 45 17 47 28 49 25 51 33 53
REMARK Flexibility Score: inf
ROOT
ATOM      1  C   UNL     1      11.797  36.414 123.334  1.00  0.00     0.180 C 
ATOM      2  C   UNL     1      10.990  36.006 122.079  1.00  0.00     0.177 C 
ATOM      3  C   UNL     1      11.949  35.469 121.009  1.00  0.00     0.180 C 
ATOM      4  C   UNL     1      13.095  36.471 120.775  1.00  0.00     0.214 C 
ATOM      5  C   UNL     1      13.721  36.960 122.108  1.00  0.00     0.339 C 
ATOM      6  O   UNL     1      12.728  37.433 123.007  1.00  0.00    -0.332 OA
ENDROOT
BRANCH   1   7
ATOM      7  C   UNL     1      10.867  36.909 124.456  1.00  0.00     0.198 C 
BRANCH   7   8
ATOM      8  O   UNL     1      11.280  38.177 124.932  1.00  0.00    -0.347 OA
BRANCH   8   9
ATOM      9  C   UNL     1      11.404  38.222 126.349  1.00  0.00     0.281 C 
ATOM     10  C   UNL     1      10.844  41.823 126.869  1.00  0.00     0.041 C 
ATOM     11  C   UNL     1      11.561  40.572 126.354  1.00  0.00     0.150 C 
ATOM     12  C   UNL     1      13.045  40.569 126.805  1.00  0.00     0.174 C 
ATOM     13  O   UNL     1      10.881  39.438 126.866  1.00  0.00    -0.344 OA
ATOM     14  C   UNL     1      13.743  39.258 126.383  1.00  0.00     0.179 C 
ATOM     15  C   UNL     1      12.884  38.032 126.751  1.00  0.00     0.202 C 
BRANCH  12  16
ATOM     16  O   UNL     1      13.741  41.665 126.267  1.00  0.00    -0.388 OA
ATOM     17  H   UNL     1      13.275  41.912 125.428  1.00  0.00     0.211 HD
ENDBRANCH  12  16
BRANCH  14  18
ATOM     18  O   UNL     1      14.093  39.236 125.018  1.00  0.00    -0.387 OA
ATOM     19  H   UNL     1      14.628  40.041 124.810  1.00  0.00     0.211 HD
ENDBRANCH  14  18
BRANCH  15  20
ATOM     20  O   UNL     1      12.964  37.818 128.137  1.00  0.00    -0.385 OA
ATOM     21  H   UNL     1      13.683  37.147 128.284  1.00  0.00     0.211 HD
ENDBRANCH  15  20
ENDBRANCH   8   9
ENDBRANCH   7   8
ENDBRANCH   1   7
BRANCH   2  22
ATOM     22  O   UNL     1      10.296  37.113 121.559  1.00  0.00    -0.387 OA
ATOM     23  H   UNL     1      10.140  36.931 120.596  1.00  0.00     0.211 HD
ENDBRANCH   2  22
BRANCH   3  24
ATOM     24  O   UNL     1      12.451  34.222 121.417  1.00  0.00    -0.387 OA
ATOM     25  H   UNL     1      12.764  33.751 120.602  1.00  0.00     0.211 HD
ENDBRANCH   3  24
BRANCH   5  26
ATOM     26  O   UNL     1      14.526  35.960 122.756  1.00  0.00    -0.454 OA
BRANCH  26  27
ATOM     27  C   UNL     1      15.338  36.170 123.882  1.00  0.00     0.214 A 
ATOM     28  C   UNL     1      15.096  35.564 125.136  1.00  0.00     0.180 A 
ATOM     29  C   UNL     1      16.443  37.021 123.751  1.00  0.00     0.239 A 
ATOM     30  O   UNL     1      15.849  35.893 126.178  1.00  0.00    -0.452 OA
ATOM     31  C   UNL     1      17.197  37.386 124.892  1.00  0.00     0.111 A 
ATOM     32  O   UNL     1      16.752  37.431 122.603  1.00  0.00    -0.285 OA
ATOM     33  C   UNL     1      16.858  36.754 126.114  1.00  0.00     0.146 A 
ATOM     34  C   UNL     1      18.279  38.316 124.883  1.00  0.00     0.134 A 
ATOM     35  C   UNL     1      17.595  37.007 127.274  1.00  0.00     0.094 A 
ATOM     36  C   UNL     1      19.030  38.515 126.049  1.00  0.00     0.093 A 
ATOM     37  C   UNL     1      18.688  37.871 127.242  1.00  0.00     0.123 A 
BRANCH  28  38
ATOM     38  C   UNL     1      14.064  34.526 125.347  1.00  0.00     0.025 A 
ATOM     39  C   UNL     1      14.048  33.350 124.579  1.00  0.00     0.062 A 
ATOM     40  C   UNL     1      13.120  34.690 126.369  1.00  0.00     0.016 A 
ATOM     41  C   UNL     1      13.072  32.367 124.791  1.00  0.00     0.158 A 
ATOM     42  C   UNL     1      12.145  33.715 126.589  1.00  0.00     0.051 A 
ATOM     43  C   UNL     1      12.103  32.556 125.807  1.00  0.00     0.157 A 
BRANCH  41  44
ATOM     44  O   UNL     1      13.099  31.230 123.976  1.00  0.00    -0.504 OA
ATOM     45  H   UNL     1      12.612  31.154 123.096  1.00  0.00     0.293 HD
ENDBRANCH  41  44
BRANCH  43  46
ATOM     46  O   UNL     1      11.098  31.623 126.075  1.00  0.00    -0.504 OA
ATOM     47  H   UNL     1      10.379  31.754 126.771  1.00  0.00     0.293 HD
ENDBRANCH  43  46
ENDBRANCH  28  38
BRANCH  34  48
ATOM     48  O   UNL     1      18.632  39.091 123.774  1.00  0.00    -0.507 OA
ATOM     49  H   UNL     1      19.566  39.141 123.388  1.00  0.00     0.293 HD
ENDBRANCH  34  48
BRANCH  37  50
ATOM     50  O   UNL     1      19.424  38.091 128.403  1.00  0.00    -0.508 OA
ATOM     51  H   UNL     1      20.247  38.684 128.402  1.00  0.00     0.293 HD
ENDBRANCH  37  50
ENDBRANCH  26  27
ENDBRANCH   5  26
BRANCH   4  52
ATOM     52  O   UNL     1      14.077  35.911 119.947  1.00  0.00    -0.384 OA
ATOM     53  H   UNL     1      13.719  35.046 119.615  1.00  0.00     0.211 HD
ENDBRANCH   4  52
TORSDOF 16
ENDMDL
MODEL 3
REMARK VINA RESULT:    -6.993      1.898      5.873
REMARK INTER + INTRA:         -13.928
REMARK INTER:                 -11.448
REMARK INTRA:                  -2.480
REMARK UNBOUND:                -2.438
REMARK SMILES C[C@@H]1O[C@@H](OC[C@@H]2O[C@@H](Oc3c(-c4ccc(O)c(O)c4)oc4cc(O)cc(O)c4c3=O)[C@@H](O)[C@@H](O)[C@@H]2O)[C@H](O)[C@@H](O)[C@H]1O
REMARK SMILES IDX 7 1 36 2 34 3 32 4 9 5 8 6 6 7 5 8 4 9 1 10 2 11 42 12 3 13
REMARK SMILES IDX 40 14 38 15 43 16 41 18 39 20 37 22 35 24 10 26 11 27 12 28
REMARK SMILES IDX 30 29 21 30 29 31 31 32 22 33 27 34 23 35 26 36 24 37 13 38
REMARK SMILES IDX 20 39 14 40 18 41 15 42 16 43 19 44 17 46 28 48 25 50 33 52
REMARK H PARENT 43 17 41 19 39 21 37 23 35 25 19 45 17 47 28 49 25 51 33 53
REMARK Flexibility Score: inf
ROOT
ATOM      1  C   UNL     1      12.928  37.032 121.643  1.00  0.00     0.180 C 
ATOM      2  C   UNL     1      11.931  37.757 120.707  1.00  0.00     0.177 C 
ATOM      3  C   UNL     1      10.887  38.499 121.551  1.00  0.00     0.180 C 
ATOM      4  C   UNL     1      10.265  37.541 122.584  1.00  0.00     0.214 C 
ATOM      5  C   UNL     1      11.342  36.726 123.345  1.00  0.00     0.339 C 
ATOM      6  O   UNL     1      12.242  36.088 122.449  1.00  0.00    -0.332 OA
ENDROOT
BRANCH   1   7
ATOM      7  C   UNL     1      14.028  36.318 120.838  1.00  0.00     0.198 C 
BRANCH   7   8
ATOM      8  O   UNL     1      15.311  36.779 121.217  1.00  0.00    -0.347 OA
BRANCH   8   9
ATOM      9  C   UNL     1      15.983  35.885 122.097  1.00  0.00     0.281 C 
ATOM     10  C   UNL     1      15.904  37.917 125.166  1.00  0.00     0.041 C 
ATOM     11  C   UNL     1      16.280  37.561 123.725  1.00  0.00     0.150 C 
ATOM     12  C   UNL     1      17.819  37.609 123.534  1.00  0.00     0.174 C 
ATOM     13  O   UNL     1      15.783  36.261 123.453  1.00  0.00    -0.344 OA
ATOM     14  C   UNL     1      18.209  37.145 122.115  1.00  0.00     0.179 C 
ATOM     15  C   UNL     1      17.486  35.834 121.744  1.00  0.00     0.202 C 
BRANCH  12  16
ATOM     16  O   UNL     1      18.316  38.904 123.757  1.00  0.00    -0.388 OA
ATOM     17  H   UNL     1      19.290  38.811 123.918  1.00  0.00     0.211 HD
ENDBRANCH  12  16
BRANCH  14  18
ATOM     18  O   UNL     1      17.994  38.133 121.133  1.00  0.00    -0.387 OA
ATOM     19  H   UNL     1      17.642  37.703 120.315  1.00  0.00     0.211 HD
ENDBRANCH  14  18
BRANCH  15  20
ATOM     20  O   UNL     1      18.089  34.770 122.434  1.00  0.00    -0.385 OA
ATOM     21  H   UNL     1      18.152  35.044 123.388  1.00  0.00     0.211 HD
ENDBRANCH  15  20
ENDBRANCH   8   9
ENDBRANCH   7   8
ENDBRANCH   1   7
BRANCH   2  22
ATOM     22  O   UNL     1      11.277  36.832 119.875  1.00  0.00    -0.387 OA
ATOM     23  H   UNL     1      11.736  35.960 119.995  1.00  0.00     0.211 HD
ENDBRANCH   2  22
BRANCH   3  24
ATOM     24  O   UNL     1      11.495  39.593 122.188  1.00  0.00    -0.387 OA
ATOM     25  H   UNL     1      10.787  40.066 122.698  1.00  0.00     0.211 HD
ENDBRANCH   3  24
BRANCH   5  26
ATOM     26  O   UNL     1      12.080  37.512 124.296  1.00  0.00    -0.454 OA
BRANCH  26  27
ATOM     27  C   UNL     1      11.708  37.738 125.632  1.00  0.00     0.214 A 
ATOM     28  C   UNL     1      11.600  36.707 126.591  1.00  0.00     0.180 A 
ATOM     29  C   UNL     1      11.435  39.054 126.028  1.00  0.00     0.239 A 
ATOM     30  O   UNL     1      11.143  36.988 127.805  1.00  0.00    -0.452 OA
ATOM     31  C   UNL     1      10.907  39.313 127.315  1.00  0.00     0.111 A 
ATOM     32  O   UNL     1      11.685  39.988 125.223  1.00  0.00    -0.285 OA
ATOM     33  C   UNL     1      10.799  38.209 128.198  1.00  0.00     0.146 A 
ATOM     34  C   UNL     1      10.507  40.600 127.783  1.00  0.00     0.134 A 
ATOM     35  C   UNL     1      10.351  38.388 129.509  1.00  0.00     0.094 A 
ATOM     36  C   UNL     1      10.107  40.759 129.117  1.00  0.00     0.093 A 
ATOM     37  C   UNL     1      10.020  39.659 129.976  1.00  0.00     0.123 A 
BRANCH  28  38
ATOM     38  C   UNL     1      12.020  35.313 126.332  1.00  0.00     0.025 A 
ATOM     39  C   UNL     1      11.078  34.276 126.234  1.00  0.00     0.062 A 
ATOM     40  C   UNL     1      13.376  35.030 126.120  1.00  0.00     0.016 A 
ATOM     41  C   UNL     1      11.483  32.959 125.978  1.00  0.00     0.158 A 
ATOM     42  C   UNL     1      13.788  33.721 125.863  1.00  0.00     0.051 A 
ATOM     43  C   UNL     1      12.859  32.677 125.796  1.00  0.00     0.157 A 
BRANCH  41  44
ATOM     44  O   UNL     1      10.496  31.970 125.916  1.00  0.00    -0.504 OA
ATOM     45  H   UNL     1       9.835  31.878 125.160  1.00  0.00     0.293 HD
ENDBRANCH  41  44
BRANCH  43  46
ATOM     46  O   UNL     1      13.340  31.390 125.541  1.00  0.00    -0.504 OA
ATOM     47  H   UNL     1      12.752  30.573 125.469  1.00  0.00     0.293 HD
ENDBRANCH  43  46
ENDBRANCH  28  38
BRANCH  34  48
ATOM     48  O   UNL     1      10.452  41.740 126.975  1.00  0.00    -0.507 OA
ATOM     49  H   UNL     1      10.980  41.859 126.120  1.00  0.00     0.293 HD
ENDBRANCH  34  48
BRANCH  37  50
ATOM     50  O   UNL     1       9.599  39.820 131.293  1.00  0.00    -0.508 OA
ATOM     51  H   UNL     1       9.799  40.668 131.811  1.00  0.00     0.293 HD
ENDBRANCH  37  50
ENDBRANCH  26  27
ENDBRANCH   5  26
BRANCH   4  52
ATOM     52  O   UNL     1       9.454  38.246 123.484  1.00  0.00    -0.384 OA
ATOM     53  H   UNL     1       9.198  37.610 124.204  1.00  0.00     0.211 HD
ENDBRANCH   4  52
TORSDOF 16
ENDMDL
MODEL 4
REMARK VINA RESULT:    -6.960      1.786      6.919
REMARK INTER + INTRA:         -13.874
REMARK INTER:                 -11.441
REMARK INTRA:                  -2.433
REMARK UNBOUND:                -2.438
REMARK SMILES C[C@@H]1O[C@@H](OC[C@@H]2O[C@@H](Oc3c(-c4ccc(O)c(O)c4)oc4cc(O)cc(O)c4c3=O)[C@@H](O)[C@@H](O)[C@@H]2O)[C@H](O)[C@@H](O)[C@H]1O
REMARK SMILES IDX 7 1 36 2 34 3 32 4 9 5 8 6 6 7 5 8 4 9 1 10 2 11 42 12 3 13
REMARK SMILES IDX 40 14 38 15 43 16 41 18 39 20 37 22 35 24 10 26 11 27 12 28
REMARK SMILES IDX 30 29 21 30 29 31 31 32 22 33 27 34 23 35 26 36 24 37 13 38
REMARK SMILES IDX 20 39 14 40 18 41 15 42 16 43 19 44 17 46 28 48 25 50 33 52
REMARK H PARENT 43 17 41 19 39 21 37 23 35 25 19 45 17 47 28 49 25 51 33 53
REMARK Flexibility Score: inf
ROOT
ATOM      1  C   UNL     1      13.043  36.812 126.475  1.00  0.00     0.180 C 
ATOM      2  C   UNL     1      12.003  37.726 127.166  1.00  0.00     0.177 C 
ATOM      3  C   UNL     1      12.169  39.162 126.655  1.00  0.00     0.180 C 
ATOM      4  C   UNL     1      13.639  39.602 126.780  1.00  0.00     0.214 C 
ATOM      5  C   UNL     1      14.616  38.534 126.221  1.00  0.00     0.339 C 
ATOM      6  O   UNL     1      14.358  37.252 126.776  1.00  0.00    -0.332 OA
ENDROOT
BRANCH   1   7
ATOM      7  C   UNL     1      12.878  35.347 126.918  1.00  0.00     0.198 C 
BRANCH   7   8
ATOM      8  O   UNL     1      13.156  34.461 125.849  1.00  0.00    -0.347 OA
BRANCH   8   9
ATOM      9  C   UNL     1      12.551  33.184 126.017  1.00  0.00     0.281 C 
ATOM     10  C   UNL     1      13.681  31.590 122.897  1.00  0.00     0.041 C 
ATOM     11  C   UNL     1      12.933  32.604 123.766  1.00  0.00     0.150 C 
ATOM     12  C   UNL     1      11.425  32.626 123.404  1.00  0.00     0.174 C 
ATOM     13  O   UNL     1      13.116  32.234 125.123  1.00  0.00    -0.344 OA
ATOM     14  C   UNL     1      10.648  33.566 124.351  1.00  0.00     0.179 C 
ATOM     15  C   UNL     1      11.024  33.300 125.823  1.00  0.00     0.202 C 
BRANCH  12  16
ATOM     16  O   UNL     1      11.229  33.035 122.074  1.00  0.00    -0.388 OA
ATOM     17  H   UNL     1      11.586  32.311 121.499  1.00  0.00     0.211 HD
ENDBRANCH  12  16
BRANCH  14  18
ATOM     18  O   UNL     1      10.809  34.928 124.029  1.00  0.00    -0.387 OA
ATOM     19  H   UNL     1      10.991  35.436 124.859  1.00  0.00     0.211 HD
ENDBRANCH  14  18
BRANCH  15  20
ATOM     20  O   UNL     1      10.411  32.107 126.241  1.00  0.00    -0.385 OA
ATOM     21  H   UNL     1      10.251  31.563 125.423  1.00  0.00     0.211 HD
ENDBRANCH  15  20
ENDBRANCH   8   9
ENDBRANCH   7   8
ENDBRANCH   1   7
BRANCH   2  22
ATOM     22  O   UNL     1      12.185  37.710 128.560  1.00  0.00    -0.387 OA
ATOM     23  H   UNL     1      12.729  38.508 128.790  1.00  0.00     0.211 HD
ENDBRANCH   2  22
BRANCH   3  24
ATOM     24  O   UNL     1      11.738  39.234 125.320  1.00  0.00    -0.387 OA
ATOM     25  H   UNL     1      12.012  40.121 124.971  1.00  0.00     0.211 HD
ENDBRANCH   3  24
BRANCH   5  26
ATOM     26  O   UNL     1      14.605  38.454 124.785  1.00  0.00    -0.454 OA
BRANCH  26  27
ATOM     27  C   UNL     1      15.037  37.354 124.026  1.00  0.00     0.214 A 
ATOM     28  C   UNL     1      16.344  36.821 124.108  1.00  0.00     0.180 A 
ATOM     29  C   UNL     1      14.123  36.756 123.148  1.00  0.00     0.239 A 
ATOM     30  O   UNL     1      16.706  35.847 123.283  1.00  0.00    -0.452 OA
ATOM     31  C   UNL     1      14.555  35.750 122.251  1.00  0.00     0.111 A 
ATOM     32  O   UNL     1      12.921  37.124 123.192  1.00  0.00    -0.285 OA
ATOM     33  C   UNL     1      15.894  35.305 122.383  1.00  0.00     0.146 A 
ATOM     34  C   UNL     1      13.731  35.145 121.256  1.00  0.00     0.134 A 
ATOM     35  C   UNL     1      16.380  34.268 121.582  1.00  0.00     0.094 A 
ATOM     36  C   UNL     1      14.230  34.076 120.500  1.00  0.00     0.093 A 
ATOM     37  C   UNL     1      15.550  33.642 120.654  1.00  0.00     0.123 A 
BRANCH  28  38
ATOM     38  C   UNL     1      17.336  37.263 125.112  1.00  0.00     0.025 A 
ATOM     39  C   UNL     1      18.231  38.309 124.838  1.00  0.00     0.062 A 
ATOM     40  C   UNL     1      17.344  36.668 126.380  1.00  0.00     0.016 A 
ATOM     41  C   UNL     1      19.163  38.728 125.797  1.00  0.00     0.158 A 
ATOM     42  C   UNL     1      18.267  37.080 127.344  1.00  0.00     0.051 A 
ATOM     43  C   UNL     1      19.184  38.100 127.066  1.00  0.00     0.157 A 
BRANCH  41  44
ATOM     44  O   UNL     1      20.041  39.760 125.452  1.00  0.00    -0.504 OA
ATOM     45  H   UNL     1      20.762  40.116 126.060  1.00  0.00     0.293 HD
ENDBRANCH  41  44
BRANCH  43  46
ATOM     46  O   UNL     1      20.084  38.460 128.073  1.00  0.00    -0.504 OA
ATOM     47  H   UNL     1      20.779  37.837 128.456  1.00  0.00     0.293 HD
ENDBRANCH  43  46
ENDBRANCH  28  38
BRANCH  34  48
ATOM     48  O   UNL     1      12.436  35.577 120.948  1.00  0.00    -0.507 OA
ATOM     49  H   UNL     1      11.675  35.614 121.614  1.00  0.00     0.293 HD
ENDBRANCH  34  48
BRANCH  37  50
ATOM     50  O   UNL     1      16.047  32.595 119.883  1.00  0.00    -0.508 OA
ATOM     51  H   UNL     1      15.716  32.432 118.938  1.00  0.00     0.293 HD
ENDBRANCH  37  50
ENDBRANCH  26  27
ENDBRANCH   5  26
BRANCH   4  52
ATOM     52  O   UNL     1      13.841  40.834 126.143  1.00  0.00    -0.384 OA
ATOM     53  H   UNL     1      13.319  40.813 125.297  1.00  0.00     0.211 HD
ENDBRANCH   4  52
TORSDOF 16
ENDMDL
MODEL 5
REMARK VINA RESULT:    -6.807      2.106      4.883
REMARK INTER + INTRA:         -13.622
REMARK INTER:                 -10.619
REMARK INTRA:                  -3.003
REMARK UNBOUND:                -2.438
REMARK SMILES C[C@@H]1O[C@@H](OC[C@@H]2O[C@@H](Oc3c(-c4ccc(O)c(O)c4)oc4cc(O)cc(O)c4c3=O)[C@@H](O)[C@@H](O)[C@@H]2O)[C@H](O)[C@@H](O)[C@H]1O
REMARK SMILES IDX 7 1 36 2 34 3 32 4 9 5 8 6 6 7 5 8 4 9 1 10 2 11 42 12 3 13
REMARK SMILES IDX 40 14 38 15 43 16 41 18 39 20 37 22 35 24 10 26 11 27 12 28
REMARK SMILES IDX 30 29 21 30 29 31 31 32 22 33 27 34 23 35 26 36 24 37 13 38
REMARK SMILES IDX 20 39 14 40 18 41 15 42 16 43 19 44 17 46 28 48 25 50 33 52
REMARK H PARENT 43 17 41 19 39 21 37 23 35 25 19 45 17 47 28 49 25 51 33 53
REMARK Flexibility Score: inf
ROOT
ATOM      1  C   UNL     1      13.123  37.131 120.972  1.00  0.00     0.180 C 
ATOM      2  C   UNL     1      11.726  37.486 120.410  1.00  0.00     0.177 C 
ATOM      3  C   UNL     1      10.871  38.106 121.522  1.00  0.00     0.180 C 
ATOM      4  C   UNL     1      10.884  37.200 122.767  1.00  0.00     0.214 C 
ATOM      5  C   UNL     1      12.320  36.750 123.144  1.00  0.00     0.339 C 
ATOM      6  O   UNL     1      13.000  36.192 122.028  1.00  0.00    -0.332 OA
ENDROOT
BRANCH   1   7
ATOM      7  C   UNL     1      14.034  36.555 119.875  1.00  0.00     0.198 C 
BRANCH   7   8
ATOM      8  O   UNL     1      15.357  36.390 120.352  1.00  0.00    -0.347 OA
BRANCH   8   9
ATOM      9  C   UNL     1      15.805  35.041 120.286  1.00  0.00     0.281 C 
ATOM     10  C   UNL     1      15.131  34.032 123.762  1.00  0.00     0.041 C 
ATOM     11  C   UNL     1      15.794  34.824 122.632  1.00  0.00     0.150 C 
ATOM     12  C   UNL     1      17.339  34.723 122.726  1.00  0.00     0.174 C 
ATOM     13  O   UNL     1      15.333  34.294 121.399  1.00  0.00    -0.344 OA
ATOM     14  C   UNL     1      18.008  35.427 121.526  1.00  0.00     0.179 C 
ATOM     15  C   UNL     1      17.347  35.005 120.199  1.00  0.00     0.202 C 
BRANCH  12  16
ATOM     16  O   UNL     1      17.811  35.286 123.924  1.00  0.00    -0.388 OA
ATOM     17  H   UNL     1      17.223  36.058 124.126  1.00  0.00     0.211 HD
ENDBRANCH  12  16
BRANCH  14  18
ATOM     18  O   UNL     1      18.030  36.830 121.654  1.00  0.00    -0.387 OA
ATOM     19  H   UNL     1      18.193  37.064 122.602  1.00  0.00     0.211 HD
ENDBRANCH  14  18
BRANCH  15  20
ATOM     20  O   UNL     1      17.763  33.704 119.875  1.00  0.00    -0.385 OA
ATOM     21  H   UNL     1      18.730  33.759 119.647  1.00  0.00     0.211 HD
ENDBRANCH  15  20
ENDBRANCH   8   9
ENDBRANCH   7   8
ENDBRANCH   1   7
BRANCH   2  22
ATOM     22  O   UNL     1      11.083  36.333 119.926  1.00  0.00    -0.387 OA
ATOM     23  H   UNL     1      11.497  35.557 120.387  1.00  0.00     0.211 HD
ENDBRANCH   2  22
BRANCH   3  24
ATOM     24  O   UNL     1      11.364  39.385 121.830  1.00  0.00    -0.387 OA
ATOM     25  H   UNL     1      11.953  39.290 122.623  1.00  0.00     0.211 HD
ENDBRANCH   3  24
BRANCH   5  26
ATOM     26  O   UNL     1      13.111  37.804 123.718  1.00  0.00    -0.454 OA
BRANCH  26  27
ATOM     27  C   UNL     1      14.169  37.630 124.625  1.00  0.00     0.214 A 
ATOM     28  C   UNL     1      13.990  37.151 125.942  1.00  0.00     0.180 A 
ATOM     29  C   UNL     1      15.466  37.944 124.197  1.00  0.00     0.239 A 
ATOM     30  O   UNL     1      15.025  37.112 126.771  1.00  0.00    -0.452 OA
ATOM     31  C   UNL     1      16.540  37.934 125.119  1.00  0.00     0.111 A 
ATOM     32  O   UNL     1      15.648  38.214 122.982  1.00  0.00    -0.285 OA
ATOM     33  C   UNL     1      16.256  37.474 126.429  1.00  0.00     0.146 A 
ATOM     34  C   UNL     1      17.876  38.327 124.809  1.00  0.00     0.134 A 
ATOM     35  C   UNL     1      17.273  37.369 127.381  1.00  0.00     0.094 A 
ATOM     36  C   UNL     1      18.885  38.166 125.769  1.00  0.00     0.093 A 
ATOM     37  C   UNL     1      18.587  37.698 127.052  1.00  0.00     0.123 A 
BRANCH  28  38
ATOM     38  C   UNL     1      12.698  36.636 126.446  1.00  0.00     0.025 A 
ATOM     39  C   UNL     1      12.314  35.303 126.231  1.00  0.00     0.062 A 
ATOM     40  C   UNL     1      11.869  37.474 127.204  1.00  0.00     0.016 A 
ATOM     41  C   UNL     1      11.093  34.818 126.719  1.00  0.00     0.158 A 
ATOM     42  C   UNL     1      10.652  37.000 127.697  1.00  0.00     0.051 A 
ATOM     43  C   UNL     1      10.248  35.682 127.457  1.00  0.00     0.157 A 
BRANCH  41  44
ATOM     44  O   UNL     1      10.761  33.487 126.449  1.00  0.00    -0.504 OA
ATOM     45  H   UNL     1      10.266  33.184 125.625  1.00  0.00     0.293 HD
ENDBRANCH  41  44
BRANCH  43  46
ATOM     46  O   UNL     1       9.015  35.274 127.974  1.00  0.00    -0.504 OA
ATOM     47  H   UNL     1       8.218  35.033 127.405  1.00  0.00     0.293 HD
ENDBRANCH  43  46
ENDBRANCH  28  38
BRANCH  34  48
ATOM     48  O   UNL     1      18.256  38.908 123.595  1.00  0.00    -0.507 OA
ATOM     49  H   UNL     1      18.143  39.889 123.372  1.00  0.00     0.293 HD
ENDBRANCH  34  48
BRANCH  37  50
ATOM     50  O   UNL     1      19.590  37.563 128.008  1.00  0.00    -0.508 OA
ATOM     51  H   UNL     1      20.518  37.243 127.757  1.00  0.00     0.293 HD
ENDBRANCH  37  50
ENDBRANCH  26  27
ENDBRANCH   5  26
BRANCH   4  52
ATOM     52  O   UNL     1      10.270  37.843 123.851  1.00  0.00    -0.384 OA
ATOM     53  H   UNL     1       9.825  37.138 124.392  1.00  0.00     0.211 HD
ENDBRANCH   4  52
TORSDOF 16
ENDMDL
MODEL 6
REMARK VINA RESULT:    -6.796      1.925      5.359
REMARK INTER + INTRA:         -13.605
REMARK INTER:                 -11.145
REMARK INTRA:                  -2.460
REMARK UNBOUND:                -2.438
REMARK SMILES C[C@@H]1O[C@@H](OC[C@@H]2O[C@@H](Oc3c(-c4ccc(O)c(O)c4)oc4cc(O)cc(O)c4c3=O)[C@@H](O)[C@@H](O)[C@@H]2O)[C@H](O)[C@@H](O)[C@H]1O
REMARK SMILES IDX 7 1 36 2 34 3 32 4 9 5 8 6 6 7 5 8 4 9 1 10 2 11 42 12 3 13
REMARK SMILES IDX 40 14 38 15 43 16 41 18 39 20 37 22 35 24 10 26 11 27 12 28
REMARK SMILES IDX 30 29 21 30 29 31 31 32 22 33 27 34 23 35 26 36 24 37 13 38
REMARK SMILES IDX 20 39 14 40 18 41 15 42 16 43 19 44 17 46 28 48 25 50 33 52
REMARK H PARENT 43 17 41 19 39 21 37 23 35 25 19 45 17 47 28 49 25 51 33 53
REMARK Flexibility Score: inf
ROOT
ATOM      1  C   UNL     1      14.503  36.543 121.923  1.00  0.00     0.180 C 
ATOM      2  C   UNL     1      14.852  36.536 120.416  1.00  0.00     0.177 C 
ATOM      3  C   UNL     1      15.719  35.312 120.098  1.00  0.00     0.180 C 
ATOM      4  C   UNL     1      16.915  35.245 121.066  1.00  0.00     0.214 C 
ATOM      5  C   UNL     1      16.481  35.443 122.542  1.00  0.00     0.339 C 
ATOM      6  O   UNL     1      15.689  36.612 122.699  1.00  0.00    -0.332 OA
ENDROOT
BRANCH   1   7
ATOM      7  C   UNL     1      13.588  37.728 122.277  1.00  0.00     0.198 C 
BRANCH   7   8
ATOM      8  O   UNL     1      13.160  37.651 123.624  1.00  0.00    -0.347 OA
BRANCH   8   9
ATOM      9  C   UNL     1      12.928  38.930 124.205  1.00  0.00     0.281 C 
ATOM     10  C   UNL     1      13.378  38.049 127.751  1.00  0.00     0.041 C 
ATOM     11  C   UNL     1      12.726  38.015 126.366  1.00  0.00     0.150 C 
ATOM     12  C   UNL     1      11.212  38.339 126.466  1.00  0.00     0.174 C 
ATOM     13  O   UNL     1      13.387  38.967 125.549  1.00  0.00    -0.344 OA
ATOM     14  C   UNL     1      10.574  38.414 125.063  1.00  0.00     0.179 C 
ATOM     15  C   UNL     1      11.427  39.281 124.114  1.00  0.00     0.202 C 
BRANCH  12  16
ATOM     16  O   UNL     1      10.538  37.376 127.237  1.00  0.00    -0.388 OA
ATOM     17  H   UNL     1      10.384  37.782 128.128  1.00  0.00     0.211 HD
ENDBRANCH  12  16
BRANCH  14  18
ATOM     18  O   UNL     1      10.329  37.145 124.501  1.00  0.00    -0.387 OA
ATOM     19  H   UNL     1       9.543  36.742 124.945  1.00  0.00     0.211 HD
ENDBRANCH  14  18
BRANCH  15  20
ATOM     20  O   UNL     1      11.246  40.633 124.447  1.00  0.00    -0.385 OA
ATOM     21  H   UNL     1      11.031  41.112 123.602  1.00  0.00     0.211 HD
ENDBRANCH  15  20
ENDBRANCH   8   9
ENDBRANCH   7   8
ENDBRANCH   1   7
BRANCH   2  22
ATOM     22  O   UNL     1      15.560  37.702 120.070  1.00  0.00    -0.387 OA
ATOM     23  H   UNL     1      15.301  38.402 120.725  1.00  0.00     0.211 HD
ENDBRANCH   2  22
BRANCH   3  24
ATOM     24  O   UNL     1      14.935  34.150 120.193  1.00  0.00    -0.387 OA
ATOM     25  H   UNL     1      15.471  33.403 119.818  1.00  0.00     0.211 HD
ENDBRANCH   3  24
BRANCH   5  26
ATOM     26  O   UNL     1      15.786  34.309 123.085  1.00  0.00    -0.454 OA
BRANCH  26  27
ATOM     27  C   UNL     1      14.767  34.361 124.051  1.00  0.00     0.214 A 
ATOM     28  C   UNL     1      14.959  34.877 125.352  1.00  0.00     0.180 A 
ATOM     29  C   UNL     1      13.499  33.879 123.701  1.00  0.00     0.239 A 
ATOM     30  O   UNL     1      13.976  34.797 126.240  1.00  0.00    -0.452 OA
ATOM     31  C   UNL     1      12.487  33.765 124.684  1.00  0.00     0.111 A 
ATOM     32  O   UNL     1      13.285  33.570 122.501  1.00  0.00    -0.285 OA
ATOM     33  C   UNL     1      12.784  34.277 125.972  1.00  0.00     0.146 A 
ATOM     34  C   UNL     1      11.196  33.202 124.455  1.00  0.00     0.134 A 
ATOM     35  C   UNL     1      11.817  34.266 126.981  1.00  0.00     0.094 A 
ATOM     36  C   UNL     1      10.232  33.247 125.471  1.00  0.00     0.093 A 
ATOM     37  C   UNL     1      10.539  33.768 126.731  1.00  0.00     0.123 A 
BRANCH  28  38
ATOM     38  C   UNL     1      16.201  35.560 125.777  1.00  0.00     0.025 A 
ATOM     39  C   UNL     1      16.294  36.961 125.784  1.00  0.00     0.062 A 
ATOM     40  C   UNL     1      17.283  34.799 126.238  1.00  0.00     0.016 A 
ATOM     41  C   UNL     1      17.470  37.601 126.196  1.00  0.00     0.158 A 
ATOM     42  C   UNL     1      18.458  35.428 126.653  1.00  0.00     0.051 A 
ATOM     43  C   UNL     1      18.570  36.822 126.631  1.00  0.00     0.157 A 
BRANCH  41  44
ATOM     44  O   UNL     1      17.505  38.999 126.156  1.00  0.00    -0.504 OA
ATOM     45  H   UNL     1      18.087  39.567 126.752  1.00  0.00     0.293 HD
ENDBRANCH  41  44
BRANCH  43  46
ATOM     46  O   UNL     1      19.777  37.387 127.054  1.00  0.00    -0.504 OA
ATOM     47  H   UNL     1      20.684  36.996 126.848  1.00  0.00     0.293 HD
ENDBRANCH  43  46
ENDBRANCH  28  38
BRANCH  34  48
ATOM     48  O   UNL     1      10.825  32.559 123.270  1.00  0.00    -0.507 OA
ATOM     49  H   UNL     1      11.428  31.939 122.745  1.00  0.00     0.293 HD
ENDBRANCH  34  48
BRANCH  37  50
ATOM     50  O   UNL     1       9.583  33.788 127.743  1.00  0.00    -0.508 OA
ATOM     51  H   UNL     1       9.568  33.080 128.468  1.00  0.00     0.293 HD
ENDBRANCH  37  50
ENDBRANCH  26  27
ENDBRANCH   5  26
BRANCH   4  52
ATOM     52  O   UNL     1      17.604  34.034 120.915  1.00  0.00    -0.384 OA
ATOM     53  H   UNL     1      18.289  33.997 121.634  1.00  0.00     0.211 HD
ENDBRANCH   4  52
TORSDOF 16
ENDMDL
MODEL 7
REMARK VINA RESULT:    -6.789      2.058      6.326
REMARK INTER + INTRA:         -13.592
REMARK INTER:                 -11.021
REMARK INTRA:                  -2.572
REMARK UNBOUND:                -2.438
REMARK SMILES C[C@@H]1O[C@@H](OC[C@@H]2O[C@@H](Oc3c(-c4ccc(O)c(O)c4)oc4cc(O)cc(O)c4c3=O)[C@@H](O)[C@@H](O)[C@@H]2O)[C@H](O)[C@@H](O)[C@H]1O
REMARK SMILES IDX 7 1 36 2 34 3 32 4 9 5 8 6 6 7 5 8 4 9 1 10 2 11 42 12 3 13
REMARK SMILES IDX 40 14 38 15 43 16 41 18 39 20 37 22 35 24 10 26 11 27 12 28
REMARK SMILES IDX 30 29 21 30 29 31 31 32 22 33 27 34 23 35 26 36 24 37 13 38
REMARK SMILES IDX 20 39 14 40 18 41 15 42 16 43 19 44 17 46 28 48 25 50 33 52
REMARK H PARENT 43 17 41 19 39 21 37 23 35 25 19 45 17 47 28 49 25 51 33 53
REMARK Flexibility Score: inf
ROOT
ATOM      1  C   UNL     1      15.439  34.941 122.701  1.00  0.00     0.180 C 
ATOM      2  C   UNL     1      16.718  34.614 121.895  1.00  0.00     0.177 C 
ATOM      3  C   UNL     1      17.393  35.920 121.458  1.00  0.00     0.180 C 
ATOM      4  C   UNL     1      16.371  36.835 120.757  1.00  0.00     0.214 C 
ATOM      5  C   UNL     1      15.049  36.953 121.560  1.00  0.00     0.339 C 
ATOM      6  O   UNL     1      14.529  35.675 121.898  1.00  0.00    -0.332 OA
ENDROOT
BRANCH   1   7
ATOM      7  C   UNL     1      14.757  33.657 123.208  1.00  0.00     0.198 C 
BRANCH   7   8
ATOM      8  O   UNL     1      13.371  33.866 123.408  1.00  0.00    -0.347 OA
BRANCH   8   9
ATOM      9  C   UNL     1      12.686  32.686 123.812  1.00  0.00     0.281 C 
ATOM     10  C   UNL     1       9.333  34.111 124.341  1.00  0.00     0.041 C 
ATOM     11  C   UNL     1      10.832  33.916 124.586  1.00  0.00     0.150 C 
ATOM     12  C   UNL     1      11.102  33.571 126.074  1.00  0.00     0.174 C 
ATOM     13  O   UNL     1      11.278  32.867 123.741  1.00  0.00    -0.344 OA
ATOM     14  C   UNL     1      12.598  33.265 126.302  1.00  0.00     0.179 C 
ATOM     15  C   UNL     1      13.130  32.286 125.236  1.00  0.00     0.202 C 
BRANCH  12  16
ATOM     16  O   UNL     1      10.704  34.622 126.917  1.00  0.00    -0.388 OA
ATOM     17  H   UNL     1       9.716  34.672 126.862  1.00  0.00     0.211 HD
ENDBRANCH  12  16
BRANCH  14  18
ATOM     18  O   UNL     1      13.395  34.426 126.362  1.00  0.00    -0.387 OA
ATOM     19  H   UNL     1      14.023  34.346 127.122  1.00  0.00     0.211 HD
ENDBRANCH  14  18
BRANCH  15  20
ATOM     20  O   UNL     1      12.655  30.996 125.524  1.00  0.00    -0.385 OA
ATOM     21  H   UNL     1      12.386  30.995 126.482  1.00  0.00     0.211 HD
ENDBRANCH  15  20
ENDBRANCH   8   9
ENDBRANCH   7   8
ENDBRANCH   1   7
BRANCH   2  22
ATOM     22  O   UNL     1      16.400  33.857 120.754  1.00  0.00    -0.387 OA
ATOM     23  H   UNL     1      16.415  32.903 121.026  1.00  0.00     0.211 HD
ENDBRANCH   2  22
BRANCH   3  24
ATOM     24  O   UNL     1      17.944  36.558 122.582  1.00  0.00    -0.387 OA
ATOM     25  H   UNL     1      17.195  36.978 123.078  1.00  0.00     0.211 HD
ENDBRANCH   3  24
BRANCH   5  26
ATOM     26  O   UNL     1      15.177  37.755 122.746  1.00  0.00    -0.454 OA
BRANCH  26  27
ATOM     27  C   UNL     1      14.246  37.814 123.796  1.00  0.00     0.214 A 
ATOM     28  C   UNL     1      14.580  37.557 125.144  1.00  0.00     0.180 A 
ATOM     29  C   UNL     1      12.921  38.149 123.485  1.00  0.00     0.239 A 
ATOM     30  O   UNL     1      13.622  37.532 126.063  1.00  0.00    -0.452 OA
ATOM     31  C   UNL     1      11.917  38.068 124.480  1.00  0.00     0.111 A 
ATOM     32  O   UNL     1      12.656  38.534 122.317  1.00  0.00    -0.285 OA
ATOM     33  C   UNL     1      12.343  37.767 125.798  1.00  0.00     0.146 A 
ATOM     34  C   UNL     1      10.527  38.295 124.248  1.00  0.00     0.134 A 
ATOM     35  C   UNL     1      11.425  37.735 126.851  1.00  0.00     0.094 A 
ATOM     36  C   UNL     1       9.637  38.304 125.330  1.00  0.00     0.093 A 
ATOM     37  C   UNL     1      10.079  38.017 126.626  1.00  0.00     0.123 A 
BRANCH  28  38
ATOM     38  C   UNL     1      15.970  37.358 125.609  1.00  0.00     0.025 A 
ATOM     39  C   UNL     1      16.449  36.080 125.940  1.00  0.00     0.062 A 
ATOM     40  C   UNL     1      16.842  38.452 125.663  1.00  0.00     0.016 A 
ATOM     41  C   UNL     1      17.770  35.897 126.371  1.00  0.00     0.158 A 
ATOM     42  C   UNL     1      18.161  38.280 126.089  1.00  0.00     0.051 A 
ATOM     43  C   UNL     1      18.636  37.015 126.453  1.00  0.00     0.157 A 
BRANCH  41  44
ATOM     44  O   UNL     1      18.177  34.602 126.708  1.00  0.00    -0.504 OA
ATOM     45  H   UNL     1      17.563  33.898 127.089  1.00  0.00     0.293 HD
ENDBRANCH  41  44
BRANCH  43  46
ATOM     46  O   UNL     1      19.964  36.913 126.876  1.00  0.00    -0.504 OA
ATOM     47  H   UNL     1      20.365  36.079 127.277  1.00  0.00     0.293 HD
ENDBRANCH  43  46
ENDBRANCH  28  38
BRANCH  34  48
ATOM     48  O   UNL     1       9.969  38.482 122.979  1.00  0.00    -0.507 OA
ATOM     49  H   UNL     1       9.579  39.356 122.651  1.00  0.00     0.293 HD
ENDBRANCH  34  48
BRANCH  37  50
ATOM     50  O   UNL     1       9.185  38.004 127.693  1.00  0.00    -0.508 OA
ATOM     51  H   UNL     1       8.186  37.916 127.543  1.00  0.00     0.293 HD
ENDBRANCH  37  50
ENDBRANCH  26  27
ENDBRANCH   5  26
BRANCH   4  52
ATOM     52  O   UNL     1      16.921  38.102 120.526  1.00  0.00    -0.384 OA
ATOM     53  H   UNL     1      17.496  38.317 121.307  1.00  0.00     0.211 HD
ENDBRANCH   4  52
TORSDOF 16
ENDMDL
MODEL 8
REMARK VINA RESULT:    -6.765      2.107      5.881
REMARK INTER + INTRA:         -13.553
REMARK INTER:                 -11.174
REMARK INTRA:                  -2.379
REMARK UNBOUND:                -2.438
REMARK SMILES C[C@@H]1O[C@@H](OC[C@@H]2O[C@@H](Oc3c(-c4ccc(O)c(O)c4)oc4cc(O)cc(O)c4c3=O)[C@@H](O)[C@@H](O)[C@@H]2O)[C@H](O)[C@@H](O)[C@H]1O
REMARK SMILES IDX 7 1 36 2 34 3 32 4 9 5 8 6 6 7 5 8 4 9 1 10 2 11 42 12 3 13
REMARK SMILES IDX 40 14 38 15 43 16 41 18 39 20 37 22 35 24 10 26 11 27 12 28
REMARK SMILES IDX 30 29 21 30 29 31 31 32 22 33 27 34 23 35 26 36 24 37 13 38
REMARK SMILES IDX 20 39 14 40 18 41 15 42 16 43 19 44 17 46 28 48 25 50 33 52
REMARK H PARENT 43 17 41 19 39 21 37 23 35 25 19 45 17 47 28 49 25 51 33 53
REMARK Flexibility Score: inf
ROOT
ATOM      1  C   UNL     1      14.283  33.589 122.144  1.00  0.00     0.180 C 
ATOM      2  C   UNL     1      15.252  32.962 121.114  1.00  0.00     0.177 C 
ATOM      3  C   UNL     1      16.233  34.032 120.620  1.00  0.00     0.180 C 
ATOM      4  C   UNL     1      15.463  35.279 120.147  1.00  0.00     0.214 C 
ATOM      5  C   UNL     1      14.388  35.722 121.172  1.00  0.00     0.339 C 
ATOM      6  O   UNL     1      13.544  34.641 121.543  1.00  0.00    -0.332 OA
ENDROOT
BRANCH   1   7
ATOM      7  C   UNL     1      13.312  32.537 122.708  1.00  0.00     0.198 C 
BRANCH   7   8
ATOM      8  O   UNL     1      12.872  32.898 124.004  1.00  0.00    -0.347 OA
BRANCH   8   9
ATOM      9  C   UNL     1      11.500  32.593 124.227  1.00  0.00     0.281 C 
ATOM     10  C   UNL     1      10.101  35.989 123.973  1.00  0.00     0.041 C 
ATOM     11  C   UNL     1      10.954  34.861 124.558  1.00  0.00     0.150 C 
ATOM     12  C   UNL     1      10.643  34.666 126.065  1.00  0.00     0.174 C 
ATOM     13  O   UNL     1      10.669  33.677 123.832  1.00  0.00    -0.344 OA
ATOM     14  C   UNL     1      11.420  33.458 126.633  1.00  0.00     0.179 C 
ATOM     15  C   UNL     1      11.280  32.230 125.712  1.00  0.00     0.202 C 
BRANCH  12  16
ATOM     16  O   UNL     1      10.965  35.818 126.802  1.00  0.00    -0.388 OA
ATOM     17  H   UNL     1      10.130  36.111 127.250  1.00  0.00     0.211 HD
ENDBRANCH  12  16
BRANCH  14  18
ATOM     18  O   UNL     1      12.776  33.746 126.886  1.00  0.00    -0.387 OA
ATOM     19  H   UNL     1      13.217  32.933 127.237  1.00  0.00     0.211 HD
ENDBRANCH  14  18
BRANCH  15  20
ATOM     20  O   UNL     1       9.996  31.685 125.871  1.00  0.00    -0.385 OA
ATOM     21  H   UNL     1      10.034  30.751 125.529  1.00  0.00     0.211 HD
ENDBRANCH  15  20
ENDBRANCH   8   9
ENDBRANCH   7   8
ENDBRANCH   1   7
BRANCH   2  22
ATOM     22  O   UNL     1      14.538  32.452 120.015  1.00  0.00    -0.387 OA
ATOM     23  H   UNL     1      15.193  32.315 119.282  1.00  0.00     0.211 HD
ENDBRANCH   2  22
BRANCH   3  24
ATOM     24  O   UNL     1      17.125  34.359 121.656  1.00  0.00    -0.387 OA
ATOM     25  H   UNL     1      17.476  33.506 122.021  1.00  0.00     0.211 HD
ENDBRANCH   3  24
BRANCH   5  26
ATOM     26  O   UNL     1      14.945  36.329 122.350  1.00  0.00    -0.454 OA
BRANCH  26  27
ATOM     27  C   UNL     1      14.233  37.093 123.290  1.00  0.00     0.214 A 
ATOM     28  C   UNL     1      14.424  36.980 124.685  1.00  0.00     0.180 A 
ATOM     29  C   UNL     1      13.290  38.014 122.815  1.00  0.00     0.239 A 
ATOM     30  O   UNL     1      13.640  37.662 125.511  1.00  0.00    -0.452 OA
ATOM     31  C   UNL     1      12.440  38.691 123.721  1.00  0.00     0.111 A 
ATOM     32  O   UNL     1      13.234  38.231 121.577  1.00  0.00    -0.285 OA
ATOM     33  C   UNL     1      12.683  38.487 125.102  1.00  0.00     0.146 A 
ATOM     34  C   UNL     1      11.387  39.575 123.338  1.00  0.00     0.134 A 
ATOM     35  C   UNL     1      11.933  39.169 126.064  1.00  0.00     0.094 A 
ATOM     36  C   UNL     1      10.684  40.281 124.322  1.00  0.00     0.093 A 
ATOM     37  C   UNL     1      10.947  40.076 125.680  1.00  0.00     0.123 A 
BRANCH  28  38
ATOM     38  C   UNL     1      15.501  36.167 125.291  1.00  0.00     0.025 A 
ATOM     39  C   UNL     1      16.637  36.769 125.854  1.00  0.00     0.062 A 
ATOM     40  C   UNL     1      15.359  34.774 125.358  1.00  0.00     0.016 A 
ATOM     41  C   UNL     1      17.649  35.993 126.435  1.00  0.00     0.158 A 
ATOM     42  C   UNL     1      16.360  33.993 125.936  1.00  0.00     0.051 A 
ATOM     43  C   UNL     1      17.511  34.584 126.471  1.00  0.00     0.157 A 
BRANCH  41  44
ATOM     44  O   UNL     1      18.765  36.654 126.958  1.00  0.00    -0.504 OA
ATOM     45  H   UNL     1      19.652  36.210 127.138  1.00  0.00     0.293 HD
ENDBRANCH  41  44
BRANCH  43  46
ATOM     46  O   UNL     1      18.477  33.743 127.029  1.00  0.00    -0.504 OA
ATOM     47  H   UNL     1      19.359  34.065 127.398  1.00  0.00     0.293 HD
ENDBRANCH  43  46
ENDBRANCH  28  38
BRANCH  34  48
ATOM     48  O   UNL     1      10.973  39.766 122.016  1.00  0.00    -0.507 OA
ATOM     49  H   UNL     1      11.594  39.998 121.252  1.00  0.00     0.293 HD
ENDBRANCH  34  48
BRANCH  37  50
ATOM     50  O   UNL     1      10.228  40.764 126.654  1.00  0.00    -0.508 OA
ATOM     51  H   UNL     1      10.520  40.763 127.625  1.00  0.00     0.293 HD
ENDBRANCH  37  50
ENDBRANCH  26  27
ENDBRANCH   5  26
BRANCH   4  52
ATOM     52  O   UNL     1      16.348  36.331 119.875  1.00  0.00    -0.384 OA
ATOM     53  H   UNL     1      16.550  36.772 120.743  1.00  0.00     0.211 HD
ENDBRANCH   4  52
TORSDOF 16
ENDMDL
MODEL 9
REMARK VINA RESULT:    -6.616      2.152      6.072
REMARK INTER + INTRA:         -13.308
REMARK INTER:                 -10.487
REMARK INTRA:                  -2.821
REMARK UNBOUND:                -2.438
REMARK SMILES C[C@@H]1O[C@@H](OC[C@@H]2O[C@@H](Oc3c(-c4ccc(O)c(O)c4)oc4cc(O)cc(O)c4c3=O)[C@@H](O)[C@@H](O)[C@@H]2O)[C@H](O)[C@@H](O)[C@H]1O
REMARK SMILES IDX 7 1 36 2 34 3 32 4 9 5 8 6 6 7 5 8 4 9 1 10 2 11 42 12 3 13
REMARK SMILES IDX 40 14 38 15 43 16 41 18 39 20 37 22 35 24 10 26 11 27 12 28
REMARK SMILES IDX 30 29 21 30 29 31 31 32 22 33 27 34 23 35 26 36 24 37 13 38
REMARK SMILES IDX 20 39 14 40 18 41 15 42 16 43 19 44 17 46 28 48 25 50 33 52
REMARK H PARENT 43 17 41 19 39 21 37 23 35 25 19 45 17 47 28 49 25 51 33 53
REMARK Flexibility Score: inf
ROOT
ATOM      1  C   UNL     1      12.540  36.193 122.210  1.00  0.00     0.180 C 
ATOM      2  C   UNL     1      11.895  36.662 120.884  1.00  0.00     0.177 C 
ATOM      3  C   UNL     1      10.890  37.783 121.175  1.00  0.00     0.180 C 
ATOM      4  C   UNL     1       9.912  37.343 122.280  1.00  0.00     0.214 C 
ATOM      5  C   UNL     1      10.648  36.718 123.494  1.00  0.00     0.339 C 
ATOM      6  O   UNL     1      11.544  35.693 123.088  1.00  0.00    -0.332 OA
ENDROOT
BRANCH   1   7
ATOM      7  C   UNL     1      13.598  35.104 121.959  1.00  0.00     0.198 C 
BRANCH   7   8
ATOM      8  O   UNL     1      14.830  35.446 122.566  1.00  0.00    -0.347 OA
BRANCH   8   9
ATOM      9  C   UNL     1      14.975  36.847 122.772  1.00  0.00     0.281 C 
ATOM     10  C   UNL     1      17.245  37.612 119.976  1.00  0.00     0.041 C 
ATOM     11  C   UNL     1      16.805  36.968 121.293  1.00  0.00     0.150 C 
ATOM     12  C   UNL     1      17.820  37.285 122.422  1.00  0.00     0.174 C 
ATOM     13  O   UNL     1      15.521  37.474 121.619  1.00  0.00    -0.344 OA
ATOM     14  C   UNL     1      17.325  36.730 123.775  1.00  0.00     0.179 C 
ATOM     15  C   UNL     1      15.849  37.105 124.019  1.00  0.00     0.202 C 
BRANCH  12  16
ATOM     16  O   UNL     1      19.086  36.748 122.130  1.00  0.00    -0.388 OA
ATOM     17  H   UNL     1      19.190  35.942 122.697  1.00  0.00     0.211 HD
ENDBRANCH  12  16
BRANCH  14  18
ATOM     18  O   UNL     1      17.520  35.340 123.905  1.00  0.00    -0.387 OA
ATOM     19  H   UNL     1      17.424  35.090 124.857  1.00  0.00     0.211 HD
ENDBRANCH  14  18
BRANCH  15  20
ATOM     20  O   UNL     1      15.775  38.464 124.364  1.00  0.00    -0.385 OA
ATOM     21  H   UNL     1      16.158  38.551 125.278  1.00  0.00     0.211 HD
ENDBRANCH  15  20
ENDBRANCH   8   9
ENDBRANCH   7   8
ENDBRANCH   1   7
BRANCH   2  22
ATOM     22  O   UNL     1      11.225  35.595 120.259  1.00  0.00    -0.387 OA
ATOM     23  H   UNL     1      10.410  35.973 119.837  1.00  0.00     0.211 HD
ENDBRANCH   2  22
BRANCH   3  24
ATOM     24  O   UNL     1      11.584  38.943 121.556  1.00  0.00    -0.387 OA
ATOM     25  H   UNL     1      12.142  39.219 120.783  1.00  0.00     0.211 HD
ENDBRANCH   3  24
BRANCH   5  26
ATOM     26  O   UNL     1      11.348  37.688 124.291  1.00  0.00    -0.454 OA
BRANCH  26  27
ATOM     27  C   UNL     1      11.149  37.913 125.664  1.00  0.00     0.214 A 
ATOM     28  C   UNL     1      11.327  36.915 126.647  1.00  0.00     0.180 A 
ATOM     29  C   UNL     1      10.757  39.195 126.073  1.00  0.00     0.239 A 
ATOM     30  O   UNL     1      11.019  37.178 127.911  1.00  0.00    -0.452 OA
ATOM     31  C   UNL     1      10.393  39.429 127.420  1.00  0.00     0.111 A 
ATOM     32  O   UNL     1      10.754  40.122 125.222  1.00  0.00    -0.285 OA
ATOM     33  C   UNL     1      10.571  38.356 128.328  1.00  0.00     0.146 A 
ATOM     34  C   UNL     1       9.892  40.668 127.920  1.00  0.00     0.134 A 
ATOM     35  C   UNL     1      10.300  38.524 129.689  1.00  0.00     0.094 A 
ATOM     36  C   UNL     1       9.674  40.823 129.295  1.00  0.00     0.093 A 
ATOM     37  C   UNL     1       9.868  39.756 130.177  1.00  0.00     0.123 A 
BRANCH  28  38
ATOM     38  C   UNL     1      11.894  35.581 126.352  1.00  0.00     0.025 A 
ATOM     39  C   UNL     1      13.249  35.425 126.020  1.00  0.00     0.062 A 
ATOM     40  C   UNL     1      11.081  34.446 126.463  1.00  0.00     0.016 A 
ATOM     41  C   UNL     1      13.782  34.157 125.750  1.00  0.00     0.158 A 
ATOM     42  C   UNL     1      11.603  33.178 126.199  1.00  0.00     0.051 A 
ATOM     43  C   UNL     1      12.945  33.018 125.835  1.00  0.00     0.157 A 
BRANCH  41  44
ATOM     44  O   UNL     1      15.135  34.074 125.403  1.00  0.00    -0.504 OA
ATOM     45  H   UNL     1      15.871  33.840 126.051  1.00  0.00     0.293 HD
ENDBRANCH  41  44
BRANCH  43  46
ATOM     46  O   UNL     1      13.401  31.723 125.579  1.00  0.00    -0.504 OA
ATOM     47  H   UNL     1      14.358  31.428 125.703  1.00  0.00     0.293 HD
ENDBRANCH  43  46
ENDBRANCH  28  38
BRANCH  34  48
ATOM     48  O   UNL     1       9.561  41.759 127.109  1.00  0.00    -0.507 OA
ATOM     49  H   UNL     1       9.982  42.676 127.187  1.00  0.00     0.293 HD
ENDBRANCH  34  48
BRANCH  37  50
ATOM     50  O   UNL     1       9.627  39.910 131.540  1.00  0.00    -0.508 OA
ATOM     51  H   UNL     1       8.684  39.988 131.903  1.00  0.00     0.293 HD
ENDBRANCH  37  50
ENDBRANCH  26  27
ENDBRANCH   5  26
BRANCH   4  52
ATOM     52  O   UNL     1       9.114  38.420 122.690  1.00  0.00    -0.384 OA
ATOM     53  H   UNL     1       8.926  38.291 123.657  1.00  0.00     0.211 HD
ENDBRANCH   4  52
TORSDOF 16
ENDMDL
