MODEL 1
REMARK VINA RESULT:    -4.779      0.000      0.000
REMARK INTER + INTRA:         -16.764
REMARK INTER:                 -12.601
REMARK INTRA:                  -4.163
REMARK UNBOUND:                -4.163
REMARK SMILES CCCCCCCCCCCCCCCCCCCCCCCCCCCCCC(=O)[O-]
REMARK SMILES IDX 16 1 17 2 18 3 19 4 20 5 21 6 22 7 23 8 24 9 25 10 26 11
REMARK SMILES IDX 27 12 28 13 29 14 30 15 31 16 32 17 15 18 14 19 13 20 12 21
REMARK SMILES IDX 11 22 10 23 9 24 8 25 7 26 6 27 5 28 4 29 3 30 2 31 1 32
REMARK H PARENT
REMARK Flexibility Score: inf
ROOT
ATOM      1  C   UNL     1      26.322   2.888  13.243  1.00  0.00     0.000 C 
ENDROOT
BRANCH   1   2
ATOM      2  C   UNL     1      27.599   3.737  13.278  1.00  0.00     0.000 C 
BRANCH   2   3
ATOM      3  C   UNL     1      27.268   5.232  13.163  1.00  0.00     0.000 C 
BRANCH   3   4
ATOM      4  C   UNL     1      28.069   6.107  14.144  1.00  0.00     0.000 C 
BRANCH   4   5
ATOM      5  C   UNL     1      28.442   7.507  13.620  1.00  0.00     0.000 C 
BRANCH   5   6
ATOM      6  C   UNL     1      28.155   7.686  12.120  1.00  0.00     0.000 C 
BRANCH   6   7
ATOM      7  C   UNL     1      28.001   9.173  11.763  1.00  0.00     0.000 C 
BRANCH   7   8
ATOM      8  C   UNL     1      28.692  10.099  12.787  1.00  0.00     0.000 C 
BRANCH   8   9
ATOM      9  C   UNL     1      28.037  11.485  12.913  1.00  0.00     0.000 C 
BRANCH   9  10
ATOM     10  C   UNL     1      26.552  11.487  12.516  1.00  0.00     0.000 C 
BRANCH  10  11
ATOM     11  C   UNL     1      26.165  12.725  11.693  1.00  0.00     0.000 C 
BRANCH  11  12
ATOM     12  C   UNL     1      27.236  13.828  11.746  1.00  0.00     0.000 C 
BRANCH  12  13
ATOM     13  C   UNL     1      26.643  15.238  11.569  1.00  0.00     0.006 C 
BRANCH  13  14
ATOM     14  C   UNL     1      25.413  15.293  10.648  1.00  0.00     0.053 C 
BRANCH  14  15
ATOM     15  C   UNL     1      24.226  15.895  11.335  1.00  0.00     0.041 C 
ATOM     16  O   UNL     1      24.206  17.124  11.606  1.00  0.00    -0.550 OA
ATOM     17  O   UNL     1      23.158  15.089  11.709  1.00  0.00    -0.550 OA
ENDBRANCH  14  15
ENDBRANCH  13  14
ENDBRANCH  12  13
ENDBRANCH  11  12
ENDBRANCH  10  11
ENDBRANCH   9  10
ENDBRANCH   8   9
ENDBRANCH   7   8
ENDBRANCH   6   7
ENDBRANCH   5   6
ENDBRANCH   4   5
ENDBRANCH   3   4
ENDBRANCH   2   3
ENDBRANCH   1   2
BRANCH   1  18
ATOM     18  C   UNL     1      25.073   3.768  13.371  1.00  0.00     0.000 C 
BRANCH  18  19
ATOM     19  C   UNL     1      24.350   3.512  14.699  1.00  0.00     0.000 C 
BRANCH  19  20
ATOM     20  C   UNL     1      23.376   4.655  15.021  1.00  0.00     0.000 C 
BRANCH  20  21
ATOM     21  C   UNL     1      23.307   5.706  13.904  1.00  0.00     0.000 C 
BRANCH  21  22
ATOM     22  C   UNL     1      23.425   7.143  14.442  1.00  0.00     0.000 C 
BRANCH  22  23
ATOM     23  C   UNL     1      24.695   7.852  13.937  1.00  0.00     0.000 C 
BRANCH  23  24
ATOM     24  C   UNL     1      25.064   9.117  14.747  1.00  0.00    -0.000 C 
BRANCH  24  25
ATOM     25  C   UNL     1      25.616   8.812  16.152  1.00  0.00    -0.000 C 
BRANCH  25  26
ATOM     26  C   UNL     1      24.886   9.532  17.302  1.00  0.00    -0.000 C 
BRANCH  26  27
ATOM     27  C   UNL     1      23.837   8.680  18.043  1.00  0.00    -0.000 C 
BRANCH  27  28
ATOM     28  C   UNL     1      22.473   8.658  17.338  1.00  0.00    -0.000 C 
BRANCH  28  29
ATOM     29  C   UNL     1      21.588   9.815  17.824  1.00  0.00    -0.000 C 
BRANCH  29  30
ATOM     30  C   UNL     1      20.903  10.564  16.671  1.00  0.00    -0.000 C 
BRANCH  30  31
ATOM     31  C   UNL     1      21.816  10.733  15.447  1.00  0.00    -0.003 C 
ATOM     32  C   UNL     1      20.998  10.985  14.183  1.00  0.00     0.004 C 
ENDBRANCH  30  31
ENDBRANCH  29  30
ENDBRANCH  28  29
ENDBRANCH  27  28
ENDBRANCH  26  27
ENDBRANCH  25  26
ENDBRANCH  24  25
ENDBRANCH  23  24
ENDBRANCH  22  23
ENDBRANCH  21  22
ENDBRANCH  20  21
ENDBRANCH  19  20
ENDBRANCH  18  19
ENDBRANCH   1  18
TORSDOF 28
ENDMDL
MODEL 2
REMARK VINA RESULT:    -4.691      3.743      7.288
REMARK INTER + INTRA:         -16.531
REMARK INTER:                 -11.270
REMARK INTRA:                  -5.261
REMARK UNBOUND:                -4.163
REMARK SMILES CCCCCCCCCCCCCCCCCCCCCCCCCCCCCC(=O)[O-]
REMARK SMILES IDX 16 1 17 2 18 3 19 4 20 5 21 6 22 7 23 8 24 9 25 10 26 11
REMARK SMILES IDX 27 12 28 13 29 14 30 15 31 16 32 17 15 18 14 19 13 20 12 21
REMARK SMILES IDX 11 22 10 23 9 24 8 25 7 26 6 27 5 28 4 29 3 30 2 31 1 32
REMARK H PARENT
REMARK Flexibility Score: inf
ROOT
ATOM      1  C   UNL     1      27.065   9.904  12.188  1.00  0.00     0.000 C 
ENDROOT
BRANCH   1   2
ATOM      2  C   UNL     1      28.400   9.258  11.799  1.00  0.00     0.000 C 
BRANCH   2   3
ATOM      3  C   UNL     1      28.845   8.237  12.856  1.00  0.00     0.000 C 
BRANCH   3   4
ATOM      4  C   UNL     1      28.101   6.893  12.749  1.00  0.00     0.000 C 
BRANCH   4   5
ATOM      5  C   UNL     1      27.615   6.305  14.088  1.00  0.00     0.000 C 
BRANCH   5   6
ATOM      6  C   UNL     1      27.243   7.381  15.120  1.00  0.00     0.000 C 
BRANCH   6   7
ATOM      7  C   UNL     1      25.742   7.331  15.451  1.00  0.00     0.000 C 
BRANCH   7   8
ATOM      8  C   UNL     1      24.874   7.970  14.346  1.00  0.00     0.000 C 
BRANCH   8   9
ATOM      9  C   UNL     1      23.504   7.297  14.164  1.00  0.00     0.000 C 
BRANCH   9  10
ATOM     10  C   UNL     1      23.235   6.191  15.197  1.00  0.00     0.000 C 
BRANCH  10  11
ATOM     11  C   UNL     1      23.122   4.800  14.555  1.00  0.00     0.000 C 
BRANCH  11  12
ATOM     12  C   UNL     1      24.347   3.916  14.844  1.00  0.00     0.000 C 
BRANCH  12  13
ATOM     13  C   UNL     1      25.211   3.673  13.593  1.00  0.00     0.006 C 
BRANCH  13  14
ATOM     14  C   UNL     1      26.086   2.411  13.665  1.00  0.00     0.053 C 
BRANCH  14  15
ATOM     15  C   UNL     1      27.228   2.464  12.699  1.00  0.00     0.041 C 
ATOM     16  O   UNL     1      28.235   1.727  12.866  1.00  0.00    -0.550 OA
ATOM     17  O   UNL     1      27.197   3.356  11.635  1.00  0.00    -0.550 OA
ENDBRANCH  14  15
ENDBRANCH  13  14
ENDBRANCH  12  13
ENDBRANCH  11  12
ENDBRANCH  10  11
ENDBRANCH   9  10
ENDBRANCH   8   9
ENDBRANCH   7   8
ENDBRANCH   6   7
ENDBRANCH   5   6
ENDBRANCH   4   5
ENDBRANCH   3   4
ENDBRANCH   2   3
ENDBRANCH   1   2
BRANCH   1  18
ATOM     18  C   UNL     1      27.169  11.433  12.174  1.00  0.00     0.000 C 
BRANCH  18  19
ATOM     19  C   UNL     1      27.184  12.000  13.598  1.00  0.00     0.000 C 
BRANCH  19  20
ATOM     20  C   UNL     1      26.123  11.313  14.472  1.00  0.00     0.000 C 
BRANCH  20  21
ATOM     21  C   UNL     1      26.663  10.909  15.851  1.00  0.00     0.000 C 
BRANCH  21  22
ATOM     22  C   UNL     1      26.118  11.802  16.979  1.00  0.00     0.000 C 
BRANCH  22  23
ATOM     23  C   UNL     1      24.895  11.178  17.678  1.00  0.00     0.000 C 
BRANCH  23  24
ATOM     24  C   UNL     1      25.221   9.888  18.465  1.00  0.00    -0.000 C 
BRANCH  24  25
ATOM     25  C   UNL     1      23.972   9.114  18.928  1.00  0.00    -0.000 C 
BRANCH  25  26
ATOM     26  C   UNL     1      23.116   8.532  17.788  1.00  0.00    -0.000 C 
BRANCH  26  27
ATOM     27  C   UNL     1      21.600   8.783  17.918  1.00  0.00    -0.000 C 
BRANCH  27  28
ATOM     28  C   UNL     1      21.255  10.258  18.172  1.00  0.00    -0.000 C 
BRANCH  28  29
ATOM     29  C   UNL     1      20.562  10.876  16.948  1.00  0.00    -0.000 C 
BRANCH  29  30
ATOM     30  C   UNL     1      21.293  12.117  16.414  1.00  0.00    -0.000 C 
BRANCH  30  31
ATOM     31  C   UNL     1      22.327  11.777  15.331  1.00  0.00    -0.003 C 
ATOM     32  C   UNL     1      21.896  10.555  14.524  1.00  0.00     0.004 C 
ENDBRANCH  30  31
ENDBRANCH  29  30
ENDBRANCH  28  29
ENDBRANCH  27  28
ENDBRANCH  26  27
ENDBRANCH  25  26
ENDBRANCH  24  25
ENDBRANCH  23  24
ENDBRANCH  22  23
ENDBRANCH  21  22
ENDBRANCH  20  21
ENDBRANCH  19  20
ENDBRANCH  18  19
ENDBRANCH   1  18
TORSDOF 28
ENDMDL
MODEL 3
REMARK VINA RESULT:    -4.660      2.981      7.295
REMARK INTER + INTRA:         -16.450
REMARK INTER:                 -10.860
REMARK INTRA:                  -5.590
REMARK UNBOUND:                -4.163
REMARK SMILES CCCCCCCCCCCCCCCCCCCCCCCCCCCCCC(=O)[O-]
REMARK SMILES IDX 16 1 17 2 18 3 19 4 20 5 21 6 22 7 23 8 24 9 25 10 26 11
REMARK SMILES IDX 27 12 28 13 29 14 30 15 31 16 32 17 15 18 14 19 13 20 12 21
REMARK SMILES IDX 11 22 10 23 9 24 8 25 7 26 6 27 5 28 4 29 3 30 2 31 1 32
REMARK H PARENT
REMARK Flexibility Score: inf
ROOT
ATOM      1  C   UNL     1      24.769   7.697  14.256  1.00  0.00     0.000 C 
ENDROOT
BRANCH   1   2
ATOM      2  C   UNL     1      25.076   9.184  14.475  1.00  0.00     0.000 C 
BRANCH   2   3
ATOM      3  C   UNL     1      23.787  10.017  14.476  1.00  0.00     0.000 C 
BRANCH   3   4
ATOM      4  C   UNL     1      23.945  11.376  15.182  1.00  0.00     0.000 C 
BRANCH   4   5
ATOM      5  C   UNL     1      22.647  11.963  15.770  1.00  0.00     0.000 C 
BRANCH   5   6
ATOM      6  C   UNL     1      22.746  12.260  17.275  1.00  0.00     0.000 C 
BRANCH   6   7
ATOM      7  C   UNL     1      21.627  11.547  18.052  1.00  0.00     0.000 C 
BRANCH   7   8
ATOM      8  C   UNL     1      21.138  10.269  17.339  1.00  0.00     0.000 C 
BRANCH   8   9
ATOM      9  C   UNL     1      21.367   8.980  18.145  1.00  0.00     0.000 C 
BRANCH   9  10
ATOM     10  C   UNL     1      22.488   8.100  17.568  1.00  0.00     0.000 C 
BRANCH  10  11
ATOM     11  C   UNL     1      23.883   8.704  17.787  1.00  0.00     0.000 C 
BRANCH  11  12
ATOM     12  C   UNL     1      24.190   8.956  19.274  1.00  0.00     0.000 C 
BRANCH  12  13
ATOM     13  C   UNL     1      25.084  10.190  19.493  1.00  0.00     0.006 C 
BRANCH  13  14
ATOM     14  C   UNL     1      25.894  10.609  18.255  1.00  0.00     0.053 C 
BRANCH  14  15
ATOM     15  C   UNL     1      27.308  10.119  18.317  1.00  0.00     0.041 C 
ATOM     16  O   UNL     1      27.617   9.010  17.806  1.00  0.00    -0.550 OA
ATOM     17  O   UNL     1      28.274  10.868  18.974  1.00  0.00    -0.550 OA
ENDBRANCH  14  15
ENDBRANCH  13  14
ENDBRANCH  12  13
ENDBRANCH  11  12
ENDBRANCH  10  11
ENDBRANCH   9  10
ENDBRANCH   8   9
ENDBRANCH   7   8
ENDBRANCH   6   7
ENDBRANCH   5   6
ENDBRANCH   4   5
ENDBRANCH   3   4
ENDBRANCH   2   3
ENDBRANCH   1   2
BRANCH   1  18
ATOM     18  C   UNL     1      23.320   7.497  13.800  1.00  0.00     0.000 C 
BRANCH  18  19
ATOM     19  C   UNL     1      22.909   6.022  13.893  1.00  0.00     0.000 C 
BRANCH  19  20
ATOM     20  C   UNL     1      23.568   5.346  15.105  1.00  0.00     0.000 C 
BRANCH  20  21
ATOM     21  C   UNL     1      24.089   3.937  14.785  1.00  0.00     0.000 C 
BRANCH  21  22
ATOM     22  C   UNL     1      24.867   3.886  13.459  1.00  0.00     0.000 C 
BRANCH  22  23
ATOM     23  C   UNL     1      26.083   2.944  13.532  1.00  0.00     0.000 C 
BRANCH  23  24
ATOM     24  C   UNL     1      27.427   3.641  13.216  1.00  0.00    -0.000 C 
BRANCH  24  25
ATOM     25  C   UNL     1      27.306   5.167  13.039  1.00  0.00    -0.000 C 
BRANCH  25  26
ATOM     26  C   UNL     1      28.094   6.000  14.067  1.00  0.00    -0.000 C 
BRANCH  26  27
ATOM     27  C   UNL     1      28.552   7.385  13.570  1.00  0.00    -0.000 C 
BRANCH  27  28
ATOM     28  C   UNL     1      28.216   7.634  12.091  1.00  0.00    -0.000 C 
BRANCH  28  29
ATOM     29  C   UNL     1      27.765   9.086  11.871  1.00  0.00    -0.000 C 
BRANCH  29  30
ATOM     30  C   UNL     1      28.460  10.074  12.818  1.00  0.00    -0.000 C 
BRANCH  30  31
ATOM     31  C   UNL     1      28.026  11.528  12.582  1.00  0.00    -0.003 C 
ATOM     32  C   UNL     1      26.572  11.599  12.123  1.00  0.00     0.004 C 
ENDBRANCH  30  31
ENDBRANCH  29  30
ENDBRANCH  28  29
ENDBRANCH  27  28
ENDBRANCH  26  27
ENDBRANCH  25  26
ENDBRANCH  24  25
ENDBRANCH  23  24
ENDBRANCH  22  23
ENDBRANCH  21  22
ENDBRANCH  20  21
ENDBRANCH  19  20
ENDBRANCH  18  19
ENDBRANCH   1  18
TORSDOF 28
ENDMDL
MODEL 4
REMARK VINA RESULT:    -4.610      1.787      4.882
REMARK INTER + INTRA:         -16.320
REMARK INTER:                 -11.076
REMARK INTRA:                  -5.244
REMARK UNBOUND:                -4.163
REMARK SMILES CCCCCCCCCCCCCCCCCCCCCCCCCCCCCC(=O)[O-]
REMARK SMILES IDX 16 1 17 2 18 3 19 4 20 5 21 6 22 7 23 8 24 9 25 10 26 11
REMARK SMILES IDX 27 12 28 13 29 14 30 15 31 16 32 17 15 18 14 19 13 20 12 21
REMARK SMILES IDX 11 22 10 23 9 24 8 25 7 26 6 27 5 28 4 29 3 30 2 31 1 32
REMARK H PARENT
REMARK Flexibility Score: inf
ROOT
ATOM      1  C   UNL     1      26.952   7.843  13.616  1.00  0.00     0.000 C 
ENDROOT
BRANCH   1   2
ATOM      2  C   UNL     1      26.543   9.158  12.941  1.00  0.00     0.000 C 
BRANCH   2   3
ATOM      3  C   UNL     1      27.468   9.481  11.759  1.00  0.00     0.000 C 
BRANCH   3   4
ATOM      4  C   UNL     1      28.733   8.605  11.725  1.00  0.00     0.000 C 
BRANCH   4   5
ATOM      5  C   UNL     1      30.052   9.350  12.011  1.00  0.00     0.000 C 
BRANCH   5   6
ATOM      6  C   UNL     1      30.319   9.551  13.511  1.00  0.00     0.000 C 
BRANCH   6   7
ATOM      7  C   UNL     1      30.134  11.023  13.911  1.00  0.00     0.000 C 
BRANCH   7   8
ATOM      8  C   UNL     1      30.120  11.968  12.690  1.00  0.00     0.000 C 
BRANCH   8   9
ATOM      9  C   UNL     1      28.873  12.863  12.609  1.00  0.00     0.000 C 
BRANCH   9  10
ATOM     10  C   UNL     1      27.872  12.605  13.747  1.00  0.00     0.000 C 
BRANCH  10  11
ATOM     11  C   UNL     1      26.427  12.940  13.348  1.00  0.00     0.000 C 
BRANCH  11  12
ATOM     12  C   UNL     1      26.199  12.854  11.829  1.00  0.00     0.000 C 
BRANCH  12  13
ATOM     13  C   UNL     1      25.783  14.202  11.215  1.00  0.00     0.006 C 
BRANCH  13  14
ATOM     14  C   UNL     1      25.897  15.396  12.178  1.00  0.00     0.053 C 
BRANCH  14  15
ATOM     15  C   UNL     1      27.108  16.231  11.895  1.00  0.00     0.041 C 
ATOM     16  O   UNL     1      27.916  16.508  12.819  1.00  0.00    -0.550 OA
ATOM     17  O   UNL     1      27.321  16.734  10.619  1.00  0.00    -0.550 OA
ENDBRANCH  14  15
ENDBRANCH  13  14
ENDBRANCH  12  13
ENDBRANCH  11  12
ENDBRANCH  10  11
ENDBRANCH   9  10
ENDBRANCH   8   9
ENDBRANCH   7   8
ENDBRANCH   6   7
ENDBRANCH   5   6
ENDBRANCH   4   5
ENDBRANCH   3   4
ENDBRANCH   2   3
ENDBRANCH   1   2
BRANCH   1  18
ATOM     18  C   UNL     1      27.037   8.009  15.137  1.00  0.00     0.000 C 
BRANCH  18  19
ATOM     19  C   UNL     1      26.897   9.481  15.542  1.00  0.00     0.000 C 
BRANCH  19  20
ATOM     20  C   UNL     1      25.796   9.656  16.599  1.00  0.00     0.000 C 
BRANCH  20  21
ATOM     21  C   UNL     1      25.139   8.325  16.995  1.00  0.00     0.000 C 
BRANCH  21  22
ATOM     22  C   UNL     1      23.647   8.274  16.624  1.00  0.00     0.000 C 
BRANCH  22  23
ATOM     23  C   UNL     1      23.304   9.216  15.455  1.00  0.00     0.000 C 
BRANCH  23  24
ATOM     24  C   UNL     1      22.646   8.500  14.253  1.00  0.00    -0.000 C 
BRANCH  24  25
ATOM     25  C   UNL     1      23.505   7.365  13.663  1.00  0.00    -0.000 C 
BRANCH  25  26
ATOM     26  C   UNL     1      22.859   5.969  13.724  1.00  0.00    -0.000 C 
BRANCH  26  27
ATOM     27  C   UNL     1      23.219   5.138  14.972  1.00  0.00    -0.000 C 
BRANCH  27  28
ATOM     28  C   UNL     1      24.508   4.321  14.800  1.00  0.00    -0.000 C 
BRANCH  28  29
ATOM     29  C   UNL     1      24.632   3.793  13.363  1.00  0.00    -0.000 C 
BRANCH  29  30
ATOM     30  C   UNL     1      25.764   2.767  13.202  1.00  0.00    -0.000 C 
BRANCH  30  31
ATOM     31  C   UNL     1      26.936   3.302  12.367  1.00  0.00    -0.003 C 
ATOM     32  C   UNL     1      27.670   4.419  13.102  1.00  0.00     0.004 C 
ENDBRANCH  30  31
ENDBRANCH  29  30
ENDBRANCH  28  29
ENDBRANCH  27  28
ENDBRANCH  26  27
ENDBRANCH  25  26
ENDBRANCH  24  25
ENDBRANCH  23  24
ENDBRANCH  22  23
ENDBRANCH  21  22
ENDBRANCH  20  21
ENDBRANCH  19  20
ENDBRANCH  18  19
ENDBRANCH   1  18
TORSDOF 28
ENDMDL
MODEL 5
REMARK VINA RESULT:    -4.610      1.971      5.259
REMARK INTER + INTRA:         -16.318
REMARK INTER:                 -10.604
REMARK INTRA:                  -5.714
REMARK UNBOUND:                -4.163
REMARK SMILES CCCCCCCCCCCCCCCCCCCCCCCCCCCCCC(=O)[O-]
REMARK SMILES IDX 16 1 17 2 18 3 19 4 20 5 21 6 22 7 23 8 24 9 25 10 26 11
REMARK SMILES IDX 27 12 28 13 29 14 30 15 31 16 32 17 15 18 14 19 13 20 12 21
REMARK SMILES IDX 11 22 10 23 9 24 8 25 7 26 6 27 5 28 4 29 3 30 2 31 1 32
REMARK H PARENT
REMARK Flexibility Score: inf
ROOT
ATOM      1  C   UNL     1      28.519   8.838  11.730  1.00  0.00     0.000 C 
ENDROOT
BRANCH   1   2
ATOM      2  C   UNL     1      29.954   9.249  12.081  1.00  0.00     0.000 C 
BRANCH   2   3
ATOM      3  C   UNL     1      30.013  10.716  12.527  1.00  0.00     0.000 C 
BRANCH   3   4
ATOM      4  C   UNL     1      28.673  11.234  13.081  1.00  0.00     0.000 C 
BRANCH   4   5
ATOM      5  C   UNL     1      28.533  11.180  14.614  1.00  0.00     0.000 C 
BRANCH   5   6
ATOM      6  C   UNL     1      27.108  10.840  15.079  1.00  0.00     0.000 C 
BRANCH   6   7
ATOM      7  C   UNL     1      26.155  10.705  13.881  1.00  0.00     0.000 C 
BRANCH   7   8
ATOM      8  C   UNL     1      24.680  10.937  14.271  1.00  0.00     0.000 C 
BRANCH   8   9
ATOM      9  C   UNL     1      24.472  12.106  15.248  1.00  0.00     0.000 C 
BRANCH   9  10
ATOM     10  C   UNL     1      23.648  13.255  14.645  1.00  0.00     0.000 C 
BRANCH  10  11
ATOM     11  C   UNL     1      24.503  14.492  14.332  1.00  0.00     0.000 C 
BRANCH  11  12
ATOM     12  C   UNL     1      25.899  14.423  14.976  1.00  0.00     0.000 C 
BRANCH  12  13
ATOM     13  C   UNL     1      27.034  14.468  13.937  1.00  0.00     0.006 C 
BRANCH  13  14
ATOM     14  C   UNL     1      26.735  15.353  12.715  1.00  0.00     0.053 C 
BRANCH  14  15
ATOM     15  C   UNL     1      26.787  14.578  11.435  1.00  0.00     0.041 C 
ATOM     16  O   UNL     1      27.222  15.118  10.384  1.00  0.00    -0.550 OA
ATOM     17  O   UNL     1      26.317  13.272  11.395  1.00  0.00    -0.550 OA
ENDBRANCH  14  15
ENDBRANCH  13  14
ENDBRANCH  12  13
ENDBRANCH  11  12
ENDBRANCH  10  11
ENDBRANCH   9  10
ENDBRANCH   8   9
ENDBRANCH   7   8
ENDBRANCH   6   7
ENDBRANCH   5   6
ENDBRANCH   4   5
ENDBRANCH   3   4
ENDBRANCH   2   3
ENDBRANCH   1   2
BRANCH   1  18
ATOM     18  C   UNL     1      28.070   7.635  12.567  1.00  0.00     0.000 C 
BRANCH  18  19
ATOM     19  C   UNL     1      29.040   7.374  13.725  1.00  0.00     0.000 C 
BRANCH  19  20
ATOM     20  C   UNL     1      28.296   7.361  15.069  1.00  0.00     0.000 C 
BRANCH  20  21
ATOM     21  C   UNL     1      26.786   7.132  14.908  1.00  0.00     0.000 C 
BRANCH  21  22
ATOM     22  C   UNL     1      26.064   7.000  16.260  1.00  0.00     0.000 C 
BRANCH  22  23
ATOM     23  C   UNL     1      24.971   8.069  16.445  1.00  0.00     0.000 C 
BRANCH  23  24
ATOM     24  C   UNL     1      23.557   7.586  16.049  1.00  0.00    -0.000 C 
BRANCH  24  25
ATOM     25  C   UNL     1      23.359   7.436  14.529  1.00  0.00    -0.000 C 
BRANCH  25  26
ATOM     26  C   UNL     1      23.157   5.988  14.045  1.00  0.00    -0.000 C 
BRANCH  26  27
ATOM     27  C   UNL     1      23.045   4.936  15.166  1.00  0.00    -0.000 C 
BRANCH  27  28
ATOM     28  C   UNL     1      24.049   3.784  15.013  1.00  0.00    -0.000 C 
BRANCH  28  29
ATOM     29  C   UNL     1      25.134   4.137  13.984  1.00  0.00    -0.000 C 
BRANCH  29  30
ATOM     30  C   UNL     1      25.333   3.038  12.930  1.00  0.00    -0.000 C 
BRANCH  30  31
ATOM     31  C   UNL     1      26.808   2.656  12.742  1.00  0.00    -0.003 C 
ATOM     32  C   UNL     1      27.720   3.860  12.963  1.00  0.00     0.004 C 
ENDBRANCH  30  31
ENDBRANCH  29  30
ENDBRANCH  28  29
ENDBRANCH  27  28
ENDBRANCH  26  27
ENDBRANCH  25  26
ENDBRANCH  24  25
ENDBRANCH  23  24
ENDBRANCH  22  23
ENDBRANCH  21  22
ENDBRANCH  20  21
ENDBRANCH  19  20
ENDBRANCH  18  19
ENDBRANCH   1  18
TORSDOF 28
ENDMDL
MODEL 6
REMARK VINA RESULT:    -4.606      4.752      9.283
REMARK INTER + INTRA:         -16.308
REMARK INTER:                 -12.985
REMARK INTRA:                  -3.323
REMARK UNBOUND:                -4.163
REMARK SMILES CCCCCCCCCCCCCCCCCCCCCCCCCCCCCC(=O)[O-]
REMARK SMILES IDX 16 1 17 2 18 3 19 4 20 5 21 6 22 7 23 8 24 9 25 10 26 11
REMARK SMILES IDX 27 12 28 13 29 14 30 15 31 16 32 17 15 18 14 19 13 20 12 21
REMARK SMILES IDX 11 22 10 23 9 24 8 25 7 26 6 27 5 28 4 29 3 30 2 31 1 32
REMARK H PARENT
REMARK Flexibility Score: inf
ROOT
ATOM      1  C   UNL     1      18.392  10.578  10.994  1.00  0.00     0.000 C 
ENDROOT
BRANCH   1   2
ATOM      2  C   UNL     1      18.205   9.922   9.620  1.00  0.00     0.000 C 
BRANCH   2   3
ATOM      3  C   UNL     1      16.733   9.562   9.378  1.00  0.00     0.000 C 
BRANCH   3   4
ATOM      4  C   UNL     1      15.753  10.549  10.039  1.00  0.00     0.000 C 
BRANCH   4   5
ATOM      5  C   UNL     1      14.988  11.464   9.063  1.00  0.00     0.000 C 
BRANCH   5   6
ATOM      6  C   UNL     1      14.605  12.819   9.680  1.00  0.00     0.000 C 
BRANCH   6   7
ATOM      7  C   UNL     1      15.754  13.380  10.532  1.00  0.00     0.000 C 
BRANCH   7   8
ATOM      8  C   UNL     1      15.520  14.850  10.942  1.00  0.00     0.000 C 
BRANCH   8   9
ATOM      9  C   UNL     1      16.121  15.218  12.308  1.00  0.00     0.000 C 
BRANCH   9  10
ATOM     10  C   UNL     1      17.362  14.384  12.665  1.00  0.00     0.000 C 
BRANCH  10  11
ATOM     11  C   UNL     1      17.981  14.793  14.009  1.00  0.00     0.000 C 
BRANCH  11  12
ATOM     12  C   UNL     1      17.081  14.440  15.206  1.00  0.00     0.000 C 
BRANCH  12  13
ATOM     13  C   UNL     1      16.954  15.596  16.214  1.00  0.00     0.006 C 
BRANCH  13  14
ATOM     14  C   UNL     1      17.647  15.336  17.562  1.00  0.00     0.053 C 
BRANCH  14  15
ATOM     15  C   UNL     1      19.106  15.673  17.517  1.00  0.00     0.041 C 
ATOM     16  O   UNL     1      19.937  14.974  18.154  1.00  0.00    -0.550 OA
ATOM     17  O   UNL     1      19.540  16.782  16.803  1.00  0.00    -0.550 OA
ENDBRANCH  14  15
ENDBRANCH  13  14
ENDBRANCH  12  13
ENDBRANCH  11  12
ENDBRANCH  10  11
ENDBRANCH   9  10
ENDBRANCH   8   9
ENDBRANCH   7   8
ENDBRANCH   6   7
ENDBRANCH   5   6
ENDBRANCH   4   5
ENDBRANCH   3   4
ENDBRANCH   2   3
ENDBRANCH   1   2
BRANCH   1  18
ATOM     18  C   UNL     1      19.260  11.837  10.889  1.00  0.00     0.000 C 
BRANCH  18  19
ATOM     19  C   UNL     1      19.982  12.123  12.211  1.00  0.00     0.000 C 
BRANCH  19  20
ATOM     20  C   UNL     1      20.291  10.818  12.960  1.00  0.00     0.000 C 
BRANCH  20  21
ATOM     21  C   UNL     1      21.190  11.038  14.186  1.00  0.00     0.000 C 
BRANCH  21  22
ATOM     22  C   UNL     1      20.580  12.031  15.190  1.00  0.00     0.000 C 
BRANCH  22  23
ATOM     23  C   UNL     1      20.222  11.360  16.529  1.00  0.00     0.000 C 
BRANCH  23  24
ATOM     24  C   UNL     1      21.448  11.073  17.427  1.00  0.00    -0.000 C 
BRANCH  24  25
ATOM     25  C   UNL     1      21.356   9.737  18.189  1.00  0.00    -0.000 C 
BRANCH  25  26
ATOM     26  C   UNL     1      21.983   8.534  17.460  1.00  0.00    -0.000 C 
BRANCH  26  27
ATOM     27  C   UNL     1      23.524   8.504  17.460  1.00  0.00    -0.000 C 
BRANCH  27  28
ATOM     28  C   UNL     1      24.135   9.024  16.150  1.00  0.00    -0.000 C 
BRANCH  28  29
ATOM     29  C   UNL     1      23.722   8.139  14.964  1.00  0.00    -0.000 C 
BRANCH  29  30
ATOM     30  C   UNL     1      24.182   6.682  15.122  1.00  0.00    -0.000 C 
BRANCH  30  31
ATOM     31  C   UNL     1      23.233   5.683  14.447  1.00  0.00    -0.003 C 
ATOM     32  C   UNL     1      22.472   6.338  13.298  1.00  0.00     0.004 C 
ENDBRANCH  30  31
ENDBRANCH  29  30
ENDBRANCH  28  29
ENDBRANCH  27  28
ENDBRANCH  26  27
ENDBRANCH  25  26
ENDBRANCH  24  25
ENDBRANCH  23  24
ENDBRANCH  22  23
ENDBRANCH  21  22
ENDBRANCH  20  21
ENDBRANCH  19  20
ENDBRANCH  18  19
ENDBRANCH   1  18
TORSDOF 28
ENDMDL
MODEL 7
REMARK VINA RESULT:    -4.600      4.021      6.929
REMARK INTER + INTRA:         -16.293
REMARK INTER:                 -11.166
REMARK INTRA:                  -5.127
REMARK UNBOUND:                -4.163
REMARK SMILES CCCCCCCCCCCCCCCCCCCCCCCCCCCCCC(=O)[O-]
REMARK SMILES IDX 16 1 17 2 18 3 19 4 20 5 21 6 22 7 23 8 24 9 25 10 26 11
REMARK SMILES IDX 27 12 28 13 29 14 30 15 31 16 32 17 15 18 14 19 13 20 12 21
REMARK SMILES IDX 11 22 10 23 9 24 8 25 7 26 6 27 5 28 4 29 3 30 2 31 1 32
REMARK H PARENT
REMARK Flexibility Score: inf
ROOT
ATOM      1  C   UNL     1      28.597   7.830  15.419  1.00  0.00     0.000 C 
ENDROOT
BRANCH   1   2
ATOM      2  C   UNL     1      29.270   7.587  14.062  1.00  0.00     0.000 C 
BRANCH   2   3
ATOM      3  C   UNL     1      28.224   7.450  12.946  1.00  0.00     0.000 C 
BRANCH   3   4
ATOM      4  C   UNL     1      28.083   8.722  12.090  1.00  0.00     0.000 C 
BRANCH   4   5
ATOM      5  C   UNL     1      26.737   9.458  12.228  1.00  0.00     0.000 C 
BRANCH   5   6
ATOM      6  C   UNL     1      26.623  10.269  13.529  1.00  0.00     0.000 C 
BRANCH   6   7
ATOM      7  C   UNL     1      25.351   9.891  14.305  1.00  0.00     0.000 C 
BRANCH   7   8
ATOM      8  C   UNL     1      24.756   8.545  13.839  1.00  0.00     0.000 C 
BRANCH   8   9
ATOM      9  C   UNL     1      23.353   8.258  14.399  1.00  0.00     0.000 C 
BRANCH   9  10
ATOM     10  C   UNL     1      23.285   6.956  15.213  1.00  0.00     0.000 C 
BRANCH  10  11
ATOM     11  C   UNL     1      23.282   5.704  14.324  1.00  0.00     0.000 C 
BRANCH  11  12
ATOM     12  C   UNL     1      24.247   4.617  14.830  1.00  0.00     0.000 C 
BRANCH  12  13
ATOM     13  C   UNL     1      24.794   3.735  13.694  1.00  0.00     0.006 C 
BRANCH  13  14
ATOM     14  C   UNL     1      26.297   3.915  13.424  1.00  0.00     0.053 C 
BRANCH  14  15
ATOM     15  C   UNL     1      26.820   2.895  12.459  1.00  0.00     0.041 C 
ATOM     16  O   UNL     1      26.313   2.790  11.312  1.00  0.00    -0.550 OA
ATOM     17  O   UNL     1      27.841   2.036  12.843  1.00  0.00    -0.550 OA
ENDBRANCH  14  15
ENDBRANCH  13  14
ENDBRANCH  12  13
ENDBRANCH  11  12
ENDBRANCH  10  11
ENDBRANCH   9  10
ENDBRANCH   8   9
ENDBRANCH   7   8
ENDBRANCH   6   7
ENDBRANCH   5   6
ENDBRANCH   4   5
ENDBRANCH   3   4
ENDBRANCH   2   3
ENDBRANCH   1   2
BRANCH   1  18
ATOM     18  C   UNL     1      27.400   6.892  15.614  1.00  0.00     0.000 C 
BRANCH  18  19
ATOM     19  C   UNL     1      26.541   7.332  16.806  1.00  0.00     0.000 C 
BRANCH  19  20
ATOM     20  C   UNL     1      26.995   8.702  17.332  1.00  0.00     0.000 C 
BRANCH  20  21
ATOM     21  C   UNL     1      25.850   9.499  17.975  1.00  0.00     0.000 C 
BRANCH  21  22
ATOM     22  C   UNL     1      24.647   8.610  18.334  1.00  0.00     0.000 C 
BRANCH  22  23
ATOM     23  C   UNL     1      23.376   9.433  18.612  1.00  0.00     0.000 C 
BRANCH  23  24
ATOM     24  C   UNL     1      22.098   8.837  17.977  1.00  0.00    -0.000 C 
BRANCH  24  25
ATOM     25  C   UNL     1      21.294   9.849  17.139  1.00  0.00    -0.000 C 
BRANCH  25  26
ATOM     26  C   UNL     1      20.745  11.050  17.932  1.00  0.00    -0.000 C 
BRANCH  26  27
ATOM     27  C   UNL     1      19.920  12.055  17.103  1.00  0.00    -0.000 C 
BRANCH  27  28
ATOM     28  C   UNL     1      20.793  13.031  16.300  1.00  0.00    -0.000 C 
BRANCH  28  29
ATOM     29  C   UNL     1      20.138  13.367  14.951  1.00  0.00    -0.000 C 
BRANCH  29  30
ATOM     30  C   UNL     1      21.094  13.183  13.764  1.00  0.00    -0.000 C 
BRANCH  30  31
ATOM     31  C   UNL     1      21.750  11.795  13.740  1.00  0.00    -0.003 C 
ATOM     32  C   UNL     1      20.719  10.704  13.465  1.00  0.00     0.004 C 
ENDBRANCH  30  31
ENDBRANCH  29  30
ENDBRANCH  28  29
ENDBRANCH  27  28
ENDBRANCH  26  27
ENDBRANCH  25  26
ENDBRANCH  24  25
ENDBRANCH  23  24
ENDBRANCH  22  23
ENDBRANCH  21  22
ENDBRANCH  20  21
ENDBRANCH  19  20
ENDBRANCH  18  19
ENDBRANCH   1  18
TORSDOF 28
ENDMDL
MODEL 8
REMARK VINA RESULT:    -4.583      3.882      7.039
REMARK INTER + INTRA:         -16.248
REMARK INTER:                 -11.123
REMARK INTRA:                  -5.126
REMARK UNBOUND:                -4.163
REMARK SMILES CCCCCCCCCCCCCCCCCCCCCCCCCCCCCC(=O)[O-]
REMARK SMILES IDX 16 1 17 2 18 3 19 4 20 5 21 6 22 7 23 8 24 9 25 10 26 11
REMARK SMILES IDX 27 12 28 13 29 14 30 15 31 16 32 17 15 18 14 19 13 20 12 21
REMARK SMILES IDX 11 22 10 23 9 24 8 25 7 26 6 27 5 28 4 29 3 30 2 31 1 32
REMARK H PARENT
REMARK Flexibility Score: inf
ROOT
ATOM      1  C   UNL     1      28.531   8.526  11.729  1.00  0.00     0.000 C 
ENDROOT
BRANCH   1   2
ATOM      2  C   UNL     1      29.471   9.392  12.577  1.00  0.00     0.000 C 
BRANCH   2   3
ATOM      3  C   UNL     1      29.068  10.872  12.506  1.00  0.00     0.000 C 
BRANCH   3   4
ATOM      4  C   UNL     1      27.633  11.133  13.000  1.00  0.00     0.000 C 
BRANCH   4   5
ATOM      5  C   UNL     1      27.383  10.809  14.485  1.00  0.00     0.000 C 
BRANCH   5   6
ATOM      6  C   UNL     1      25.909  10.509  14.798  1.00  0.00     0.000 C 
BRANCH   6   7
ATOM      7  C   UNL     1      25.448   9.220  14.099  1.00  0.00     0.000 C 
BRANCH   7   8
ATOM      8  C   UNL     1      24.003   8.829  14.477  1.00  0.00     0.000 C 
BRANCH   8   9
ATOM      9  C   UNL     1      23.672   7.350  14.221  1.00  0.00     0.000 C 
BRANCH   9  10
ATOM     10  C   UNL     1      23.493   6.540  15.516  1.00  0.00     0.000 C 
BRANCH  10  11
ATOM     11  C   UNL     1      24.369   5.279  15.548  1.00  0.00     0.000 C 
BRANCH  11  12
ATOM     12  C   UNL     1      24.070   4.322  14.382  1.00  0.00     0.000 C 
BRANCH  12  13
ATOM     13  C   UNL     1      25.296   4.081  13.483  1.00  0.00     0.006 C 
BRANCH  13  14
ATOM     14  C   UNL     1      25.908   2.677  13.615  1.00  0.00     0.053 C 
BRANCH  14  15
ATOM     15  C   UNL     1      27.110   2.504  12.739  1.00  0.00     0.041 C 
ATOM     16  O   UNL     1      28.015   1.688  13.057  1.00  0.00    -0.550 OA
ATOM     17  O   UNL     1      27.249   3.274  11.592  1.00  0.00    -0.550 OA
ENDBRANCH  14  15
ENDBRANCH  13  14
ENDBRANCH  12  13
ENDBRANCH  11  12
ENDBRANCH  10  11
ENDBRANCH   9  10
ENDBRANCH   8   9
ENDBRANCH   7   8
ENDBRANCH   6   7
ENDBRANCH   5   6
ENDBRANCH   4   5
ENDBRANCH   3   4
ENDBRANCH   2   3
ENDBRANCH   1   2
BRANCH   1  18
ATOM     18  C   UNL     1      28.083   7.281  12.504  1.00  0.00     0.000 C 
BRANCH  18  19
ATOM     19  C   UNL     1      28.824   7.164  13.841  1.00  0.00     0.000 C 
BRANCH  19  20
ATOM     20  C   UNL     1      27.860   6.761  14.967  1.00  0.00     0.000 C 
BRANCH  20  21
ATOM     21  C   UNL     1      28.002   7.648  16.213  1.00  0.00     0.000 C 
BRANCH  21  22
ATOM     22  C   UNL     1      26.919   7.356  17.267  1.00  0.00     0.000 C 
BRANCH  22  23
ATOM     23  C   UNL     1      26.431   8.636  17.970  1.00  0.00     0.000 C 
BRANCH  23  24
ATOM     24  C   UNL     1      25.069   8.471  18.685  1.00  0.00    -0.000 C 
BRANCH  24  25
ATOM     25  C   UNL     1      23.921   9.249  18.014  1.00  0.00    -0.000 C 
BRANCH  25  26
ATOM     26  C   UNL     1      22.510   8.851  18.488  1.00  0.00    -0.000 C 
BRANCH  26  27
ATOM     27  C   UNL     1      21.361   9.318  17.573  1.00  0.00    -0.000 C 
BRANCH  27  28
ATOM     28  C   UNL     1      21.462  10.802  17.189  1.00  0.00    -0.000 C 
BRANCH  28  29
ATOM     29  C   UNL     1      20.701  11.083  15.885  1.00  0.00    -0.000 C 
BRANCH  29  30
ATOM     30  C   UNL     1      21.635  11.409  14.710  1.00  0.00    -0.000 C 
BRANCH  30  31
ATOM     31  C   UNL     1      20.878  11.625  13.392  1.00  0.00    -0.003 C 
ATOM     32  C   UNL     1      19.971  12.849  13.473  1.00  0.00     0.004 C 
ENDBRANCH  30  31
ENDBRANCH  29  30
ENDBRANCH  28  29
ENDBRANCH  27  28
ENDBRANCH  26  27
ENDBRANCH  25  26
ENDBRANCH  24  25
ENDBRANCH  23  24
ENDBRANCH  22  23
ENDBRANCH  21  22
ENDBRANCH  20  21
ENDBRANCH  19  20
ENDBRANCH  18  19
ENDBRANCH   1  18
TORSDOF 28
ENDMDL
MODEL 9
REMARK VINA RESULT:    -4.570      2.399      5.800
REMARK INTER + INTRA:         -16.214
REMARK INTER:                 -10.922
REMARK INTRA:                  -5.292
REMARK UNBOUND:                -4.163
REMARK SMILES CCCCCCCCCCCCCCCCCCCCCCCCCCCCCC(=O)[O-]
REMARK SMILES IDX 16 1 17 2 18 3 19 4 20 5 21 6 22 7 23 8 24 9 25 10 26 11
REMARK SMILES IDX 27 12 28 13 29 14 30 15 31 16 32 17 15 18 14 19 13 20 12 21
REMARK SMILES IDX 11 22 10 23 9 24 8 25 7 26 6 27 5 28 4 29 3 30 2 31 1 32
REMARK H PARENT
REMARK Flexibility Score: inf
ROOT
ATOM      1  C   UNL     1      28.145   8.419  11.930  1.00  0.00     0.000 C 
ENDROOT
BRANCH   1   2
ATOM      2  C   UNL     1      29.607   8.796  12.203  1.00  0.00     0.000 C 
BRANCH   2   3
ATOM      3  C   UNL     1      29.778  10.320  12.275  1.00  0.00     0.000 C 
BRANCH   3   4
ATOM      4  C   UNL     1      28.591  11.030  12.950  1.00  0.00     0.000 C 
BRANCH   4   5
ATOM      5  C   UNL     1      28.693  11.166  14.481  1.00  0.00     0.000 C 
BRANCH   5   6
ATOM      6  C   UNL     1      27.495  10.553  15.224  1.00  0.00     0.000 C 
BRANCH   6   7
ATOM      7  C   UNL     1      26.241  10.548  14.335  1.00  0.00     0.000 C 
BRANCH   7   8
ATOM      8  C   UNL     1      25.205  11.605  14.773  1.00  0.00     0.000 C 
BRANCH   8   9
ATOM      9  C   UNL     1      23.760  11.263  14.373  1.00  0.00     0.000 C 
BRANCH   9  10
ATOM     10  C   UNL     1      22.751  11.492  15.510  1.00  0.00     0.000 C 
BRANCH  10  11
ATOM     11  C   UNL     1      21.338  11.011  15.149  1.00  0.00     0.000 C 
BRANCH  11  12
ATOM     12  C   UNL     1      21.209  10.614  13.667  1.00  0.00     0.000 C 
BRANCH  12  13
ATOM     13  C   UNL     1      20.203  11.494  12.904  1.00  0.00     0.006 C 
BRANCH  13  14
ATOM     14  C   UNL     1      20.676  12.939  12.674  1.00  0.00     0.053 C 
BRANCH  14  15
ATOM     15  C   UNL     1      19.795  13.934  13.365  1.00  0.00     0.041 C 
ATOM     16  O   UNL     1      20.279  14.726  14.215  1.00  0.00    -0.550 OA
ATOM     17  O   UNL     1      18.433  13.958  13.097  1.00  0.00    -0.550 OA
ENDBRANCH  14  15
ENDBRANCH  13  14
ENDBRANCH  12  13
ENDBRANCH  11  12
ENDBRANCH  10  11
ENDBRANCH   9  10
ENDBRANCH   8   9
ENDBRANCH   7   8
ENDBRANCH   6   7
ENDBRANCH   5   6
ENDBRANCH   4   5
ENDBRANCH   3   4
ENDBRANCH   2   3
ENDBRANCH   1   2
BRANCH   1  18
ATOM     18  C   UNL     1      27.668   7.329  12.897  1.00  0.00     0.000 C 
BRANCH  18  19
ATOM     19  C   UNL     1      28.759   6.976  13.915  1.00  0.00     0.000 C 
BRANCH  19  20
ATOM     20  C   UNL     1      28.188   6.945  15.341  1.00  0.00     0.000 C 
BRANCH  20  21
ATOM     21  C   UNL     1      26.653   6.906  15.362  1.00  0.00     0.000 C 
BRANCH  21  22
ATOM     22  C   UNL     1      26.076   7.266  16.742  1.00  0.00     0.000 C 
BRANCH  22  23
ATOM     23  C   UNL     1      24.887   8.239  16.642  1.00  0.00     0.000 C 
BRANCH  23  24
ATOM     24  C   UNL     1      23.557   7.556  16.246  1.00  0.00    -0.000 C 
BRANCH  24  25
ATOM     25  C   UNL     1      23.227   7.670  14.745  1.00  0.00    -0.000 C 
BRANCH  25  26
ATOM     26  C   UNL     1      23.305   6.344  13.966  1.00  0.00    -0.000 C 
BRANCH  26  27
ATOM     27  C   UNL     1      23.020   5.080  14.800  1.00  0.00    -0.000 C 
BRANCH  27  28
ATOM     28  C   UNL     1      24.219   4.122  14.869  1.00  0.00    -0.000 C 
BRANCH  28  29
ATOM     29  C   UNL     1      24.967   4.086  13.528  1.00  0.00    -0.000 C 
BRANCH  29  30
ATOM     30  C   UNL     1      25.971   2.927  13.438  1.00  0.00    -0.000 C 
BRANCH  30  31
ATOM     31  C   UNL     1      27.373   3.387  13.016  1.00  0.00    -0.003 C 
ATOM     32  C   UNL     1      28.441   2.407  13.494  1.00  0.00     0.004 C 
ENDBRANCH  30  31
ENDBRANCH  29  30
ENDBRANCH  28  29
ENDBRANCH  27  28
ENDBRANCH  26  27
ENDBRANCH  25  26
ENDBRANCH  24  25
ENDBRANCH  23  24
ENDBRANCH  22  23
ENDBRANCH  21  22
ENDBRANCH  20  21
ENDBRANCH  19  20
ENDBRANCH  18  19
ENDBRANCH   1  18
TORSDOF 28
ENDMDL
