MODEL 1
REMARK VINA RESULT:    -6.996      0.000      0.000
REMARK INTER + INTRA:          -8.697
REMARK INTER:                  -8.427
REMARK INTRA:                  -0.270
REMARK UNBOUND:                -0.270
REMARK SMILES O=c1c(O)c(-c2ccc(O)c(O)c2)oc2cc(O)cc(O)c12
REMARK SMILES IDX 5 1 3 2 2 3 1 4 22 5 20 6 19 7 17 8 16 9 15 10 14 11 6 12
REMARK SMILES IDX 7 13 8 14 9 15 13 16 11 17 10 18 12 20 4 22 21 24 18 26
REMARK H PARENT 10 19 12 21 4 23 21 25 18 27
REMARK Flexibility Score: inf
ROOT
ATOM      1  C   UNL     1       4.942   6.937   2.363  1.00  0.00     0.180 A 
ATOM      2  C   UNL     1       5.435   5.860   3.121  1.00  0.00     0.208 A 
ATOM      3  C   UNL     1       5.270   4.554   2.636  1.00  0.00     0.238 A 
ATOM      4  O   UNL     1       5.664   3.591   3.344  1.00  0.00    -0.285 OA
ATOM      5  C   UNL     1       4.628   4.340   1.391  1.00  0.00     0.111 A 
ATOM      6  C   UNL     1       4.442   3.062   0.785  1.00  0.00     0.134 A 
ATOM      7  C   UNL     1       3.678   2.957  -0.385  1.00  0.00     0.093 A 
ATOM      8  C   UNL     1       3.151   4.092  -1.004  1.00  0.00     0.123 A 
ATOM      9  C   UNL     1       3.377   5.351  -0.452  1.00  0.00     0.094 A 
ATOM     10  C   UNL     1       4.104   5.484   0.733  1.00  0.00     0.146 A 
ATOM     11  O   UNL     1       4.287   6.700   1.232  1.00  0.00    -0.452 OA
ENDROOT
BRANCH   1  12
ATOM     12  C   UNL     1       5.101   8.344   2.797  1.00  0.00     0.025 A 
ATOM     13  C   UNL     1       4.251   8.861   3.788  1.00  0.00     0.016 A 
ATOM     14  C   UNL     1       4.370  10.191   4.197  1.00  0.00     0.051 A 
ATOM     15  C   UNL     1       5.325  11.029   3.614  1.00  0.00     0.157 A 
ATOM     16  C   UNL     1       6.047   9.194   2.196  1.00  0.00     0.062 A 
ATOM     17  C   UNL     1       6.165  10.530   2.604  1.00  0.00     0.158 A 
BRANCH  15  18
ATOM     18  O   UNL     1       5.422  12.352   4.045  1.00  0.00    -0.504 OA
ATOM     19  H   UNL     1       5.788  13.087   3.451  1.00  0.00     0.293 HD
ENDBRANCH  15  18
BRANCH  17  20
ATOM     20  O   UNL     1       7.111  11.364   2.008  1.00  0.00    -0.504 OA
ATOM     21  H   UNL     1       7.941  11.666   2.505  1.00  0.00     0.293 HD
ENDBRANCH  17  20
ENDBRANCH   1  12
BRANCH   2  22
ATOM     22  O   UNL     1       6.046   6.093   4.356  1.00  0.00    -0.502 OA
ATOM     23  H   UNL     1       6.081   7.011   4.781  1.00  0.00     0.293 HD
ENDBRANCH   2  22
BRANCH   6  24
ATOM     24  O   UNL     1       5.004   1.878   1.271  1.00  0.00    -0.507 OA
ATOM     25  H   UNL     1       5.992   1.669   1.273  1.00  0.00     0.293 HD
ENDBRANCH   6  24
BRANCH   8  26
ATOM     26  O   UNL     1       2.405   3.981  -2.176  1.00  0.00    -0.508 OA
ATOM     27  H   UNL     1       2.841   4.046  -3.089  1.00  0.00     0.293 HD
ENDBRANCH   8  26
TORSDOF 6
ENDMDL
MODEL 2
REMARK VINA RESULT:    -6.886      1.492      2.292
REMARK INTER + INTRA:          -8.566
REMARK INTER:                  -8.337
REMARK INTRA:                  -0.229
REMARK UNBOUND:                -0.270
REMARK SMILES O=c1c(O)c(-c2ccc(O)c(O)c2)oc2cc(O)cc(O)c12
REMARK SMILES IDX 5 1 3 2 2 3 1 4 22 5 20 6 19 7 17 8 16 9 15 10 14 11 6 12
REMARK SMILES IDX 7 13 8 14 9 15 13 16 11 17 10 18 12 20 4 22 21 24 18 26
REMARK H PARENT 10 19 12 21 4 23 21 25 18 27
REMARK Flexibility Score: inf
ROOT
ATOM      1  C   UNL     1       5.071   5.481   1.407  1.00  0.00     0.180 A 
ATOM      2  C   UNL     1       5.101   4.571   2.480  1.00  0.00     0.208 A 
ATOM      3  C   UNL     1       4.629   3.265   2.277  1.00  0.00     0.238 A 
ATOM      4  O   UNL     1       4.607   2.472   3.254  1.00  0.00    -0.285 OA
ATOM      5  C   UNL     1       4.147   2.880   1.002  1.00  0.00     0.111 A 
ATOM      6  C   UNL     1       3.682   1.571   0.674  1.00  0.00     0.134 A 
ATOM      7  C   UNL     1       3.107   1.338  -0.582  1.00  0.00     0.093 A 
ATOM      8  C   UNL     1       3.040   2.349  -1.542  1.00  0.00     0.123 A 
ATOM      9  C   UNL     1       3.546   3.614  -1.252  1.00  0.00     0.094 A 
ATOM     10  C   UNL     1       4.093   3.887   0.004  1.00  0.00     0.146 A 
ATOM     11  O   UNL     1       4.554   5.109   0.244  1.00  0.00    -0.452 OA
ENDROOT
BRANCH   1  12
ATOM     12  C   UNL     1       5.576   6.868   1.537  1.00  0.00     0.025 A 
ATOM     13  C   UNL     1       6.803   7.214   0.950  1.00  0.00     0.016 A 
ATOM     14  C   UNL     1       7.307   8.510   1.078  1.00  0.00     0.051 A 
ATOM     15  C   UNL     1       6.604   9.475   1.805  1.00  0.00     0.157 A 
ATOM     16  C   UNL     1       4.879   7.834   2.286  1.00  0.00     0.062 A 
ATOM     17  C   UNL     1       5.386   9.135   2.417  1.00  0.00     0.158 A 
BRANCH  15  18
ATOM     18  O   UNL     1       7.131  10.762   1.913  1.00  0.00    -0.504 OA
ATOM     19  H   UNL     1       8.023  10.943   2.358  1.00  0.00     0.293 HD
ENDBRANCH  15  18
BRANCH  17  20
ATOM     20  O   UNL     1       4.686  10.088   3.155  1.00  0.00    -0.504 OA
ATOM     21  H   UNL     1       5.045  11.027   3.288  1.00  0.00     0.293 HD
ENDBRANCH  17  20
ENDBRANCH   1  12
BRANCH   2  22
ATOM     22  O   UNL     1       5.561   4.980   3.734  1.00  0.00    -0.502 OA
ATOM     23  H   UNL     1       6.093   5.831   3.868  1.00  0.00     0.293 HD
ENDBRANCH   2  22
BRANCH   6  24
ATOM     24  O   UNL     1       3.786   0.469   1.528  1.00  0.00    -0.507 OA
ATOM     25  H   UNL     1       4.645   0.146   1.948  1.00  0.00     0.293 HD
ENDBRANCH   6  24
BRANCH   8  26
ATOM     26  O   UNL     1       2.481   2.104  -2.794  1.00  0.00    -0.508 OA
ATOM     27  H   UNL     1       2.493   2.806  -3.526  1.00  0.00     0.293 HD
ENDBRANCH   8  26
TORSDOF 6
ENDMDL
MODEL 3
REMARK VINA RESULT:    -6.824      1.494      6.751
REMARK INTER + INTRA:          -8.491
REMARK INTER:                  -8.391
REMARK INTRA:                  -0.099
REMARK UNBOUND:                -0.270
REMARK SMILES O=c1c(O)c(-c2ccc(O)c(O)c2)oc2cc(O)cc(O)c12
REMARK SMILES IDX 5 1 3 2 2 3 1 4 22 5 20 6 19 7 17 8 16 9 15 10 14 11 6 12
REMARK SMILES IDX 7 13 8 14 9 15 13 16 11 17 10 18 12 20 4 22 21 24 18 26
REMARK H PARENT 10 19 12 21 4 23 21 25 18 27
REMARK Flexibility Score: inf
ROOT
ATOM      1  C   UNL     1       4.729   5.451   1.298  1.00  0.00     0.180 A 
ATOM      2  C   UNL     1       4.748   5.029   2.640  1.00  0.00     0.208 A 
ATOM      3  C   UNL     1       5.216   5.912   3.625  1.00  0.00     0.238 A 
ATOM      4  O   UNL     1       5.281   5.510   4.816  1.00  0.00    -0.285 OA
ATOM      5  C   UNL     1       5.644   7.212   3.261  1.00  0.00     0.111 A 
ATOM      6  C   UNL     1       6.099   8.203   4.181  1.00  0.00     0.134 A 
ATOM      7  C   UNL     1       6.621   9.408   3.696  1.00  0.00     0.093 A 
ATOM      8  C   UNL     1       6.644   9.684   2.327  1.00  0.00     0.123 A 
ATOM      9  C   UNL     1       6.147   8.747   1.424  1.00  0.00     0.094 A 
ATOM     10  C   UNL     1       5.652   7.521   1.876  1.00  0.00     0.146 A 
ATOM     11  O   UNL     1       5.199   6.651   0.981  1.00  0.00    -0.452 OA
ENDROOT
BRANCH   1  12
ATOM     12  C   UNL     1       4.227   4.585   0.207  1.00  0.00     0.025 A 
ATOM     13  C   UNL     1       3.109   4.993  -0.539  1.00  0.00     0.016 A 
ATOM     14  C   UNL     1       2.606   4.183  -1.559  1.00  0.00     0.051 A 
ATOM     15  C   UNL     1       3.198   2.948  -1.839  1.00  0.00     0.157 A 
ATOM     16  C   UNL     1       4.809   3.333  -0.062  1.00  0.00     0.062 A 
ATOM     17  C   UNL     1       4.303   2.518  -1.084  1.00  0.00     0.158 A 
BRANCH  15  18
ATOM     18  O   UNL     1       2.675   2.161  -2.865  1.00  0.00    -0.504 OA
ATOM     19  H   UNL     1       2.097   1.350  -2.680  1.00  0.00     0.293 HD
ENDBRANCH  15  18
BRANCH  17  20
ATOM     20  O   UNL     1       4.890   1.281  -1.349  1.00  0.00    -0.504 OA
ATOM     21  H   UNL     1       4.579   0.435  -0.886  1.00  0.00     0.293 HD
ENDBRANCH  17  20
ENDBRANCH   1  12
BRANCH   2  22
ATOM     22  O   UNL     1       4.341   3.735   2.974  1.00  0.00    -0.502 OA
ATOM     23  H   UNL     1       4.619   2.922   2.438  1.00  0.00     0.293 HD
ENDBRANCH   2  22
BRANCH   6  24
ATOM     24  O   UNL     1       6.035   8.065   5.571  1.00  0.00    -0.507 OA
ATOM     25  H   UNL     1       6.496   8.674   6.231  1.00  0.00     0.293 HD
ENDBRANCH   6  24
BRANCH   8  26
ATOM     26  O   UNL     1       7.151  10.892   1.853  1.00  0.00    -0.508 OA
ATOM     27  H   UNL     1       7.815  11.436   2.393  1.00  0.00     0.293 HD
ENDBRANCH   8  26
TORSDOF 6
ENDMDL
MODEL 4
REMARK VINA RESULT:    -6.748      1.562      6.992
REMARK INTER + INTRA:          -8.399
REMARK INTER:                  -8.076
REMARK INTRA:                  -0.323
REMARK UNBOUND:                -0.270
REMARK SMILES O=c1c(O)c(-c2ccc(O)c(O)c2)oc2cc(O)cc(O)c12
REMARK SMILES IDX 5 1 3 2 2 3 1 4 22 5 20 6 19 7 17 8 16 9 15 10 14 11 6 12
REMARK SMILES IDX 7 13 8 14 9 15 13 16 11 17 10 18 12 20 4 22 21 24 18 26
REMARK H PARENT 10 19 12 21 4 23 21 25 18 27
REMARK Flexibility Score: inf
ROOT
ATOM      1  C   UNL     1       4.606   6.797   1.628  1.00  0.00     0.180 A 
ATOM      2  C   UNL     1       5.649   7.662   1.251  1.00  0.00     0.208 A 
ATOM      3  C   UNL     1       5.866   8.832   1.996  1.00  0.00     0.238 A 
ATOM      4  O   UNL     1       6.765   9.629   1.622  1.00  0.00    -0.285 OA
ATOM      5  C   UNL     1       5.049   9.115   3.117  1.00  0.00     0.111 A 
ATOM      6  C   UNL     1       5.205  10.251   3.967  1.00  0.00     0.134 A 
ATOM      7  C   UNL     1       4.258  10.499   4.969  1.00  0.00     0.093 A 
ATOM      8  C   UNL     1       3.199   9.617   5.193  1.00  0.00     0.123 A 
ATOM      9  C   UNL     1       3.071   8.474   4.406  1.00  0.00     0.094 A 
ATOM     10  C   UNL     1       3.980   8.218   3.376  1.00  0.00     0.146 A 
ATOM     11  O   UNL     1       3.816   7.124   2.643  1.00  0.00    -0.452 OA
ENDROOT
BRANCH   1  12
ATOM     12  C   UNL     1       4.332   5.533   0.906  1.00  0.00     0.025 A 
ATOM     13  C   UNL     1       4.986   4.356   1.303  1.00  0.00     0.016 A 
ATOM     14  C   UNL     1       4.758   3.157   0.624  1.00  0.00     0.051 A 
ATOM     15  C   UNL     1       3.889   3.117  -0.469  1.00  0.00     0.157 A 
ATOM     16  C   UNL     1       3.473   5.496  -0.207  1.00  0.00     0.062 A 
ATOM     17  C   UNL     1       3.246   4.293  -0.891  1.00  0.00     0.158 A 
BRANCH  15  18
ATOM     18  O   UNL     1       3.679   1.905  -1.126  1.00  0.00    -0.504 OA
ATOM     19  H   UNL     1       4.334   1.542  -1.809  1.00  0.00     0.293 HD
ENDBRANCH  15  18
BRANCH  17  20
ATOM     20  O   UNL     1       2.387   4.264  -1.990  1.00  0.00    -0.504 OA
ATOM     21  H   UNL     1       2.367   3.476  -2.627  1.00  0.00     0.293 HD
ENDBRANCH  17  20
ENDBRANCH   1  12
BRANCH   2  22
ATOM     22  O   UNL     1       6.429   7.374   0.128  1.00  0.00    -0.502 OA
ATOM     23  H   UNL     1       7.188   7.972  -0.175  1.00  0.00     0.293 HD
ENDBRANCH   2  22
BRANCH   6  24
ATOM     24  O   UNL     1       6.278  11.143   3.888  1.00  0.00    -0.507 OA
ATOM     25  H   UNL     1       6.456  11.761   3.110  1.00  0.00     0.293 HD
ENDBRANCH   6  24
BRANCH   8  26
ATOM     26  O   UNL     1       2.270   9.863   6.202  1.00  0.00    -0.508 OA
ATOM     27  H   UNL     1       2.404  10.608   6.875  1.00  0.00     0.293 HD
ENDBRANCH   8  26
TORSDOF 6
ENDMDL
MODEL 5
REMARK VINA RESULT:    -6.629      3.717      7.215
REMARK INTER + INTRA:          -8.256
REMARK INTER:                  -8.001
REMARK INTRA:                  -0.254
REMARK UNBOUND:                -0.270
REMARK SMILES O=c1c(O)c(-c2ccc(O)c(O)c2)oc2cc(O)cc(O)c12
REMARK SMILES IDX 5 1 3 2 2 3 1 4 22 5 20 6 19 7 17 8 16 9 15 10 14 11 6 12
REMARK SMILES IDX 7 13 8 14 9 15 13 16 11 17 10 18 12 20 4 22 21 24 18 26
REMARK H PARENT 10 19 12 21 4 23 21 25 18 27
REMARK Flexibility Score: inf
ROOT
ATOM      1  C   UNL     1       5.737   9.067   3.086  1.00  0.00     0.180 A 
ATOM      2  C   UNL     1       4.543   8.491   3.555  1.00  0.00     0.208 A 
ATOM      3  C   UNL     1       3.640   9.287   4.276  1.00  0.00     0.238 A 
ATOM      4  O   UNL     1       2.600   8.753   4.739  1.00  0.00    -0.285 OA
ATOM      5  C   UNL     1       3.933  10.654   4.505  1.00  0.00     0.111 A 
ATOM      6  C   UNL     1       3.071  11.563   5.188  1.00  0.00     0.134 A 
ATOM      7  C   UNL     1       3.520  12.859   5.471  1.00  0.00     0.093 A 
ATOM      8  C   UNL     1       4.773  13.298   5.039  1.00  0.00     0.123 A 
ATOM      9  C   UNL     1       5.598  12.436   4.320  1.00  0.00     0.094 A 
ATOM     10  C   UNL     1       5.192  11.126   4.052  1.00  0.00     0.146 A 
ATOM     11  O   UNL     1       6.013  10.334   3.374  1.00  0.00    -0.452 OA
ENDROOT
BRANCH   1  12
ATOM     12  C   UNL     1       6.727   8.298   2.297  1.00  0.00     0.025 A 
ATOM     13  C   UNL     1       6.797   8.483   0.907  1.00  0.00     0.016 A 
ATOM     14  C   UNL     1       7.708   7.753   0.142  1.00  0.00     0.051 A 
ATOM     15  C   UNL     1       8.551   6.817   0.747  1.00  0.00     0.157 A 
ATOM     16  C   UNL     1       7.562   7.341   2.902  1.00  0.00     0.062 A 
ATOM     17  C   UNL     1       8.475   6.605   2.134  1.00  0.00     0.158 A 
BRANCH  15  18
ATOM     18  O   UNL     1       9.453   6.104  -0.043  1.00  0.00    -0.504 OA
ATOM     19  H   UNL     1       9.773   5.176   0.208  1.00  0.00     0.293 HD
ENDBRANCH  15  18
BRANCH  17  20
ATOM     20  O   UNL     1       9.303   5.663   2.743  1.00  0.00    -0.504 OA
ATOM     21  H   UNL     1       9.055   5.227   3.624  1.00  0.00     0.293 HD
ENDBRANCH  17  20
ENDBRANCH   1  12
BRANCH   2  22
ATOM     22  O   UNL     1       4.285   7.135   3.336  1.00  0.00    -0.502 OA
ATOM     23  H   UNL     1       3.653   6.812   2.614  1.00  0.00     0.293 HD
ENDBRANCH   2  22
BRANCH   6  24
ATOM     24  O   UNL     1       1.765  11.255   5.582  1.00  0.00    -0.507 OA
ATOM     25  H   UNL     1       1.295  10.385   5.381  1.00  0.00     0.293 HD
ENDBRANCH   6  24
BRANCH   8  26
ATOM     26  O   UNL     1       5.206  14.594   5.311  1.00  0.00    -0.508 OA
ATOM     27  H   UNL     1       4.681  15.210   5.922  1.00  0.00     0.293 HD
ENDBRANCH   8  26
TORSDOF 6
ENDMDL
MODEL 6
REMARK VINA RESULT:    -6.606      2.888      4.694
REMARK INTER + INTRA:          -8.227
REMARK INTER:                  -7.901
REMARK INTRA:                  -0.326
REMARK UNBOUND:                -0.270
REMARK SMILES O=c1c(O)c(-c2ccc(O)c(O)c2)oc2cc(O)cc(O)c12
REMARK SMILES IDX 5 1 3 2 2 3 1 4 22 5 20 6 19 7 17 8 16 9 15 10 14 11 6 12
REMARK SMILES IDX 7 13 8 14 9 15 13 16 11 17 10 18 12 20 4 22 21 24 18 26
REMARK H PARENT 10 19 12 21 4 23 21 25 18 27
REMARK Flexibility Score: inf
ROOT
ATOM      1  C   UNL     1       4.167   8.976   4.453  1.00  0.00     0.180 A 
ATOM      2  C   UNL     1       5.176   9.688   3.780  1.00  0.00     0.208 A 
ATOM      3  C   UNL     1       5.652   9.199   2.553  1.00  0.00     0.238 A 
ATOM      4  O   UNL     1       6.592   9.810   1.982  1.00  0.00    -0.285 OA
ATOM      5  C   UNL     1       5.102   8.014   2.006  1.00  0.00     0.111 A 
ATOM      6  C   UNL     1       5.480   7.450   0.751  1.00  0.00     0.134 A 
ATOM      7  C   UNL     1       4.964   6.205   0.370  1.00  0.00     0.093 A 
ATOM      8  C   UNL     1       4.034   5.536   1.168  1.00  0.00     0.123 A 
ATOM      9  C   UNL     1       3.614   6.106   2.368  1.00  0.00     0.094 A 
ATOM     10  C   UNL     1       4.138   7.330   2.791  1.00  0.00     0.146 A 
ATOM     11  O   UNL     1       3.719   7.834   3.946  1.00  0.00    -0.452 OA
ENDROOT
BRANCH   1  12
ATOM     12  C   UNL     1       3.597   9.442   5.738  1.00  0.00     0.025 A 
ATOM     13  C   UNL     1       4.186   9.030   6.944  1.00  0.00     0.016 A 
ATOM     14  C   UNL     1       3.653   9.441   8.167  1.00  0.00     0.051 A 
ATOM     15  C   UNL     1       2.517  10.254   8.207  1.00  0.00     0.157 A 
ATOM     16  C   UNL     1       2.442  10.244   5.779  1.00  0.00     0.062 A 
ATOM     17  C   UNL     1       1.905  10.655   7.007  1.00  0.00     0.158 A 
BRANCH  15  18
ATOM     18  O   UNL     1       2.008  10.651   9.444  1.00  0.00    -0.504 OA
ATOM     19  H   UNL     1       1.525  11.533   9.570  1.00  0.00     0.293 HD
ENDBRANCH  15  18
BRANCH  17  20
ATOM     20  O   UNL     1       0.763  11.455   7.039  1.00  0.00    -0.504 OA
ATOM     21  H   UNL     1       0.301  11.688   7.912  1.00  0.00     0.293 HD
ENDBRANCH  17  20
ENDBRANCH   1  12
BRANCH   2  22
ATOM     22  O   UNL     1       5.719  10.843   4.348  1.00  0.00    -0.502 OA
ATOM     23  H   UNL     1       6.023  11.632   3.791  1.00  0.00     0.293 HD
ENDBRANCH   2  22
BRANCH   6  24
ATOM     24  O   UNL     1       6.330   8.079  -0.164  1.00  0.00    -0.507 OA
ATOM     25  H   UNL     1       6.405   7.836  -1.140  1.00  0.00     0.293 HD
ENDBRANCH   6  24
BRANCH   8  26
ATOM     26  O   UNL     1       3.514   4.305   0.775  1.00  0.00    -0.508 OA
ATOM     27  H   UNL     1       3.892   3.433   1.128  1.00  0.00     0.293 HD
ENDBRANCH   8  26
TORSDOF 6
ENDMDL
MODEL 7
REMARK VINA RESULT:    -6.520      1.874      7.194
REMARK INTER + INTRA:          -8.124
REMARK INTER:                  -7.823
REMARK INTRA:                  -0.301
REMARK UNBOUND:                -0.270
REMARK SMILES O=c1c(O)c(-c2ccc(O)c(O)c2)oc2cc(O)cc(O)c12
REMARK SMILES IDX 5 1 3 2 2 3 1 4 22 5 20 6 19 7 17 8 16 9 15 10 14 11 6 12
REMARK SMILES IDX 7 13 8 14 9 15 13 16 11 17 10 18 12 20 4 22 21 24 18 26
REMARK H PARENT 10 19 12 21 4 23 21 25 18 27
REMARK Flexibility Score: inf
ROOT
ATOM      1  C   UNL     1       4.579   7.970   2.777  1.00  0.00     0.180 A 
ATOM      2  C   UNL     1       5.499   8.978   2.437  1.00  0.00     0.208 A 
ATOM      3  C   UNL     1       5.432  10.212   3.102  1.00  0.00     0.238 A 
ATOM      4  O   UNL     1       6.222  11.129   2.756  1.00  0.00    -0.285 OA
ATOM      5  C   UNL     1       4.458  10.419   4.109  1.00  0.00     0.111 A 
ATOM      6  C   UNL     1       4.326  11.616   4.874  1.00  0.00     0.134 A 
ATOM      7  C   UNL     1       3.244  11.758   5.753  1.00  0.00     0.093 A 
ATOM      8  C   UNL     1       2.329  10.720   5.942  1.00  0.00     0.123 A 
ATOM      9  C   UNL     1       2.483   9.525   5.242  1.00  0.00     0.094 A 
ATOM     10  C   UNL     1       3.532   9.367   4.333  1.00  0.00     0.146 A 
ATOM     11  O   UNL     1       3.637   8.217   3.679  1.00  0.00    -0.452 OA
ENDROOT
BRANCH   1  12
ATOM     12  C   UNL     1       4.603   6.634   2.138  1.00  0.00     0.025 A 
ATOM     13  C   UNL     1       5.279   5.578   2.770  1.00  0.00     0.016 A 
ATOM     14  C   UNL     1       5.332   4.316   2.176  1.00  0.00     0.051 A 
ATOM     15  C   UNL     1       4.726   4.091   0.936  1.00  0.00     0.157 A 
ATOM     16  C   UNL     1       4.011   6.412   0.881  1.00  0.00     0.062 A 
ATOM     17  C   UNL     1       4.066   5.146   0.282  1.00  0.00     0.158 A 
BRANCH  15  18
ATOM     18  O   UNL     1       4.793   2.819   0.368  1.00  0.00    -0.504 OA
ATOM     19  H   UNL     1       4.249   2.041   0.723  1.00  0.00     0.293 HD
ENDBRANCH  15  18
BRANCH  17  20
ATOM     20  O   UNL     1       3.472   4.933  -0.961  1.00  0.00    -0.504 OA
ATOM     21  H   UNL     1       2.688   4.299  -1.074  1.00  0.00     0.293 HD
ENDBRANCH  17  20
ENDBRANCH   1  12
BRANCH   2  22
ATOM     22  O   UNL     1       6.438   8.760   1.426  1.00  0.00    -0.502 OA
ATOM     23  H   UNL     1       6.516   9.365   0.617  1.00  0.00     0.293 HD
ENDBRANCH   2  22
BRANCH   6  24
ATOM     24  O   UNL     1       5.237  12.676   4.830  1.00  0.00    -0.507 OA
ATOM     25  H   UNL     1       5.100  13.530   4.310  1.00  0.00     0.293 HD
ENDBRANCH   6  24
BRANCH   8  26
ATOM     26  O   UNL     1       1.264  10.863   6.829  1.00  0.00    -0.508 OA
ATOM     27  H   UNL     1       1.252  10.385   7.723  1.00  0.00     0.293 HD
ENDBRANCH   8  26
TORSDOF 6
ENDMDL
MODEL 8
REMARK VINA RESULT:    -6.494      2.087      6.978
REMARK INTER + INTRA:          -8.093
REMARK INTER:                  -7.895
REMARK INTRA:                  -0.198
REMARK UNBOUND:                -0.270
REMARK SMILES O=c1c(O)c(-c2ccc(O)c(O)c2)oc2cc(O)cc(O)c12
REMARK SMILES IDX 5 1 3 2 2 3 1 4 22 5 20 6 19 7 17 8 16 9 15 10 14 11 6 12
REMARK SMILES IDX 7 13 8 14 9 15 13 16 11 17 10 18 12 20 4 22 21 24 18 26
REMARK H PARENT 10 19 12 21 4 23 21 25 18 27
REMARK Flexibility Score: inf
ROOT
ATOM      1  C   UNL     1       4.464   4.183   0.760  1.00  0.00     0.180 A 
ATOM      2  C   UNL     1       4.576   3.737   2.089  1.00  0.00     0.208 A 
ATOM      3  C   UNL     1       5.181   4.575   3.039  1.00  0.00     0.238 A 
ATOM      4  O   UNL     1       5.328   4.149   4.214  1.00  0.00    -0.285 OA
ATOM      5  C   UNL     1       5.652   5.853   2.653  1.00  0.00     0.111 A 
ATOM      6  C   UNL     1       6.246   6.800   3.541  1.00  0.00     0.134 A 
ATOM      7  C   UNL     1       6.794   7.982   3.025  1.00  0.00     0.093 A 
ATOM      8  C   UNL     1       6.710   8.279   1.663  1.00  0.00     0.123 A 
ATOM      9  C   UNL     1       6.081   7.388   0.797  1.00  0.00     0.094 A 
ATOM     10  C   UNL     1       5.556   6.185   1.276  1.00  0.00     0.146 A 
ATOM     11  O   UNL     1       4.973   5.359   0.416  1.00  0.00    -0.452 OA
ENDROOT
BRANCH   1  12
ATOM     12  C   UNL     1       3.815   3.367  -0.292  1.00  0.00     0.025 A 
ATOM     13  C   UNL     1       2.435   3.119  -0.222  1.00  0.00     0.016 A 
ATOM     14  C   UNL     1       1.807   2.335  -1.192  1.00  0.00     0.051 A 
ATOM     15  C   UNL     1       2.547   1.773  -2.236  1.00  0.00     0.157 A 
ATOM     16  C   UNL     1       4.562   2.783  -1.332  1.00  0.00     0.062 A 
ATOM     17  C   UNL     1       3.933   1.994  -2.304  1.00  0.00     0.158 A 
BRANCH  15  18
ATOM     18  O   UNL     1       1.892   0.996  -3.191  1.00  0.00    -0.504 OA
ATOM     19  H   UNL     1       0.961   1.220  -3.521  1.00  0.00     0.293 HD
ENDBRANCH  15  18
BRANCH  17  20
ATOM     20  O   UNL     1       4.680   1.425  -3.335  1.00  0.00    -0.504 OA
ATOM     21  H   UNL     1       4.549   1.701  -4.302  1.00  0.00     0.293 HD
ENDBRANCH  17  20
ENDBRANCH   1  12
BRANCH   2  22
ATOM     22  O   UNL     1       4.124   2.463   2.443  1.00  0.00    -0.502 OA
ATOM     23  H   UNL     1       3.238   2.092   2.123  1.00  0.00     0.293 HD
ENDBRANCH   2  22
BRANCH   6  24
ATOM     24  O   UNL     1       6.297   6.643   4.929  1.00  0.00    -0.507 OA
ATOM     25  H   UNL     1       6.328   5.754   5.406  1.00  0.00     0.293 HD
ENDBRANCH   6  24
BRANCH   8  26
ATOM     26  O   UNL     1       7.244   9.463   1.160  1.00  0.00    -0.508 OA
ATOM     27  H   UNL     1       6.649  10.205   0.808  1.00  0.00     0.293 HD
ENDBRANCH   8  26
TORSDOF 6
ENDMDL
MODEL 9
REMARK VINA RESULT:    -6.488      5.702      9.160
REMARK INTER + INTRA:          -8.086
REMARK INTER:                  -7.800
REMARK INTRA:                  -0.286
REMARK UNBOUND:                -0.270
REMARK SMILES O=c1c(O)c(-c2ccc(O)c(O)c2)oc2cc(O)cc(O)c12
REMARK SMILES IDX 5 1 3 2 2 3 1 4 22 5 20 6 19 7 17 8 16 9 15 10 14 11 6 12
REMARK SMILES IDX 7 13 8 14 9 15 13 16 11 17 10 18 12 20 4 22 21 24 18 26
REMARK H PARENT 10 19 12 21 4 23 21 25 18 27
REMARK Flexibility Score: inf
ROOT
ATOM      1  C   UNL     1       3.651  10.977   7.028  1.00  0.00     0.180 A 
ATOM      2  C   UNL     1       2.262  11.188   7.073  1.00  0.00     0.208 A 
ATOM      3  C   UNL     1       1.594  11.067   8.302  1.00  0.00     0.238 A 
ATOM      4  O   UNL     1       0.344  11.203   8.327  1.00  0.00    -0.285 OA
ATOM      5  C   UNL     1       2.326  10.752   9.473  1.00  0.00     0.111 A 
ATOM      6  C   UNL     1       1.758  10.644  10.778  1.00  0.00     0.134 A 
ATOM      7  C   UNL     1       2.554  10.199  11.842  1.00  0.00     0.093 A 
ATOM      8  C   UNL     1       3.911   9.923  11.661  1.00  0.00     0.123 A 
ATOM      9  C   UNL     1       4.487  10.083  10.403  1.00  0.00     0.094 A 
ATOM     10  C   UNL     1       3.712  10.490   9.315  1.00  0.00     0.146 A 
ATOM     11  O   UNL     1       4.298  10.619   8.130  1.00  0.00    -0.452 OA
ENDROOT
BRANCH   1  12
ATOM     12  C   UNL     1       4.428  11.112   5.774  1.00  0.00     0.025 A 
ATOM     13  C   UNL     1       4.906   9.959   5.131  1.00  0.00     0.016 A 
ATOM     14  C   UNL     1       5.658  10.064   3.958  1.00  0.00     0.051 A 
ATOM     15  C   UNL     1       5.959  11.319   3.421  1.00  0.00     0.157 A 
ATOM     16  C   UNL     1       4.749  12.374   5.243  1.00  0.00     0.062 A 
ATOM     17  C   UNL     1       5.506  12.481   4.068  1.00  0.00     0.158 A 
BRANCH  15  18
ATOM     18  O   UNL     1       6.709  11.392   2.248  1.00  0.00    -0.504 OA
ATOM     19  H   UNL     1       7.607  10.931   2.153  1.00  0.00     0.293 HD
ENDBRANCH  15  18
BRANCH  17  20
ATOM     20  O   UNL     1       5.814  13.736   3.545  1.00  0.00    -0.504 OA
ATOM     21  H   UNL     1       5.203  14.534   3.681  1.00  0.00     0.293 HD
ENDBRANCH  17  20
ENDBRANCH   1  12
BRANCH   2  22
ATOM     22  O   UNL     1       1.557  11.477   5.902  1.00  0.00    -0.502 OA
ATOM     23  H   UNL     1       0.979  10.790   5.432  1.00  0.00     0.293 HD
ENDBRANCH   2  22
BRANCH   6  24
ATOM     24  O   UNL     1       0.438  10.984  11.086  1.00  0.00    -0.507 OA
ATOM     25  H   UNL     1      -0.017  11.838  10.800  1.00  0.00     0.293 HD
ENDBRANCH   6  24
BRANCH   8  26
ATOM     26  O   UNL     1       4.698   9.497  12.728  1.00  0.00    -0.508 OA
ATOM     27  H   UNL     1       5.619   9.887  12.896  1.00  0.00     0.293 HD
ENDBRANCH   8  26
TORSDOF 6
ENDMDL
