MODEL 1
REMARK VINA RESULT:    -5.447      0.000      0.000
REMARK INTER + INTRA:         -11.204
REMARK INTER:                  -9.905
REMARK INTRA:                  -1.299
REMARK UNBOUND:                -1.299
REMARK SMILES CCCCCCCCCCCCCCCC(=O)[O-]
REMARK SMILES IDX 9 1 10 2 11 3 12 4 13 5 14 6 15 7 16 8 17 9 18 10 8 11 7 12
REMARK SMILES IDX 6 13 5 14 4 15 3 16 2 17 1 18
REMARK H PARENT
REMARK Flexibility Score: inf
ROOT
ATOM      1  C   UNL     1       3.821 -11.556 -18.781  1.00  0.00     0.000 C 
ENDROOT
BRANCH   1   2
ATOM      2  C   UNL     1       2.677 -10.582 -18.426  1.00  0.00     0.000 C 
BRANCH   2   3
ATOM      3  C   UNL     1       3.121  -9.238 -17.823  1.00  0.00     0.000 C 
BRANCH   3   4
ATOM      4  C   UNL     1       2.871  -9.151 -16.307  1.00  0.00     0.000 C 
BRANCH   4   5
ATOM      5  C   UNL     1       4.172  -9.181 -15.483  1.00  0.00     0.000 C 
BRANCH   5   6
ATOM      6  C   UNL     1       4.233 -10.267 -14.387  1.00  0.00     0.006 C 
BRANCH   6   7
ATOM      7  C   UNL     1       3.170 -11.368 -14.519  1.00  0.00     0.053 C 
BRANCH   7   8
ATOM      8  C   UNL     1       3.652 -12.515 -15.353  1.00  0.00     0.041 C 
ATOM      9  O   UNL     1       4.885 -12.736 -15.477  1.00  0.00    -0.550 OA
ATOM     10  O   UNL     1       2.736 -13.361 -15.967  1.00  0.00    -0.550 OA
ENDBRANCH   7   8
ENDBRANCH   6   7
ENDBRANCH   5   6
ENDBRANCH   4   5
ENDBRANCH   3   4
ENDBRANCH   2   3
ENDBRANCH   1   2
BRANCH   1  11
ATOM     11  C   UNL     1       5.240 -10.983 -18.622  1.00  0.00     0.000 C 
BRANCH  11  12
ATOM     12  C   UNL     1       5.939 -10.744 -19.968  1.00  0.00    -0.000 C 
BRANCH  12  13
ATOM     13  C   UNL     1       4.975 -10.111 -20.982  1.00  0.00    -0.000 C 
BRANCH  13  14
ATOM     14  C   UNL     1       5.608  -8.943 -21.761  1.00  0.00    -0.000 C 
BRANCH  14  15
ATOM     15  C   UNL     1       4.621  -7.840 -22.193  1.00  0.00    -0.000 C 
BRANCH  15  16
ATOM     16  C   UNL     1       5.256  -6.643 -22.930  1.00  0.00    -0.000 C 
BRANCH  16  17
ATOM     17  C   UNL     1       6.792  -6.583 -22.860  1.00  0.00    -0.003 C 
ATOM     18  C   UNL     1       7.468  -7.143 -24.110  1.00  0.00     0.004 C 
ENDBRANCH  16  17
ENDBRANCH  15  16
ENDBRANCH  14  15
ENDBRANCH  13  14
ENDBRANCH  12  13
ENDBRANCH  11  12
ENDBRANCH   1  11
TORSDOF 14
ENDMDL
MODEL 2
REMARK VINA RESULT:    -5.391      0.840      1.553
REMARK INTER + INTRA:         -11.103
REMARK INTER:                  -9.585
REMARK INTRA:                  -1.518
REMARK UNBOUND:                -1.299
REMARK SMILES CCCCCCCCCCCCCCCC(=O)[O-]
REMARK SMILES IDX 9 1 10 2 11 3 12 4 13 5 14 6 15 7 16 8 17 9 18 10 8 11 7 12
REMARK SMILES IDX 6 13 5 14 4 15 3 16 2 17 1 18
REMARK H PARENT
REMARK Flexibility Score: inf
ROOT
ATOM      1  C   UNL     1       4.241 -11.652 -19.080  1.00  0.00     0.000 C 
ENDROOT
BRANCH   1   2
ATOM      2  C   UNL     1       3.021 -11.071 -18.335  1.00  0.00     0.000 C 
BRANCH   2   3
ATOM      3  C   UNL     1       3.075  -9.558 -18.061  1.00  0.00     0.000 C 
BRANCH   3   4
ATOM      4  C   UNL     1       2.784  -9.205 -16.591  1.00  0.00     0.000 C 
BRANCH   4   5
ATOM      5  C   UNL     1       4.060  -9.118 -15.732  1.00  0.00     0.000 C 
BRANCH   5   6
ATOM      6  C   UNL     1       4.341 -10.348 -14.844  1.00  0.00     0.006 C 
BRANCH   6   7
ATOM      7  C   UNL     1       3.102 -11.195 -14.514  1.00  0.00     0.053 C 
BRANCH   7   8
ATOM      8  C   UNL     1       3.202 -12.578 -15.081  1.00  0.00     0.041 C 
ATOM      9  O   UNL     1       2.208 -13.350 -15.051  1.00  0.00    -0.550 OA
ATOM     10  O   UNL     1       4.385 -13.002 -15.674  1.00  0.00    -0.550 OA
ENDBRANCH   7   8
ENDBRANCH   6   7
ENDBRANCH   5   6
ENDBRANCH   4   5
ENDBRANCH   3   4
ENDBRANCH   2   3
ENDBRANCH   1   2
BRANCH   1  11
ATOM     11  C   UNL     1       5.584 -10.973 -18.762  1.00  0.00     0.000 C 
BRANCH  11  12
ATOM     12  C   UNL     1       6.266 -10.387 -20.007  1.00  0.00    -0.000 C 
BRANCH  12  13
ATOM     13  C   UNL     1       5.294 -10.348 -21.195  1.00  0.00    -0.000 C 
BRANCH  13  14
ATOM     14  C   UNL     1       4.885  -8.916 -21.586  1.00  0.00    -0.000 C 
BRANCH  14  15
ATOM     15  C   UNL     1       5.996  -8.085 -22.260  1.00  0.00    -0.000 C 
BRANCH  15  16
ATOM     16  C   UNL     1       5.513  -6.817 -22.993  1.00  0.00    -0.000 C 
BRANCH  16  17
ATOM     17  C   UNL     1       4.322  -6.103 -22.332  1.00  0.00    -0.003 C 
ATOM     18  C   UNL     1       3.031  -6.225 -23.140  1.00  0.00     0.004 C 
ENDBRANCH  16  17
ENDBRANCH  15  16
ENDBRANCH  14  15
ENDBRANCH  13  14
ENDBRANCH  12  13
ENDBRANCH  11  12
ENDBRANCH   1  11
TORSDOF 14
ENDMDL
MODEL 3
REMARK VINA RESULT:    -5.220      0.656      1.504
REMARK INTER + INTRA:         -10.791
REMARK INTER:                  -9.389
REMARK INTRA:                  -1.402
REMARK UNBOUND:                -1.299
REMARK SMILES CCCCCCCCCCCCCCCC(=O)[O-]
REMARK SMILES IDX 9 1 10 2 11 3 12 4 13 5 14 6 15 7 16 8 17 9 18 10 8 11 7 12
REMARK SMILES IDX 6 13 5 14 4 15 3 16 2 17 1 18
REMARK H PARENT
REMARK Flexibility Score: inf
ROOT
ATOM      1  C   UNL     1       5.260 -10.675 -19.058  1.00  0.00     0.000 C 
ENDROOT
BRANCH   1   2
ATOM      2  C   UNL     1       3.968 -11.516 -19.006  1.00  0.00     0.000 C 
BRANCH   2   3
ATOM      3  C   UNL     1       2.762 -10.830 -18.340  1.00  0.00     0.000 C 
BRANCH   3   4
ATOM      4  C   UNL     1       3.020  -9.348 -18.017  1.00  0.00     0.000 C 
BRANCH   4   5
ATOM      5  C   UNL     1       3.042  -9.060 -16.504  1.00  0.00     0.000 C 
BRANCH   5   6
ATOM      6  C   UNL     1       4.196  -9.724 -15.723  1.00  0.00     0.006 C 
BRANCH   6   7
ATOM      7  C   UNL     1       3.748 -10.764 -14.685  1.00  0.00     0.053 C 
BRANCH   7   8
ATOM      8  C   UNL     1       3.930 -12.165 -15.182  1.00  0.00     0.041 C 
ATOM      9  O   UNL     1       2.977 -12.986 -15.130  1.00  0.00    -0.550 OA
ATOM     10  O   UNL     1       5.144 -12.555 -15.734  1.00  0.00    -0.550 OA
ENDBRANCH   7   8
ENDBRANCH   6   7
ENDBRANCH   5   6
ENDBRANCH   4   5
ENDBRANCH   3   4
ENDBRANCH   2   3
ENDBRANCH   1   2
BRANCH   1  11
ATOM     11  C   UNL     1       6.101 -10.846 -20.335  1.00  0.00     0.000 C 
BRANCH  11  12
ATOM     12  C   UNL     1       6.077  -9.604 -21.236  1.00  0.00    -0.000 C 
BRANCH  12  13
ATOM     13  C   UNL     1       4.641  -9.268 -21.667  1.00  0.00    -0.000 C 
BRANCH  13  14
ATOM     14  C   UNL     1       4.305  -7.773 -21.513  1.00  0.00    -0.000 C 
BRANCH  14  15
ATOM     15  C   UNL     1       3.905  -7.059 -22.821  1.00  0.00    -0.000 C 
BRANCH  15  16
ATOM     16  C   UNL     1       5.073  -6.435 -23.611  1.00  0.00    -0.000 C 
BRANCH  16  17
ATOM     17  C   UNL     1       6.462  -6.649 -22.987  1.00  0.00    -0.003 C 
ATOM     18  C   UNL     1       7.458  -7.285 -23.955  1.00  0.00     0.004 C 
ENDBRANCH  16  17
ENDBRANCH  15  16
ENDBRANCH  14  15
ENDBRANCH  13  14
ENDBRANCH  12  13
ENDBRANCH  11  12
ENDBRANCH   1  11
TORSDOF 14
ENDMDL
MODEL 4
REMARK VINA RESULT:    -5.157      3.560      7.642
REMARK INTER + INTRA:         -10.677
REMARK INTER:                  -9.093
REMARK INTRA:                  -1.585
REMARK UNBOUND:                -1.299
REMARK SMILES CCCCCCCCCCCCCCCC(=O)[O-]
REMARK SMILES IDX 9 1 10 2 11 3 12 4 13 5 14 6 15 7 16 8 17 9 18 10 8 11 7 12
REMARK SMILES IDX 6 13 5 14 4 15 3 16 2 17 1 18
REMARK H PARENT
REMARK Flexibility Score: inf
ROOT
ATOM      1  C   UNL     1       2.779 -10.803 -18.426  1.00  0.00     0.000 C 
ENDROOT
BRANCH   1   2
ATOM      2  C   UNL     1       3.900 -11.604 -19.119  1.00  0.00     0.000 C 
BRANCH   2   3
ATOM      3  C   UNL     1       5.331 -11.107 -18.846  1.00  0.00     0.000 C 
BRANCH   3   4
ATOM      4  C   UNL     1       6.013 -10.530 -20.099  1.00  0.00     0.000 C 
BRANCH   4   5
ATOM      5  C   UNL     1       5.007 -10.028 -21.152  1.00  0.00     0.000 C 
BRANCH   5   6
ATOM      6  C   UNL     1       5.344  -8.662 -21.787  1.00  0.00     0.006 C 
BRANCH   6   7
ATOM      7  C   UNL     1       4.125  -7.768 -22.063  1.00  0.00     0.053 C 
BRANCH   7   8
ATOM      8  C   UNL     1       4.506  -6.508 -22.777  1.00  0.00     0.041 C 
ATOM      9  O   UNL     1       4.082  -5.395 -22.370  1.00  0.00    -0.550 OA
ATOM     10  O   UNL     1       5.359  -6.561 -23.873  1.00  0.00    -0.550 OA
ENDBRANCH   7   8
ENDBRANCH   6   7
ENDBRANCH   5   6
ENDBRANCH   4   5
ENDBRANCH   3   4
ENDBRANCH   2   3
ENDBRANCH   1   2
BRANCH   1  11
ATOM     11  C   UNL     1       3.144  -9.356 -18.053  1.00  0.00     0.000 C 
BRANCH  11  12
ATOM     12  C   UNL     1       3.055  -9.088 -16.544  1.00  0.00    -0.000 C 
BRANCH  12  13
ATOM     13  C   UNL     1       4.312  -9.595 -15.822  1.00  0.00    -0.000 C 
BRANCH  13  14
ATOM     14  C   UNL     1       4.037 -10.020 -14.368  1.00  0.00    -0.000 C 
BRANCH  14  15
ATOM     15  C   UNL     1       4.085 -11.540 -14.115  1.00  0.00    -0.000 C 
BRANCH  15  16
ATOM     16  C   UNL     1       4.408 -12.401 -15.353  1.00  0.00    -0.000 C 
BRANCH  16  17
ATOM     17  C   UNL     1       3.191 -13.088 -15.997  1.00  0.00    -0.003 C 
ATOM     18  C   UNL     1       2.026 -13.269 -15.026  1.00  0.00     0.004 C 
ENDBRANCH  16  17
ENDBRANCH  15  16
ENDBRANCH  14  15
ENDBRANCH  13  14
ENDBRANCH  12  13
ENDBRANCH  11  12
ENDBRANCH   1  11
TORSDOF 14
ENDMDL
MODEL 5
REMARK VINA RESULT:    -5.121      3.456      7.759
REMARK INTER + INTRA:         -10.612
REMARK INTER:                  -9.363
REMARK INTRA:                  -1.250
REMARK UNBOUND:                -1.299
REMARK SMILES CCCCCCCCCCCCCCCC(=O)[O-]
REMARK SMILES IDX 9 1 10 2 11 3 12 4 13 5 14 6 15 7 16 8 17 9 18 10 8 11 7 12
REMARK SMILES IDX 6 13 5 14 4 15 3 16 2 17 1 18
REMARK H PARENT
REMARK Flexibility Score: inf
ROOT
ATOM      1  C   UNL     1       3.984 -11.847 -18.857  1.00  0.00     0.000 C 
ENDROOT
BRANCH   1   2
ATOM      2  C   UNL     1       5.331 -11.095 -18.812  1.00  0.00     0.000 C 
BRANCH   2   3
ATOM      3  C   UNL     1       5.925 -10.725 -20.182  1.00  0.00     0.000 C 
BRANCH   3   4
ATOM      4  C   UNL     1       4.916 -10.010 -21.098  1.00  0.00     0.000 C 
BRANCH   4   5
ATOM      5  C   UNL     1       5.495  -8.743 -21.754  1.00  0.00     0.000 C 
BRANCH   5   6
ATOM      6  C   UNL     1       4.450  -7.743 -22.291  1.00  0.00     0.006 C 
BRANCH   6   7
ATOM      7  C   UNL     1       5.020  -6.661 -23.222  1.00  0.00     0.053 C 
BRANCH   7   8
ATOM      8  C   UNL     1       6.497  -6.812 -23.417  1.00  0.00     0.041 C 
ATOM      9  O   UNL     1       6.946  -7.400 -24.435  1.00  0.00    -0.550 OA
ATOM     10  O   UNL     1       7.379  -6.273 -22.488  1.00  0.00    -0.550 OA
ENDBRANCH   7   8
ENDBRANCH   6   7
ENDBRANCH   5   6
ENDBRANCH   4   5
ENDBRANCH   3   4
ENDBRANCH   2   3
ENDBRANCH   1   2
BRANCH   1  11
ATOM     11  C   UNL     1       2.770 -11.043 -18.361  1.00  0.00     0.000 C 
BRANCH  11  12
ATOM     12  C   UNL     1       3.101  -9.567 -18.094  1.00  0.00    -0.000 C 
BRANCH  12  13
ATOM     13  C   UNL     1       2.927  -9.227 -16.607  1.00  0.00    -0.000 C 
BRANCH  13  14
ATOM     14  C   UNL     1       4.201  -9.486 -15.781  1.00  0.00    -0.000 C 
BRANCH  14  15
ATOM     15  C   UNL     1       3.956 -10.050 -14.367  1.00  0.00    -0.000 C 
BRANCH  15  16
ATOM     16  C   UNL     1       3.067 -11.309 -14.309  1.00  0.00    -0.000 C 
BRANCH  16  17
ATOM     17  C   UNL     1       3.669 -12.557 -14.977  1.00  0.00    -0.003 C 
ATOM     18  C   UNL     1       2.638 -13.374 -15.754  1.00  0.00     0.004 C 
ENDBRANCH  16  17
ENDBRANCH  15  16
ENDBRANCH  14  15
ENDBRANCH  13  14
ENDBRANCH  12  13
ENDBRANCH  11  12
ENDBRANCH   1  11
TORSDOF 14
ENDMDL
MODEL 6
REMARK VINA RESULT:    -5.042      1.092      2.188
REMARK INTER + INTRA:         -10.468
REMARK INTER:                  -9.240
REMARK INTRA:                  -1.227
REMARK UNBOUND:                -1.299
REMARK SMILES CCCCCCCCCCCCCCCC(=O)[O-]
REMARK SMILES IDX 9 1 10 2 11 3 12 4 13 5 14 6 15 7 16 8 17 9 18 10 8 11 7 12
REMARK SMILES IDX 6 13 5 14 4 15 3 16 2 17 1 18
REMARK H PARENT
REMARK Flexibility Score: inf
ROOT
ATOM      1  C   UNL     1       5.675 -10.838 -19.094  1.00  0.00     0.000 C 
ENDROOT
BRANCH   1   2
ATOM      2  C   UNL     1       4.417 -11.725 -18.979  1.00  0.00     0.000 C 
BRANCH   2   3
ATOM      3  C   UNL     1       3.107 -10.974 -18.684  1.00  0.00     0.000 C 
BRANCH   3   4
ATOM      4  C   UNL     1       3.340  -9.535 -18.191  1.00  0.00     0.000 C 
BRANCH   4   5
ATOM      5  C   UNL     1       3.067  -9.366 -16.685  1.00  0.00     0.000 C 
BRANCH   5   6
ATOM      6  C   UNL     1       4.239  -9.747 -15.756  1.00  0.00     0.006 C 
BRANCH   6   7
ATOM      7  C   UNL     1       3.922 -10.869 -14.756  1.00  0.00     0.053 C 
BRANCH   7   8
ATOM      8  C   UNL     1       4.088 -12.227 -15.367  1.00  0.00     0.041 C 
ATOM      9  O   UNL     1       3.081 -12.947 -15.595  1.00  0.00    -0.550 OA
ATOM     10  O   UNL     1       5.354 -12.682 -15.715  1.00  0.00    -0.550 OA
ENDBRANCH   7   8
ENDBRANCH   6   7
ENDBRANCH   5   6
ENDBRANCH   4   5
ENDBRANCH   3   4
ENDBRANCH   2   3
ENDBRANCH   1   2
BRANCH   1  11
ATOM     11  C   UNL     1       6.157 -10.571 -20.531  1.00  0.00     0.000 C 
BRANCH  11  12
ATOM     12  C   UNL     1       7.661 -10.272 -20.608  1.00  0.00    -0.000 C 
BRANCH  12  13
ATOM     13  C   UNL     1       7.936  -9.092 -21.552  1.00  0.00    -0.000 C 
BRANCH  13  14
ATOM     14  C   UNL     1       6.649  -8.465 -22.117  1.00  0.00    -0.000 C 
BRANCH  14  15
ATOM     15  C   UNL     1       6.872  -7.300 -23.103  1.00  0.00    -0.000 C 
BRANCH  15  16
ATOM     16  C   UNL     1       5.594  -6.554 -23.537  1.00  0.00    -0.000 C 
BRANCH  16  17
ATOM     17  C   UNL     1       4.428  -6.635 -22.538  1.00  0.00    -0.003 C 
ATOM     18  C   UNL     1       3.084  -6.256 -23.158  1.00  0.00     0.004 C 
ENDBRANCH  16  17
ENDBRANCH  15  16
ENDBRANCH  14  15
ENDBRANCH  13  14
ENDBRANCH  12  13
ENDBRANCH  11  12
ENDBRANCH   1  11
TORSDOF 14
ENDMDL
MODEL 7
REMARK VINA RESULT:    -4.983      3.374      7.687
REMARK INTER + INTRA:         -10.361
REMARK INTER:                  -9.115
REMARK INTRA:                  -1.246
REMARK UNBOUND:                -1.299
REMARK SMILES CCCCCCCCCCCCCCCC(=O)[O-]
REMARK SMILES IDX 9 1 10 2 11 3 12 4 13 5 14 6 15 7 16 8 17 9 18 10 8 11 7 12
REMARK SMILES IDX 6 13 5 14 4 15 3 16 2 17 1 18
REMARK H PARENT
REMARK Flexibility Score: inf
ROOT
ATOM      1  C   UNL     1       4.938 -10.514 -19.828  1.00  0.00     0.000 C 
ENDROOT
BRANCH   1   2
ATOM      2  C   UNL     1       6.449 -10.816 -19.892  1.00  0.00     0.000 C 
BRANCH   2   3
ATOM      3  C   UNL     1       7.239 -10.006 -20.935  1.00  0.00     0.000 C 
BRANCH   3   4
ATOM      4  C   UNL     1       6.349  -9.053 -21.751  1.00  0.00     0.000 C 
BRANCH   4   5
ATOM      5  C   UNL     1       7.156  -7.989 -22.518  1.00  0.00     0.000 C 
BRANCH   5   6
ATOM      6  C   UNL     1       6.448  -6.630 -22.702  1.00  0.00     0.006 C 
BRANCH   6   7
ATOM      7  C   UNL     1       5.291  -6.644 -23.712  1.00  0.00     0.053 C 
BRANCH   7   8
ATOM      8  C   UNL     1       3.962  -6.466 -23.045  1.00  0.00     0.041 C 
ATOM      9  O   UNL     1       3.870  -6.509 -21.790  1.00  0.00    -0.550 OA
ATOM     10  O   UNL     1       2.828  -6.218 -23.809  1.00  0.00    -0.550 OA
ENDBRANCH   7   8
ENDBRANCH   6   7
ENDBRANCH   5   6
ENDBRANCH   4   5
ENDBRANCH   3   4
ENDBRANCH   2   3
ENDBRANCH   1   2
BRANCH   1  11
ATOM     11  C   UNL     1       4.093 -11.558 -19.077  1.00  0.00     0.000 C 
BRANCH  11  12
ATOM     12  C   UNL     1       2.826 -10.959 -18.449  1.00  0.00    -0.000 C 
BRANCH  12  13
ATOM     13  C   UNL     1       3.021  -9.467 -18.139  1.00  0.00    -0.000 C 
BRANCH  13  14
ATOM     14  C   UNL     1       2.990  -9.161 -16.630  1.00  0.00    -0.000 C 
BRANCH  14  15
ATOM     15  C   UNL     1       4.185  -9.716 -15.830  1.00  0.00    -0.000 C 
BRANCH  15  16
ATOM     16  C   UNL     1       3.814 -10.501 -14.555  1.00  0.00    -0.000 C 
BRANCH  16  17
ATOM     17  C   UNL     1       4.105 -12.010 -14.619  1.00  0.00    -0.003 C 
ATOM     18  C   UNL     1       2.926 -12.822 -15.153  1.00  0.00     0.004 C 
ENDBRANCH  16  17
ENDBRANCH  15  16
ENDBRANCH  14  15
ENDBRANCH  13  14
ENDBRANCH  12  13
ENDBRANCH  11  12
ENDBRANCH   1  11
TORSDOF 14
ENDMDL
MODEL 8
REMARK VINA RESULT:    -4.805      1.540      2.656
REMARK INTER + INTRA:         -10.037
REMARK INTER:                  -8.840
REMARK INTRA:                  -1.197
REMARK UNBOUND:                -1.299
REMARK SMILES CCCCCCCCCCCCCCCC(=O)[O-]
REMARK SMILES IDX 9 1 10 2 11 3 12 4 13 5 14 6 15 7 16 8 17 9 18 10 8 11 7 12
REMARK SMILES IDX 6 13 5 14 4 15 3 16 2 17 1 18
REMARK H PARENT
REMARK Flexibility Score: inf
ROOT
ATOM      1  C   UNL     1       3.685  -9.918 -17.701  1.00  0.00     0.000 C 
ENDROOT
BRANCH   1   2
ATOM      2  C   UNL     1       3.382  -9.270 -16.334  1.00  0.00     0.000 C 
BRANCH   2   3
ATOM      3  C   UNL     1       4.154  -9.860 -15.141  1.00  0.00     0.000 C 
BRANCH   3   4
ATOM      4  C   UNL     1       3.343 -10.911 -14.364  1.00  0.00     0.000 C 
BRANCH   4   5
ATOM      5  C   UNL     1       3.902 -12.337 -14.522  1.00  0.00     0.000 C 
BRANCH   5   6
ATOM      6  C   UNL     1       3.656 -12.992 -15.898  1.00  0.00     0.006 C 
BRANCH   6   7
ATOM      7  C   UNL     1       2.301 -13.704 -16.034  1.00  0.00     0.053 C 
BRANCH   7   8
ATOM      8  C   UNL     1       1.939 -13.950 -17.466  1.00  0.00     0.041 C 
ATOM      9  O   UNL     1       1.194 -14.916 -17.776  1.00  0.00    -0.550 OA
ATOM     10  O   UNL     1       2.398 -13.090 -18.457  1.00  0.00    -0.550 OA
ENDBRANCH   7   8
ENDBRANCH   6   7
ENDBRANCH   5   6
ENDBRANCH   4   5
ENDBRANCH   3   4
ENDBRANCH   2   3
ENDBRANCH   1   2
BRANCH   1  11
ATOM     11  C   UNL     1       5.129 -10.417 -17.883  1.00  0.00     0.000 C 
BRANCH  11  12
ATOM     12  C   UNL     1       5.322 -11.228 -19.172  1.00  0.00    -0.000 C 
BRANCH  12  13
ATOM     13  C   UNL     1       5.987 -10.374 -20.262  1.00  0.00    -0.000 C 
BRANCH  13  14
ATOM     14  C   UNL     1       5.019  -9.992 -21.397  1.00  0.00    -0.000 C 
BRANCH  14  15
ATOM     15  C   UNL     1       4.643  -8.498 -21.455  1.00  0.00    -0.000 C 
BRANCH  15  16
ATOM     16  C   UNL     1       5.402  -7.671 -22.512  1.00  0.00    -0.000 C 
BRANCH  16  17
ATOM     17  C   UNL     1       4.756  -6.320 -22.861  1.00  0.00    -0.003 C 
ATOM     18  C   UNL     1       3.229  -6.380 -22.892  1.00  0.00     0.004 C 
ENDBRANCH  16  17
ENDBRANCH  15  16
ENDBRANCH  14  15
ENDBRANCH  13  14
ENDBRANCH  12  13
ENDBRANCH  11  12
ENDBRANCH   1  11
TORSDOF 14
ENDMDL
MODEL 9
REMARK VINA RESULT:    -4.523      3.569      7.690
REMARK INTER + INTRA:          -9.524
REMARK INTER:                  -8.256
REMARK INTRA:                  -1.267
REMARK UNBOUND:                -1.299
REMARK SMILES CCCCCCCCCCCCCCCC(=O)[O-]
REMARK SMILES IDX 9 1 10 2 11 3 12 4 13 5 14 6 15 7 16 8 17 9 18 10 8 11 7 12
REMARK SMILES IDX 6 13 5 14 4 15 3 16 2 17 1 18
REMARK H PARENT
REMARK Flexibility Score: inf
ROOT
ATOM      1  C   UNL     1       4.842 -11.555 -17.839  1.00  0.00     0.000 C 
ENDROOT
BRANCH   1   2
ATOM      2  C   UNL     1       5.555 -10.851 -19.012  1.00  0.00     0.000 C 
BRANCH   2   3
ATOM      3  C   UNL     1       4.635 -10.355 -20.141  1.00  0.00     0.000 C 
BRANCH   3   4
ATOM      4  C   UNL     1       5.412  -9.784 -21.340  1.00  0.00     0.000 C 
BRANCH   4   5
ATOM      5  C   UNL     1       4.772  -8.508 -21.917  1.00  0.00     0.000 C 
BRANCH   5   6
ATOM      6  C   UNL     1       5.759  -7.505 -22.551  1.00  0.00     0.006 C 
BRANCH   6   7
ATOM      7  C   UNL     1       5.154  -6.627 -23.657  1.00  0.00     0.053 C 
BRANCH   7   8
ATOM      8  C   UNL     1       3.848  -6.024 -23.242  1.00  0.00     0.041 C 
ATOM      9  O   UNL     1       2.793  -6.297 -23.873  1.00  0.00    -0.550 OA
ATOM     10  O   UNL     1       3.790  -5.185 -22.135  1.00  0.00    -0.550 OA
ENDBRANCH   7   8
ENDBRANCH   6   7
ENDBRANCH   5   6
ENDBRANCH   4   5
ENDBRANCH   3   4
ENDBRANCH   2   3
ENDBRANCH   1   2
BRANCH   1  11
ATOM     11  C   UNL     1       3.344 -11.830 -18.056  1.00  0.00     0.000 C 
BRANCH  11  12
ATOM     12  C   UNL     1       2.793 -12.909 -17.111  1.00  0.00    -0.000 C 
BRANCH  12  13
ATOM     13  C   UNL     1       3.648 -13.011 -15.839  1.00  0.00    -0.000 C 
BRANCH  13  14
ATOM     14  C   UNL     1       2.885 -12.584 -14.571  1.00  0.00    -0.000 C 
BRANCH  14  15
ATOM     15  C   UNL     1       2.925 -11.073 -14.267  1.00  0.00    -0.000 C 
BRANCH  15  16
ATOM     16  C   UNL     1       4.323 -10.426 -14.339  1.00  0.00    -0.000 C 
BRANCH  16  17
ATOM     17  C   UNL     1       4.446  -9.266 -15.343  1.00  0.00    -0.003 C 
ATOM     18  C   UNL     1       3.139  -8.971 -16.076  1.00  0.00     0.004 C 
ENDBRANCH  16  17
ENDBRANCH  15  16
ENDBRANCH  14  15
ENDBRANCH  13  14
ENDBRANCH  12  13
ENDBRANCH  11  12
ENDBRANCH   1  11
TORSDOF 14
ENDMDL
