MODEL 1
REMARK VINA RESULT:    -4.655      0.000      0.000
REMARK INTER + INTRA:          -8.951
REMARK INTER:                  -7.921
REMARK INTRA:                  -1.030
REMARK UNBOUND:                -1.030
REMARK SMILES CCCCCCCCCCCCCC(=O)[O-]
REMARK SMILES IDX 8 1 9 2 10 3 11 4 12 5 13 6 14 7 15 8 16 9 7 10 6 11 5 12
REMARK SMILES IDX 4 13 3 14 2 15 1 16
REMARK H PARENT
REMARK Flexibility Score: inf
ROOT
ATOM      1  C   UNL     1       0.805 -22.063 -15.936  1.00  0.00     0.000 C 
ENDROOT
BRANCH   1   2
ATOM      2  C   UNL     1       0.266 -20.965 -15.006  1.00  0.00     0.000 C 
BRANCH   2   3
ATOM      3  C   UNL     1       1.184 -20.705 -13.801  1.00  0.00     0.000 C 
BRANCH   3   4
ATOM      4  C   UNL     1       2.655 -20.662 -14.231  1.00  0.00     0.000 C 
BRANCH   4   5
ATOM      5  C   UNL     1       3.520 -19.968 -13.168  1.00  0.00     0.006 C 
BRANCH   5   6
ATOM      6  C   UNL     1       2.958 -20.152 -11.753  1.00  0.00     0.053 C 
BRANCH   6   7
ATOM      7  C   UNL     1       3.915 -20.889 -10.867  1.00  0.00     0.041 C 
ATOM      8  O   UNL     1       4.355 -22.018 -11.210  1.00  0.00    -0.550 OA
ATOM      9  O   UNL     1       4.347 -20.314  -9.678  1.00  0.00    -0.550 OA
ENDBRANCH   6   7
ENDBRANCH   5   6
ENDBRANCH   4   5
ENDBRANCH   3   4
ENDBRANCH   2   3
ENDBRANCH   1   2
BRANCH   1  10
ATOM     10  C   UNL     1      -0.317 -22.891 -16.587  1.00  0.00     0.000 C 
BRANCH  10  11
ATOM     11  C   UNL     1      -0.664 -24.151 -15.779  1.00  0.00    -0.000 C 
BRANCH  11  12
ATOM     12  C   UNL     1       0.549 -24.736 -15.040  1.00  0.00    -0.000 C 
BRANCH  12  13
ATOM     13  C   UNL     1       0.270 -24.857 -13.537  1.00  0.00    -0.000 C 
BRANCH  13  14
ATOM     14  C   UNL     1      -1.119 -25.452 -13.280  1.00  0.00    -0.000 C 
BRANCH  14  15
ATOM     15  C   UNL     1      -1.033 -26.962 -13.029  1.00  0.00    -0.003 C 
ATOM     16  C   UNL     1      -0.313 -27.263 -11.718  1.00  0.00     0.004 C 
ENDBRANCH  14  15
ENDBRANCH  13  14
ENDBRANCH  12  13
ENDBRANCH  11  12
ENDBRANCH  10  11
ENDBRANCH   1  10
TORSDOF 12
ENDMDL
MODEL 2
REMARK VINA RESULT:    -4.624      1.485      2.242
REMARK INTER + INTRA:          -8.898
REMARK INTER:                  -7.105
REMARK INTRA:                  -1.793
REMARK UNBOUND:                -1.030
REMARK SMILES CCCCCCCCCCCCCC(=O)[O-]
REMARK SMILES IDX 8 1 9 2 10 3 11 4 12 5 13 6 14 7 15 8 16 9 7 10 6 11 5 12
REMARK SMILES IDX 4 13 3 14 2 15 1 16
REMARK H PARENT
REMARK Flexibility Score: inf
ROOT
ATOM      1  C   UNL     1      -1.049 -21.689 -15.087  1.00  0.00     0.000 C 
ENDROOT
BRANCH   1   2
ATOM      2  C   UNL     1       0.186 -21.773 -15.998  1.00  0.00     0.000 C 
BRANCH   2   3
ATOM      3  C   UNL     1       1.507 -21.738 -15.213  1.00  0.00     0.000 C 
BRANCH   3   4
ATOM      4  C   UNL     1       1.490 -20.620 -14.163  1.00  0.00     0.000 C 
BRANCH   4   5
ATOM      5  C   UNL     1       2.916 -20.267 -13.712  1.00  0.00     0.006 C 
BRANCH   5   6
ATOM      6  C   UNL     1       3.102 -20.431 -12.198  1.00  0.00     0.053 C 
BRANCH   6   7
ATOM      7  C   UNL     1       4.261 -21.325 -11.876  1.00  0.00     0.041 C 
ATOM      8  O   UNL     1       5.364 -21.169 -12.462  1.00  0.00    -0.550 OA
ATOM      9  O   UNL     1       4.131 -22.309 -10.903  1.00  0.00    -0.550 OA
ENDBRANCH   6   7
ENDBRANCH   5   6
ENDBRANCH   4   5
ENDBRANCH   3   4
ENDBRANCH   2   3
ENDBRANCH   1   2
BRANCH   1  10
ATOM     10  C   UNL     1      -1.620 -23.073 -14.734  1.00  0.00     0.000 C 
BRANCH  10  11
ATOM     11  C   UNL     1      -0.884 -24.216 -15.452  1.00  0.00    -0.000 C 
BRANCH  11  12
ATOM     12  C   UNL     1       0.026 -25.020 -14.510  1.00  0.00    -0.000 C 
BRANCH  12  13
ATOM     13  C   UNL     1      -0.257 -24.672 -13.044  1.00  0.00    -0.000 C 
BRANCH  13  14
ATOM     14  C   UNL     1       1.009 -24.169 -12.342  1.00  0.00    -0.000 C 
BRANCH  14  15
ATOM     15  C   UNL     1       0.660 -23.388 -11.070  1.00  0.00    -0.003 C 
ATOM     16  C   UNL     1      -0.255 -22.208 -11.381  1.00  0.00     0.004 C 
ENDBRANCH  14  15
ENDBRANCH  13  14
ENDBRANCH  12  13
ENDBRANCH  11  12
ENDBRANCH  10  11
ENDBRANCH   1  10
TORSDOF 12
ENDMDL
MODEL 3
REMARK VINA RESULT:    -4.607      1.319      2.001
REMARK INTER + INTRA:          -8.868
REMARK INTER:                  -7.791
REMARK INTRA:                  -1.077
REMARK UNBOUND:                -1.030
REMARK SMILES CCCCCCCCCCCCCC(=O)[O-]
REMARK SMILES IDX 8 1 9 2 10 3 11 4 12 5 13 6 14 7 15 8 16 9 7 10 6 11 5 12
REMARK SMILES IDX 4 13 3 14 2 15 1 16
REMARK H PARENT
REMARK Flexibility Score: inf
ROOT
ATOM      1  C   UNL     1      -0.502 -23.485 -16.114  1.00  0.00     0.000 C 
ENDROOT
BRANCH   1   2
ATOM      2  C   UNL     1      -0.289 -22.000 -15.779  1.00  0.00     0.000 C 
BRANCH   2   3
ATOM      3  C   UNL     1       1.180 -21.664 -15.479  1.00  0.00     0.000 C 
BRANCH   3   4
ATOM      4  C   UNL     1       1.291 -20.715 -14.278  1.00  0.00     0.000 C 
BRANCH   4   5
ATOM      5  C   UNL     1       2.742 -20.619 -13.785  1.00  0.00     0.006 C 
BRANCH   5   6
ATOM      6  C   UNL     1       2.849 -20.758 -12.262  1.00  0.00     0.053 C 
BRANCH   6   7
ATOM      7  C   UNL     1       4.117 -21.444 -11.854  1.00  0.00     0.041 C 
ATOM      8  O   UNL     1       5.186 -21.224 -12.481  1.00  0.00    -0.550 OA
ATOM      9  O   UNL     1       4.123 -22.303 -10.762  1.00  0.00    -0.550 OA
ENDBRANCH   6   7
ENDBRANCH   5   6
ENDBRANCH   4   5
ENDBRANCH   3   4
ENDBRANCH   2   3
ENDBRANCH   1   2
BRANCH   1  10
ATOM     10  C   UNL     1       0.497 -24.404 -15.390  1.00  0.00     0.000 C 
BRANCH  10  11
ATOM     11  C   UNL     1      -0.087 -25.015 -14.106  1.00  0.00    -0.000 C 
BRANCH  11  12
ATOM     12  C   UNL     1       0.271 -24.208 -12.848  1.00  0.00    -0.000 C 
BRANCH  12  13
ATOM     13  C   UNL     1       1.179 -25.019 -11.916  1.00  0.00    -0.000 C 
BRANCH  13  14
ATOM     14  C   UNL     1       0.769 -24.838 -10.450  1.00  0.00    -0.000 C 
BRANCH  14  15
ATOM     15  C   UNL     1      -0.158 -25.971  -9.995  1.00  0.00    -0.003 C 
ATOM     16  C   UNL     1       0.230 -27.295 -10.644  1.00  0.00     0.004 C 
ENDBRANCH  14  15
ENDBRANCH  13  14
ENDBRANCH  12  13
ENDBRANCH  11  12
ENDBRANCH  10  11
ENDBRANCH   1  10
TORSDOF 12
ENDMDL
MODEL 4
REMARK VINA RESULT:    -4.574     11.422     12.958
REMARK INTER + INTRA:          -8.812
REMARK INTER:                  -7.589
REMARK INTRA:                  -1.223
REMARK UNBOUND:                -1.030
REMARK SMILES CCCCCCCCCCCCCC(=O)[O-]
REMARK SMILES IDX 8 1 9 2 10 3 11 4 12 5 13 6 14 7 15 8 16 9 7 10 6 11 5 12
REMARK SMILES IDX 4 13 3 14 2 15 1 16
REMARK H PARENT
REMARK Flexibility Score: inf
ROOT
ATOM      1  C   UNL     1      -5.369 -21.456  -2.380  1.00  0.00     0.000 C 
ENDROOT
BRANCH   1   2
ATOM      2  C   UNL     1      -5.775 -20.912  -3.758  1.00  0.00     0.000 C 
BRANCH   2   3
ATOM      3  C   UNL     1      -7.173 -20.275  -3.758  1.00  0.00     0.000 C 
BRANCH   3   4
ATOM      4  C   UNL     1      -7.380 -19.404  -5.003  1.00  0.00     0.000 C 
BRANCH   4   5
ATOM      5  C   UNL     1      -8.828 -19.498  -5.506  1.00  0.00     0.006 C 
BRANCH   5   6
ATOM      6  C   UNL     1      -8.903 -19.850  -6.997  1.00  0.00     0.053 C 
BRANCH   6   7
ATOM      7  C   UNL     1     -10.187 -20.541  -7.340  1.00  0.00     0.041 C 
ATOM      8  O   UNL     1     -11.288 -19.953  -7.170  1.00  0.00    -0.550 OA
ATOM      9  O   UNL     1     -10.167 -21.821  -7.878  1.00  0.00    -0.550 OA
ENDBRANCH   6   7
ENDBRANCH   5   6
ENDBRANCH   4   5
ENDBRANCH   3   4
ENDBRANCH   2   3
ENDBRANCH   1   2
BRANCH   1  10
ATOM     10  C   UNL     1      -4.221 -22.477  -2.461  1.00  0.00     0.000 C 
BRANCH  10  11
ATOM     11  C   UNL     1      -3.966 -22.966  -3.896  1.00  0.00    -0.000 C 
BRANCH  11  12
ATOM     12  C   UNL     1      -3.795 -24.491  -3.982  1.00  0.00    -0.000 C 
BRANCH  12  13
ATOM     13  C   UNL     1      -4.955 -25.131  -4.755  1.00  0.00    -0.000 C 
BRANCH  13  14
ATOM     14  C   UNL     1      -6.096 -24.129  -4.967  1.00  0.00    -0.000 C 
BRANCH  14  15
ATOM     15  C   UNL     1      -6.525 -24.086  -6.438  1.00  0.00    -0.003 C 
ATOM     16  C   UNL     1      -6.593 -22.651  -6.950  1.00  0.00     0.004 C 
ENDBRANCH  14  15
ENDBRANCH  13  14
ENDBRANCH  12  13
ENDBRANCH  11  12
ENDBRANCH  10  11
ENDBRANCH   1  10
TORSDOF 12
ENDMDL
MODEL 5
REMARK VINA RESULT:    -4.541      1.492      3.213
REMARK INTER + INTRA:          -8.756
REMARK INTER:                  -6.882
REMARK INTRA:                  -1.873
REMARK UNBOUND:                -1.030
REMARK SMILES CCCCCCCCCCCCCC(=O)[O-]
REMARK SMILES IDX 8 1 9 2 10 3 11 4 12 5 13 6 14 7 15 8 16 9 7 10 6 11 5 12
REMARK SMILES IDX 4 13 3 14 2 15 1 16
REMARK H PARENT
REMARK Flexibility Score: inf
ROOT
ATOM      1  C   UNL     1      -1.950 -21.712 -12.980  1.00  0.00     0.000 C 
ENDROOT
BRANCH   1   2
ATOM      2  C   UNL     1      -0.673 -20.858 -12.952  1.00  0.00     0.000 C 
BRANCH   2   3
ATOM      3  C   UNL     1      -0.227 -20.409 -14.353  1.00  0.00     0.000 C 
BRANCH   3   4
ATOM      4  C   UNL     1       1.288 -20.574 -14.525  1.00  0.00     0.000 C 
BRANCH   4   5
ATOM      5  C   UNL     1       1.997 -20.600 -13.163  1.00  0.00     0.006 C 
BRANCH   5   6
ATOM      6  C   UNL     1       3.519 -20.468 -13.298  1.00  0.00     0.053 C 
BRANCH   6   7
ATOM      7  C   UNL     1       4.238 -21.153 -12.176  1.00  0.00     0.041 C 
ATOM      8  O   UNL     1       3.621 -21.459 -11.122  1.00  0.00    -0.550 OA
ATOM      9  O   UNL     1       5.581 -21.484 -12.309  1.00  0.00    -0.550 OA
ENDBRANCH   6   7
ENDBRANCH   5   6
ENDBRANCH   4   5
ENDBRANCH   3   4
ENDBRANCH   2   3
ENDBRANCH   1   2
BRANCH   1  10
ATOM     10  C   UNL     1      -1.685 -23.186 -12.628  1.00  0.00     0.000 C 
BRANCH  10  11
ATOM     11  C   UNL     1      -0.248 -23.426 -12.139  1.00  0.00    -0.000 C 
BRANCH  11  12
ATOM     12  C   UNL     1       0.458 -24.559 -12.900  1.00  0.00    -0.000 C 
BRANCH  12  13
ATOM     13  C   UNL     1      -0.274 -24.879 -14.210  1.00  0.00    -0.000 C 
BRANCH  13  14
ATOM     14  C   UNL     1       0.447 -24.255 -15.410  1.00  0.00    -0.000 C 
BRANCH  14  15
ATOM     15  C   UNL     1      -0.550 -23.587 -16.364  1.00  0.00    -0.003 C 
ATOM     16  C   UNL     1       0.161 -22.655 -17.341  1.00  0.00     0.004 C 
ENDBRANCH  14  15
ENDBRANCH  13  14
ENDBRANCH  12  13
ENDBRANCH  11  12
ENDBRANCH  10  11
ENDBRANCH   1  10
TORSDOF 12
ENDMDL
MODEL 6
REMARK VINA RESULT:    -4.531     11.218     12.386
REMARK INTER + INTRA:          -8.739
REMARK INTER:                  -7.051
REMARK INTRA:                  -1.688
REMARK UNBOUND:                -1.030
REMARK SMILES CCCCCCCCCCCCCC(=O)[O-]
REMARK SMILES IDX 8 1 9 2 10 3 11 4 12 5 13 6 14 7 15 8 16 9 7 10 6 11 5 12
REMARK SMILES IDX 4 13 3 14 2 15 1 16
REMARK H PARENT
REMARK Flexibility Score: inf
ROOT
ATOM      1  C   UNL     1      -6.335 -21.038  -7.964  1.00  0.00     0.000 C 
ENDROOT
BRANCH   1   2
ATOM      2  C   UNL     1      -5.985 -20.070  -6.823  1.00  0.00     0.000 C 
BRANCH   2   3
ATOM      3  C   UNL     1      -6.999 -20.121  -5.669  1.00  0.00     0.000 C 
BRANCH   3   4
ATOM      4  C   UNL     1      -7.729 -18.780  -5.522  1.00  0.00     0.000 C 
BRANCH   4   5
ATOM      5  C   UNL     1      -9.235 -18.942  -5.782  1.00  0.00     0.006 C 
BRANCH   5   6
ATOM      6  C   UNL     1      -9.588 -18.781  -7.266  1.00  0.00     0.053 C 
BRANCH   6   7
ATOM      7  C   UNL     1     -10.403 -19.932  -7.771  1.00  0.00     0.041 C 
ATOM      8  O   UNL     1     -11.017 -20.676  -6.962  1.00  0.00    -0.550 OA
ATOM      9  O   UNL     1     -10.511 -20.163  -9.137  1.00  0.00    -0.550 OA
ENDBRANCH   6   7
ENDBRANCH   5   6
ENDBRANCH   4   5
ENDBRANCH   3   4
ENDBRANCH   2   3
ENDBRANCH   1   2
BRANCH   1  10
ATOM     10  C   UNL     1      -7.481 -21.996  -7.597  1.00  0.00     0.000 C 
BRANCH  10  11
ATOM     11  C   UNL     1      -7.050 -23.471  -7.625  1.00  0.00    -0.000 C 
BRANCH  11  12
ATOM     12  C   UNL     1      -6.729 -24.023  -6.227  1.00  0.00    -0.000 C 
BRANCH  12  13
ATOM     13  C   UNL     1      -5.220 -23.990  -5.957  1.00  0.00    -0.000 C 
BRANCH  13  14
ATOM     14  C   UNL     1      -4.921 -23.419  -4.566  1.00  0.00    -0.000 C 
BRANCH  14  15
ATOM     15  C   UNL     1      -6.182 -23.403  -3.694  1.00  0.00    -0.003 C 
ATOM     16  C   UNL     1      -6.277 -22.114  -2.884  1.00  0.00     0.004 C 
ENDBRANCH  14  15
ENDBRANCH  13  14
ENDBRANCH  12  13
ENDBRANCH  11  12
ENDBRANCH  10  11
ENDBRANCH   1  10
TORSDOF 12
ENDMDL
MODEL 7
REMARK VINA RESULT:    -4.466     10.857     13.511
REMARK INTER + INTRA:          -8.629
REMARK INTER:                  -7.088
REMARK INTRA:                  -1.540
REMARK UNBOUND:                -1.030
REMARK SMILES CCCCCCCCCCCCCC(=O)[O-]
REMARK SMILES IDX 8 1 9 2 10 3 11 4 12 5 13 6 14 7 15 8 16 9 7 10 6 11 5 12
REMARK SMILES IDX 4 13 3 14 2 15 1 16
REMARK H PARENT
REMARK Flexibility Score: inf
ROOT
ATOM      1  C   UNL     1      -8.977 -28.368 -15.482  1.00  0.00     0.000 C 
ENDROOT
BRANCH   1   2
ATOM      2  C   UNL     1     -10.338 -28.855 -16.004  1.00  0.00     0.000 C 
BRANCH   2   3
ATOM      3  C   UNL     1     -10.312 -29.194 -17.503  1.00  0.00     0.000 C 
BRANCH   3   4
ATOM      4  C   UNL     1      -8.871 -29.273 -18.022  1.00  0.00     0.000 C 
BRANCH   4   5
ATOM      5  C   UNL     1      -8.741 -30.335 -19.125  1.00  0.00     0.006 C 
BRANCH   5   6
ATOM      6  C   UNL     1      -7.440 -31.139 -19.006  1.00  0.00     0.053 C 
BRANCH   6   7
ATOM      7  C   UNL     1      -7.463 -32.058 -17.822  1.00  0.00     0.041 C 
ATOM      8  O   UNL     1      -8.513 -32.687 -17.528  1.00  0.00    -0.550 OA
ATOM      9  O   UNL     1      -6.313 -32.243 -17.064  1.00  0.00    -0.550 OA
ENDBRANCH   6   7
ENDBRANCH   5   6
ENDBRANCH   4   5
ENDBRANCH   3   4
ENDBRANCH   2   3
ENDBRANCH   1   2
BRANCH   1  10
ATOM     10  C   UNL     1      -9.056 -26.977 -14.830  1.00  0.00     0.000 C 
BRANCH  10  11
ATOM     11  C   UNL     1     -10.045 -26.044 -15.549  1.00  0.00    -0.000 C 
BRANCH  11  12
ATOM     12  C   UNL     1      -9.362 -25.145 -16.591  1.00  0.00    -0.000 C 
BRANCH  12  13
ATOM     13  C   UNL     1      -9.762 -25.554 -18.014  1.00  0.00    -0.000 C 
BRANCH  13  14
ATOM     14  C   UNL     1      -8.616 -25.305 -19.002  1.00  0.00    -0.000 C 
BRANCH  14  15
ATOM     15  C   UNL     1      -7.393 -26.160 -18.653  1.00  0.00    -0.003 C 
ATOM     16  C   UNL     1      -6.103 -25.496 -19.125  1.00  0.00     0.004 C 
ENDBRANCH  14  15
ENDBRANCH  13  14
ENDBRANCH  12  13
ENDBRANCH  11  12
ENDBRANCH  10  11
ENDBRANCH   1  10
TORSDOF 12
ENDMDL
MODEL 8
REMARK VINA RESULT:    -4.448     11.176     12.616
REMARK INTER + INTRA:          -8.599
REMARK INTER:                  -7.645
REMARK INTRA:                  -0.954
REMARK UNBOUND:                -1.030
REMARK SMILES CCCCCCCCCCCCCC(=O)[O-]
REMARK SMILES IDX 8 1 9 2 10 3 11 4 12 5 13 6 14 7 15 8 16 9 7 10 6 11 5 12
REMARK SMILES IDX 4 13 3 14 2 15 1 16
REMARK H PARENT
REMARK Flexibility Score: inf
ROOT
ATOM      1  C   UNL     1      -5.925 -21.109  -3.857  1.00  0.00     0.000 C 
ENDROOT
BRANCH   1   2
ATOM      2  C   UNL     1      -7.136 -20.184  -3.661  1.00  0.00     0.000 C 
BRANCH   2   3
ATOM      3  C   UNL     1      -7.535 -19.446  -4.948  1.00  0.00     0.000 C 
BRANCH   3   4
ATOM      4  C   UNL     1      -7.086 -20.227  -6.190  1.00  0.00     0.000 C 
BRANCH   4   5
ATOM      5  C   UNL     1      -7.919 -19.833  -7.419  1.00  0.00     0.006 C 
BRANCH   5   6
ATOM      6  C   UNL     1      -9.222 -19.122  -7.033  1.00  0.00     0.053 C 
BRANCH   6   7
ATOM      7  C   UNL     1     -10.421 -19.807  -7.616  1.00  0.00     0.041 C 
ATOM      8  O   UNL     1     -10.726 -19.631  -8.825  1.00  0.00    -0.550 OA
ATOM      9  O   UNL     1     -11.181 -20.666  -6.831  1.00  0.00    -0.550 OA
ENDBRANCH   6   7
ENDBRANCH   5   6
ENDBRANCH   4   5
ENDBRANCH   3   4
ENDBRANCH   2   3
ENDBRANCH   1   2
BRANCH   1  10
ATOM     10  C   UNL     1      -6.005 -22.380  -2.994  1.00  0.00     0.000 C 
BRANCH  10  11
ATOM     11  C   UNL     1      -6.117 -23.661  -3.836  1.00  0.00    -0.000 C 
BRANCH  11  12
ATOM     12  C   UNL     1      -5.785 -23.427  -5.319  1.00  0.00    -0.000 C 
BRANCH  12  13
ATOM     13  C   UNL     1      -4.718 -24.415  -5.805  1.00  0.00    -0.000 C 
BRANCH  13  14
ATOM     14  C   UNL     1      -4.827 -25.753  -5.064  1.00  0.00    -0.000 C 
BRANCH  14  15
ATOM     15  C   UNL     1      -4.644 -26.931  -6.028  1.00  0.00    -0.003 C 
ATOM     16  C   UNL     1      -5.988 -27.433  -6.546  1.00  0.00     0.004 C 
ENDBRANCH  14  15
ENDBRANCH  13  14
ENDBRANCH  12  13
ENDBRANCH  11  12
ENDBRANCH  10  11
ENDBRANCH   1  10
TORSDOF 12
ENDMDL
MODEL 9
REMARK VINA RESULT:    -4.413     11.233     13.090
REMARK INTER + INTRA:          -8.538
REMARK INTER:                  -6.761
REMARK INTRA:                  -1.777
REMARK UNBOUND:                -1.030
REMARK SMILES CCCCCCCCCCCCCC(=O)[O-]
REMARK SMILES IDX 8 1 9 2 10 3 11 4 12 5 13 6 14 7 15 8 16 9 7 10 6 11 5 12
REMARK SMILES IDX 4 13 3 14 2 15 1 16
REMARK H PARENT
REMARK Flexibility Score: inf
ROOT
ATOM      1  C   UNL     1      -5.673 -23.922  -4.462  1.00  0.00     0.000 C 
ENDROOT
BRANCH   1   2
ATOM      2  C   UNL     1      -6.284 -24.073  -5.864  1.00  0.00     0.000 C 
BRANCH   2   3
ATOM      3  C   UNL     1      -5.587 -23.193  -6.913  1.00  0.00     0.000 C 
BRANCH   3   4
ATOM      4  C   UNL     1      -6.554 -22.148  -7.483  1.00  0.00     0.000 C 
BRANCH   4   5
ATOM      5  C   UNL     1      -7.996 -22.678  -7.488  1.00  0.00     0.006 C 
BRANCH   5   6
ATOM      6  C   UNL     1      -8.750 -22.297  -8.769  1.00  0.00     0.053 C 
BRANCH   6   7
ATOM      7  C   UNL     1      -9.743 -21.203  -8.523  1.00  0.00     0.041 C 
ATOM      8  O   UNL     1      -9.800 -20.212  -9.298  1.00  0.00    -0.550 OA
ATOM      9  O   UNL     1     -10.628 -21.294  -7.456  1.00  0.00    -0.550 OA
ENDBRANCH   6   7
ENDBRANCH   5   6
ENDBRANCH   4   5
ENDBRANCH   3   4
ENDBRANCH   2   3
ENDBRANCH   1   2
BRANCH   1  10
ATOM     10  C   UNL     1      -6.559 -23.092  -3.516  1.00  0.00     0.000 C 
BRANCH  10  11
ATOM     11  C   UNL     1      -5.882 -21.788  -3.066  1.00  0.00    -0.000 C 
BRANCH  11  12
ATOM     12  C   UNL     1      -6.823 -20.575  -3.134  1.00  0.00    -0.000 C 
BRANCH  12  13
ATOM     13  C   UNL     1      -6.873 -20.000  -4.555  1.00  0.00    -0.000 C 
BRANCH  13  14
ATOM     14  C   UNL     1      -8.320 -19.863  -5.043  1.00  0.00    -0.000 C 
BRANCH  14  15
ATOM     15  C   UNL     1      -8.459 -18.698  -6.031  1.00  0.00    -0.003 C 
ATOM     16  C   UNL     1      -7.184 -18.511  -6.846  1.00  0.00     0.004 C 
ENDBRANCH  14  15
ENDBRANCH  13  14
ENDBRANCH  12  13
ENDBRANCH  11  12
ENDBRANCH  10  11
ENDBRANCH   1  10
TORSDOF 12
ENDMDL
