MODEL 1
REMARK VINA RESULT:    -5.290      0.000      0.000
REMARK INTER + INTRA:          -8.739
REMARK INTER:                  -8.382
REMARK INTRA:                  -0.357
REMARK UNBOUND:                -0.357
REMARK SMILES CCCCCCCCCCCC(=O)[O-]
REMARK SMILES IDX 7 1 8 2 9 3 10 4 11 5 12 6 13 7 14 8 6 9 5 10 4 11 3 12 2 13
REMARK SMILES IDX 1 14
REMARK H PARENT
REMARK Flexibility Score: inf
ROOT
ATOM      1  C   UNL     1       3.602 -28.912   0.759  1.00  0.00     0.000 C 
ENDROOT
BRANCH   1   2
ATOM      2  C   UNL     1       4.201 -29.458   2.069  1.00  0.00     0.000 C 
BRANCH   2   3
ATOM      3  C   UNL     1       3.281 -29.231   3.278  1.00  0.00     0.000 C 
BRANCH   3   4
ATOM      4  C   UNL     1       3.830 -29.871   4.566  1.00  0.00     0.006 C 
BRANCH   4   5
ATOM      5  C   UNL     1       2.984 -29.515   5.796  1.00  0.00     0.053 C 
BRANCH   5   6
ATOM      6  C   UNL     1       1.911 -30.531   6.048  1.00  0.00     0.041 C 
ATOM      7  O   UNL     1       0.810 -30.178   6.546  1.00  0.00    -0.550 OA
ATOM      8  O   UNL     1       2.118 -31.861   5.706  1.00  0.00    -0.550 OA
ENDBRANCH   5   6
ENDBRANCH   4   5
ENDBRANCH   3   4
ENDBRANCH   2   3
ENDBRANCH   1   2
BRANCH   1   9
ATOM      9  C   UNL     1       2.263 -28.188   0.976  1.00  0.00     0.000 C 
BRANCH   9  10
ATOM     10  C   UNL     1       1.397 -28.154  -0.295  1.00  0.00    -0.000 C 
BRANCH  10  11
ATOM     11  C   UNL     1       1.101 -26.722  -0.770  1.00  0.00    -0.000 C 
BRANCH  11  12
ATOM     12  C   UNL     1      -0.232 -26.183  -0.224  1.00  0.00    -0.000 C 
BRANCH  12  13
ATOM     13  C   UNL     1      -1.047 -25.436  -1.290  1.00  0.00    -0.003 C 
ATOM     14  C   UNL     1      -1.698 -24.160  -0.754  1.00  0.00     0.004 C 
ENDBRANCH  12  13
ENDBRANCH  11  12
ENDBRANCH  10  11
ENDBRANCH   9  10
ENDBRANCH   1   9
TORSDOF 10
ENDMDL
MODEL 2
REMARK VINA RESULT:    -5.207      3.879      7.550
REMARK INTER + INTRA:          -8.608
REMARK INTER:                  -8.199
REMARK INTRA:                  -0.408
REMARK UNBOUND:                -0.357
REMARK SMILES CCCCCCCCCCCC(=O)[O-]
REMARK SMILES IDX 7 1 8 2 9 3 10 4 11 5 12 6 13 7 14 8 6 9 5 10 4 11 3 12 2 13
REMARK SMILES IDX 1 14
REMARK H PARENT
REMARK Flexibility Score: inf
ROOT
ATOM      1  C   UNL     1       1.252 -27.730   0.448  1.00  0.00     0.000 C 
ENDROOT
BRANCH   1   2
ATOM      2  C   UNL     1       0.804 -26.326   0.001  1.00  0.00     0.000 C 
BRANCH   2   3
ATOM      3  C   UNL     1      -0.680 -26.277  -0.394  1.00  0.00     0.000 C 
BRANCH   3   4
ATOM      4  C   UNL     1      -0.948 -25.314  -1.564  1.00  0.00     0.006 C 
BRANCH   4   5
ATOM      5  C   UNL     1      -2.285 -24.576  -1.412  1.00  0.00     0.053 C 
BRANCH   5   6
ATOM      6  C   UNL     1      -2.382 -23.866  -0.095  1.00  0.00     0.041 C 
ATOM      7  O   UNL     1      -1.545 -22.975   0.207  1.00  0.00    -0.550 OA
ATOM      8  O   UNL     1      -3.413 -24.169   0.785  1.00  0.00    -0.550 OA
ENDBRANCH   5   6
ENDBRANCH   4   5
ENDBRANCH   3   4
ENDBRANCH   2   3
ENDBRANCH   1   2
BRANCH   1   9
ATOM      9  C   UNL     1       2.594 -28.149  -0.173  1.00  0.00     0.000 C 
BRANCH   9  10
ATOM     10  C   UNL     1       3.509 -28.871   0.832  1.00  0.00    -0.000 C 
BRANCH  10  11
ATOM     11  C   UNL     1       2.970 -28.812   2.271  1.00  0.00    -0.000 C 
BRANCH  11  12
ATOM     12  C   UNL     1       3.882 -29.540   3.273  1.00  0.00    -0.000 C 
BRANCH  12  13
ATOM     13  C   UNL     1       3.089 -30.278   4.363  1.00  0.00    -0.003 C 
ATOM     14  C   UNL     1       3.031 -29.504   5.681  1.00  0.00     0.004 C 
ENDBRANCH  12  13
ENDBRANCH  11  12
ENDBRANCH  10  11
ENDBRANCH   9  10
ENDBRANCH   1   9
TORSDOF 10
ENDMDL
MODEL 3
REMARK VINA RESULT:    -5.165      3.972      7.722
REMARK INTER + INTRA:          -8.542
REMARK INTER:                  -8.020
REMARK INTRA:                  -0.522
REMARK UNBOUND:                -0.357
REMARK SMILES CCCCCCCCCCCC(=O)[O-]
REMARK SMILES IDX 7 1 8 2 9 3 10 4 11 5 12 6 13 7 14 8 6 9 5 10 4 11 3 12 2 13
REMARK SMILES IDX 1 14
REMARK H PARENT
REMARK Flexibility Score: inf
ROOT
ATOM      1  C   UNL     1      -0.614 -25.350  -0.146  1.00  0.00     0.000 C 
ENDROOT
BRANCH   1   2
ATOM      2  C   UNL     1      -1.385 -25.150  -1.465  1.00  0.00     0.000 C 
BRANCH   2   3
ATOM      3  C   UNL     1      -2.700 -24.380  -1.269  1.00  0.00     0.000 C 
BRANCH   3   4
ATOM      4  C   UNL     1      -2.925 -23.957   0.193  1.00  0.00     0.006 C 
BRANCH   4   5
ATOM      5  C   UNL     1      -4.399 -24.063   0.607  1.00  0.00     0.053 C 
BRANCH   5   6
ATOM      6  C   UNL     1      -4.979 -25.403   0.265  1.00  0.00     0.041 C 
ATOM      7  O   UNL     1      -5.988 -25.483  -0.484  1.00  0.00    -0.550 OA
ATOM      8  O   UNL     1      -4.387 -26.561   0.750  1.00  0.00    -0.550 OA
ENDBRANCH   5   6
ENDBRANCH   4   5
ENDBRANCH   3   4
ENDBRANCH   2   3
ENDBRANCH   1   2
BRANCH   1   9
ATOM      9  C   UNL     1       0.005 -26.752  -0.029  1.00  0.00     0.000 C 
BRANCH   9  10
ATOM     10  C   UNL     1       1.257 -26.919  -0.907  1.00  0.00    -0.000 C 
BRANCH  10  11
ATOM     11  C   UNL     1       2.198 -28.021  -0.391  1.00  0.00    -0.000 C 
BRANCH  11  12
ATOM     12  C   UNL     1       2.138 -28.180   1.138  1.00  0.00    -0.000 C 
BRANCH  12  13
ATOM     13  C   UNL     1       3.382 -28.877   1.707  1.00  0.00    -0.003 C 
ATOM     14  C   UNL     1       3.253 -29.203   3.195  1.00  0.00     0.004 C 
ENDBRANCH  12  13
ENDBRANCH  11  12
ENDBRANCH  10  11
ENDBRANCH   9  10
ENDBRANCH   1   9
TORSDOF 10
ENDMDL
MODEL 4
REMARK VINA RESULT:    -5.163      0.997      1.387
REMARK INTER + INTRA:          -8.538
REMARK INTER:                  -8.123
REMARK INTRA:                  -0.415
REMARK UNBOUND:                -0.357
REMARK SMILES CCCCCCCCCCCC(=O)[O-]
REMARK SMILES IDX 7 1 8 2 9 3 10 4 11 5 12 6 13 7 14 8 6 9 5 10 4 11 3 12 2 13
REMARK SMILES IDX 1 14
REMARK H PARENT
REMARK Flexibility Score: inf
ROOT
ATOM      1  C   UNL     1       1.960 -28.159   1.038  1.00  0.00     0.000 C 
ENDROOT
BRANCH   1   2
ATOM      2  C   UNL     1       3.004 -29.270   1.251  1.00  0.00     0.000 C 
BRANCH   2   3
ATOM      3  C   UNL     1       3.695 -29.177   2.621  1.00  0.00     0.000 C 
BRANCH   3   4
ATOM      4  C   UNL     1       3.031 -30.076   3.679  1.00  0.00     0.006 C 
BRANCH   4   5
ATOM      5  C   UNL     1       3.608 -29.842   5.082  1.00  0.00     0.053 C 
BRANCH   5   6
ATOM      6  C   UNL     1       2.531 -29.778   6.123  1.00  0.00     0.041 C 
ATOM      7  O   UNL     1       2.418 -28.759   6.854  1.00  0.00    -0.550 OA
ATOM      8  O   UNL     1       1.638 -30.831   6.266  1.00  0.00    -0.550 OA
ENDBRANCH   5   6
ENDBRANCH   4   5
ENDBRANCH   3   4
ENDBRANCH   2   3
ENDBRANCH   1   2
BRANCH   1   9
ATOM      9  C   UNL     1       2.065 -27.507  -0.350  1.00  0.00     0.000 C 
BRANCH   9  10
ATOM     10  C   UNL     1       0.776 -26.770  -0.755  1.00  0.00    -0.000 C 
BRANCH  10  11
ATOM     11  C   UNL     1      -0.385 -27.032   0.219  1.00  0.00    -0.000 C 
BRANCH  11  12
ATOM     12  C   UNL     1      -1.636 -26.203  -0.118  1.00  0.00    -0.000 C 
BRANCH  12  13
ATOM     13  C   UNL     1      -1.303 -24.931  -0.912  1.00  0.00    -0.003 C 
ATOM     14  C   UNL     1      -1.661 -23.649  -0.158  1.00  0.00     0.004 C 
ENDBRANCH  12  13
ENDBRANCH  11  12
ENDBRANCH  10  11
ENDBRANCH   9  10
ENDBRANCH   1   9
TORSDOF 10
ENDMDL
MODEL 5
REMARK VINA RESULT:    -5.125      1.502      2.836
REMARK INTER + INTRA:          -8.478
REMARK INTER:                  -8.150
REMARK INTRA:                  -0.327
REMARK UNBOUND:                -0.357
REMARK SMILES CCCCCCCCCCCC(=O)[O-]
REMARK SMILES IDX 7 1 8 2 9 3 10 4 11 5 12 6 13 7 14 8 6 9 5 10 4 11 3 12 2 13
REMARK SMILES IDX 1 14
REMARK H PARENT
REMARK Flexibility Score: inf
ROOT
ATOM      1  C   UNL     1       1.264 -27.847  -0.079  1.00  0.00     0.000 C 
ENDROOT
BRANCH   1   2
ATOM      2  C   UNL     1       2.707 -28.112  -0.547  1.00  0.00     0.000 C 
BRANCH   2   3
ATOM      3  C   UNL     1       3.538 -28.869   0.501  1.00  0.00     0.000 C 
BRANCH   3   4
ATOM      4  C   UNL     1       2.866 -28.889   1.885  1.00  0.00     0.006 C 
BRANCH   4   5
ATOM      5  C   UNL     1       3.849 -29.271   3.001  1.00  0.00     0.053 C 
BRANCH   5   6
ATOM      6  C   UNL     1       3.150 -29.901   4.167  1.00  0.00     0.041 C 
ATOM      7  O   UNL     1       3.022 -29.266   5.247  1.00  0.00    -0.550 OA
ATOM      8  O   UNL     1       2.615 -31.177   4.052  1.00  0.00    -0.550 OA
ENDBRANCH   5   6
ENDBRANCH   4   5
ENDBRANCH   3   4
ENDBRANCH   2   3
ENDBRANCH   1   2
BRANCH   1   9
ATOM      9  C   UNL     1       0.742 -26.470  -0.520  1.00  0.00     0.000 C 
BRANCH   9  10
ATOM     10  C   UNL     1      -0.712 -26.223  -0.082  1.00  0.00    -0.000 C 
BRANCH  10  11
ATOM     11  C   UNL     1      -1.420 -25.171  -0.952  1.00  0.00    -0.000 C 
BRANCH  11  12
ATOM     12  C   UNL     1      -2.038 -24.035  -0.118  1.00  0.00    -0.000 C 
BRANCH  12  13
ATOM     13  C   UNL     1      -3.520 -24.279   0.202  1.00  0.00    -0.003 C 
ATOM     14  C   UNL     1      -4.048 -23.361   1.306  1.00  0.00     0.004 C 
ENDBRANCH  12  13
ENDBRANCH  11  12
ENDBRANCH  10  11
ENDBRANCH   9  10
ENDBRANCH   1   9
TORSDOF 10
ENDMDL
MODEL 6
REMARK VINA RESULT:    -5.121      5.312      8.096
REMARK INTER + INTRA:          -8.471
REMARK INTER:                  -7.539
REMARK INTRA:                  -0.932
REMARK UNBOUND:                -0.357
REMARK SMILES CCCCCCCCCCCC(=O)[O-]
REMARK SMILES IDX 7 1 8 2 9 3 10 4 11 5 12 6 13 7 14 8 6 9 5 10 4 11 3 12 2 13
REMARK SMILES IDX 1 14
REMARK H PARENT
REMARK Flexibility Score: inf
ROOT
ATOM      1  C   UNL     1      -2.737 -24.432  -1.832  1.00  0.00     0.000 C 
ENDROOT
BRANCH   1   2
ATOM      2  C   UNL     1      -3.851 -25.448  -2.144  1.00  0.00     0.000 C 
BRANCH   2   3
ATOM      3  C   UNL     1      -4.384 -26.146  -0.884  1.00  0.00     0.000 C 
BRANCH   3   4
ATOM      4  C   UNL     1      -5.131 -25.181   0.054  1.00  0.00     0.006 C 
BRANCH   4   5
ATOM      5  C   UNL     1      -4.310 -24.838   1.305  1.00  0.00     0.053 C 
BRANCH   5   6
ATOM      6  C   UNL     1      -4.141 -23.358   1.471  1.00  0.00     0.041 C 
ATOM      7  O   UNL     1      -3.047 -22.809   1.177  1.00  0.00    -0.550 OA
ATOM      8  O   UNL     1      -5.201 -22.582   1.923  1.00  0.00    -0.550 OA
ENDBRANCH   5   6
ENDBRANCH   4   5
ENDBRANCH   3   4
ENDBRANCH   2   3
ENDBRANCH   1   2
BRANCH   1   9
ATOM      9  C   UNL     1      -1.346 -25.082  -1.756  1.00  0.00     0.000 C 
BRANCH   9  10
ATOM     10  C   UNL     1      -0.877 -25.305  -0.307  1.00  0.00    -0.000 C 
BRANCH  10  11
ATOM     11  C   UNL     1      -0.584 -26.783  -0.002  1.00  0.00    -0.000 C 
BRANCH  11  12
ATOM     12  C   UNL     1       0.872 -27.017   0.436  1.00  0.00    -0.000 C 
BRANCH  12  13
ATOM     13  C   UNL     1       1.681 -27.804  -0.606  1.00  0.00    -0.003 C 
ATOM     14  C   UNL     1       2.378 -26.900  -1.624  1.00  0.00     0.004 C 
ENDBRANCH  12  13
ENDBRANCH  11  12
ENDBRANCH  10  11
ENDBRANCH   9  10
ENDBRANCH   1   9
TORSDOF 10
ENDMDL
MODEL 7
REMARK VINA RESULT:    -5.076      4.344      7.595
REMARK INTER + INTRA:          -8.400
REMARK INTER:                  -7.852
REMARK INTRA:                  -0.548
REMARK UNBOUND:                -0.357
REMARK SMILES CCCCCCCCCCCC(=O)[O-]
REMARK SMILES IDX 7 1 8 2 9 3 10 4 11 5 12 6 13 7 14 8 6 9 5 10 4 11 3 12 2 13
REMARK SMILES IDX 1 14
REMARK H PARENT
REMARK Flexibility Score: inf
ROOT
ATOM      1  C   UNL     1      -0.725 -25.437  -1.005  1.00  0.00     0.000 C 
ENDROOT
BRANCH   1   2
ATOM      2  C   UNL     1      -2.217 -25.782  -0.838  1.00  0.00     0.000 C 
BRANCH   2   3
ATOM      3  C   UNL     1      -2.517 -26.472   0.501  1.00  0.00     0.000 C 
BRANCH   3   4
ATOM      4  C   UNL     1      -3.934 -26.169   1.018  1.00  0.00     0.006 C 
BRANCH   4   5
ATOM      5  C   UNL     1      -4.505 -24.876   0.419  1.00  0.00     0.053 C 
BRANCH   5   6
ATOM      6  C   UNL     1      -4.318 -23.707   1.339  1.00  0.00     0.041 C 
ATOM      7  O   UNL     1      -3.316 -22.955   1.210  1.00  0.00    -0.550 OA
ATOM      8  O   UNL     1      -5.264 -23.433   2.317  1.00  0.00    -0.550 OA
ENDBRANCH   5   6
ENDBRANCH   4   5
ENDBRANCH   3   4
ENDBRANCH   2   3
ENDBRANCH   1   2
BRANCH   1   9
ATOM      9  C   UNL     1       0.198 -26.445  -0.302  1.00  0.00     0.000 C 
BRANCH   9  10
ATOM     10  C   UNL     1       1.354 -26.915  -1.202  1.00  0.00    -0.000 C 
BRANCH  10  11
ATOM     11  C   UNL     1       2.458 -27.642  -0.415  1.00  0.00    -0.000 C 
BRANCH  11  12
ATOM     12  C   UNL     1       1.949 -28.220   0.917  1.00  0.00    -0.000 C 
BRANCH  12  13
ATOM     13  C   UNL     1       3.094 -28.643   1.850  1.00  0.00    -0.003 C 
ATOM     14  C   UNL     1       2.785 -29.924   2.625  1.00  0.00     0.004 C 
ENDBRANCH  12  13
ENDBRANCH  11  12
ENDBRANCH  10  11
ENDBRANCH   9  10
ENDBRANCH   1   9
TORSDOF 10
ENDMDL
MODEL 8
REMARK VINA RESULT:    -5.031      4.946      6.415
REMARK INTER + INTRA:          -8.329
REMARK INTER:                  -7.508
REMARK INTRA:                  -0.821
REMARK UNBOUND:                -0.357
REMARK SMILES CCCCCCCCCCCC(=O)[O-]
REMARK SMILES IDX 7 1 8 2 9 3 10 4 11 5 12 6 13 7 14 8 6 9 5 10 4 11 3 12 2 13
REMARK SMILES IDX 1 14
REMARK H PARENT
REMARK Flexibility Score: inf
ROOT
ATOM      1  C   UNL     1      -0.649 -25.692  -0.854  1.00  0.00     0.000 C 
ENDROOT
BRANCH   1   2
ATOM      2  C   UNL     1      -0.438 -26.931   0.036  1.00  0.00     0.000 C 
BRANCH   2   3
ATOM      3  C   UNL     1       1.033 -27.129   0.434  1.00  0.00     0.000 C 
BRANCH   3   4
ATOM      4  C   UNL     1       1.708 -28.269  -0.347  1.00  0.00     0.006 C 
BRANCH   4   5
ATOM      5  C   UNL     1       3.153 -27.929  -0.736  1.00  0.00     0.053 C 
BRANCH   5   6
ATOM      6  C   UNL     1       3.232 -27.306  -2.097  1.00  0.00     0.041 C 
ATOM      7  O   UNL     1       2.178 -26.995  -2.712  1.00  0.00    -0.550 OA
ATOM      8  O   UNL     1       4.468 -27.042  -2.672  1.00  0.00    -0.550 OA
ENDBRANCH   5   6
ENDBRANCH   4   5
ENDBRANCH   3   4
ENDBRANCH   2   3
ENDBRANCH   1   2
BRANCH   1   9
ATOM      9  C   UNL     1      -1.146 -24.472  -0.063  1.00  0.00     0.000 C 
BRANCH   9  10
ATOM     10  C   UNL     1      -2.565 -24.040  -0.475  1.00  0.00    -0.000 C 
BRANCH  10  11
ATOM     11  C   UNL     1      -3.443 -23.669   0.732  1.00  0.00    -0.000 C 
BRANCH  11  12
ATOM     12  C   UNL     1      -4.209 -24.878   1.297  1.00  0.00    -0.000 C 
BRANCH  12  13
ATOM     13  C   UNL     1      -4.654 -25.858   0.201  1.00  0.00    -0.003 C 
ATOM     14  C   UNL     1      -4.160 -27.285   0.444  1.00  0.00     0.004 C 
ENDBRANCH  12  13
ENDBRANCH  11  12
ENDBRANCH  10  11
ENDBRANCH   9  10
ENDBRANCH   1   9
TORSDOF 10
ENDMDL
MODEL 9
REMARK VINA RESULT:    -5.020      1.652      2.657
REMARK INTER + INTRA:          -8.312
REMARK INTER:                  -7.572
REMARK INTRA:                  -0.741
REMARK UNBOUND:                -0.357
REMARK SMILES CCCCCCCCCCCC(=O)[O-]
REMARK SMILES IDX 7 1 8 2 9 3 10 4 11 5 12 6 13 7 14 8 6 9 5 10 4 11 3 12 2 13
REMARK SMILES IDX 1 14
REMARK H PARENT
REMARK Flexibility Score: inf
ROOT
ATOM      1  C   UNL     1       3.516 -28.871   1.480  1.00  0.00     0.000 C 
ENDROOT
BRANCH   1   2
ATOM      2  C   UNL     1       3.712 -29.372   2.922  1.00  0.00     0.000 C 
BRANCH   2   3
ATOM      3  C   UNL     1       3.360 -30.859   3.084  1.00  0.00     0.000 C 
BRANCH   3   4
ATOM      4  C   UNL     1       2.874 -31.200   4.504  1.00  0.00     0.006 C 
BRANCH   4   5
ATOM      5  C   UNL     1       3.368 -30.186   5.544  1.00  0.00     0.053 C 
BRANCH   5   6
ATOM      6  C   UNL     1       2.258 -29.718   6.436  1.00  0.00     0.041 C 
ATOM      7  O   UNL     1       1.216 -30.413   6.568  1.00  0.00    -0.550 OA
ATOM      8  O   UNL     1       2.386 -28.530   7.143  1.00  0.00    -0.550 OA
ENDBRANCH   5   6
ENDBRANCH   4   5
ENDBRANCH   3   4
ENDBRANCH   2   3
ENDBRANCH   1   2
BRANCH   1   9
ATOM      9  C   UNL     1       2.075 -29.059   0.978  1.00  0.00     0.000 C 
BRANCH   9  10
ATOM     10  C   UNL     1       1.282 -27.741   0.953  1.00  0.00    -0.000 C 
BRANCH  10  11
ATOM     11  C   UNL     1       0.921 -27.296  -0.474  1.00  0.00    -0.000 C 
BRANCH  11  12
ATOM     12  C   UNL     1       2.066 -26.531  -1.161  1.00  0.00    -0.000 C 
BRANCH  12  13
ATOM     13  C   UNL     1       2.790 -27.380  -2.217  1.00  0.00    -0.003 C 
ATOM     14  C   UNL     1       4.305 -27.421  -2.010  1.00  0.00     0.004 C 
ENDBRANCH  12  13
ENDBRANCH  11  12
ENDBRANCH  10  11
ENDBRANCH   9  10
ENDBRANCH   1   9
TORSDOF 10
ENDMDL
