MODEL 1
REMARK VINA RESULT:     4.763      0.000      0.000
REMARK INTER + INTRA:          12.250
REMARK INTER:                   7.826
REMARK INTRA:                   4.424
REMARK UNBOUND:                 4.424
REMARK SMILES C[C@@H]1O[C@H](OC[C@@H]2O[C@H](Oc3c(-c4ccc(O)c(O)c4)oc4cc(O)cc(O)c4c3=O)[C@H](O)[C@H](O)[C@H]2O)[C@@H](O)[C@@H](O)[C@H]1O
REMARK SMILES IDX 7 1 36 2 34 3 32 4 9 5 8 6 6 7 5 8 4 9 1 10 2 11 42 12 3 13
REMARK SMILES IDX 40 14 38 15 43 16 41 18 39 20 37 22 35 24 10 26 11 27 12 28
REMARK SMILES IDX 30 29 21 30 29 31 31 32 22 33 27 34 23 35 26 36 24 37 13 38
REMARK SMILES IDX 20 39 14 40 18 41 15 42 16 43 19 44 17 46 28 48 25 50 33 52
REMARK H PARENT 43 17 41 19 39 21 37 23 35 25 19 45 17 47 28 49 25 51 33 53
REMARK Flexibility Score: inf
ROOT
ATOM      1  C   UNL     1     -47.088  96.108  20.666  1.00  0.00     0.180 C 
ATOM      2  C   UNL     1     -46.940  96.446  19.147  1.00  0.00     0.177 C 
ATOM      3  C   UNL     1     -46.685  95.175  18.322  1.00  0.00     0.180 C 
ATOM      4  C   UNL     1     -45.656  94.319  19.062  1.00  0.00     0.214 C 
ATOM      5  C   UNL     1     -46.255  93.870  20.440  1.00  0.00     0.339 C 
ATOM      6  O   UNL     1     -47.313  94.716  20.892  1.00  0.00    -0.332 OA
ENDROOT
BRANCH   1   7
ATOM      7  C   UNL     1     -45.958  96.711  21.543  1.00  0.00     0.198 C 
BRANCH   7   8
ATOM      8  O   UNL     1     -46.549  97.579  22.500  1.00  0.00    -0.347 OA
BRANCH   8   9
ATOM      9  C   UNL     1     -46.276  97.269  23.862  1.00  0.00     0.281 C 
ATOM     10  C   UNL     1     -44.791  99.259  26.599  1.00  0.00     0.041 C 
ATOM     11  C   UNL     1     -45.494  98.060  25.942  1.00  0.00     0.150 C 
ATOM     12  C   UNL     1     -46.799  97.703  26.681  1.00  0.00     0.174 C 
ATOM     13  O   UNL     1     -45.799  98.394  24.600  1.00  0.00    -0.344 OA
ATOM     14  C   UNL     1     -47.456  96.486  25.998  1.00  0.00     0.179 C 
ATOM     15  C   UNL     1     -47.610  96.758  24.485  1.00  0.00     0.202 C 
BRANCH  12  16
ATOM     16  O   UNL     1     -46.586  97.458  28.051  1.00  0.00    -0.388 OA
ATOM     17  H   UNL     1     -46.874  98.268  28.555  1.00  0.00     0.211 HD
ENDBRANCH  12  16
BRANCH  14  18
ATOM     18  O   UNL     1     -46.680  95.331  26.214  1.00  0.00    -0.387 OA
ATOM     19  H   UNL     1     -47.219  94.734  26.783  1.00  0.00     0.211 HD
ENDBRANCH  14  18
BRANCH  15  20
ATOM     20  O   UNL     1     -48.051  95.585  23.853  1.00  0.00    -0.385 OA
ATOM     21  H   UNL     1     -47.553  94.828  24.256  1.00  0.00     0.211 HD
ENDBRANCH  15  20
ENDBRANCH   8   9
ENDBRANCH   7   8
ENDBRANCH   1   7
BRANCH   2  22
ATOM     22  O   UNL     1     -48.060  97.145  18.661  1.00  0.00    -0.387 OA
ATOM     23  H   UNL     1     -48.245  97.900  19.281  1.00  0.00     0.211 HD
ENDBRANCH   2  22
BRANCH   3  24
ATOM     24  O   UNL     1     -46.191  95.498  17.049  1.00  0.00    -0.387 OA
ATOM     25  H   UNL     1     -45.458  96.161  17.183  1.00  0.00     0.211 HD
ENDBRANCH   3  24
BRANCH   5  26
ATOM     26  O   UNL     1     -45.327  93.696  21.523  1.00  0.00    -0.454 OA
BRANCH  26  27
ATOM     27  C   UNL     1     -43.977  93.307  21.486  1.00  0.00     0.214 A 
ATOM     28  C   UNL     1     -43.338  93.050  22.706  1.00  0.00     0.180 A 
ATOM     29  C   UNL     1     -43.227  93.210  20.302  1.00  0.00     0.239 A 
ATOM     30  O   UNL     1     -42.018  92.900  22.750  1.00  0.00    -0.452 OA
ATOM     31  C   UNL     1     -41.812  93.181  20.386  1.00  0.00     0.111 A 
ATOM     32  O   UNL     1     -43.820  93.107  19.197  1.00  0.00    -0.285 OA
ATOM     33  C   UNL     1     -41.246  92.978  21.668  1.00  0.00     0.146 A 
ATOM     34  C   UNL     1     -40.946  93.332  19.271  1.00  0.00     0.134 A 
ATOM     35  C   UNL     1     -39.860  92.875  21.827  1.00  0.00     0.094 A 
ATOM     36  C   UNL     1     -39.561  93.196  19.453  1.00  0.00     0.093 A 
ATOM     37  C   UNL     1     -39.015  92.984  20.720  1.00  0.00     0.123 A 
BRANCH  28  38
ATOM     38  C   UNL     1     -44.127  92.949  23.957  1.00  0.00     0.025 A 
ATOM     39  C   UNL     1     -45.532  92.930  23.903  1.00  0.00     0.062 A 
ATOM     40  C   UNL     1     -43.487  92.889  25.205  1.00  0.00     0.016 A 
ATOM     41  C   UNL     1     -46.286  92.889  25.073  1.00  0.00     0.158 A 
ATOM     42  C   UNL     1     -44.240  92.877  26.380  1.00  0.00     0.051 A 
ATOM     43  C   UNL     1     -45.641  92.879  26.325  1.00  0.00     0.157 A 
BRANCH  41  44
ATOM     44  O   UNL     1     -47.674  92.875  24.984  1.00  0.00    -0.504 OA
ATOM     45  H   UNL     1     -48.227  92.089  25.304  1.00  0.00     0.293 HD
ENDBRANCH  41  44
BRANCH  43  46
ATOM     46  O   UNL     1     -46.400  92.882  27.495  1.00  0.00    -0.504 OA
ATOM     47  H   UNL     1     -46.828  92.035  27.844  1.00  0.00     0.293 HD
ENDBRANCH  43  46
ENDBRANCH  28  38
BRANCH  34  48
ATOM     48  O   UNL     1     -41.386  93.684  17.994  1.00  0.00    -0.507 OA
ATOM     49  H   UNL     1     -40.970  94.421  17.440  1.00  0.00     0.293 HD
ENDBRANCH  34  48
BRANCH  37  50
ATOM     50  O   UNL     1     -37.633  92.886  20.866  1.00  0.00    -0.508 OA
ATOM     51  H   UNL     1     -37.072  92.314  20.251  1.00  0.00     0.293 HD
ENDBRANCH  37  50
ENDBRANCH  26  27
ENDBRANCH   5  26
BRANCH   4  52
ATOM     52  O   UNL     1     -44.459  95.038  19.234  1.00  0.00    -0.384 OA
ATOM     53  H   UNL     1     -44.460  95.406  20.159  1.00  0.00     0.211 HD
ENDBRANCH   4  52
TORSDOF 16
ENDMDL
