MODEL 1
REMARK VINA RESULT:    -4.911      0.000      0.000
REMARK INTER + INTRA:          -5.991
REMARK INTER:                  -5.915
REMARK INTRA:                  -0.075
REMARK UNBOUND:                -0.075
REMARK SMILES O=c1c(O)c(-c2ccc(O)c(O)c2)oc2cc(O)cc(O)c12
REMARK SMILES IDX 5 1 3 2 2 3 1 4 22 5 20 6 19 7 17 8 16 9 15 10 14 11 6 12
REMARK SMILES IDX 7 13 8 14 9 15 13 16 11 17 10 18 12 20 4 22 21 24 18 26
REMARK H PARENT 10 19 12 21 4 23 21 25 18 27
REMARK Flexibility Score: inf
ROOT
ATOM      1  C   UNL     1     -26.224  51.202  41.994  1.00  0.00     0.180 A 
ATOM      2  C   UNL     1     -25.368  51.966  41.178  1.00  0.00     0.208 A 
ATOM      3  C   UNL     1     -24.990  53.249  41.605  1.00  0.00     0.238 A 
ATOM      4  O   UNL     1     -24.216  53.940  40.887  1.00  0.00    -0.285 OA
ATOM      5  C   UNL     1     -25.488  53.753  42.825  1.00  0.00     0.111 A 
ATOM      6  C   UNL     1     -25.159  55.036  43.324  1.00  0.00     0.134 A 
ATOM      7  C   UNL     1     -25.704  55.469  44.543  1.00  0.00     0.093 A 
ATOM      8  C   UNL     1     -26.569  54.643  45.269  1.00  0.00     0.123 A 
ATOM      9  C   UNL     1     -26.895  53.376  44.781  1.00  0.00     0.094 A 
ATOM     10  C   UNL     1     -26.362  52.927  43.570  1.00  0.00     0.146 A 
ATOM     11  O   UNL     1     -26.685  51.716  43.132  1.00  0.00    -0.452 OA
ENDROOT
BRANCH   1  12
ATOM     12  C   UNL     1     -26.651  49.834  41.623  1.00  0.00     0.025 A 
ATOM     13  C   UNL     1     -26.424  48.740  42.475  1.00  0.00     0.016 A 
ATOM     14  C   UNL     1     -26.856  47.461  42.115  1.00  0.00     0.051 A 
ATOM     15  C   UNL     1     -27.533  47.258  40.907  1.00  0.00     0.157 A 
ATOM     16  C   UNL     1     -27.349  49.630  40.422  1.00  0.00     0.062 A 
ATOM     17  C   UNL     1     -27.783  48.347  40.058  1.00  0.00     0.158 A 
BRANCH  15  18
ATOM     18  O   UNL     1     -27.951  45.970  40.574  1.00  0.00    -0.504 OA
ATOM     19  H   UNL     1     -27.409  45.370  39.963  1.00  0.00     0.293 HD
ENDBRANCH  15  18
BRANCH  17  20
ATOM     20  O   UNL     1     -28.463  48.153  38.855  1.00  0.00    -0.504 OA
ATOM     21  H   UNL     1     -27.992  47.803  38.030  1.00  0.00     0.293 HD
ENDBRANCH  17  20
ENDBRANCH   1  12
BRANCH   2  22
ATOM     22  O   UNL     1     -24.928  51.465  39.951  1.00  0.00    -0.502 OA
ATOM     23  H   UNL     1     -24.881  50.472  39.756  1.00  0.00     0.293 HD
ENDBRANCH   2  22
BRANCH   6  24
ATOM     24  O   UNL     1     -24.301  55.883  42.621  1.00  0.00    -0.507 OA
ATOM     25  H   UNL     1     -23.375  55.586  42.336  1.00  0.00     0.293 HD
ENDBRANCH   6  24
BRANCH   8  26
ATOM     26  O   UNL     1     -27.110  55.072  46.480  1.00  0.00    -0.508 OA
ATOM     27  H   UNL     1     -27.759  54.498  47.003  1.00  0.00     0.293 HD
ENDBRANCH   8  26
TORSDOF 6
ENDMDL
MODEL 2
REMARK VINA RESULT:    -4.482      1.779      7.265
REMARK INTER + INTRA:          -5.474
REMARK INTER:                  -5.268
REMARK INTRA:                  -0.205
REMARK UNBOUND:                -0.075
REMARK SMILES O=c1c(O)c(-c2ccc(O)c(O)c2)oc2cc(O)cc(O)c12
REMARK SMILES IDX 5 1 3 2 2 3 1 4 22 5 20 6 19 7 17 8 16 9 15 10 14 11 6 12
REMARK SMILES IDX 7 13 8 14 9 15 13 16 11 17 10 18 12 20 4 22 21 24 18 26
REMARK H PARENT 10 19 12 21 4 23 21 25 18 27
REMARK Flexibility Score: inf
ROOT
ATOM      1  C   UNL     1     -25.838  51.904  43.888  1.00  0.00     0.180 A 
ATOM      2  C   UNL     1     -25.565  50.802  44.721  1.00  0.00     0.208 A 
ATOM      3  C   UNL     1     -25.697  49.507  44.197  1.00  0.00     0.238 A 
ATOM      4  O   UNL     1     -25.445  48.511  44.930  1.00  0.00    -0.285 OA
ATOM      5  C   UNL     1     -26.116  49.334  42.861  1.00  0.00     0.111 A 
ATOM      6  C   UNL     1     -26.278  48.064  42.258  1.00  0.00     0.134 A 
ATOM      7  C   UNL     1     -26.709  47.975  40.926  1.00  0.00     0.093 A 
ATOM      8  C   UNL     1     -26.981  49.132  40.187  1.00  0.00     0.123 A 
ATOM      9  C   UNL     1     -26.823  50.388  40.778  1.00  0.00     0.094 A 
ATOM     10  C   UNL     1     -26.394  50.497  42.103  1.00  0.00     0.146 A 
ATOM     11  O   UNL     1     -26.246  51.703  42.638  1.00  0.00    -0.452 OA
ENDROOT
BRANCH   1  12
ATOM     12  C   UNL     1     -25.703  53.301  44.362  1.00  0.00     0.025 A 
ATOM     13  C   UNL     1     -24.707  54.152  43.854  1.00  0.00     0.016 A 
ATOM     14  C   UNL     1     -24.614  55.474  44.299  1.00  0.00     0.051 A 
ATOM     15  C   UNL     1     -25.518  55.968  45.244  1.00  0.00     0.157 A 
ATOM     16  C   UNL     1     -26.623  53.806  45.294  1.00  0.00     0.062 A 
ATOM     17  C   UNL     1     -26.530  55.131  45.742  1.00  0.00     0.158 A 
BRANCH  15  18
ATOM     18  O   UNL     1     -25.399  57.290  45.669  1.00  0.00    -0.504 OA
ATOM     19  H   UNL     1     -24.805  57.958  45.192  1.00  0.00     0.293 HD
ENDBRANCH  15  18
BRANCH  17  20
ATOM     20  O   UNL     1     -27.440  55.620  46.680  1.00  0.00    -0.504 OA
ATOM     21  H   UNL     1     -27.498  56.607  46.899  1.00  0.00     0.293 HD
ENDBRANCH  17  20
ENDBRANCH   1  12
BRANCH   2  22
ATOM     22  O   UNL     1     -25.198  50.998  46.054  1.00  0.00    -0.502 OA
ATOM     23  H   UNL     1     -24.940  51.907  46.419  1.00  0.00     0.293 HD
ENDBRANCH   2  22
BRANCH   6  24
ATOM     24  O   UNL     1     -26.015  46.892  42.970  1.00  0.00    -0.507 OA
ATOM     25  H   UNL     1     -25.496  46.124  42.560  1.00  0.00     0.293 HD
ENDBRANCH   6  24
BRANCH   8  26
ATOM     26  O   UNL     1     -27.410  49.046  38.864  1.00  0.00    -0.508 OA
ATOM     27  H   UNL     1     -28.049  48.321  38.561  1.00  0.00     0.293 HD
ENDBRANCH   8  26
TORSDOF 6
ENDMDL
MODEL 3
REMARK VINA RESULT:    -4.473      1.892      6.883
REMARK INTER + INTRA:          -5.463
REMARK INTER:                  -5.285
REMARK INTRA:                  -0.178
REMARK UNBOUND:                -0.075
REMARK SMILES O=c1c(O)c(-c2ccc(O)c(O)c2)oc2cc(O)cc(O)c12
REMARK SMILES IDX 5 1 3 2 2 3 1 4 22 5 20 6 19 7 17 8 16 9 15 10 14 11 6 12
REMARK SMILES IDX 7 13 8 14 9 15 13 16 11 17 10 18 12 20 4 22 21 24 18 26
REMARK H PARENT 10 19 12 21 4 23 21 25 18 27
REMARK Flexibility Score: inf
ROOT
ATOM      1  C   UNL     1     -25.875  51.952  43.436  1.00  0.00     0.180 A 
ATOM      2  C   UNL     1     -26.174  51.733  42.077  1.00  0.00     0.208 A 
ATOM      3  C   UNL     1     -26.334  50.416  41.621  1.00  0.00     0.238 A 
ATOM      4  O   UNL     1     -26.613  50.207  40.409  1.00  0.00    -0.285 OA
ATOM      5  C   UNL     1     -26.174  49.342  42.523  1.00  0.00     0.111 A 
ATOM      6  C   UNL     1     -26.315  47.985  42.143  1.00  0.00     0.134 A 
ATOM      7  C   UNL     1     -26.129  46.973  43.097  1.00  0.00     0.093 A 
ATOM      8  C   UNL     1     -25.807  47.293  44.421  1.00  0.00     0.123 A 
ATOM      9  C   UNL     1     -25.668  48.630  44.799  1.00  0.00     0.094 A 
ATOM     10  C   UNL     1     -25.849  49.652  43.864  1.00  0.00     0.146 A 
ATOM     11  O   UNL     1     -25.717  50.915  44.253  1.00  0.00    -0.452 OA
ENDROOT
BRANCH   1  12
ATOM     12  C   UNL     1     -25.710  53.313  43.996  1.00  0.00     0.025 A 
ATOM     13  C   UNL     1     -24.650  54.145  43.599  1.00  0.00     0.016 A 
ATOM     14  C   UNL     1     -24.528  55.434  44.124  1.00  0.00     0.051 A 
ATOM     15  C   UNL     1     -25.467  55.916  45.041  1.00  0.00     0.157 A 
ATOM     16  C   UNL     1     -26.664  53.807  44.901  1.00  0.00     0.062 A 
ATOM     17  C   UNL     1     -26.542  55.100  45.430  1.00  0.00     0.158 A 
BRANCH  15  18
ATOM     18  O   UNL     1     -25.318  57.206  45.549  1.00  0.00    -0.504 OA
ATOM     19  H   UNL     1     -24.408  57.629  45.683  1.00  0.00     0.293 HD
ENDBRANCH  15  18
BRANCH  17  20
ATOM     20  O   UNL     1     -27.487  55.577  46.338  1.00  0.00    -0.504 OA
ATOM     21  H   UNL     1     -28.188  54.968  46.743  1.00  0.00     0.293 HD
ENDBRANCH  17  20
ENDBRANCH   1  12
BRANCH   2  22
ATOM     22  O   UNL     1     -26.279  52.811  41.195  1.00  0.00    -0.502 OA
ATOM     23  H   UNL     1     -25.809  52.826  40.297  1.00  0.00     0.293 HD
ENDBRANCH   2  22
BRANCH   6  24
ATOM     24  O   UNL     1     -26.634  47.635  40.830  1.00  0.00    -0.507 OA
ATOM     25  H   UNL     1     -27.053  48.299  40.188  1.00  0.00     0.293 HD
ENDBRANCH   6  24
BRANCH   8  26
ATOM     26  O   UNL     1     -25.623  46.288  45.369  1.00  0.00    -0.508 OA
ATOM     27  H   UNL     1     -26.401  45.902  45.889  1.00  0.00     0.293 HD
ENDBRANCH   8  26
TORSDOF 6
ENDMDL
MODEL 4
REMARK VINA RESULT:    -4.177      1.767      7.003
REMARK INTER + INTRA:          -5.107
REMARK INTER:                  -4.785
REMARK INTRA:                  -0.322
REMARK UNBOUND:                -0.075
REMARK SMILES O=c1c(O)c(-c2ccc(O)c(O)c2)oc2cc(O)cc(O)c12
REMARK SMILES IDX 5 1 3 2 2 3 1 4 22 5 20 6 19 7 17 8 16 9 15 10 14 11 6 12
REMARK SMILES IDX 7 13 8 14 9 15 13 16 11 17 10 18 12 20 4 22 21 24 18 26
REMARK H PARENT 10 19 12 21 4 23 21 25 18 27
REMARK Flexibility Score: inf
ROOT
ATOM      1  C   UNL     1     -26.241  50.236  42.655  1.00  0.00     0.180 A 
ATOM      2  C   UNL     1     -26.554  50.249  41.282  1.00  0.00     0.208 A 
ATOM      3  C   UNL     1     -27.032  49.073  40.683  1.00  0.00     0.238 A 
ATOM      4  O   UNL     1     -27.325  49.075  39.457  1.00  0.00    -0.285 OA
ATOM      5  C   UNL     1     -27.171  47.903  41.459  1.00  0.00     0.111 A 
ATOM      6  C   UNL     1     -27.642  46.676  40.932  1.00  0.00     0.134 A 
ATOM      7  C   UNL     1     -27.743  45.553  41.767  1.00  0.00     0.093 A 
ATOM      8  C   UNL     1     -27.382  45.634  43.116  1.00  0.00     0.123 A 
ATOM      9  C   UNL     1     -26.918  46.843  43.640  1.00  0.00     0.094 A 
ATOM     10  C   UNL     1     -26.811  47.972  42.825  1.00  0.00     0.146 A 
ATOM     11  O   UNL     1     -26.372  49.110  43.351  1.00  0.00    -0.452 OA
ENDROOT
BRANCH   1  12
ATOM     12  C   UNL     1     -25.751  51.441  43.363  1.00  0.00     0.025 A 
ATOM     13  C   UNL     1     -24.385  51.773  43.382  1.00  0.00     0.016 A 
ATOM     14  C   UNL     1     -23.948  52.927  44.036  1.00  0.00     0.051 A 
ATOM     15  C   UNL     1     -24.866  53.772  44.668  1.00  0.00     0.157 A 
ATOM     16  C   UNL     1     -26.672  52.302  43.980  1.00  0.00     0.062 A 
ATOM     17  C   UNL     1     -26.234  53.460  44.638  1.00  0.00     0.158 A 
BRANCH  15  18
ATOM     18  O   UNL     1     -24.399  54.916  45.315  1.00  0.00    -0.504 OA
ATOM     19  H   UNL     1     -23.429  55.203  45.268  1.00  0.00     0.293 HD
ENDBRANCH  15  18
BRANCH  17  20
ATOM     20  O   UNL     1     -27.156  54.303  45.261  1.00  0.00    -0.504 OA
ATOM     21  H   UNL     1     -28.154  54.148  45.181  1.00  0.00     0.293 HD
ENDBRANCH  17  20
ENDBRANCH   1  12
BRANCH   2  22
ATOM     22  O   UNL     1     -26.361  51.407  40.525  1.00  0.00    -0.502 OA
ATOM     23  H   UNL     1     -26.185  52.310  40.949  1.00  0.00     0.293 HD
ENDBRANCH   2  22
BRANCH   6  24
ATOM     24  O   UNL     1     -28.008  46.564  39.589  1.00  0.00    -0.507 OA
ATOM     25  H   UNL     1     -28.026  45.669  39.115  1.00  0.00     0.293 HD
ENDBRANCH   6  24
BRANCH   8  26
ATOM     26  O   UNL     1     -27.482  44.519  43.946  1.00  0.00    -0.508 OA
ATOM     27  H   UNL     1     -26.839  43.741  43.867  1.00  0.00     0.293 HD
ENDBRANCH   8  26
TORSDOF 6
ENDMDL
MODEL 5
REMARK VINA RESULT:    -4.119      1.823      2.238
REMARK INTER + INTRA:          -5.037
REMARK INTER:                  -4.720
REMARK INTRA:                  -0.317
REMARK UNBOUND:                -0.075
REMARK SMILES O=c1c(O)c(-c2ccc(O)c(O)c2)oc2cc(O)cc(O)c12
REMARK SMILES IDX 5 1 3 2 2 3 1 4 22 5 20 6 19 7 17 8 16 9 15 10 14 11 6 12
REMARK SMILES IDX 7 13 8 14 9 15 13 16 11 17 10 18 12 20 4 22 21 24 18 26
REMARK H PARENT 10 19 12 21 4 23 21 25 18 27
REMARK Flexibility Score: inf
ROOT
ATOM      1  C   UNL     1     -25.819  50.669  42.775  1.00  0.00     0.180 A 
ATOM      2  C   UNL     1     -24.414  50.717  42.868  1.00  0.00     0.208 A 
ATOM      3  C   UNL     1     -23.821  51.704  43.670  1.00  0.00     0.238 A 
ATOM      4  O   UNL     1     -22.565  51.752  43.770  1.00  0.00    -0.285 OA
ATOM      5  C   UNL     1     -24.637  52.635  44.348  1.00  0.00     0.111 A 
ATOM      6  C   UNL     1     -24.118  53.663  45.173  1.00  0.00     0.134 A 
ATOM      7  C   UNL     1     -24.996  54.556  45.805  1.00  0.00     0.093 A 
ATOM      8  C   UNL     1     -26.379  54.441  45.628  1.00  0.00     0.123 A 
ATOM      9  C   UNL     1     -26.894  53.429  44.816  1.00  0.00     0.094 A 
ATOM     10  C   UNL     1     -26.037  52.529  44.178  1.00  0.00     0.146 A 
ATOM     11  O   UNL     1     -26.555  51.572  43.416  1.00  0.00    -0.452 OA
ENDROOT
BRANCH   1  12
ATOM     12  C   UNL     1     -26.519  49.646  41.965  1.00  0.00     0.025 A 
ATOM     13  C   UNL     1     -26.894  49.897  40.634  1.00  0.00     0.016 A 
ATOM     14  C   UNL     1     -27.533  48.908  39.882  1.00  0.00     0.051 A 
ATOM     15  C   UNL     1     -27.795  47.653  40.440  1.00  0.00     0.157 A 
ATOM     16  C   UNL     1     -26.765  48.378  42.516  1.00  0.00     0.062 A 
ATOM     17  C   UNL     1     -27.407  47.385  41.763  1.00  0.00     0.158 A 
BRANCH  15  18
ATOM     18  O   UNL     1     -28.436  46.687  39.666  1.00  0.00    -0.504 OA
ATOM     19  H   UNL     1     -29.024  45.971  40.076  1.00  0.00     0.293 HD
ENDBRANCH  15  18
BRANCH  17  20
ATOM     20  O   UNL     1     -27.660  46.133  42.324  1.00  0.00    -0.504 OA
ATOM     21  H   UNL     1     -27.351  45.900  43.260  1.00  0.00     0.293 HD
ENDBRANCH  17  20
ENDBRANCH   1  12
BRANCH   2  22
ATOM     22  O   UNL     1     -23.627  49.815  42.149  1.00  0.00    -0.502 OA
ATOM     23  H   UNL     1     -23.239  48.979  42.568  1.00  0.00     0.293 HD
ENDBRANCH   2  22
BRANCH   6  24
ATOM     24  O   UNL     1     -22.743  53.803  45.367  1.00  0.00    -0.507 OA
ATOM     25  H   UNL     1     -22.071  53.455  44.693  1.00  0.00     0.293 HD
ENDBRANCH   6  24
BRANCH   8  26
ATOM     26  O   UNL     1     -27.251  55.329  46.255  1.00  0.00    -0.508 OA
ATOM     27  H   UNL     1     -28.195  55.058  46.501  1.00  0.00     0.293 HD
ENDBRANCH   8  26
TORSDOF 6
ENDMDL
MODEL 6
REMARK VINA RESULT:    -4.098      7.857      8.813
REMARK INTER + INTRA:          -5.011
REMARK INTER:                  -4.728
REMARK INTRA:                  -0.284
REMARK UNBOUND:                -0.075
REMARK SMILES O=c1c(O)c(-c2ccc(O)c(O)c2)oc2cc(O)cc(O)c12
REMARK SMILES IDX 5 1 3 2 2 3 1 4 22 5 20 6 19 7 17 8 16 9 15 10 14 11 6 12
REMARK SMILES IDX 7 13 8 14 9 15 13 16 11 17 10 18 12 20 4 22 21 24 18 26
REMARK H PARENT 10 19 12 21 4 23 21 25 18 27
REMARK Flexibility Score: inf
ROOT
ATOM      1  C   UNL     1     -27.130  55.024  34.273  1.00  0.00     0.180 A 
ATOM      2  C   UNL     1     -27.426  55.796  33.133  1.00  0.00     0.208 A 
ATOM      3  C   UNL     1     -27.719  57.159  33.293  1.00  0.00     0.238 A 
ATOM      4  O   UNL     1     -27.975  57.863  32.279  1.00  0.00    -0.285 OA
ATOM      5  C   UNL     1     -27.730  57.723  34.587  1.00  0.00     0.111 A 
ATOM      6  C   UNL     1     -28.019  59.086  34.835  1.00  0.00     0.134 A 
ATOM      7  C   UNL     1     -28.021  59.568  36.153  1.00  0.00     0.093 A 
ATOM      8  C   UNL     1     -27.739  58.713  37.224  1.00  0.00     0.123 A 
ATOM      9  C   UNL     1     -27.453  57.368  36.983  1.00  0.00     0.094 A 
ATOM     10  C   UNL     1     -27.446  56.869  35.679  1.00  0.00     0.146 A 
ATOM     11  O   UNL     1     -27.165  55.587  35.478  1.00  0.00    -0.452 OA
ENDROOT
BRANCH   1  12
ATOM     12  C   UNL     1     -26.792  53.585  34.184  1.00  0.00     0.025 A 
ATOM     13  C   UNL     1     -25.467  53.136  34.309  1.00  0.00     0.016 A 
ATOM     14  C   UNL     1     -25.175  51.771  34.245  1.00  0.00     0.051 A 
ATOM     15  C   UNL     1     -26.199  50.836  34.069  1.00  0.00     0.157 A 
ATOM     16  C   UNL     1     -27.821  52.643  34.029  1.00  0.00     0.062 A 
ATOM     17  C   UNL     1     -27.530  51.273  33.963  1.00  0.00     0.158 A 
BRANCH  15  18
ATOM     18  O   UNL     1     -25.877  49.481  34.007  1.00  0.00    -0.504 OA
ATOM     19  H   UNL     1     -26.492  48.764  34.371  1.00  0.00     0.293 HD
ENDBRANCH  15  18
BRANCH  17  20
ATOM     20  O   UNL     1     -28.558  50.345  33.795  1.00  0.00    -0.504 OA
ATOM     21  H   UNL     1     -28.728  49.613  34.475  1.00  0.00     0.293 HD
ENDBRANCH  17  20
ENDBRANCH   1  12
BRANCH   2  22
ATOM     22  O   UNL     1     -27.456  55.204  31.868  1.00  0.00    -0.502 OA
ATOM     23  H   UNL     1     -26.618  54.881  31.400  1.00  0.00     0.293 HD
ENDBRANCH   2  22
BRANCH   6  24
ATOM     24  O   UNL     1     -28.305  59.962  33.787  1.00  0.00    -0.507 OA
ATOM     25  H   UNL     1     -29.223  59.999  33.358  1.00  0.00     0.293 HD
ENDBRANCH   6  24
BRANCH   8  26
ATOM     26  O   UNL     1     -27.740  59.192  38.533  1.00  0.00    -0.508 OA
ATOM     27  H   UNL     1     -26.885  59.267  39.070  1.00  0.00     0.293 HD
ENDBRANCH   8  26
TORSDOF 6
ENDMDL
MODEL 7
REMARK VINA RESULT:    -4.052      1.472      6.584
REMARK INTER + INTRA:          -4.956
REMARK INTER:                  -4.676
REMARK INTRA:                  -0.280
REMARK UNBOUND:                -0.075
REMARK SMILES O=c1c(O)c(-c2ccc(O)c(O)c2)oc2cc(O)cc(O)c12
REMARK SMILES IDX 5 1 3 2 2 3 1 4 22 5 20 6 19 7 17 8 16 9 15 10 14 11 6 12
REMARK SMILES IDX 7 13 8 14 9 15 13 16 11 17 10 18 12 20 4 22 21 24 18 26
REMARK H PARENT 10 19 12 21 4 23 21 25 18 27
REMARK Flexibility Score: inf
ROOT
ATOM      1  C   UNL     1     -25.656  51.430  42.994  1.00  0.00     0.180 A 
ATOM      2  C   UNL     1     -24.994  51.876  41.834  1.00  0.00     0.208 A 
ATOM      3  C   UNL     1     -25.049  51.086  40.675  1.00  0.00     0.238 A 
ATOM      4  O   UNL     1     -24.469  51.480  39.627  1.00  0.00    -0.285 OA
ATOM      5  C   UNL     1     -25.745  49.859  40.700  1.00  0.00     0.111 A 
ATOM      6  C   UNL     1     -25.845  49.002  39.577  1.00  0.00     0.134 A 
ATOM      7  C   UNL     1     -26.546  47.792  39.685  1.00  0.00     0.093 A 
ATOM      8  C   UNL     1     -27.149  47.424  40.893  1.00  0.00     0.123 A 
ATOM      9  C   UNL     1     -27.054  48.267  42.003  1.00  0.00     0.094 A 
ATOM     10  C   UNL     1     -26.360  49.476  41.915  1.00  0.00     0.146 A 
ATOM     11  O   UNL     1     -26.290  50.260  42.984  1.00  0.00    -0.452 OA
ENDROOT
BRANCH   1  12
ATOM     12  C   UNL     1     -25.661  52.216  44.249  1.00  0.00     0.025 A 
ATOM     13  C   UNL     1     -24.802  51.898  45.315  1.00  0.00     0.016 A 
ATOM     14  C   UNL     1     -24.808  52.668  46.481  1.00  0.00     0.051 A 
ATOM     15  C   UNL     1     -25.659  53.771  46.595  1.00  0.00     0.157 A 
ATOM     16  C   UNL     1     -26.499  53.336  44.359  1.00  0.00     0.062 A 
ATOM     17  C   UNL     1     -26.507  54.110  45.529  1.00  0.00     0.158 A 
BRANCH  15  18
ATOM     18  O   UNL     1     -25.643  54.519  47.772  1.00  0.00    -0.504 OA
ATOM     19  H   UNL     1     -26.168  55.380  47.869  1.00  0.00     0.293 HD
ENDBRANCH  15  18
BRANCH  17  20
ATOM     20  O   UNL     1     -27.354  55.213  45.634  1.00  0.00    -0.504 OA
ATOM     21  H   UNL     1     -27.892  55.546  44.842  1.00  0.00     0.293 HD
ENDBRANCH  17  20
ENDBRANCH   1  12
BRANCH   2  22
ATOM     22  O   UNL     1     -24.271  53.071  41.849  1.00  0.00    -0.502 OA
ATOM     23  H   UNL     1     -24.402  53.794  41.152  1.00  0.00     0.293 HD
ENDBRANCH   2  22
BRANCH   6  24
ATOM     24  O   UNL     1     -25.252  49.342  38.360  1.00  0.00    -0.507 OA
ATOM     25  H   UNL     1     -24.398  48.899  38.041  1.00  0.00     0.293 HD
ENDBRANCH   6  24
BRANCH   8  26
ATOM     26  O   UNL     1     -27.847  46.223  41.001  1.00  0.00    -0.508 OA
ATOM     27  H   UNL     1     -27.727  45.611  41.799  1.00  0.00     0.293 HD
ENDBRANCH   8  26
TORSDOF 6
ENDMDL
MODEL 8
REMARK VINA RESULT:    -4.052      1.632      2.901
REMARK INTER + INTRA:          -4.956
REMARK INTER:                  -4.701
REMARK INTRA:                  -0.255
REMARK UNBOUND:                -0.075
REMARK SMILES O=c1c(O)c(-c2ccc(O)c(O)c2)oc2cc(O)cc(O)c12
REMARK SMILES IDX 5 1 3 2 2 3 1 4 22 5 20 6 19 7 17 8 16 9 15 10 14 11 6 12
REMARK SMILES IDX 7 13 8 14 9 15 13 16 11 17 10 18 12 20 4 22 21 24 18 26
REMARK H PARENT 10 19 12 21 4 23 21 25 18 27
REMARK Flexibility Score: inf
ROOT
ATOM      1  C   UNL     1     -25.936  51.028  41.602  1.00  0.00     0.180 A 
ATOM      2  C   UNL     1     -26.047  50.823  42.990  1.00  0.00     0.208 A 
ATOM      3  C   UNL     1     -25.793  51.897  43.858  1.00  0.00     0.238 A 
ATOM      4  O   UNL     1     -25.899  51.728  45.103  1.00  0.00    -0.285 OA
ATOM      5  C   UNL     1     -25.417  53.149  43.326  1.00  0.00     0.111 A 
ATOM      6  C   UNL     1     -25.141  54.280  44.131  1.00  0.00     0.134 A 
ATOM      7  C   UNL     1     -24.763  55.488  43.526  1.00  0.00     0.093 A 
ATOM      8  C   UNL     1     -24.656  55.585  42.134  1.00  0.00     0.123 A 
ATOM      9  C   UNL     1     -24.928  54.472  41.337  1.00  0.00     0.094 A 
ATOM     10  C   UNL     1     -25.307  53.260  41.920  1.00  0.00     0.146 A 
ATOM     11  O   UNL     1     -25.565  52.219  41.138  1.00  0.00    -0.452 OA
ENDROOT
BRANCH   1  12
ATOM     12  C   UNL     1     -26.206  49.951  40.623  1.00  0.00     0.025 A 
ATOM     13  C   UNL     1     -25.160  49.285  39.961  1.00  0.00     0.016 A 
ATOM     14  C   UNL     1     -25.438  48.255  39.058  1.00  0.00     0.051 A 
ATOM     15  C   UNL     1     -26.758  47.867  38.813  1.00  0.00     0.157 A 
ATOM     16  C   UNL     1     -27.529  49.545  40.390  1.00  0.00     0.062 A 
ATOM     17  C   UNL     1     -27.810  48.512  39.483  1.00  0.00     0.158 A 
BRANCH  15  18
ATOM     18  O   UNL     1     -27.004  46.837  37.905  1.00  0.00    -0.504 OA
ATOM     19  H   UNL     1     -26.698  45.887  38.073  1.00  0.00     0.293 HD
ENDBRANCH  15  18
BRANCH  17  20
ATOM     20  O   UNL     1     -29.129  48.125  39.248  1.00  0.00    -0.504 OA
ATOM     21  H   UNL     1     -29.353  47.234  38.821  1.00  0.00     0.293 HD
ENDBRANCH  17  20
ENDBRANCH   1  12
BRANCH   2  22
ATOM     22  O   UNL     1     -26.372  49.562  43.494  1.00  0.00    -0.502 OA
ATOM     23  H   UNL     1     -26.851  49.436  44.378  1.00  0.00     0.293 HD
ENDBRANCH   2  22
BRANCH   6  24
ATOM     24  O   UNL     1     -25.238  54.214  45.522  1.00  0.00    -0.507 OA
ATOM     25  H   UNL     1     -25.777  53.491  45.985  1.00  0.00     0.293 HD
ENDBRANCH   6  24
BRANCH   8  26
ATOM     26  O   UNL     1     -24.280  56.785  41.533  1.00  0.00    -0.508 OA
ATOM     27  H   UNL     1     -23.455  56.849  40.949  1.00  0.00     0.293 HD
ENDBRANCH   8  26
TORSDOF 6
ENDMDL
MODEL 9
REMARK VINA RESULT:    -3.968      3.319      5.952
REMARK INTER + INTRA:          -4.855
REMARK INTER:                  -4.544
REMARK INTRA:                  -0.311
REMARK UNBOUND:                -0.075
REMARK SMILES O=c1c(O)c(-c2ccc(O)c(O)c2)oc2cc(O)cc(O)c12
REMARK SMILES IDX 5 1 3 2 2 3 1 4 22 5 20 6 19 7 17 8 16 9 15 10 14 11 6 12
REMARK SMILES IDX 7 13 8 14 9 15 13 16 11 17 10 18 12 20 4 22 21 24 18 26
REMARK H PARENT 10 19 12 21 4 23 21 25 18 27
REMARK Flexibility Score: inf
ROOT
ATOM      1  C   UNL     1     -25.381  54.064  45.750  1.00  0.00     0.180 A 
ATOM      2  C   UNL     1     -26.304  54.973  46.301  1.00  0.00     0.208 A 
ATOM      3  C   UNL     1     -26.022  55.558  47.545  1.00  0.00     0.238 A 
ATOM      4  O   UNL     1     -26.836  56.381  48.044  1.00  0.00    -0.285 OA
ATOM      5  C   UNL     1     -24.835  55.211  48.225  1.00  0.00     0.111 A 
ATOM      6  C   UNL     1     -24.477  55.752  49.483  1.00  0.00     0.134 A 
ATOM      7  C   UNL     1     -23.284  55.348  50.100  1.00  0.00     0.093 A 
ATOM      8  C   UNL     1     -22.443  54.416  49.482  1.00  0.00     0.123 A 
ATOM      9  C   UNL     1     -22.791  53.881  48.240  1.00  0.00     0.094 A 
ATOM     10  C   UNL     1     -23.975  54.270  47.610  1.00  0.00     0.146 A 
ATOM     11  O   UNL     1     -24.279  53.750  46.427  1.00  0.00    -0.452 OA
ENDROOT
BRANCH   1  12
ATOM     12  C   UNL     1     -25.598  53.421  44.434  1.00  0.00     0.025 A 
ATOM     13  C   UNL     1     -26.183  52.147  44.330  1.00  0.00     0.016 A 
ATOM     14  C   UNL     1     -26.400  51.570  43.076  1.00  0.00     0.051 A 
ATOM     15  C   UNL     1     -26.049  52.258  41.910  1.00  0.00     0.157 A 
ATOM     16  C   UNL     1     -25.267  54.118  43.261  1.00  0.00     0.062 A 
ATOM     17  C   UNL     1     -25.483  53.540  42.002  1.00  0.00     0.158 A 
BRANCH  15  18
ATOM     18  O   UNL     1     -26.276  51.656  40.673  1.00  0.00    -0.504 OA
ATOM     19  H   UNL     1     -25.594  51.689  39.925  1.00  0.00     0.293 HD
ENDBRANCH  15  18
BRANCH  17  20
ATOM     20  O   UNL     1     -25.138  54.235  40.843  1.00  0.00    -0.504 OA
ATOM     21  H   UNL     1     -24.455  53.871  40.190  1.00  0.00     0.293 HD
ENDBRANCH  17  20
ENDBRANCH   1  12
BRANCH   2  22
ATOM     22  O   UNL     1     -27.495  55.263  45.631  1.00  0.00    -0.502 OA
ATOM     23  H   UNL     1     -27.544  55.351  44.623  1.00  0.00     0.293 HD
ENDBRANCH   2  22
BRANCH   6  24
ATOM     24  O   UNL     1     -25.297  56.682  50.125  1.00  0.00    -0.507 OA
ATOM     25  H   UNL     1     -25.200  56.886  51.113  1.00  0.00     0.293 HD
ENDBRANCH   6  24
BRANCH   8  26
ATOM     26  O   UNL     1     -21.257  54.014  50.094  1.00  0.00    -0.508 OA
ATOM     27  H   UNL     1     -20.361  54.118  49.633  1.00  0.00     0.293 HD
ENDBRANCH   8  26
TORSDOF 6
ENDMDL
