MODEL 1
REMARK VINA RESULT:    -4.972      0.000      0.000
REMARK INTER + INTRA:          -9.188
REMARK INTER:                  -7.879
REMARK INTRA:                  -1.309
REMARK UNBOUND:                -1.309
REMARK SMILES CCCCCCCCCCCC(=O)[O-]
REMARK SMILES IDX 7 1 8 2 9 3 10 4 11 5 12 6 13 7 14 8 6 9 5 10 4 11 3 12 2 13
REMARK SMILES IDX 1 14
REMARK H PARENT
REMARK Flexibility Score: inf
ROOT
ATOM      1  C   UNL     1      45.613 -49.491 164.385  1.00  0.00     0.000 C 
ENDROOT
BRANCH   1   2
ATOM      2  C   UNL     1      44.080 -49.600 164.366  1.00  0.00     0.000 C 
BRANCH   2   3
ATOM      3  C   UNL     1      43.414 -48.710 165.430  1.00  0.00     0.000 C 
BRANCH   3   4
ATOM      4  C   UNL     1      41.937 -48.421 165.118  1.00  0.00     0.006 C 
BRANCH   4   5
ATOM      5  C   UNL     1      41.650 -48.391 163.611  1.00  0.00     0.053 C 
BRANCH   5   6
ATOM      6  C   UNL     1      40.578 -49.375 163.265  1.00  0.00     0.041 C 
ATOM      7  O   UNL     1      40.658 -50.566 163.664  1.00  0.00    -0.550 OA
ATOM      8  O   UNL     1      39.463 -48.964 162.545  1.00  0.00    -0.550 OA
ENDBRANCH   5   6
ENDBRANCH   4   5
ENDBRANCH   3   4
ENDBRANCH   2   3
ENDBRANCH   1   2
BRANCH   1   9
ATOM      9  C   UNL     1      46.177 -48.868 163.097  1.00  0.00     0.000 C 
BRANCH   9  10
ATOM     10  C   UNL     1      45.081 -48.281 162.187  1.00  0.00    -0.000 C 
BRANCH  10  11
ATOM     11  C   UNL     1      44.772 -46.792 162.425  1.00  0.00    -0.000 C 
BRANCH  11  12
ATOM     12  C   UNL     1      45.768 -46.117 163.380  1.00  0.00    -0.000 C 
BRANCH  12  13
ATOM     13  C   UNL     1      45.089 -45.738 164.702  1.00  0.00    -0.003 C 
ATOM     14  C   UNL     1      46.094 -45.713 165.851  1.00  0.00     0.004 C 
ENDBRANCH  12  13
ENDBRANCH  11  12
ENDBRANCH  10  11
ENDBRANCH   9  10
ENDBRANCH   1   9
TORSDOF 10
ENDMDL
MODEL 2
REMARK VINA RESULT:    -4.840      3.988      4.815
REMARK INTER + INTRA:          -8.979
REMARK INTER:                  -8.192
REMARK INTRA:                  -0.787
REMARK UNBOUND:                -1.309
REMARK SMILES CCCCCCCCCCCC(=O)[O-]
REMARK SMILES IDX 7 1 8 2 9 3 10 4 11 5 12 6 13 7 14 8 6 9 5 10 4 11 3 12 2 13
REMARK SMILES IDX 1 14
REMARK H PARENT
REMARK Flexibility Score: inf
ROOT
ATOM      1  C   UNL     1      47.606 -49.438 163.109  1.00  0.00     0.000 C 
ENDROOT
BRANCH   1   2
ATOM      2  C   UNL     1      46.085 -49.583 162.941  1.00  0.00     0.000 C 
BRANCH   2   3
ATOM      3  C   UNL     1      45.333 -49.485 164.279  1.00  0.00     0.000 C 
BRANCH   3   4
ATOM      4  C   UNL     1      44.039 -48.663 164.171  1.00  0.00     0.006 C 
BRANCH   4   5
ATOM      5  C   UNL     1      44.018 -47.469 165.135  1.00  0.00     0.053 C 
BRANCH   5   6
ATOM      6  C   UNL     1      44.956 -46.404 164.667  1.00  0.00     0.041 C 
ATOM      7  O   UNL     1      45.672 -45.781 165.494  1.00  0.00    -0.550 OA
ATOM      8  O   UNL     1      45.080 -46.133 163.310  1.00  0.00    -0.550 OA
ENDBRANCH   5   6
ENDBRANCH   4   5
ENDBRANCH   3   4
ENDBRANCH   2   3
ENDBRANCH   1   2
BRANCH   1   9
ATOM      9  C   UNL     1      47.985 -48.545 164.303  1.00  0.00     0.000 C 
BRANCH   9  10
ATOM     10  C   UNL     1      49.115 -49.142 165.162  1.00  0.00    -0.000 C 
BRANCH  10  11
ATOM     11  C   UNL     1      50.241 -48.157 165.527  1.00  0.00    -0.000 C 
BRANCH  11  12
ATOM     12  C   UNL     1      49.998 -46.741 164.983  1.00  0.00    -0.000 C 
BRANCH  12  13
ATOM     13  C   UNL     1      51.281 -45.904 165.044  1.00  0.00    -0.003 C 
ATOM     14  C   UNL     1      52.369 -46.618 165.841  1.00  0.00     0.004 C 
ENDBRANCH  12  13
ENDBRANCH  11  12
ENDBRANCH  10  11
ENDBRANCH   9  10
ENDBRANCH   1   9
TORSDOF 10
ENDMDL
MODEL 3
REMARK VINA RESULT:    -4.840      3.953      5.202
REMARK INTER + INTRA:          -8.979
REMARK INTER:                  -8.106
REMARK INTRA:                  -0.872
REMARK UNBOUND:                -1.309
REMARK SMILES CCCCCCCCCCCC(=O)[O-]
REMARK SMILES IDX 7 1 8 2 9 3 10 4 11 5 12 6 13 7 14 8 6 9 5 10 4 11 3 12 2 13
REMARK SMILES IDX 1 14
REMARK H PARENT
REMARK Flexibility Score: inf
ROOT
ATOM      1  C   UNL     1      47.129 -46.065 165.475  1.00  0.00     0.000 C 
ENDROOT
BRANCH   1   2
ATOM      2  C   UNL     1      45.646 -46.175 165.090  1.00  0.00     0.000 C 
BRANCH   2   3
ATOM      3  C   UNL     1      45.430 -46.147 163.567  1.00  0.00     0.000 C 
BRANCH   3   4
ATOM      4  C   UNL     1      44.429 -47.213 163.092  1.00  0.00     0.006 C 
BRANCH   4   5
ATOM      5  C   UNL     1      45.082 -48.279 162.203  1.00  0.00     0.053 C 
BRANCH   5   6
ATOM      6  C   UNL     1      45.837 -49.263 163.038  1.00  0.00     0.041 C 
ATOM      7  O   UNL     1      45.371 -49.647 164.143  1.00  0.00    -0.550 OA
ATOM      8  O   UNL     1      47.032 -49.797 162.573  1.00  0.00    -0.550 OA
ENDBRANCH   5   6
ENDBRANCH   4   5
ENDBRANCH   3   4
ENDBRANCH   2   3
ENDBRANCH   1   2
BRANCH   1   9
ATOM      9  C   UNL     1      48.053 -46.791 164.482  1.00  0.00     0.000 C 
BRANCH   9  10
ATOM     10  C   UNL     1      48.736 -48.028 165.095  1.00  0.00    -0.000 C 
BRANCH  10  11
ATOM     11  C   UNL     1      50.247 -47.874 165.347  1.00  0.00    -0.000 C 
BRANCH  11  12
ATOM     12  C   UNL     1      50.756 -46.448 165.088  1.00  0.00    -0.000 C 
BRANCH  12  13
ATOM     13  C   UNL     1      52.126 -46.228 165.741  1.00  0.00    -0.003 C 
ATOM     14  C   UNL     1      52.940 -47.519 165.763  1.00  0.00     0.004 C 
ENDBRANCH  12  13
ENDBRANCH  11  12
ENDBRANCH  10  11
ENDBRANCH   9  10
ENDBRANCH   1   9
TORSDOF 10
ENDMDL
MODEL 4
REMARK VINA RESULT:    -4.708      2.724      5.595
REMARK INTER + INTRA:          -8.770
REMARK INTER:                  -8.010
REMARK INTRA:                  -0.760
REMARK UNBOUND:                -1.309
REMARK SMILES CCCCCCCCCCCC(=O)[O-]
REMARK SMILES IDX 7 1 8 2 9 3 10 4 11 5 12 6 13 7 14 8 6 9 5 10 4 11 3 12 2 13
REMARK SMILES IDX 1 14
REMARK H PARENT
REMARK Flexibility Score: inf
ROOT
ATOM      1  C   UNL     1      42.048 -48.381 165.190  1.00  0.00     0.000 C 
ENDROOT
BRANCH   1   2
ATOM      2  C   UNL     1      43.547 -48.247 165.499  1.00  0.00     0.000 C 
BRANCH   2   3
ATOM      3  C   UNL     1      44.397 -49.294 164.758  1.00  0.00     0.000 C 
BRANCH   3   4
ATOM      4  C   UNL     1      45.682 -48.698 164.162  1.00  0.00     0.006 C 
BRANCH   4   5
ATOM      5  C   UNL     1      45.725 -48.801 162.632  1.00  0.00     0.053 C 
BRANCH   5   6
ATOM      6  C   UNL     1      44.811 -47.790 162.016  1.00  0.00     0.041 C 
ATOM      7  O   UNL     1      44.739 -46.627 162.493  1.00  0.00    -0.550 OA
ATOM      8  O   UNL     1      44.077 -48.115 160.882  1.00  0.00    -0.550 OA
ENDBRANCH   5   6
ENDBRANCH   4   5
ENDBRANCH   3   4
ENDBRANCH   2   3
ENDBRANCH   1   2
BRANCH   1   9
ATOM      9  C   UNL     1      41.784 -49.018 163.814  1.00  0.00     0.000 C 
BRANCH   9  10
ATOM     10  C   UNL     1      41.016 -48.084 162.861  1.00  0.00    -0.000 C 
BRANCH  10  11
ATOM     11  C   UNL     1      39.686 -48.650 162.330  1.00  0.00    -0.000 C 
BRANCH  11  12
ATOM     12  C   UNL     1      38.964 -47.690 161.373  1.00  0.00    -0.000 C 
BRANCH  12  13
ATOM     13  C   UNL     1      37.639 -48.291 160.890  1.00  0.00    -0.003 C 
ATOM     14  C   UNL     1      36.857 -48.905 162.048  1.00  0.00     0.004 C 
ENDBRANCH  12  13
ENDBRANCH  11  12
ENDBRANCH  10  11
ENDBRANCH   9  10
ENDBRANCH   1   9
TORSDOF 10
ENDMDL
MODEL 5
REMARK VINA RESULT:    -4.707      2.453      4.281
REMARK INTER + INTRA:          -8.768
REMARK INTER:                  -7.866
REMARK INTRA:                  -0.902
REMARK UNBOUND:                -1.309
REMARK SMILES CCCCCCCCCCCC(=O)[O-]
REMARK SMILES IDX 7 1 8 2 9 3 10 4 11 5 12 6 13 7 14 8 6 9 5 10 4 11 3 12 2 13
REMARK SMILES IDX 1 14
REMARK H PARENT
REMARK Flexibility Score: inf
ROOT
ATOM      1  C   UNL     1      41.689 -49.329 163.723  1.00  0.00     0.000 C 
ENDROOT
BRANCH   1   2
ATOM      2  C   UNL     1      40.401 -48.904 163.000  1.00  0.00     0.000 C 
BRANCH   2   3
ATOM      3  C   UNL     1      40.601 -47.648 162.133  1.00  0.00     0.000 C 
BRANCH   3   4
ATOM      4  C   UNL     1      39.335 -47.263 161.352  1.00  0.00     0.006 C 
BRANCH   4   5
ATOM      5  C   UNL     1      38.259 -48.355 161.400  1.00  0.00     0.053 C 
BRANCH   5   6
ATOM      6  C   UNL     1      37.088 -47.971 160.553  1.00  0.00     0.041 C 
ATOM      7  O   UNL     1      36.926 -46.774 160.200  1.00  0.00    -0.550 OA
ATOM      8  O   UNL     1      36.201 -48.945 160.109  1.00  0.00    -0.550 OA
ENDBRANCH   5   6
ENDBRANCH   4   5
ENDBRANCH   3   4
ENDBRANCH   2   3
ENDBRANCH   1   2
BRANCH   1   9
ATOM      9  C   UNL     1      42.045 -48.394 164.892  1.00  0.00     0.000 C 
BRANCH   9  10
ATOM     10  C   UNL     1      43.523 -47.960 164.881  1.00  0.00    -0.000 C 
BRANCH  10  11
ATOM     11  C   UNL     1      44.531 -49.100 164.648  1.00  0.00    -0.000 C 
BRANCH  11  12
ATOM     12  C   UNL     1      45.201 -49.035 163.267  1.00  0.00    -0.000 C 
BRANCH  12  13
ATOM     13  C   UNL     1      44.894 -47.704 162.571  1.00  0.00    -0.003 C 
ATOM     14  C   UNL     1      44.249 -47.932 161.206  1.00  0.00     0.004 C 
ENDBRANCH  12  13
ENDBRANCH  11  12
ENDBRANCH  10  11
ENDBRANCH   9  10
ENDBRANCH   1   9
TORSDOF 10
ENDMDL
MODEL 6
REMARK VINA RESULT:    -4.687      2.472      5.551
REMARK INTER + INTRA:          -8.735
REMARK INTER:                  -7.834
REMARK INTRA:                  -0.902
REMARK UNBOUND:                -1.309
REMARK SMILES CCCCCCCCCCCC(=O)[O-]
REMARK SMILES IDX 7 1 8 2 9 3 10 4 11 5 12 6 13 7 14 8 6 9 5 10 4 11 3 12 2 13
REMARK SMILES IDX 1 14
REMARK H PARENT
REMARK Flexibility Score: inf
ROOT
ATOM      1  C   UNL     1      42.873 -47.934 161.073  1.00  0.00     0.000 C 
ENDROOT
BRANCH   1   2
ATOM      2  C   UNL     1      44.322 -48.002 161.580  1.00  0.00     0.000 C 
BRANCH   2   3
ATOM      3  C   UNL     1      44.705 -46.779 162.432  1.00  0.00     0.000 C 
BRANCH   3   4
ATOM      4  C   UNL     1      45.463 -47.165 163.712  1.00  0.00     0.006 C 
BRANCH   4   5
ATOM      5  C   UNL     1      44.607 -47.000 164.975  1.00  0.00     0.053 C 
BRANCH   5   6
ATOM      6  C   UNL     1      43.848 -48.257 165.259  1.00  0.00     0.041 C 
ATOM      7  O   UNL     1      42.761 -48.211 165.892  1.00  0.00    -0.550 OA
ATOM      8  O   UNL     1      44.315 -49.474 164.780  1.00  0.00    -0.550 OA
ENDBRANCH   5   6
ENDBRANCH   4   5
ENDBRANCH   3   4
ENDBRANCH   2   3
ENDBRANCH   1   2
BRANCH   1   9
ATOM      9  C   UNL     1      41.889 -47.466 162.159  1.00  0.00     0.000 C 
BRANCH   9  10
ATOM     10  C   UNL     1      41.125 -48.631 162.815  1.00  0.00    -0.000 C 
BRANCH  10  11
ATOM     11  C   UNL     1      39.619 -48.678 162.499  1.00  0.00    -0.000 C 
BRANCH  11  12
ATOM     12  C   UNL     1      39.211 -47.708 161.380  1.00  0.00    -0.000 C 
BRANCH  12  13
ATOM     13  C   UNL     1      37.733 -47.885 161.013  1.00  0.00    -0.003 C 
ATOM     14  C   UNL     1      37.098 -49.019 161.815  1.00  0.00     0.004 C 
ENDBRANCH  12  13
ENDBRANCH  11  12
ENDBRANCH  10  11
ENDBRANCH   9  10
ENDBRANCH   1   9
TORSDOF 10
ENDMDL
MODEL 7
REMARK VINA RESULT:    -4.684      5.501      7.486
REMARK INTER + INTRA:          -8.731
REMARK INTER:                  -7.708
REMARK INTRA:                  -1.023
REMARK UNBOUND:                -1.309
REMARK SMILES CCCCCCCCCCCC(=O)[O-]
REMARK SMILES IDX 7 1 8 2 9 3 10 4 11 5 12 6 13 7 14 8 6 9 5 10 4 11 3 12 2 13
REMARK SMILES IDX 1 14
REMARK H PARENT
REMARK Flexibility Score: inf
ROOT
ATOM      1  C   UNL     1      46.777 -45.824 165.566  1.00  0.00     0.000 C 
ENDROOT
BRANCH   1   2
ATOM      2  C   UNL     1      47.863 -46.413 164.653  1.00  0.00     0.000 C 
BRANCH   2   3
ATOM      3  C   UNL     1      48.441 -47.730 165.200  1.00  0.00     0.000 C 
BRANCH   3   4
ATOM      4  C   UNL     1      49.962 -47.835 164.999  1.00  0.00     0.006 C 
BRANCH   4   5
ATOM      5  C   UNL     1      50.676 -46.491 165.192  1.00  0.00     0.053 C 
BRANCH   5   6
ATOM      6  C   UNL     1      52.059 -46.706 165.718  1.00  0.00     0.041 C 
ATOM      7  O   UNL     1      52.754 -45.725 166.092  1.00  0.00    -0.550 OA
ATOM      8  O   UNL     1      52.563 -47.994 165.843  1.00  0.00    -0.550 OA
ENDBRANCH   5   6
ENDBRANCH   4   5
ENDBRANCH   3   4
ENDBRANCH   2   3
ENDBRANCH   1   2
BRANCH   1   9
ATOM      9  C   UNL     1      45.367 -45.946 164.962  1.00  0.00     0.000 C 
BRANCH   9  10
ATOM     10  C   UNL     1      45.387 -46.153 163.436  1.00  0.00    -0.000 C 
BRANCH  10  11
ATOM     11  C   UNL     1      44.415 -47.227 162.915  1.00  0.00    -0.000 C 
BRANCH  11  12
ATOM     12  C   UNL     1      45.123 -48.355 162.148  1.00  0.00    -0.000 C 
BRANCH  12  13
ATOM     13  C   UNL     1      45.831 -49.313 163.113  1.00  0.00    -0.003 C 
ATOM     14  C   UNL     1      44.954 -49.626 164.323  1.00  0.00     0.004 C 
ENDBRANCH  12  13
ENDBRANCH  11  12
ENDBRANCH  10  11
ENDBRANCH   9  10
ENDBRANCH   1   9
TORSDOF 10
ENDMDL
MODEL 8
REMARK VINA RESULT:    -4.672      6.341      8.080
REMARK INTER + INTRA:          -8.713
REMARK INTER:                  -7.726
REMARK INTRA:                  -0.987
REMARK UNBOUND:                -1.309
REMARK SMILES CCCCCCCCCCCC(=O)[O-]
REMARK SMILES IDX 7 1 8 2 9 3 10 4 11 5 12 6 13 7 14 8 6 9 5 10 4 11 3 12 2 13
REMARK SMILES IDX 1 14
REMARK H PARENT
REMARK Flexibility Score: inf
ROOT
ATOM      1  C   UNL     1      48.440 -49.121 165.091  1.00  0.00     0.000 C 
ENDROOT
BRANCH   1   2
ATOM      2  C   UNL     1      49.653 -48.252 165.460  1.00  0.00     0.000 C 
BRANCH   2   3
ATOM      3  C   UNL     1      49.652 -46.899 164.729  1.00  0.00     0.000 C 
BRANCH   3   4
ATOM      4  C   UNL     1      50.872 -46.034 165.085  1.00  0.00     0.006 C 
BRANCH   4   5
ATOM      5  C   UNL     1      51.974 -46.834 165.792  1.00  0.00     0.053 C 
BRANCH   5   6
ATOM      6  C   UNL     1      53.141 -45.952 166.102  1.00  0.00     0.041 C 
ATOM      7  O   UNL     1      53.289 -44.860 165.494  1.00  0.00    -0.550 OA
ATOM      8  O   UNL     1      54.039 -46.312 167.099  1.00  0.00    -0.550 OA
ENDBRANCH   5   6
ENDBRANCH   4   5
ENDBRANCH   3   4
ENDBRANCH   2   3
ENDBRANCH   1   2
BRANCH   1   9
ATOM      9  C   UNL     1      48.153 -49.122 163.580  1.00  0.00     0.000 C 
BRANCH   9  10
ATOM     10  C   UNL     1      46.648 -49.133 163.257  1.00  0.00    -0.000 C 
BRANCH  10  11
ATOM     11  C   UNL     1      45.781 -48.256 164.179  1.00  0.00    -0.000 C 
BRANCH  11  12
ATOM     12  C   UNL     1      45.958 -46.753 163.916  1.00  0.00    -0.000 C 
BRANCH  12  13
ATOM     13  C   UNL     1      45.415 -45.925 165.086  1.00  0.00    -0.003 C 
ATOM     14  C   UNL     1      46.545 -45.441 165.991  1.00  0.00     0.004 C 
ENDBRANCH  12  13
ENDBRANCH  11  12
ENDBRANCH  10  11
ENDBRANCH   9  10
ENDBRANCH   1   9
TORSDOF 10
ENDMDL
MODEL 9
REMARK VINA RESULT:    -4.653      5.966      7.329
REMARK INTER + INTRA:          -8.681
REMARK INTER:                  -7.987
REMARK INTRA:                  -0.694
REMARK UNBOUND:                -1.309
REMARK SMILES CCCCCCCCCCCC(=O)[O-]
REMARK SMILES IDX 7 1 8 2 9 3 10 4 11 5 12 6 13 7 14 8 6 9 5 10 4 11 3 12 2 13
REMARK SMILES IDX 1 14
REMARK H PARENT
REMARK Flexibility Score: inf
ROOT
ATOM      1  C   UNL     1      50.760 -46.113 165.127  1.00  0.00     0.000 C 
ENDROOT
BRANCH   1   2
ATOM      2  C   UNL     1      49.312 -46.294 164.647  1.00  0.00     0.000 C 
BRANCH   2   3
ATOM      3  C   UNL     1      48.848 -47.760 164.717  1.00  0.00     0.000 C 
BRANCH   3   4
ATOM      4  C   UNL     1      47.343 -47.916 164.445  1.00  0.00     0.006 C 
BRANCH   4   5
ATOM      5  C   UNL     1      46.668 -46.586 164.088  1.00  0.00     0.053 C 
BRANCH   5   6
ATOM      6  C   UNL     1      45.698 -46.191 165.155  1.00  0.00     0.041 C 
ATOM      7  O   UNL     1      44.504 -46.587 165.104  1.00  0.00    -0.550 OA
ATOM      8  O   UNL     1      46.123 -45.427 166.234  1.00  0.00    -0.550 OA
ENDBRANCH   5   6
ENDBRANCH   4   5
ENDBRANCH   3   4
ENDBRANCH   2   3
ENDBRANCH   1   2
BRANCH   1   9
ATOM      9  C   UNL     1      51.432 -47.447 165.493  1.00  0.00     0.000 C 
BRANCH   9  10
ATOM     10  C   UNL     1      52.925 -47.291 165.839  1.00  0.00    -0.000 C 
BRANCH  10  11
ATOM     11  C   UNL     1      53.401 -45.836 166.008  1.00  0.00    -0.000 C 
BRANCH  11  12
ATOM     12  C   UNL     1      54.764 -45.572 165.349  1.00  0.00    -0.000 C 
BRANCH  12  13
ATOM     13  C   UNL     1      54.753 -44.244 164.583  1.00  0.00    -0.003 C 
ATOM     14  C   UNL     1      53.582 -43.366 165.015  1.00  0.00     0.004 C 
ENDBRANCH  12  13
ENDBRANCH  11  12
ENDBRANCH  10  11
ENDBRANCH   9  10
ENDBRANCH   1   9
TORSDOF 10
ENDMDL
