MODEL 1
REMARK VINA RESULT:    -3.525      0.000      0.000
REMARK INTER + INTRA:          -7.392
REMARK INTER:                  -5.997
REMARK INTRA:                  -1.394
REMARK UNBOUND:                -1.394
REMARK SMILES CCCCCCCCCCCCCC(=O)[O-]
REMARK SMILES IDX 8 1 9 2 10 3 11 4 12 5 13 6 14 7 15 8 16 9 7 10 6 11 5 12
REMARK SMILES IDX 4 13 3 14 2 15 1 16
REMARK H PARENT
REMARK Flexibility Score: inf
ROOT
ATOM      1  C   UNL     1       9.941  -5.044  45.202  1.00  0.00     0.000 C 
ENDROOT
BRANCH   1   2
ATOM      2  C   UNL     1       9.352  -6.167  44.333  1.00  0.00     0.000 C 
BRANCH   2   3
ATOM      3  C   UNL     1      10.437  -7.033  43.668  1.00  0.00     0.000 C 
BRANCH   3   4
ATOM      4  C   UNL     1      10.502  -6.831  42.146  1.00  0.00     0.000 C 
BRANCH   4   5
ATOM      5  C   UNL     1       9.285  -6.065  41.600  1.00  0.00     0.006 C 
BRANCH   5   6
ATOM      6  C   UNL     1       8.745  -6.684  40.304  1.00  0.00     0.053 C 
BRANCH   6   7
ATOM      7  C   UNL     1       7.897  -7.889  40.577  1.00  0.00     0.041 C 
ATOM      8  O   UNL     1       8.003  -8.915  39.856  1.00  0.00    -0.550 OA
ATOM      9  O   UNL     1       7.016  -7.890  41.651  1.00  0.00    -0.550 OA
ENDBRANCH   6   7
ENDBRANCH   5   6
ENDBRANCH   4   5
ENDBRANCH   3   4
ENDBRANCH   2   3
ENDBRANCH   1   2
BRANCH   1  10
ATOM     10  C   UNL     1       9.689  -3.646  44.610  1.00  0.00     0.000 C 
BRANCH  10  11
ATOM     11  C   UNL     1      10.922  -3.082  43.885  1.00  0.00    -0.000 C 
BRANCH  11  12
ATOM     12  C   UNL     1      12.245  -3.626  44.454  1.00  0.00    -0.000 C 
BRANCH  12  13
ATOM     13  C   UNL     1      13.077  -4.378  43.403  1.00  0.00    -0.000 C 
BRANCH  13  14
ATOM     14  C   UNL     1      14.587  -4.310  43.686  1.00  0.00    -0.000 C 
BRANCH  14  15
ATOM     15  C   UNL     1      14.909  -4.370  45.188  1.00  0.00    -0.003 C 
ATOM     16  C   UNL     1      15.734  -3.175  45.665  1.00  0.00     0.004 C 
ENDBRANCH  14  15
ENDBRANCH  13  14
ENDBRANCH  12  13
ENDBRANCH  11  12
ENDBRANCH  10  11
ENDBRANCH   1  10
TORSDOF 12
ENDMDL
MODEL 2
REMARK VINA RESULT:    -3.508      2.714      5.859
REMARK INTER + INTRA:          -7.364
REMARK INTER:                  -6.131
REMARK INTRA:                  -1.233
REMARK UNBOUND:                -1.394
REMARK SMILES CCCCCCCCCCCCCC(=O)[O-]
REMARK SMILES IDX 8 1 9 2 10 3 11 4 12 5 13 6 14 7 15 8 16 9 7 10 6 11 5 12
REMARK SMILES IDX 4 13 3 14 2 15 1 16
REMARK H PARENT
REMARK Flexibility Score: inf
ROOT
ATOM      1  C   UNL     1       9.697  -5.028  44.435  1.00  0.00     0.000 C 
ENDROOT
BRANCH   1   2
ATOM      2  C   UNL     1       9.867  -3.538  44.775  1.00  0.00     0.000 C 
BRANCH   2   3
ATOM      3  C   UNL     1      11.227  -2.978  44.320  1.00  0.00     0.000 C 
BRANCH   3   4
ATOM      4  C   UNL     1      12.355  -3.287  45.318  1.00  0.00     0.000 C 
BRANCH   4   5
ATOM      5  C   UNL     1      13.549  -3.996  44.656  1.00  0.00     0.006 C 
BRANCH   5   6
ATOM      6  C   UNL     1      13.276  -4.343  43.187  1.00  0.00     0.053 C 
BRANCH   6   7
ATOM      7  C   UNL     1      13.382  -5.816  42.935  1.00  0.00     0.041 C 
ATOM      8  O   UNL     1      13.974  -6.243  41.909  1.00  0.00    -0.550 OA
ATOM      9  O   UNL     1      12.859  -6.717  43.853  1.00  0.00    -0.550 OA
ENDBRANCH   6   7
ENDBRANCH   5   6
ENDBRANCH   4   5
ENDBRANCH   3   4
ENDBRANCH   2   3
ENDBRANCH   1   2
BRANCH   1  10
ATOM     10  C   UNL     1       9.736  -5.295  42.920  1.00  0.00     0.000 C 
BRANCH  10  11
ATOM     11  C   UNL     1       9.384  -6.750  42.569  1.00  0.00    -0.000 C 
BRANCH  11  12
ATOM     12  C   UNL     1       8.340  -6.852  41.442  1.00  0.00    -0.000 C 
BRANCH  12  13
ATOM     13  C   UNL     1       8.968  -6.753  40.043  1.00  0.00    -0.000 C 
BRANCH  13  14
ATOM     14  C   UNL     1       9.091  -8.123  39.353  1.00  0.00    -0.000 C 
BRANCH  14  15
ATOM     15  C   UNL     1      10.525  -8.419  38.885  1.00  0.00    -0.003 C 
ATOM     16  C   UNL     1      11.580  -8.018  39.916  1.00  0.00     0.004 C 
ENDBRANCH  14  15
ENDBRANCH  13  14
ENDBRANCH  12  13
ENDBRANCH  11  12
ENDBRANCH  10  11
ENDBRANCH   1  10
TORSDOF 12
ENDMDL
MODEL 3
REMARK VINA RESULT:    -3.478      1.482      2.526
REMARK INTER + INTRA:          -7.312
REMARK INTER:                  -5.937
REMARK INTRA:                  -1.375
REMARK UNBOUND:                -1.394
REMARK SMILES CCCCCCCCCCCCCC(=O)[O-]
REMARK SMILES IDX 8 1 9 2 10 3 11 4 12 5 13 6 14 7 15 8 16 9 7 10 6 11 5 12
REMARK SMILES IDX 4 13 3 14 2 15 1 16
REMARK H PARENT
REMARK Flexibility Score: inf
ROOT
ATOM      1  C   UNL     1       9.580  -6.195  43.967  1.00  0.00     0.000 C 
ENDROOT
BRANCH   1   2
ATOM      2  C   UNL     1       9.697  -5.954  42.453  1.00  0.00     0.000 C 
BRANCH   2   3
ATOM      3  C   UNL     1       8.544  -6.595  41.660  1.00  0.00     0.000 C 
BRANCH   3   4
ATOM      4  C   UNL     1       8.781  -6.558  40.142  1.00  0.00     0.000 C 
BRANCH   4   5
ATOM      5  C   UNL     1       9.903  -7.511  39.696  1.00  0.00     0.006 C 
BRANCH   5   6
ATOM      6  C   UNL     1       9.542  -8.983  39.937  1.00  0.00     0.053 C 
BRANCH   6   7
ATOM      7  C   UNL     1       8.592  -9.498  38.899  1.00  0.00     0.041 C 
ATOM      8  O   UNL     1       7.589 -10.178  39.240  1.00  0.00    -0.550 OA
ATOM      9  O   UNL     1       8.798  -9.197  37.559  1.00  0.00    -0.550 OA
ENDBRANCH   6   7
ENDBRANCH   5   6
ENDBRANCH   4   5
ENDBRANCH   3   4
ENDBRANCH   2   3
ENDBRANCH   1   2
BRANCH   1  10
ATOM     10  C   UNL     1       9.796  -4.912  44.788  1.00  0.00     0.000 C 
BRANCH  10  11
ATOM     11  C   UNL     1      10.017  -3.675  43.901  1.00  0.00    -0.000 C 
BRANCH  11  12
ATOM     12  C   UNL     1      11.308  -2.915  44.255  1.00  0.00    -0.000 C 
BRANCH  12  13
ATOM     13  C   UNL     1      12.377  -3.823  44.884  1.00  0.00    -0.000 C 
BRANCH  13  14
ATOM     14  C   UNL     1      13.596  -4.023  43.966  1.00  0.00    -0.000 C 
BRANCH  14  15
ATOM     15  C   UNL     1      13.352  -5.091  42.889  1.00  0.00    -0.003 C 
ATOM     16  C   UNL     1      13.244  -6.502  43.468  1.00  0.00     0.004 C 
ENDBRANCH  14  15
ENDBRANCH  13  14
ENDBRANCH  12  13
ENDBRANCH  11  12
ENDBRANCH  10  11
ENDBRANCH   1  10
TORSDOF 12
ENDMDL
MODEL 4
REMARK VINA RESULT:    -3.474      1.051      1.685
REMARK INTER + INTRA:          -7.305
REMARK INTER:                  -5.690
REMARK INTRA:                  -1.615
REMARK UNBOUND:                -1.394
REMARK SMILES CCCCCCCCCCCCCC(=O)[O-]
REMARK SMILES IDX 8 1 9 2 10 3 11 4 12 5 13 6 14 7 15 8 16 9 7 10 6 11 5 12
REMARK SMILES IDX 4 13 3 14 2 15 1 16
REMARK H PARENT
REMARK Flexibility Score: inf
ROOT
ATOM      1  C   UNL     1       9.969  -5.141  44.952  1.00  0.00     0.000 C 
ENDROOT
BRANCH   1   2
ATOM      2  C   UNL     1       9.614  -6.297  44.004  1.00  0.00     0.000 C 
BRANCH   2   3
ATOM      3  C   UNL     1       9.745  -5.908  42.520  1.00  0.00     0.000 C 
BRANCH   3   4
ATOM      4  C   UNL     1      10.421  -7.004  41.681  1.00  0.00     0.000 C 
BRANCH   4   5
ATOM      5  C   UNL     1       9.726  -7.224  40.326  1.00  0.00     0.006 C 
BRANCH   5   6
ATOM      6  C   UNL     1       8.225  -6.915  40.389  1.00  0.00     0.053 C 
BRANCH   6   7
ATOM      7  C   UNL     1       7.430  -8.113  40.812  1.00  0.00     0.041 C 
ATOM      8  O   UNL     1       7.809  -9.270  40.497  1.00  0.00    -0.550 OA
ATOM      9  O   UNL     1       6.288  -7.949  41.586  1.00  0.00    -0.550 OA
ENDBRANCH   6   7
ENDBRANCH   5   6
ENDBRANCH   4   5
ENDBRANCH   3   4
ENDBRANCH   2   3
ENDBRANCH   1   2
BRANCH   1  10
ATOM     10  C   UNL     1       9.799  -3.762  44.291  1.00  0.00     0.000 C 
BRANCH  10  11
ATOM     11  C   UNL     1      11.133  -3.013  44.138  1.00  0.00    -0.000 C 
BRANCH  11  12
ATOM     12  C   UNL     1      12.163  -3.410  45.211  1.00  0.00    -0.000 C 
BRANCH  12  13
ATOM     13  C   UNL     1      13.429  -4.042  44.612  1.00  0.00    -0.000 C 
BRANCH  13  14
ATOM     14  C   UNL     1      13.219  -4.529  43.168  1.00  0.00    -0.000 C 
BRANCH  14  15
ATOM     15  C   UNL     1      13.920  -5.869  42.891  1.00  0.00    -0.003 C 
ATOM     16  C   UNL     1      13.401  -7.003  43.776  1.00  0.00     0.004 C 
ENDBRANCH  14  15
ENDBRANCH  13  14
ENDBRANCH  12  13
ENDBRANCH  11  12
ENDBRANCH  10  11
ENDBRANCH   1  10
TORSDOF 12
ENDMDL
MODEL 5
REMARK VINA RESULT:    -3.456      2.374      5.408
REMARK INTER + INTRA:          -7.275
REMARK INTER:                  -5.771
REMARK INTRA:                  -1.504
REMARK UNBOUND:                -1.394
REMARK SMILES CCCCCCCCCCCCCC(=O)[O-]
REMARK SMILES IDX 8 1 9 2 10 3 11 4 12 5 13 6 14 7 15 8 16 9 7 10 6 11 5 12
REMARK SMILES IDX 4 13 3 14 2 15 1 16
REMARK H PARENT
REMARK Flexibility Score: inf
ROOT
ATOM      1  C   UNL     1      10.063  -3.603  43.938  1.00  0.00     0.000 C 
ENDROOT
BRANCH   1   2
ATOM      2  C   UNL     1      11.438  -2.980  44.231  1.00  0.00     0.000 C 
BRANCH   2   3
ATOM      3  C   UNL     1      12.519  -4.037  44.520  1.00  0.00     0.000 C 
BRANCH   3   4
ATOM      4  C   UNL     1      13.367  -4.366  43.281  1.00  0.00     0.000 C 
BRANCH   4   5
ATOM      5  C   UNL     1      13.311  -5.857  42.907  1.00  0.00     0.006 C 
BRANCH   5   6
ATOM      6  C   UNL     1      13.259  -6.763  44.144  1.00  0.00     0.053 C 
BRANCH   6   7
ATOM      7  C   UNL     1      12.532  -8.043  43.864  1.00  0.00     0.041 C 
ATOM      8  O   UNL     1      12.311  -8.400  42.677  1.00  0.00    -0.550 OA
ATOM      9  O   UNL     1      12.131  -8.858  44.915  1.00  0.00    -0.550 OA
ENDBRANCH   6   7
ENDBRANCH   5   6
ENDBRANCH   4   5
ENDBRANCH   3   4
ENDBRANCH   2   3
ENDBRANCH   1   2
BRANCH   1  10
ATOM     10  C   UNL     1       9.725  -4.762  44.893  1.00  0.00     0.000 C 
BRANCH  10  11
ATOM     11  C   UNL     1       9.425  -6.072  44.146  1.00  0.00    -0.000 C 
BRANCH  11  12
ATOM     12  C   UNL     1       9.701  -5.970  42.635  1.00  0.00    -0.000 C 
BRANCH  12  13
ATOM     13  C   UNL     1       8.652  -6.711  41.791  1.00  0.00    -0.000 C 
BRANCH  13  14
ATOM     14  C   UNL     1       8.770  -6.393  40.290  1.00  0.00    -0.000 C 
BRANCH  14  15
ATOM     15  C   UNL     1       9.114  -7.633  39.450  1.00  0.00    -0.003 C 
ATOM     16  C   UNL     1      10.614  -7.927  39.415  1.00  0.00     0.004 C 
ENDBRANCH  14  15
ENDBRANCH  13  14
ENDBRANCH  12  13
ENDBRANCH  11  12
ENDBRANCH  10  11
ENDBRANCH   1  10
TORSDOF 12
ENDMDL
MODEL 6
REMARK VINA RESULT:    -3.379      1.740      3.838
REMARK INTER + INTRA:          -7.143
REMARK INTER:                  -5.471
REMARK INTRA:                  -1.672
REMARK UNBOUND:                -1.394
REMARK SMILES CCCCCCCCCCCCCC(=O)[O-]
REMARK SMILES IDX 8 1 9 2 10 3 11 4 12 5 13 6 14 7 15 8 16 9 7 10 6 11 5 12
REMARK SMILES IDX 4 13 3 14 2 15 1 16
REMARK H PARENT
REMARK Flexibility Score: inf
ROOT
ATOM      1  C   UNL     1      12.386  -3.405  45.002  1.00  0.00     0.000 C 
ENDROOT
BRANCH   1   2
ATOM      2  C   UNL     1      10.909  -3.182  45.365  1.00  0.00     0.000 C 
BRANCH   2   3
ATOM      3  C   UNL     1       9.946  -3.842  44.362  1.00  0.00     0.000 C 
BRANCH   3   4
ATOM      4  C   UNL     1       9.345  -5.153  44.896  1.00  0.00     0.000 C 
BRANCH   4   5
ATOM      5  C   UNL     1       9.508  -6.322  43.910  1.00  0.00     0.006 C 
BRANCH   5   6
ATOM      6  C   UNL     1       9.685  -5.840  42.464  1.00  0.00     0.053 C 
BRANCH   6   7
ATOM      7  C   UNL     1       8.725  -6.515  41.534  1.00  0.00     0.041 C 
ATOM      8  O   UNL     1       7.903  -7.361  41.974  1.00  0.00    -0.550 OA
ATOM      9  O   UNL     1       8.715  -6.183  40.185  1.00  0.00    -0.550 OA
ENDBRANCH   6   7
ENDBRANCH   5   6
ENDBRANCH   4   5
ENDBRANCH   3   4
ENDBRANCH   2   3
ENDBRANCH   1   2
BRANCH   1  10
ATOM     10  C   UNL     1      12.573  -3.866  43.546  1.00  0.00     0.000 C 
BRANCH  10  11
ATOM     11  C   UNL     1      13.936  -4.537  43.311  1.00  0.00    -0.000 C 
BRANCH  11  12
ATOM     12  C   UNL     1      13.818  -5.871  42.551  1.00  0.00    -0.000 C 
BRANCH  12  13
ATOM     13  C   UNL     1      13.127  -6.965  43.380  1.00  0.00    -0.000 C 
BRANCH  13  14
ATOM     14  C   UNL     1      12.694  -8.169  42.525  1.00  0.00    -0.000 C 
BRANCH  14  15
ATOM     15  C   UNL     1      13.054  -7.996  41.040  1.00  0.00    -0.003 C 
ATOM     16  C   UNL     1      11.828  -8.021  40.127  1.00  0.00     0.004 C 
ENDBRANCH  14  15
ENDBRANCH  13  14
ENDBRANCH  12  13
ENDBRANCH  11  12
ENDBRANCH  10  11
ENDBRANCH   1  10
TORSDOF 12
ENDMDL
MODEL 7
REMARK VINA RESULT:    -3.326      2.897      5.456
REMARK INTER + INTRA:          -7.053
REMARK INTER:                  -5.415
REMARK INTRA:                  -1.638
REMARK UNBOUND:                -1.394
REMARK SMILES CCCCCCCCCCCCCC(=O)[O-]
REMARK SMILES IDX 8 1 9 2 10 3 11 4 12 5 13 6 14 7 15 8 16 9 7 10 6 11 5 12
REMARK SMILES IDX 4 13 3 14 2 15 1 16
REMARK H PARENT
REMARK Flexibility Score: inf
ROOT
ATOM      1  C   UNL     1      11.390  -2.931  44.203  1.00  0.00     0.000 C 
ENDROOT
BRANCH   1   2
ATOM      2  C   UNL     1      12.178  -3.704  45.273  1.00  0.00     0.000 C 
BRANCH   2   3
ATOM      3  C   UNL     1      13.464  -4.343  44.717  1.00  0.00     0.000 C 
BRANCH   3   4
ATOM      4  C   UNL     1      13.517  -4.319  43.181  1.00  0.00     0.000 C 
BRANCH   4   5
ATOM      5  C   UNL     1      14.660  -5.180  42.616  1.00  0.00     0.006 C 
BRANCH   5   6
ATOM      6  C   UNL     1      14.139  -6.383  41.818  1.00  0.00     0.053 C 
BRANCH   6   7
ATOM      7  C   UNL     1      14.408  -7.676  42.525  1.00  0.00     0.041 C 
ATOM      8  O   UNL     1      14.925  -8.642  41.905  1.00  0.00    -0.550 OA
ATOM      9  O   UNL     1      14.120  -7.801  43.878  1.00  0.00    -0.550 OA
ENDBRANCH   6   7
ENDBRANCH   5   6
ENDBRANCH   4   5
ENDBRANCH   3   4
ENDBRANCH   2   3
ENDBRANCH   1   2
BRANCH   1  10
ATOM     10  C   UNL     1      10.067  -3.623  43.829  1.00  0.00     0.000 C 
BRANCH  10  11
ATOM     11  C   UNL     1       9.702  -4.758  44.800  1.00  0.00    -0.000 C 
BRANCH  11  12
ATOM     12  C   UNL     1       9.468  -6.099  44.082  1.00  0.00    -0.000 C 
BRANCH  12  13
ATOM     13  C   UNL     1      10.723  -6.610  43.357  1.00  0.00    -0.000 C 
BRANCH  13  14
ATOM     14  C   UNL     1      10.459  -6.936  41.877  1.00  0.00    -0.000 C 
BRANCH  14  15
ATOM     15  C   UNL     1       9.175  -6.275  41.349  1.00  0.00    -0.003 C 
ATOM     16  C   UNL     1       8.703  -6.874  40.024  1.00  0.00     0.004 C 
ENDBRANCH  14  15
ENDBRANCH  13  14
ENDBRANCH  12  13
ENDBRANCH  11  12
ENDBRANCH  10  11
ENDBRANCH   1  10
TORSDOF 12
ENDMDL
MODEL 8
REMARK VINA RESULT:    -3.319      1.559      2.811
REMARK INTER + INTRA:          -7.042
REMARK INTER:                  -5.416
REMARK INTRA:                  -1.626
REMARK UNBOUND:                -1.394
REMARK SMILES CCCCCCCCCCCCCC(=O)[O-]
REMARK SMILES IDX 8 1 9 2 10 3 11 4 12 5 13 6 14 7 15 8 16 9 7 10 6 11 5 12
REMARK SMILES IDX 4 13 3 14 2 15 1 16
REMARK H PARENT
REMARK Flexibility Score: inf
ROOT
ATOM      1  C   UNL     1      10.290  -7.057  43.831  1.00  0.00     0.000 C 
ENDROOT
BRANCH   1   2
ATOM      2  C   UNL     1      10.405  -6.624  42.361  1.00  0.00     0.000 C 
BRANCH   2   3
ATOM      3  C   UNL     1       9.041  -6.289  41.732  1.00  0.00     0.000 C 
BRANCH   3   4
ATOM      4  C   UNL     1       8.563  -7.370  40.750  1.00  0.00     0.000 C 
BRANCH   4   5
ATOM      5  C   UNL     1       7.171  -7.918  41.107  1.00  0.00     0.006 C 
BRANCH   5   6
ATOM      6  C   UNL     1       7.202  -8.811  42.355  1.00  0.00     0.053 C 
BRANCH   6   7
ATOM      7  C   UNL     1       6.548 -10.135  42.106  1.00  0.00     0.041 C 
ATOM      8  O   UNL     1       6.724 -11.090  42.908  1.00  0.00    -0.550 OA
ATOM      9  O   UNL     1       5.714 -10.303  41.008  1.00  0.00    -0.550 OA
ENDBRANCH   6   7
ENDBRANCH   5   6
ENDBRANCH   4   5
ENDBRANCH   3   4
ENDBRANCH   2   3
ENDBRANCH   1   2
BRANCH   1  10
ATOM     10  C   UNL     1       9.349  -6.148  44.642  1.00  0.00     0.000 C 
BRANCH  10  11
ATOM     11  C   UNL     1      10.088  -4.966  45.292  1.00  0.00    -0.000 C 
BRANCH  11  12
ATOM     12  C   UNL     1       9.811  -3.630  44.581  1.00  0.00    -0.000 C 
BRANCH  12  13
ATOM     13  C   UNL     1      11.045  -3.083  43.846  1.00  0.00    -0.000 C 
BRANCH  13  14
ATOM     14  C   UNL     1      12.361  -3.673  44.382  1.00  0.00    -0.000 C 
BRANCH  14  15
ATOM     15  C   UNL     1      13.193  -4.350  43.282  1.00  0.00    -0.003 C 
ATOM     16  C   UNL     1      13.783  -5.689  43.725  1.00  0.00     0.004 C 
ENDBRANCH  14  15
ENDBRANCH  13  14
ENDBRANCH  12  13
ENDBRANCH  11  12
ENDBRANCH  10  11
ENDBRANCH   1  10
TORSDOF 12
ENDMDL
MODEL 9
REMARK VINA RESULT:    -3.317     13.524     14.964
REMARK INTER + INTRA:          -7.038
REMARK INTER:                  -5.879
REMARK INTRA:                  -1.159
REMARK UNBOUND:                -1.394
REMARK SMILES CCCCCCCCCCCCCC(=O)[O-]
REMARK SMILES IDX 8 1 9 2 10 3 11 4 12 5 13 6 14 7 15 8 16 9 7 10 6 11 5 12
REMARK SMILES IDX 4 13 3 14 2 15 1 16
REMARK H PARENT
REMARK Flexibility Score: inf
ROOT
ATOM      1  C   UNL     1      21.068 -15.631  44.681  1.00  0.00     0.000 C 
ENDROOT
BRANCH   1   2
ATOM      2  C   UNL     1      21.767 -15.938  43.347  1.00  0.00     0.000 C 
BRANCH   2   3
ATOM      3  C   UNL     1      21.888 -17.448  43.075  1.00  0.00     0.000 C 
BRANCH   3   4
ATOM      4  C   UNL     1      20.537 -18.094  42.726  1.00  0.00     0.000 C 
BRANCH   4   5
ATOM      5  C   UNL     1      19.846 -17.408  41.535  1.00  0.00     0.006 C 
BRANCH   5   6
ATOM      6  C   UNL     1      19.311 -18.420  40.514  1.00  0.00     0.053 C 
BRANCH   6   7
ATOM      7  C   UNL     1      17.827 -18.594  40.631  1.00  0.00     0.041 C 
ATOM      8  O   UNL     1      17.073 -18.268  39.677  1.00  0.00    -0.550 OA
ATOM      9  O   UNL     1      17.281 -19.150  41.781  1.00  0.00    -0.550 OA
ENDBRANCH   6   7
ENDBRANCH   5   6
ENDBRANCH   4   5
ENDBRANCH   3   4
ENDBRANCH   2   3
ENDBRANCH   1   2
BRANCH   1  10
ATOM     10  C   UNL     1      22.042 -15.106  45.751  1.00  0.00     0.000 C 
BRANCH  10  11
ATOM     11  C   UNL     1      23.505 -15.139  45.282  1.00  0.00    -0.000 C 
BRANCH  11  12
ATOM     12  C   UNL     1      24.406 -14.179  46.080  1.00  0.00    -0.000 C 
BRANCH  12  13
ATOM     13  C   UNL     1      25.070 -13.114  45.193  1.00  0.00    -0.000 C 
BRANCH  13  14
ATOM     14  C   UNL     1      24.605 -13.192  43.729  1.00  0.00    -0.000 C 
BRANCH  14  15
ATOM     15  C   UNL     1      23.836 -11.936  43.288  1.00  0.00    -0.003 C 
ATOM     16  C   UNL     1      22.325 -12.067  43.485  1.00  0.00     0.004 C 
ENDBRANCH  14  15
ENDBRANCH  13  14
ENDBRANCH  12  13
ENDBRANCH  11  12
ENDBRANCH  10  11
ENDBRANCH   1  10
TORSDOF 12
ENDMDL
