MODEL 1
REMARK VINA RESULT:     7.228      0.000      0.000
REMARK INTER + INTRA:           8.205
REMARK INTER:                   8.496
REMARK INTRA:                  -0.290
REMARK UNBOUND:                -0.290
REMARK SMILES O=c1cc(-c2ccc(O)c(O)c2)oc2cc(O)cc(O)c12
REMARK SMILES IDX 4 1 3 2 2 3 1 4 21 5 19 6 18 7 16 8 15 9 14 10 13 11 5 12
REMARK SMILES IDX 6 13 7 14 8 15 12 16 10 17 9 18 11 20 20 22 17 24
REMARK H PARENT 9 19 11 21 20 23 17 25
REMARK Flexibility Score: inf
ROOT
ATOM      1  C   UNL     1      -5.376   1.516  -5.755  1.00  0.00     0.138 A 
ATOM      2  C   UNL     1      -5.624   0.141  -5.601  1.00  0.00     0.100 A 
ATOM      3  C   UNL     1      -6.750  -0.425  -6.199  1.00  0.00     0.197 A 
ATOM      4  O   UNL     1      -6.964  -1.659  -6.054  1.00  0.00    -0.289 OA
ATOM      5  C   UNL     1      -7.624   0.389  -6.947  1.00  0.00     0.107 A 
ATOM      6  C   UNL     1      -8.786  -0.104  -7.587  1.00  0.00     0.134 A 
ATOM      7  C   UNL     1      -9.607   0.774  -8.309  1.00  0.00     0.093 A 
ATOM      8  C   UNL     1      -9.292   2.132  -8.403  1.00  0.00     0.123 A 
ATOM      9  C   UNL     1      -8.144   2.625  -7.772  1.00  0.00     0.094 A 
ATOM     10  C   UNL     1      -7.311   1.767  -7.049  1.00  0.00     0.146 A 
ATOM     11  O   UNL     1      -6.227   2.259  -6.460  1.00  0.00    -0.456 OA
ENDROOT
BRANCH   1  12
ATOM     12  C   UNL     1      -4.195   2.172  -5.139  1.00  0.00     0.021 A 
ATOM     13  C   UNL     1      -3.835   1.942  -3.798  1.00  0.00     0.016 A 
ATOM     14  C   UNL     1      -2.712   2.566  -3.249  1.00  0.00     0.051 A 
ATOM     15  C   UNL     1      -1.925   3.420  -4.026  1.00  0.00     0.157 A 
ATOM     16  C   UNL     1      -3.391   3.022  -5.920  1.00  0.00     0.062 A 
ATOM     17  C   UNL     1      -2.264   3.649  -5.370  1.00  0.00     0.158 A 
BRANCH  15  18
ATOM     18  O   UNL     1      -0.811   4.029  -3.448  1.00  0.00    -0.504 OA
ATOM     19  H   UNL     1      -0.453   3.746  -2.544  1.00  0.00     0.293 HD
ENDBRANCH  15  18
BRANCH  17  20
ATOM     20  O   UNL     1      -1.482   4.498  -6.152  1.00  0.00    -0.504 OA
ATOM     21  H   UNL     1      -0.896   5.213  -5.736  1.00  0.00     0.293 HD
ENDBRANCH  17  20
ENDBRANCH   1  12
BRANCH   6  22
ATOM     22  O   UNL     1      -9.127  -1.455  -7.512  1.00  0.00    -0.507 OA
ATOM     23  H   UNL     1      -9.018  -2.077  -8.305  1.00  0.00     0.293 HD
ENDBRANCH   6  22
BRANCH   8  24
ATOM     24  O   UNL     1     -10.125   2.982  -9.125  1.00  0.00    -0.508 OA
ATOM     25  H   UNL     1      -9.958   3.981  -9.163  1.00  0.00     0.293 HD
ENDBRANCH   8  24
TORSDOF 5
ENDMDL
MODEL 2
REMARK VINA RESULT:     7.731     13.435     14.541
REMARK INTER + INTRA:           8.796
REMARK INTER:                   9.060
REMARK INTRA:                  -0.264
REMARK UNBOUND:                -0.290
REMARK SMILES O=c1cc(-c2ccc(O)c(O)c2)oc2cc(O)cc(O)c12
REMARK SMILES IDX 4 1 3 2 2 3 1 4 21 5 19 6 18 7 16 8 15 9 14 10 13 11 5 12
REMARK SMILES IDX 6 13 7 14 8 15 12 16 10 17 9 18 11 20 20 22 17 24
REMARK H PARENT 9 19 11 21 20 23 17 25
REMARK Flexibility Score: inf
ROOT
ATOM      1  C   UNL     1      -1.878  -0.004   6.669  1.00  0.00     0.138 A 
ATOM      2  C   UNL     1      -0.546   0.033   6.220  1.00  0.00     0.100 A 
ATOM      3  C   UNL     1       0.058  -1.139   5.766  1.00  0.00     0.197 A 
ATOM      4  O   UNL     1       1.253  -1.096   5.367  1.00  0.00    -0.289 OA
ATOM      5  C   UNL     1      -0.674  -2.344   5.765  1.00  0.00     0.107 A 
ATOM      6  C   UNL     1      -0.138  -3.575   5.320  1.00  0.00     0.134 A 
ATOM      7  C   UNL     1      -0.932  -4.732   5.356  1.00  0.00     0.093 A 
ATOM      8  C   UNL     1      -2.245  -4.681   5.828  1.00  0.00     0.123 A 
ATOM      9  C   UNL     1      -2.780  -3.465   6.269  1.00  0.00     0.094 A 
ATOM     10  C   UNL     1      -2.007  -2.302   6.240  1.00  0.00     0.146 A 
ATOM     11  O   UNL     1      -2.538  -1.160   6.664  1.00  0.00    -0.456 OA
ENDROOT
BRANCH   1  12
ATOM     12  C   UNL     1      -2.571   1.213   7.164  1.00  0.00     0.021 A 
ATOM     13  C   UNL     1      -3.626   1.808   6.447  1.00  0.00     0.016 A 
ATOM     14  C   UNL     1      -4.266   2.946   6.944  1.00  0.00     0.051 A 
ATOM     15  C   UNL     1      -3.873   3.505   8.163  1.00  0.00     0.157 A 
ATOM     16  C   UNL     1      -2.189   1.773   8.397  1.00  0.00     0.062 A 
ATOM     17  C   UNL     1      -2.830   2.916   8.895  1.00  0.00     0.158 A 
BRANCH  15  18
ATOM     18  O   UNL     1      -4.530   4.643   8.630  1.00  0.00    -0.504 OA
ATOM     19  H   UNL     1      -5.540   4.724   8.618  1.00  0.00     0.293 HD
ENDBRANCH  15  18
BRANCH  17  20
ATOM     20  O   UNL     1      -2.434   3.466  10.114  1.00  0.00    -0.504 OA
ATOM     21  H   UNL     1      -1.519   3.883  10.235  1.00  0.00     0.293 HD
ENDBRANCH  17  20
ENDBRANCH   1  12
BRANCH   6  22
ATOM     22  O   UNL     1       1.171  -3.657   4.843  1.00  0.00    -0.507 OA
ATOM     23  H   UNL     1       1.965  -3.407   5.421  1.00  0.00     0.293 HD
ENDBRANCH   6  22
BRANCH   8  24
ATOM     24  O   UNL     1      -3.011  -5.844   5.854  1.00  0.00    -0.508 OA
ATOM     25  H   UNL     1      -2.903  -6.532   6.590  1.00  0.00     0.293 HD
ENDBRANCH   8  24
TORSDOF 5
ENDMDL
MODEL 3
REMARK VINA RESULT:     8.008     14.004     14.461
REMARK INTER + INTRA:           9.122
REMARK INTER:                   9.437
REMARK INTRA:                  -0.315
REMARK UNBOUND:                -0.290
REMARK SMILES O=c1cc(-c2ccc(O)c(O)c2)oc2cc(O)cc(O)c12
REMARK SMILES IDX 4 1 3 2 2 3 1 4 21 5 19 6 18 7 16 8 15 9 14 10 13 11 5 12
REMARK SMILES IDX 6 13 7 14 8 15 12 16 10 17 9 18 11 20 20 22 17 24
REMARK H PARENT 9 19 11 21 20 23 17 25
REMARK Flexibility Score: inf
ROOT
ATOM      1  C   UNL     1      -1.369  -1.697   6.323  1.00  0.00     0.138 A 
ATOM      2  C   UNL     1      -0.189  -1.956   5.606  1.00  0.00     0.100 A 
ATOM      3  C   UNL     1       0.041  -3.236   5.101  1.00  0.00     0.197 A 
ATOM      4  O   UNL     1       1.103  -3.460   4.461  1.00  0.00    -0.289 OA
ATOM      5  C   UNL     1      -0.912  -4.252   5.320  1.00  0.00     0.107 A 
ATOM      6  C   UNL     1      -0.759  -5.575   4.843  1.00  0.00     0.134 A 
ATOM      7  C   UNL     1      -1.753  -6.529   5.108  1.00  0.00     0.093 A 
ATOM      8  C   UNL     1      -2.892  -6.188   5.840  1.00  0.00     0.123 A 
ATOM      9  C   UNL     1      -3.049  -4.880   6.315  1.00  0.00     0.094 A 
ATOM     10  C   UNL     1      -2.071  -3.915   6.060  1.00  0.00     0.146 A 
ATOM     11  O   UNL     1      -2.244  -2.680   6.521  1.00  0.00    -0.456 OA
ENDROOT
BRANCH   1  12
ATOM     12  C   UNL     1      -1.665  -0.354   6.884  1.00  0.00     0.021 A 
ATOM     13  C   UNL     1      -0.675   0.643   6.979  1.00  0.00     0.016 A 
ATOM     14  C   UNL     1      -0.986   1.901   7.501  1.00  0.00     0.051 A 
ATOM     15  C   UNL     1      -2.284   2.190   7.929  1.00  0.00     0.157 A 
ATOM     16  C   UNL     1      -2.973  -0.053   7.304  1.00  0.00     0.062 A 
ATOM     17  C   UNL     1      -3.285   1.210   7.830  1.00  0.00     0.158 A 
BRANCH  15  18
ATOM     18  O   UNL     1      -2.562   3.455   8.449  1.00  0.00    -0.504 OA
ATOM     19  H   UNL     1      -2.156   4.297   8.057  1.00  0.00     0.293 HD
ENDBRANCH  15  18
BRANCH  17  20
ATOM     20  O   UNL     1      -4.583   1.492   8.252  1.00  0.00    -0.504 OA
ATOM     21  H   UNL     1      -5.390   1.072   7.804  1.00  0.00     0.293 HD
ENDBRANCH  17  20
ENDBRANCH   1  12
BRANCH   6  22
ATOM     22  O   UNL     1       0.369  -5.946   4.108  1.00  0.00    -0.507 OA
ATOM     23  H   UNL     1       0.988  -5.256   3.699  1.00  0.00     0.293 HD
ENDBRANCH   6  22
BRANCH   8  24
ATOM     24  O   UNL     1      -3.862  -7.154   6.090  1.00  0.00    -0.508 OA
ATOM     25  H   UNL     1      -4.268  -7.703   5.341  1.00  0.00     0.293 HD
ENDBRANCH   8  24
TORSDOF 5
ENDMDL
MODEL 4
REMARK VINA RESULT:     8.633     13.949     14.971
REMARK INTER + INTRA:           9.857
REMARK INTER:                  10.151
REMARK INTRA:                  -0.294
REMARK UNBOUND:                -0.290
REMARK SMILES O=c1cc(-c2ccc(O)c(O)c2)oc2cc(O)cc(O)c12
REMARK SMILES IDX 4 1 3 2 2 3 1 4 21 5 19 6 18 7 16 8 15 9 14 10 13 11 5 12
REMARK SMILES IDX 6 13 7 14 8 15 12 16 10 17 9 18 11 20 20 22 17 24
REMARK H PARENT 9 19 11 21 20 23 17 25
REMARK Flexibility Score: inf
ROOT
ATOM      1  C   UNL     1      -1.422  -2.848   6.033  1.00  0.00     0.138 A 
ATOM      2  C   UNL     1      -0.148  -2.337   5.733  1.00  0.00     0.100 A 
ATOM      3  C   UNL     1       0.121  -0.987   5.960  1.00  0.00     0.197 A 
ATOM      4  O   UNL     1       1.267  -0.537   5.686  1.00  0.00    -0.289 OA
ATOM      5  C   UNL     1      -0.889  -0.154   6.483  1.00  0.00     0.107 A 
ATOM      6  C   UNL     1      -0.700   1.224   6.743  1.00  0.00     0.134 A 
ATOM      7  C   UNL     1      -1.759   1.985   7.260  1.00  0.00     0.093 A 
ATOM      8  C   UNL     1      -3.000   1.398   7.519  1.00  0.00     0.123 A 
ATOM      9  C   UNL     1      -3.192   0.035   7.263  1.00  0.00     0.094 A 
ATOM     10  C   UNL     1      -2.150  -0.741   6.750  1.00  0.00     0.146 A 
ATOM     11  O   UNL     1      -2.357  -2.033   6.516  1.00  0.00    -0.456 OA
ENDROOT
BRANCH   1  12
ATOM     12  C   UNL     1      -1.765  -4.276   5.811  1.00  0.00     0.021 A 
ATOM     13  C   UNL     1      -2.992  -4.818   6.237  1.00  0.00     0.016 A 
ATOM     14  C   UNL     1      -3.290  -6.163   6.005  1.00  0.00     0.051 A 
ATOM     15  C   UNL     1      -2.379  -6.987   5.340  1.00  0.00     0.157 A 
ATOM     16  C   UNL     1      -0.856  -5.107   5.131  1.00  0.00     0.062 A 
ATOM     17  C   UNL     1      -1.155  -6.458   4.899  1.00  0.00     0.158 A 
BRANCH  15  18
ATOM     18  O   UNL     1      -2.705  -8.326   5.126  1.00  0.00    -0.504 OA
ATOM     19  H   UNL     1      -2.681  -9.011   5.873  1.00  0.00     0.293 HD
ENDBRANCH  15  18
BRANCH  17  20
ATOM     20  O   UNL     1      -0.241  -7.273   4.233  1.00  0.00    -0.504 OA
ATOM     21  H   UNL     1       0.455  -6.887   3.605  1.00  0.00     0.293 HD
ENDBRANCH  17  20
ENDBRANCH   1  12
BRANCH   6  22
ATOM     22  O   UNL     1       0.528   1.838   6.494  1.00  0.00    -0.507 OA
ATOM     23  H   UNL     1       1.305   1.330   6.087  1.00  0.00     0.293 HD
ENDBRANCH   6  22
BRANCH   8  24
ATOM     24  O   UNL     1      -4.034   2.176   8.030  1.00  0.00    -0.508 OA
ATOM     25  H   UNL     1      -4.928   1.770   8.283  1.00  0.00     0.293 HD
ENDBRANCH   8  24
TORSDOF 5
ENDMDL
MODEL 5
REMARK VINA RESULT:     9.113     13.852     14.253
REMARK INTER + INTRA:          10.421
REMARK INTER:                  10.708
REMARK INTRA:                  -0.287
REMARK UNBOUND:                -0.290
REMARK SMILES O=c1cc(-c2ccc(O)c(O)c2)oc2cc(O)cc(O)c12
REMARK SMILES IDX 4 1 3 2 2 3 1 4 21 5 19 6 18 7 16 8 15 9 14 10 13 11 5 12
REMARK SMILES IDX 6 13 7 14 8 15 12 16 10 17 9 18 11 20 20 22 17 24
REMARK H PARENT 9 19 11 21 20 23 17 25
REMARK Flexibility Score: inf
ROOT
ATOM      1  C   UNL     1      -1.313  -3.033   5.831  1.00  0.00     0.138 A 
ATOM      2  C   UNL     1      -2.284  -3.918   6.330  1.00  0.00     0.100 A 
ATOM      3  C   UNL     1      -2.274  -5.251   5.919  1.00  0.00     0.197 A 
ATOM      4  O   UNL     1      -3.149  -6.037   6.370  1.00  0.00    -0.289 OA
ATOM      5  C   UNL     1      -1.292  -5.691   5.008  1.00  0.00     0.107 A 
ATOM      6  C   UNL     1      -1.209  -7.024   4.542  1.00  0.00     0.134 A 
ATOM      7  C   UNL     1      -0.203  -7.380   3.630  1.00  0.00     0.093 A 
ATOM      8  C   UNL     1       0.717  -6.432   3.177  1.00  0.00     0.123 A 
ATOM      9  C   UNL     1       0.639  -5.112   3.635  1.00  0.00     0.094 A 
ATOM     10  C   UNL     1      -0.354  -4.737   4.544  1.00  0.00     0.146 A 
ATOM     11  O   UNL     1      -0.406  -3.478   4.965  1.00  0.00    -0.456 OA
ENDROOT
BRANCH   1  12
ATOM     12  C   UNL     1      -1.277  -1.603   6.233  1.00  0.00     0.021 A 
ATOM     13  C   UNL     1      -0.084  -0.857   6.208  1.00  0.00     0.016 A 
ATOM     14  C   UNL     1      -0.084   0.489   6.581  1.00  0.00     0.051 A 
ATOM     15  C   UNL     1      -1.268   1.116   6.977  1.00  0.00     0.157 A 
ATOM     16  C   UNL     1      -2.469  -0.964   6.620  1.00  0.00     0.062 A 
ATOM     17  C   UNL     1      -2.469   0.387   6.996  1.00  0.00     0.158 A 
BRANCH  15  18
ATOM     18  O   UNL     1      -1.234   2.460   7.347  1.00  0.00    -0.504 OA
ATOM     19  H   UNL     1      -2.044   3.062   7.259  1.00  0.00     0.293 HD
ENDBRANCH  15  18
BRANCH  17  20
ATOM     20  O   UNL     1      -3.655   1.006   7.387  1.00  0.00    -0.504 OA
ATOM     21  H   UNL     1      -4.555   0.697   7.037  1.00  0.00     0.293 HD
ENDBRANCH  17  20
ENDBRANCH   1  12
BRANCH   6  22
ATOM     22  O   UNL     1      -2.114  -7.994   4.977  1.00  0.00    -0.507 OA
ATOM     23  H   UNL     1      -1.943  -8.546   5.809  1.00  0.00     0.293 HD
ENDBRANCH   6  22
BRANCH   8  24
ATOM     24  O   UNL     1       1.704  -6.812   2.272  1.00  0.00    -0.508 OA
ATOM     25  H   UNL     1       1.621  -6.611   1.282  1.00  0.00     0.293 HD
ENDBRANCH   8  24
TORSDOF 5
ENDMDL
MODEL 6
REMARK VINA RESULT:     9.554      1.396      2.089
REMARK INTER + INTRA:          10.939
REMARK INTER:                  11.228
REMARK INTRA:                  -0.289
REMARK UNBOUND:                -0.290
REMARK SMILES O=c1cc(-c2ccc(O)c(O)c2)oc2cc(O)cc(O)c12
REMARK SMILES IDX 4 1 3 2 2 3 1 4 21 5 19 6 18 7 16 8 15 9 14 10 13 11 5 12
REMARK SMILES IDX 6 13 7 14 8 15 12 16 10 17 9 18 11 20 20 22 17 24
REMARK H PARENT 9 19 11 21 20 23 17 25
REMARK Flexibility Score: inf
ROOT
ATOM      1  C   UNL     1      -4.718   1.412  -5.245  1.00  0.00     0.138 A 
ATOM      2  C   UNL     1      -5.034   0.423  -4.297  1.00  0.00     0.100 A 
ATOM      3  C   UNL     1      -6.155  -0.384  -4.494  1.00  0.00     0.197 A 
ATOM      4  O   UNL     1      -6.431  -1.267  -3.638  1.00  0.00    -0.289 OA
ATOM      5  C   UNL     1      -6.956  -0.196  -5.639  1.00  0.00     0.107 A 
ATOM      6  C   UNL     1      -8.107  -0.970  -5.915  1.00  0.00     0.134 A 
ATOM      7  C   UNL     1      -8.854  -0.716  -7.075  1.00  0.00     0.093 A 
ATOM      8  C   UNL     1      -8.474   0.296  -7.961  1.00  0.00     0.123 A 
ATOM      9  C   UNL     1      -7.336   1.065  -7.692  1.00  0.00     0.094 A 
ATOM     10  C   UNL     1      -6.578   0.827  -6.543  1.00  0.00     0.146 A 
ATOM     11  O   UNL     1      -5.501   1.570  -6.310  1.00  0.00    -0.456 OA
ENDROOT
BRANCH   1  12
ATOM     12  C   UNL     1      -3.539   2.300  -5.086  1.00  0.00     0.021 A 
ATOM     13  C   UNL     1      -2.959   2.964  -6.184  1.00  0.00     0.016 A 
ATOM     14  C   UNL     1      -1.856   3.801  -6.002  1.00  0.00     0.051 A 
ATOM     15  C   UNL     1      -1.317   3.998  -4.727  1.00  0.00     0.157 A 
ATOM     16  C   UNL     1      -3.001   2.512  -3.804  1.00  0.00     0.062 A 
ATOM     17  C   UNL     1      -1.893   3.352  -3.621  1.00  0.00     0.158 A 
BRANCH  15  18
ATOM     18  O   UNL     1      -0.214   4.839  -4.579  1.00  0.00    -0.504 OA
ATOM     19  H   UNL     1       0.501   4.918  -5.292  1.00  0.00     0.293 HD
ENDBRANCH  15  18
BRANCH  17  20
ATOM     20  O   UNL     1      -1.363   3.546  -2.346  1.00  0.00    -0.504 OA
ATOM     21  H   UNL     1      -1.012   2.772  -1.794  1.00  0.00     0.293 HD
ENDBRANCH  17  20
ENDBRANCH   1  12
BRANCH   6  22
ATOM     22  O   UNL     1      -8.512  -1.988  -5.050  1.00  0.00    -0.507 OA
ATOM     23  H   UNL     1      -9.284  -1.863  -4.406  1.00  0.00     0.293 HD
ENDBRANCH   6  22
BRANCH   8  24
ATOM     24  O   UNL     1      -9.234   0.528  -9.104  1.00  0.00    -0.508 OA
ATOM     25  H   UNL     1     -10.197   0.221  -9.171  1.00  0.00     0.293 HD
ENDBRANCH   8  24
TORSDOF 5
ENDMDL
