MODEL 1
REMARK VINA RESULT:    -4.446      0.000      0.000
REMARK INTER + INTRA:          -5.196
REMARK INTER:                  -5.356
REMARK INTRA:                   0.160
REMARK UNBOUND:                 0.160
REMARK SMILES O=c1c(O)c(-c2ccc(O)c(O)c2)oc2cc(O)cc(O)c12
REMARK SMILES IDX 5 1 3 2 2 3 1 4 22 5 20 6 19 7 17 8 16 9 15 10 14 11 6 12
REMARK SMILES IDX 7 13 8 14 9 15 13 16 11 17 10 18 12 20 4 22 21 24 18 26
REMARK H PARENT 10 19 12 21 4 23 21 25 18 27
REMARK Flexibility Score: inf
ROOT
ATOM      1  C   UNL     1      12.209  -4.500 -18.728  1.00  0.00     0.180 A 
ATOM      2  C   UNL     1      12.653  -4.303 -20.047  1.00  0.00     0.208 A 
ATOM      3  C   UNL     1      11.703  -4.105 -21.062  1.00  0.00     0.238 A 
ATOM      4  O   UNL     1      12.108  -3.875 -22.232  1.00  0.00    -0.285 OA
ATOM      5  C   UNL     1      10.323  -4.122 -20.749  1.00  0.00     0.111 A 
ATOM      6  C   UNL     1       9.273  -3.973 -21.704  1.00  0.00     0.134 A 
ATOM      7  C   UNL     1       7.947  -3.875 -21.265  1.00  0.00     0.093 A 
ATOM      8  C   UNL     1       7.627  -3.988 -19.912  1.00  0.00     0.123 A 
ATOM      9  C   UNL     1       8.641  -4.194 -18.975  1.00  0.00     0.094 A 
ATOM     10  C   UNL     1       9.976  -4.259 -19.380  1.00  0.00     0.146 A 
ATOM     11  O   UNL     1      10.911  -4.446 -18.456  1.00  0.00    -0.452 OA
ENDROOT
BRANCH   1  12
ATOM     12  C   UNL     1      13.148  -4.741 -17.609  1.00  0.00     0.025 A 
ATOM     13  C   UNL     1      14.320  -3.973 -17.512  1.00  0.00     0.016 A 
ATOM     14  C   UNL     1      15.210  -4.168 -16.454  1.00  0.00     0.051 A 
ATOM     15  C   UNL     1      14.935  -5.123 -15.466  1.00  0.00     0.157 A 
ATOM     16  C   UNL     1      12.866  -5.684 -16.604  1.00  0.00     0.062 A 
ATOM     17  C   UNL     1      13.754  -5.881 -15.541  1.00  0.00     0.158 A 
BRANCH  15  18
ATOM     18  O   UNL     1      15.825  -5.318 -14.411  1.00  0.00    -0.504 OA
ATOM     19  H   UNL     1      15.830  -6.177 -13.874  1.00  0.00     0.293 HD
ENDBRANCH  15  18
BRANCH  17  20
ATOM     20  O   UNL     1      13.444  -6.828 -14.566  1.00  0.00    -0.504 OA
ATOM     21  H   UNL     1      13.987  -7.675 -14.446  1.00  0.00     0.293 HD
ENDBRANCH  17  20
ENDBRANCH   1  12
BRANCH   2  22
ATOM     22  O   UNL     1      14.021  -4.268 -20.330  1.00  0.00    -0.502 OA
ATOM     23  H   UNL     1      14.698  -3.868 -19.692  1.00  0.00     0.293 HD
ENDBRANCH   2  22
BRANCH   6  24
ATOM     24  O   UNL     1       9.475  -3.942 -23.087  1.00  0.00    -0.507 OA
ATOM     25  H   UNL     1       9.085  -4.605 -23.740  1.00  0.00     0.293 HD
ENDBRANCH   6  24
BRANCH   8  26
ATOM     26  O   UNL     1       6.296  -3.901 -19.511  1.00  0.00    -0.508 OA
ATOM     27  H   UNL     1       6.021  -3.359 -18.700  1.00  0.00     0.293 HD
ENDBRANCH   8  26
TORSDOF 6
ENDMDL
MODEL 2
REMARK VINA RESULT:    -4.350      1.655      7.259
REMARK INTER + INTRA:          -5.079
REMARK INTER:                  -5.544
REMARK INTRA:                   0.464
REMARK UNBOUND:                 0.160
REMARK SMILES O=c1c(O)c(-c2ccc(O)c(O)c2)oc2cc(O)cc(O)c12
REMARK SMILES IDX 5 1 3 2 2 3 1 4 22 5 20 6 19 7 17 8 16 9 15 10 14 11 6 12
REMARK SMILES IDX 7 13 8 14 9 15 13 16 11 17 10 18 12 20 4 22 21 24 18 26
REMARK H PARENT 10 19 12 21 4 23 21 25 18 27
REMARK Flexibility Score: inf
ROOT
ATOM      1  C   UNL     1      12.131  -4.259 -18.082  1.00  0.00     0.180 A 
ATOM      2  C   UNL     1      11.912  -4.422 -16.703  1.00  0.00     0.208 A 
ATOM      3  C   UNL     1      13.019  -4.551 -15.848  1.00  0.00     0.238 A 
ATOM      4  O   UNL     1      12.818  -4.644 -14.609  1.00  0.00    -0.285 OA
ATOM      5  C   UNL     1      14.329  -4.531 -16.384  1.00  0.00     0.111 A 
ATOM      6  C   UNL     1      15.522  -4.694 -15.617  1.00  0.00     0.134 A 
ATOM      7  C   UNL     1      16.768  -4.527 -16.233  1.00  0.00     0.093 A 
ATOM      8  C   UNL     1      16.866  -4.268 -17.599  1.00  0.00     0.123 A 
ATOM      9  C   UNL     1      15.708  -4.165 -18.371  1.00  0.00     0.094 A 
ATOM     10  C   UNL     1      14.450  -4.292 -17.778  1.00  0.00     0.146 A 
ATOM     11  O   UNL     1      13.372  -4.178 -18.545  1.00  0.00    -0.452 OA
ENDROOT
BRANCH   1  12
ATOM     12  C   UNL     1      11.015  -4.141 -19.047  1.00  0.00     0.025 A 
ATOM     13  C   UNL     1      11.298  -3.968 -20.412  1.00  0.00     0.016 A 
ATOM     14  C   UNL     1      10.261  -3.875 -21.344  1.00  0.00     0.051 A 
ATOM     15  C   UNL     1       8.926  -3.971 -20.928  1.00  0.00     0.157 A 
ATOM     16  C   UNL     1       9.675  -4.257 -18.637  1.00  0.00     0.062 A 
ATOM     17  C   UNL     1       8.634  -4.167 -19.567  1.00  0.00     0.158 A 
BRANCH  15  18
ATOM     18  O   UNL     1       7.893  -3.877 -21.859  1.00  0.00    -0.504 OA
ATOM     19  H   UNL     1       8.004  -4.211 -22.809  1.00  0.00     0.293 HD
ENDBRANCH  15  18
BRANCH  17  20
ATOM     20  O   UNL     1       7.317  -4.281 -19.124  1.00  0.00    -0.504 OA
ATOM     21  H   UNL     1       7.018  -3.920 -18.226  1.00  0.00     0.293 HD
ENDBRANCH  17  20
ENDBRANCH   1  12
BRANCH   2  22
ATOM     22  O   UNL     1      10.611  -4.417 -16.192  1.00  0.00    -0.502 OA
ATOM     23  H   UNL     1      10.242  -5.181 -15.639  1.00  0.00     0.293 HD
ENDBRANCH   2  22
BRANCH   6  24
ATOM     24  O   UNL     1      15.537  -5.044 -14.264  1.00  0.00    -0.507 OA
ATOM     25  H   UNL     1      14.725  -5.319 -13.731  1.00  0.00     0.293 HD
ENDBRANCH   6  24
BRANCH   8  26
ATOM     26  O   UNL     1      18.124  -4.121 -18.182  1.00  0.00    -0.508 OA
ATOM     27  H   UNL     1      18.229  -3.831 -19.147  1.00  0.00     0.293 HD
ENDBRANCH   8  26
TORSDOF 6
ENDMDL
MODEL 3
REMARK VINA RESULT:    -3.919      1.378      6.656
REMARK INTER + INTRA:          -4.560
REMARK INTER:                  -5.033
REMARK INTRA:                   0.473
REMARK UNBOUND:                 0.160
REMARK SMILES O=c1c(O)c(-c2ccc(O)c(O)c2)oc2cc(O)cc(O)c12
REMARK SMILES IDX 5 1 3 2 2 3 1 4 22 5 20 6 19 7 17 8 16 9 15 10 14 11 6 12
REMARK SMILES IDX 7 13 8 14 9 15 13 16 11 17 10 18 12 20 4 22 21 24 18 26
REMARK H PARENT 10 19 12 21 4 23 21 25 18 27
REMARK Flexibility Score: inf
ROOT
ATOM      1  C   UNL     1      10.050  -4.580 -19.085  1.00  0.00     0.180 A 
ATOM      2  C   UNL     1      11.084  -4.214 -19.963  1.00  0.00     0.208 A 
ATOM      3  C   UNL     1      12.410  -4.232 -19.499  1.00  0.00     0.238 A 
ATOM      4  O   UNL     1      13.337  -3.954 -20.305  1.00  0.00    -0.285 OA
ATOM      5  C   UNL     1      12.683  -4.599 -18.159  1.00  0.00     0.111 A 
ATOM      6  C   UNL     1      13.983  -4.613 -17.571  1.00  0.00     0.134 A 
ATOM      7  C   UNL     1      14.151  -5.119 -16.277  1.00  0.00     0.093 A 
ATOM      8  C   UNL     1      13.058  -5.550 -15.525  1.00  0.00     0.123 A 
ATOM      9  C   UNL     1      11.774  -5.486 -16.069  1.00  0.00     0.094 A 
ATOM     10  C   UNL     1      11.580  -5.020 -17.371  1.00  0.00     0.146 A 
ATOM     11  O   UNL     1      10.344  -4.984 -17.854  1.00  0.00    -0.452 OA
ENDROOT
BRANCH   1  12
ATOM     12  C   UNL     1       8.627  -4.562 -19.493  1.00  0.00     0.025 A 
ATOM     13  C   UNL     1       8.253  -3.888 -20.667  1.00  0.00     0.016 A 
ATOM     14  C   UNL     1       6.920  -3.875 -21.082  1.00  0.00     0.051 A 
ATOM     15  C   UNL     1       5.941  -4.550 -20.340  1.00  0.00     0.157 A 
ATOM     16  C   UNL     1       7.645  -5.255 -18.761  1.00  0.00     0.062 A 
ATOM     17  C   UNL     1       6.309  -5.247 -19.176  1.00  0.00     0.158 A 
BRANCH  15  18
ATOM     18  O   UNL     1       4.611  -4.535 -20.755  1.00  0.00    -0.504 OA
ATOM     19  H   UNL     1       4.211  -5.304 -21.280  1.00  0.00     0.293 HD
ENDBRANCH  15  18
BRANCH  17  20
ATOM     20  O   UNL     1       5.362  -5.940 -18.423  1.00  0.00    -0.504 OA
ATOM     21  H   UNL     1       4.586  -6.428 -18.852  1.00  0.00     0.293 HD
ENDBRANCH  17  20
ENDBRANCH   1  12
BRANCH   2  22
ATOM     22  O   UNL     1      10.795  -3.875 -21.288  1.00  0.00    -0.502 OA
ATOM     23  H   UNL     1      11.516  -3.640 -21.959  1.00  0.00     0.293 HD
ENDBRANCH   2  22
BRANCH   6  24
ATOM     24  O   UNL     1      15.130  -4.120 -18.201  1.00  0.00    -0.507 OA
ATOM     25  H   UNL     1      15.754  -3.434 -17.803  1.00  0.00     0.293 HD
ENDBRANCH   6  24
BRANCH   8  26
ATOM     26  O   UNL     1      13.259  -6.034 -14.234  1.00  0.00    -0.508 OA
ATOM     27  H   UNL     1      12.619  -6.696 -13.811  1.00  0.00     0.293 HD
ENDBRANCH   8  26
TORSDOF 6
ENDMDL
MODEL 4
REMARK VINA RESULT:    -3.780      1.234      2.884
REMARK INTER + INTRA:          -4.393
REMARK INTER:                  -4.510
REMARK INTRA:                   0.116
REMARK UNBOUND:                 0.160
REMARK SMILES O=c1c(O)c(-c2ccc(O)c(O)c2)oc2cc(O)cc(O)c12
REMARK SMILES IDX 5 1 3 2 2 3 1 4 22 5 20 6 19 7 17 8 16 9 15 10 14 11 6 12
REMARK SMILES IDX 7 13 8 14 9 15 13 16 11 17 10 18 12 20 4 22 21 24 18 26
REMARK H PARENT 10 19 12 21 4 23 21 25 18 27
REMARK Flexibility Score: inf
ROOT
ATOM      1  C   UNL     1      11.570  -4.626 -18.521  1.00  0.00     0.180 A 
ATOM      2  C   UNL     1      10.209  -4.686 -18.177  1.00  0.00     0.208 A 
ATOM      3  C   UNL     1       9.243  -4.515 -19.183  1.00  0.00     0.238 A 
ATOM      4  O   UNL     1       8.026  -4.623 -18.878  1.00  0.00    -0.285 OA
ATOM      5  C   UNL     1       9.651  -4.271 -20.516  1.00  0.00     0.111 A 
ATOM      6  C   UNL     1       8.760  -4.043 -21.608  1.00  0.00     0.134 A 
ATOM      7  C   UNL     1       9.270  -3.942 -22.907  1.00  0.00     0.093 A 
ATOM      8  C   UNL     1      10.643  -3.995 -23.147  1.00  0.00     0.123 A 
ATOM      9  C   UNL     1      11.528  -4.158 -22.080  1.00  0.00     0.094 A 
ATOM     10  C   UNL     1      11.045  -4.298 -20.777  1.00  0.00     0.146 A 
ATOM     11  O   UNL     1      11.920  -4.461 -19.791  1.00  0.00    -0.452 OA
ENDROOT
BRANCH   1  12
ATOM     12  C   UNL     1      12.644  -4.771 -17.513  1.00  0.00     0.025 A 
ATOM     13  C   UNL     1      13.728  -3.878 -17.524  1.00  0.00     0.016 A 
ATOM     14  C   UNL     1      14.742  -3.983 -16.570  1.00  0.00     0.051 A 
ATOM     15  C   UNL     1      14.682  -4.973 -15.580  1.00  0.00     0.157 A 
ATOM     16  C   UNL     1      12.577  -5.750 -16.506  1.00  0.00     0.062 A 
ATOM     17  C   UNL     1      13.590  -5.857 -15.547  1.00  0.00     0.158 A 
BRANCH  15  18
ATOM     18  O   UNL     1      15.696  -5.078 -14.629  1.00  0.00    -0.504 OA
ATOM     19  H   UNL     1      16.273  -5.907 -14.560  1.00  0.00     0.293 HD
ENDBRANCH  15  18
BRANCH  17  20
ATOM     20  O   UNL     1      13.493  -6.843 -14.566  1.00  0.00    -0.504 OA
ATOM     21  H   UNL     1      12.834  -7.609 -14.636  1.00  0.00     0.293 HD
ENDBRANCH  17  20
ENDBRANCH   1  12
BRANCH   2  22
ATOM     22  O   UNL     1       9.828  -4.950 -16.858  1.00  0.00    -0.502 OA
ATOM     23  H   UNL     1       9.657  -4.213 -16.184  1.00  0.00     0.293 HD
ENDBRANCH   2  22
BRANCH   6  24
ATOM     24  O   UNL     1       7.378  -3.883 -21.466  1.00  0.00    -0.507 OA
ATOM     25  H   UNL     1       6.857  -4.097 -20.629  1.00  0.00     0.293 HD
ENDBRANCH   6  24
BRANCH   8  26
ATOM     26  O   UNL     1      11.117  -3.876 -24.452  1.00  0.00    -0.508 OA
ATOM     27  H   UNL     1      11.785  -4.535 -24.835  1.00  0.00     0.293 HD
ENDBRANCH   8  26
TORSDOF 6
ENDMDL
MODEL 5
REMARK VINA RESULT:    -3.739      1.792      6.591
REMARK INTER + INTRA:          -4.344
REMARK INTER:                  -4.686
REMARK INTRA:                   0.342
REMARK UNBOUND:                 0.160
REMARK SMILES O=c1c(O)c(-c2ccc(O)c(O)c2)oc2cc(O)cc(O)c12
REMARK SMILES IDX 5 1 3 2 2 3 1 4 22 5 20 6 19 7 17 8 16 9 15 10 14 11 6 12
REMARK SMILES IDX 7 13 8 14 9 15 13 16 11 17 10 18 12 20 4 22 21 24 18 26
REMARK H PARENT 10 19 12 21 4 23 21 25 18 27
REMARK Flexibility Score: inf
ROOT
ATOM      1  C   UNL     1      11.699  -4.874 -17.881  1.00  0.00     0.180 A 
ATOM      2  C   UNL     1      12.553  -4.372 -18.880  1.00  0.00     0.208 A 
ATOM      3  C   UNL     1      13.928  -4.275 -18.614  1.00  0.00     0.238 A 
ATOM      4  O   UNL     1      14.694  -3.875 -19.530  1.00  0.00    -0.285 OA
ATOM      5  C   UNL     1      14.431  -4.664 -17.349  1.00  0.00     0.111 A 
ATOM      6  C   UNL     1      15.800  -4.570 -16.957  1.00  0.00     0.134 A 
ATOM      7  C   UNL     1      16.205  -5.106 -15.729  1.00  0.00     0.093 A 
ATOM      8  C   UNL     1      15.282  -5.673 -14.851  1.00  0.00     0.123 A 
ATOM      9  C   UNL     1      13.931  -5.717 -15.199  1.00  0.00     0.094 A 
ATOM     10  C   UNL     1      13.503  -5.223 -16.433  1.00  0.00     0.146 A 
ATOM     11  O   UNL     1      12.210  -5.292 -16.730  1.00  0.00    -0.452 OA
ENDROOT
BRANCH   1  12
ATOM     12  C   UNL     1      10.237  -4.983 -18.078  1.00  0.00     0.025 A 
ATOM     13  C   UNL     1       9.592  -4.112 -18.972  1.00  0.00     0.016 A 
ATOM     14  C   UNL     1       8.216  -4.210 -19.188  1.00  0.00     0.051 A 
ATOM     15  C   UNL     1       7.464  -5.190 -18.527  1.00  0.00     0.157 A 
ATOM     16  C   UNL     1       9.482  -5.978 -17.432  1.00  0.00     0.062 A 
ATOM     17  C   UNL     1       8.103  -6.082 -17.648  1.00  0.00     0.158 A 
BRANCH  15  18
ATOM     18  O   UNL     1       6.091  -5.286 -18.744  1.00  0.00    -0.504 OA
ATOM     19  H   UNL     1       5.426  -5.178 -17.986  1.00  0.00     0.293 HD
ENDBRANCH  15  18
BRANCH  17  20
ATOM     20  O   UNL     1       7.387  -7.078 -16.987  1.00  0.00    -0.504 OA
ATOM     21  H   UNL     1       7.843  -7.866 -16.544  1.00  0.00     0.293 HD
ENDBRANCH  17  20
ENDBRANCH   1  12
BRANCH   2  22
ATOM     22  O   UNL     1      12.038  -4.013 -20.129  1.00  0.00    -0.502 OA
ATOM     23  H   UNL     1      12.291  -4.500 -20.981  1.00  0.00     0.293 HD
ENDBRANCH   2  22
BRANCH   6  24
ATOM     24  O   UNL     1      16.789  -3.941 -17.719  1.00  0.00    -0.507 OA
ATOM     25  H   UNL     1      17.779  -3.990 -17.530  1.00  0.00     0.293 HD
ENDBRANCH   6  24
BRANCH   8  26
ATOM     26  O   UNL     1      15.718  -6.184 -13.630  1.00  0.00    -0.508 OA
ATOM     27  H   UNL     1      15.143  -6.129 -12.798  1.00  0.00     0.293 HD
ENDBRANCH   8  26
TORSDOF 6
ENDMDL
MODEL 6
REMARK VINA RESULT:    -3.691      1.482      3.235
REMARK INTER + INTRA:          -4.286
REMARK INTER:                  -4.808
REMARK INTRA:                   0.522
REMARK UNBOUND:                 0.160
REMARK SMILES O=c1c(O)c(-c2ccc(O)c(O)c2)oc2cc(O)cc(O)c12
REMARK SMILES IDX 5 1 3 2 2 3 1 4 22 5 20 6 19 7 17 8 16 9 15 10 14 11 6 12
REMARK SMILES IDX 7 13 8 14 9 15 13 16 11 17 10 18 12 20 4 22 21 24 18 26
REMARK H PARENT 10 19 12 21 4 23 21 25 18 27
REMARK Flexibility Score: inf
ROOT
ATOM      1  C   UNL     1      11.953  -4.309 -18.365  1.00  0.00     0.180 A 
ATOM      2  C   UNL     1      10.594  -4.404 -18.019  1.00  0.00     0.208 A 
ATOM      3  C   UNL     1       9.626  -4.321 -19.035  1.00  0.00     0.238 A 
ATOM      4  O   UNL     1       8.413  -4.459 -18.726  1.00  0.00    -0.285 OA
ATOM      5  C   UNL     1      10.029  -4.129 -20.378  1.00  0.00     0.111 A 
ATOM      6  C   UNL     1       9.134  -3.990 -21.481  1.00  0.00     0.134 A 
ATOM      7  C   UNL     1       9.644  -3.936 -22.783  1.00  0.00     0.093 A 
ATOM      8  C   UNL     1      11.019  -3.948 -23.018  1.00  0.00     0.123 A 
ATOM      9  C   UNL     1      11.906  -4.024 -21.943  1.00  0.00     0.094 A 
ATOM     10  C   UNL     1      11.424  -4.116 -20.635  1.00  0.00     0.146 A 
ATOM     11  O   UNL     1      12.301  -4.196 -19.641  1.00  0.00    -0.452 OA
ENDROOT
BRANCH   1  12
ATOM     12  C   UNL     1      13.029  -4.362 -17.349  1.00  0.00     0.025 A 
ATOM     13  C   UNL     1      12.721  -4.753 -16.036  1.00  0.00     0.016 A 
ATOM     14  C   UNL     1      13.723  -4.830 -15.066  1.00  0.00     0.051 A 
ATOM     15  C   UNL     1      15.052  -4.534 -15.398  1.00  0.00     0.157 A 
ATOM     16  C   UNL     1      14.367  -4.085 -17.682  1.00  0.00     0.062 A 
ATOM     17  C   UNL     1      15.374  -4.164 -16.715  1.00  0.00     0.158 A 
BRANCH  15  18
ATOM     18  O   UNL     1      16.051  -4.610 -14.428  1.00  0.00    -0.504 OA
ATOM     19  H   UNL     1      16.757  -3.889 -14.337  1.00  0.00     0.293 HD
ENDBRANCH  15  18
BRANCH  17  20
ATOM     20  O   UNL     1      16.688  -3.877 -17.080  1.00  0.00    -0.504 OA
ATOM     21  H   UNL     1      17.482  -4.254 -16.577  1.00  0.00     0.293 HD
ENDBRANCH  17  20
ENDBRANCH   1  12
BRANCH   2  22
ATOM     22  O   UNL     1      10.219  -4.614 -16.689  1.00  0.00    -0.502 OA
ATOM     23  H   UNL     1      10.045  -5.539 -16.314  1.00  0.00     0.293 HD
ENDBRANCH   2  22
BRANCH   6  24
ATOM     24  O   UNL     1       7.746  -3.875 -21.350  1.00  0.00    -0.507 OA
ATOM     25  H   UNL     1       7.195  -3.115 -21.719  1.00  0.00     0.293 HD
ENDBRANCH   6  24
BRANCH   8  26
ATOM     26  O   UNL     1      11.493  -3.877 -24.326  1.00  0.00    -0.508 OA
ATOM     27  H   UNL     1      10.861  -3.827 -25.117  1.00  0.00     0.293 HD
ENDBRANCH   8  26
TORSDOF 6
ENDMDL
MODEL 7
REMARK VINA RESULT:    -3.402      1.930      2.763
REMARK INTER + INTRA:          -3.938
REMARK INTER:                  -4.197
REMARK INTRA:                   0.259
REMARK UNBOUND:                 0.160
REMARK SMILES O=c1c(O)c(-c2ccc(O)c(O)c2)oc2cc(O)cc(O)c12
REMARK SMILES IDX 5 1 3 2 2 3 1 4 22 5 20 6 19 7 17 8 16 9 15 10 14 11 6 12
REMARK SMILES IDX 7 13 8 14 9 15 13 16 11 17 10 18 12 20 4 22 21 24 18 26
REMARK H PARENT 10 19 12 21 4 23 21 25 18 27
REMARK Flexibility Score: inf
ROOT
ATOM      1  C   UNL     1       9.638  -4.752 -18.823  1.00  0.00     0.180 A 
ATOM      2  C   UNL     1       9.744  -4.335 -20.161  1.00  0.00     0.208 A 
ATOM      3  C   UNL     1       8.586  -4.300 -20.956  1.00  0.00     0.238 A 
ATOM      4  O   UNL     1       8.678  -3.875 -22.138  1.00  0.00    -0.285 OA
ATOM      5  C   UNL     1       7.342  -4.695 -20.409  1.00  0.00     0.111 A 
ATOM      6  C   UNL     1       6.114  -4.737 -21.133  1.00  0.00     0.134 A 
ATOM      7  C   UNL     1       4.921  -5.019 -20.457  1.00  0.00     0.093 A 
ATOM      8  C   UNL     1       4.921  -5.325 -19.096  1.00  0.00     0.123 A 
ATOM      9  C   UNL     1       6.125  -5.345 -18.390  1.00  0.00     0.094 A 
ATOM     10  C   UNL     1       7.325  -5.033 -19.030  1.00  0.00     0.146 A 
ATOM     11  O   UNL     1       8.447  -5.053 -18.320  1.00  0.00    -0.452 OA
ENDROOT
BRANCH   1  12
ATOM     12  C   UNL     1      10.816  -4.840 -17.931  1.00  0.00     0.025 A 
ATOM     13  C   UNL     1      11.842  -3.887 -18.044  1.00  0.00     0.016 A 
ATOM     14  C   UNL     1      12.953  -3.939 -17.199  1.00  0.00     0.051 A 
ATOM     15  C   UNL     1      13.049  -4.933 -16.216  1.00  0.00     0.157 A 
ATOM     16  C   UNL     1      10.907  -5.825 -16.930  1.00  0.00     0.062 A 
ATOM     17  C   UNL     1      12.017  -5.878 -16.080  1.00  0.00     0.158 A 
BRANCH  15  18
ATOM     18  O   UNL     1      14.159  -4.984 -15.375  1.00  0.00    -0.504 OA
ATOM     19  H   UNL     1      15.099  -5.067 -15.743  1.00  0.00     0.293 HD
ENDBRANCH  15  18
BRANCH  17  20
ATOM     20  O   UNL     1      12.075  -6.871 -15.103  1.00  0.00    -0.504 OA
ATOM     21  H   UNL     1      12.396  -7.809 -15.307  1.00  0.00     0.293 HD
ENDBRANCH  17  20
ENDBRANCH   1  12
BRANCH   2  22
ATOM     22  O   UNL     1      10.978  -3.928 -20.676  1.00  0.00    -0.502 OA
ATOM     23  H   UNL     1      11.837  -3.993 -20.143  1.00  0.00     0.293 HD
ENDBRANCH   2  22
BRANCH   6  24
ATOM     24  O   UNL     1       6.015  -4.538 -22.514  1.00  0.00    -0.507 OA
ATOM     25  H   UNL     1       5.148  -4.504 -23.029  1.00  0.00     0.293 HD
ENDBRANCH   6  24
BRANCH   8  26
ATOM     26  O   UNL     1       3.717  -5.615 -18.457  1.00  0.00    -0.508 OA
ATOM     27  H   UNL     1       2.836  -5.244 -18.793  1.00  0.00     0.293 HD
ENDBRANCH   8  26
TORSDOF 6
ENDMDL
MODEL 8
REMARK VINA RESULT:    -3.377      2.356      6.795
REMARK INTER + INTRA:          -3.908
REMARK INTER:                  -3.919
REMARK INTRA:                   0.012
REMARK UNBOUND:                 0.160
REMARK SMILES O=c1c(O)c(-c2ccc(O)c(O)c2)oc2cc(O)cc(O)c12
REMARK SMILES IDX 5 1 3 2 2 3 1 4 22 5 20 6 19 7 17 8 16 9 15 10 14 11 6 12
REMARK SMILES IDX 7 13 8 14 9 15 13 16 11 17 10 18 12 20 4 22 21 24 18 26
REMARK H PARENT 10 19 12 21 4 23 21 25 18 27
REMARK Flexibility Score: inf
ROOT
ATOM      1  C   UNL     1      13.456  -4.777 -19.488  1.00  0.00     0.180 A 
ATOM      2  C   UNL     1      14.780  -4.358 -19.267  1.00  0.00     0.208 A 
ATOM      3  C   UNL     1      15.322  -4.469 -17.975  1.00  0.00     0.238 A 
ATOM      4  O   UNL     1      16.524  -4.142 -17.795  1.00  0.00    -0.285 OA
ATOM      5  C   UNL     1      14.530  -4.982 -16.920  1.00  0.00     0.111 A 
ATOM      6  C   UNL     1      14.963  -5.101 -15.565  1.00  0.00     0.134 A 
ATOM      7  C   UNL     1      14.141  -5.743 -14.631  1.00  0.00     0.093 A 
ATOM      8  C   UNL     1      12.876  -6.211 -14.986  1.00  0.00     0.123 A 
ATOM      9  C   UNL     1      12.419  -6.046 -16.295  1.00  0.00     0.094 A 
ATOM     10  C   UNL     1      13.230  -5.442 -17.257  1.00  0.00     0.146 A 
ATOM     11  O   UNL     1      12.762  -5.314 -18.493  1.00  0.00    -0.452 OA
ENDROOT
BRANCH   1  12
ATOM     12  C   UNL     1      12.808  -4.668 -20.814  1.00  0.00     0.025 A 
ATOM     13  C   UNL     1      11.574  -4.007 -20.928  1.00  0.00     0.016 A 
ATOM     14  C   UNL     1      10.954  -3.875 -22.173  1.00  0.00     0.051 A 
ATOM     15  C   UNL     1      11.565  -4.386 -23.326  1.00  0.00     0.157 A 
ATOM     16  C   UNL     1      13.427  -5.162 -21.977  1.00  0.00     0.062 A 
ATOM     17  C   UNL     1      12.811  -5.029 -23.225  1.00  0.00     0.158 A 
BRANCH  15  18
ATOM     18  O   UNL     1      10.944  -4.254 -24.567  1.00  0.00    -0.504 OA
ATOM     19  H   UNL     1      11.466  -4.333 -25.431  1.00  0.00     0.293 HD
ENDBRANCH  15  18
BRANCH  17  20
ATOM     20  O   UNL     1      13.452  -5.535 -24.355  1.00  0.00    -0.504 OA
ATOM     21  H   UNL     1      13.000  -6.188 -24.984  1.00  0.00     0.293 HD
ENDBRANCH  17  20
ENDBRANCH   1  12
BRANCH   2  22
ATOM     22  O   UNL     1      15.551  -3.875 -20.327  1.00  0.00    -0.502 OA
ATOM     23  H   UNL     1      15.513  -2.910 -20.631  1.00  0.00     0.293 HD
ENDBRANCH   2  22
BRANCH   6  24
ATOM     24  O   UNL     1      16.170  -4.585 -15.084  1.00  0.00    -0.507 OA
ATOM     25  H   UNL     1      16.481  -3.634 -15.214  1.00  0.00     0.293 HD
ENDBRANCH   6  24
BRANCH   8  26
ATOM     26  O   UNL     1      12.079  -6.831 -14.027  1.00  0.00    -0.508 OA
ATOM     27  H   UNL     1      11.619  -7.715 -14.213  1.00  0.00     0.293 HD
ENDBRANCH   8  26
TORSDOF 6
ENDMDL
