MODEL 1
REMARK VINA RESULT:    -4.849      0.000      0.000
REMARK INTER + INTRA:         -11.302
REMARK INTER:                  -9.384
REMARK INTRA:                  -1.917
REMARK UNBOUND:                -1.917
REMARK SMILES CCCCCCCCCCCCCCCCCC(=O)[O-]
REMARK SMILES IDX 10 1 11 2 12 3 13 4 14 5 15 6 16 7 17 8 18 9 19 10 20 11
REMARK SMILES IDX 9 12 8 13 7 14 6 15 5 16 4 17 3 18 2 19 1 20
REMARK H PARENT
REMARK Flexibility Score: inf
ROOT
ATOM      1  C   UNL     1     -13.535 -27.353 -34.748  1.00  0.00     0.000 C 
ENDROOT
BRANCH   1   2
ATOM      2  C   UNL     1     -13.716 -27.474 -33.223  1.00  0.00     0.000 C 
BRANCH   2   3
ATOM      3  C   UNL     1     -12.866 -28.567 -32.545  1.00  0.00     0.000 C 
BRANCH   3   4
ATOM      4  C   UNL     1     -12.888 -28.551 -31.006  1.00  0.00     0.000 C 
BRANCH   4   5
ATOM      5  C   UNL     1     -12.160 -27.336 -30.411  1.00  0.00     0.000 C 
BRANCH   5   6
ATOM      6  C   UNL     1     -10.651 -27.412 -30.685  1.00  0.00     0.000 C 
BRANCH   6   7
ATOM      7  C   UNL     1     -10.093 -26.123 -31.315  1.00  0.00     0.006 C 
BRANCH   7   8
ATOM      8  C   UNL     1     -11.152 -25.244 -32.002  1.00  0.00     0.053 C 
BRANCH   8   9
ATOM      9  C   UNL     1     -11.292 -23.910 -31.336  1.00  0.00     0.041 C 
ATOM     10  O   UNL     1     -10.557 -22.949 -31.682  1.00  0.00    -0.550 OA
ATOM     11  O   UNL     1     -12.256 -23.720 -30.354  1.00  0.00    -0.550 OA
ENDBRANCH   8   9
ENDBRANCH   7   8
ENDBRANCH   6   7
ENDBRANCH   5   6
ENDBRANCH   4   5
ENDBRANCH   3   4
ENDBRANCH   2   3
ENDBRANCH   1   2
BRANCH   1  12
ATOM     12  C   UNL     1     -12.062 -27.197 -35.163  1.00  0.00     0.000 C 
BRANCH  12  13
ATOM     13  C   UNL     1     -11.714 -25.758 -35.575  1.00  0.00    -0.000 C 
BRANCH  13  14
ATOM     14  C   UNL     1     -12.951 -24.937 -35.968  1.00  0.00    -0.000 C 
BRANCH  14  15
ATOM     15  C   UNL     1     -12.650 -23.432 -35.916  1.00  0.00    -0.000 C 
BRANCH  15  16
ATOM     16  C   UNL     1     -12.777 -22.845 -34.498  1.00  0.00    -0.000 C 
BRANCH  16  17
ATOM     17  C   UNL     1     -12.732 -21.305 -34.422  1.00  0.00    -0.000 C 
BRANCH  17  18
ATOM     18  C   UNL     1     -13.876 -20.581 -35.154  1.00  0.00    -0.000 C 
BRANCH  18  19
ATOM     19  C   UNL     1     -13.398 -19.350 -35.938  1.00  0.00    -0.003 C 
ATOM     20  C   UNL     1     -11.933 -19.493 -36.343  1.00  0.00     0.004 C 
ENDBRANCH  18  19
ENDBRANCH  17  18
ENDBRANCH  16  17
ENDBRANCH  15  16
ENDBRANCH  14  15
ENDBRANCH  13  14
ENDBRANCH  12  13
ENDBRANCH   1  12
TORSDOF 16
ENDMDL
MODEL 2
REMARK VINA RESULT:    -4.786      2.051      5.458
REMARK INTER + INTRA:         -11.181
REMARK INTER:                  -9.003
REMARK INTRA:                  -2.178
REMARK UNBOUND:                -1.917
REMARK SMILES CCCCCCCCCCCCCCCCCC(=O)[O-]
REMARK SMILES IDX 10 1 11 2 12 3 13 4 14 5 15 6 16 7 17 8 18 9 19 10 20 11
REMARK SMILES IDX 9 12 8 13 7 14 6 15 5 16 4 17 3 18 2 19 1 20
REMARK H PARENT
REMARK Flexibility Score: inf
ROOT
ATOM      1  C   UNL     1     -13.210 -27.882 -32.686  1.00  0.00     0.000 C 
ENDROOT
BRANCH   1   2
ATOM      2  C   UNL     1     -12.086 -28.238 -33.677  1.00  0.00     0.000 C 
BRANCH   2   3
ATOM      3  C   UNL     1     -12.218 -27.601 -35.076  1.00  0.00     0.000 C 
BRANCH   3   4
ATOM      4  C   UNL     1     -11.979 -26.083 -35.128  1.00  0.00     0.000 C 
BRANCH   4   5
ATOM      5  C   UNL     1     -13.060 -25.334 -35.921  1.00  0.00     0.000 C 
BRANCH   5   6
ATOM      6  C   UNL     1     -12.659 -23.869 -36.148  1.00  0.00     0.000 C 
BRANCH   6   7
ATOM      7  C   UNL     1     -12.903 -22.985 -34.911  1.00  0.00     0.006 C 
BRANCH   7   8
ATOM      8  C   UNL     1     -12.413 -21.536 -35.061  1.00  0.00     0.053 C 
BRANCH   8   9
ATOM      9  C   UNL     1     -13.548 -20.574 -35.230  1.00  0.00     0.041 C 
ATOM     10  O   UNL     1     -14.583 -20.685 -34.523  1.00  0.00    -0.550 OA
ATOM     11  O   UNL     1     -13.450 -19.535 -36.147  1.00  0.00    -0.550 OA
ENDBRANCH   8   9
ENDBRANCH   7   8
ENDBRANCH   6   7
ENDBRANCH   5   6
ENDBRANCH   4   5
ENDBRANCH   3   4
ENDBRANCH   2   3
ENDBRANCH   1   2
BRANCH   1  12
ATOM     12  C   UNL     1     -13.131 -28.692 -31.381  1.00  0.00     0.000 C 
BRANCH  12  13
ATOM     13  C   UNL     1     -12.742 -27.827 -30.171  1.00  0.00    -0.000 C 
BRANCH  13  14
ATOM     14  C   UNL     1     -11.230 -27.833 -29.899  1.00  0.00    -0.000 C 
BRANCH  14  15
ATOM     15  C   UNL     1     -10.656 -26.410 -29.961  1.00  0.00    -0.000 C 
BRANCH  15  16
ATOM     16  C   UNL     1     -10.061 -26.063 -31.337  1.00  0.00    -0.000 C 
BRANCH  16  17
ATOM     17  C   UNL     1     -10.754 -24.899 -32.075  1.00  0.00    -0.000 C 
BRANCH  17  18
ATOM     18  C   UNL     1     -12.075 -24.422 -31.447  1.00  0.00    -0.000 C 
BRANCH  18  19
ATOM     19  C   UNL     1     -11.905 -23.161 -30.587  1.00  0.00    -0.003 C 
ATOM     20  C   UNL     1     -11.706 -21.924 -31.459  1.00  0.00     0.004 C 
ENDBRANCH  18  19
ENDBRANCH  17  18
ENDBRANCH  16  17
ENDBRANCH  15  16
ENDBRANCH  14  15
ENDBRANCH  13  14
ENDBRANCH  12  13
ENDBRANCH   1  12
TORSDOF 16
ENDMDL
MODEL 3
REMARK VINA RESULT:    -4.763      2.147      5.497
REMARK INTER + INTRA:         -11.136
REMARK INTER:                  -8.892
REMARK INTRA:                  -2.244
REMARK UNBOUND:                -1.917
REMARK SMILES CCCCCCCCCCCCCCCCCC(=O)[O-]
REMARK SMILES IDX 10 1 11 2 12 3 13 4 14 5 15 6 16 7 17 8 18 9 19 10 20 11
REMARK SMILES IDX 9 12 8 13 7 14 6 15 5 16 4 17 3 18 2 19 1 20
REMARK H PARENT
REMARK Flexibility Score: inf
ROOT
ATOM      1  C   UNL     1     -10.376 -27.225 -30.972  1.00  0.00     0.000 C 
ENDROOT
BRANCH   1   2
ATOM      2  C   UNL     1     -10.331 -25.833 -30.316  1.00  0.00     0.000 C 
BRANCH   2   3
ATOM      3  C   UNL     1     -10.459 -24.643 -31.289  1.00  0.00     0.000 C 
BRANCH   3   4
ATOM      4  C   UNL     1     -11.275 -24.925 -32.563  1.00  0.00     0.000 C 
BRANCH   4   5
ATOM      5  C   UNL     1     -12.248 -23.789 -32.913  1.00  0.00     0.000 C 
BRANCH   5   6
ATOM      6  C   UNL     1     -11.715 -22.438 -32.416  1.00  0.00     0.000 C 
BRANCH   6   7
ATOM      7  C   UNL     1     -11.910 -21.306 -33.441  1.00  0.00     0.006 C 
BRANCH   7   8
ATOM      8  C   UNL     1     -12.784 -21.687 -34.648  1.00  0.00     0.053 C 
BRANCH   8   9
ATOM      9  C   UNL     1     -13.521 -20.508 -35.202  1.00  0.00     0.041 C 
ATOM     10  O   UNL     1     -14.632 -20.170 -34.717  1.00  0.00    -0.550 OA
ATOM     11  O   UNL     1     -12.965 -19.762 -36.234  1.00  0.00    -0.550 OA
ENDBRANCH   8   9
ENDBRANCH   7   8
ENDBRANCH   6   7
ENDBRANCH   5   6
ENDBRANCH   4   5
ENDBRANCH   3   4
ENDBRANCH   2   3
ENDBRANCH   1   2
BRANCH   1  12
ATOM     12  C   UNL     1     -11.175 -28.248 -30.146  1.00  0.00     0.000 C 
BRANCH  12  13
ATOM     13  C   UNL     1     -12.418 -28.765 -30.889  1.00  0.00    -0.000 C 
BRANCH  13  14
ATOM     14  C   UNL     1     -13.343 -27.632 -31.359  1.00  0.00    -0.000 C 
BRANCH  14  15
ATOM     15  C   UNL     1     -13.649 -27.760 -32.858  1.00  0.00    -0.000 C 
BRANCH  15  16
ATOM     16  C   UNL     1     -12.458 -28.306 -33.668  1.00  0.00    -0.000 C 
BRANCH  16  17
ATOM     17  C   UNL     1     -12.225 -27.622 -35.030  1.00  0.00    -0.000 C 
BRANCH  17  18
ATOM     18  C   UNL     1     -13.474 -26.984 -35.663  1.00  0.00    -0.000 C 
BRANCH  18  19
ATOM     19  C   UNL     1     -13.247 -25.527 -36.092  1.00  0.00    -0.003 C 
ATOM     20  C   UNL     1     -11.758 -25.193 -36.133  1.00  0.00     0.004 C 
ENDBRANCH  18  19
ENDBRANCH  17  18
ENDBRANCH  16  17
ENDBRANCH  15  16
ENDBRANCH  14  15
ENDBRANCH  13  14
ENDBRANCH  12  13
ENDBRANCH   1  12
TORSDOF 16
ENDMDL
MODEL 4
REMARK VINA RESULT:    -4.703      1.951      6.285
REMARK INTER + INTRA:         -11.018
REMARK INTER:                  -9.039
REMARK INTRA:                  -1.980
REMARK UNBOUND:                -1.917
REMARK SMILES CCCCCCCCCCCCCCCCCC(=O)[O-]
REMARK SMILES IDX 10 1 11 2 12 3 13 4 14 5 15 6 16 7 17 8 18 9 19 10 20 11
REMARK SMILES IDX 9 12 8 13 7 14 6 15 5 16 4 17 3 18 2 19 1 20
REMARK H PARENT
REMARK Flexibility Score: inf
ROOT
ATOM      1  C   UNL     1     -11.586 -26.969 -35.113  1.00  0.00     0.000 C 
ENDROOT
BRANCH   1   2
ATOM      2  C   UNL     1     -11.404 -25.485 -35.480  1.00  0.00     0.000 C 
BRANCH   2   3
ATOM      3  C   UNL     1     -12.694 -24.640 -35.461  1.00  0.00     0.000 C 
BRANCH   3   4
ATOM      4  C   UNL     1     -12.510 -23.159 -35.835  1.00  0.00     0.000 C 
BRANCH   4   5
ATOM      5  C   UNL     1     -12.798 -22.206 -34.665  1.00  0.00     0.000 C 
BRANCH   5   6
ATOM      6  C   UNL     1     -13.650 -21.014 -35.125  1.00  0.00     0.000 C 
BRANCH   6   7
ATOM      7  C   UNL     1     -12.881 -19.681 -35.084  1.00  0.00     0.006 C 
BRANCH   7   8
ATOM      8  C   UNL     1     -12.031 -19.401 -36.334  1.00  0.00     0.053 C 
BRANCH   8   9
ATOM      9  C   UNL     1     -10.574 -19.286 -36.008  1.00  0.00     0.041 C 
ATOM     10  O   UNL     1     -10.165 -19.524 -34.841  1.00  0.00    -0.550 OA
ATOM     11  O   UNL     1      -9.663 -18.947 -37.000  1.00  0.00    -0.550 OA
ENDBRANCH   8   9
ENDBRANCH   7   8
ENDBRANCH   6   7
ENDBRANCH   5   6
ENDBRANCH   4   5
ENDBRANCH   3   4
ENDBRANCH   2   3
ENDBRANCH   1   2
BRANCH   1  12
ATOM     12  C   UNL     1     -12.994 -27.495 -35.438  1.00  0.00     0.000 C 
BRANCH  12  13
ATOM     13  C   UNL     1     -13.676 -28.147 -34.225  1.00  0.00    -0.000 C 
BRANCH  13  14
ATOM     14  C   UNL     1     -13.340 -27.438 -32.904  1.00  0.00    -0.000 C 
BRANCH  14  15
ATOM     15  C   UNL     1     -13.007 -28.458 -31.804  1.00  0.00    -0.000 C 
BRANCH  15  16
ATOM     16  C   UNL     1     -12.122 -27.870 -30.691  1.00  0.00    -0.000 C 
BRANCH  16  17
ATOM     17  C   UNL     1     -10.706 -27.448 -31.135  1.00  0.00    -0.000 C 
BRANCH  17  18
ATOM     18  C   UNL     1     -10.334 -25.986 -30.832  1.00  0.00    -0.000 C 
BRANCH  18  19
ATOM     19  C   UNL     1     -10.744 -25.022 -31.955  1.00  0.00    -0.003 C 
ATOM     20  C   UNL     1     -12.024 -24.273 -31.596  1.00  0.00     0.004 C 
ENDBRANCH  18  19
ENDBRANCH  17  18
ENDBRANCH  16  17
ENDBRANCH  15  16
ENDBRANCH  14  15
ENDBRANCH  13  14
ENDBRANCH  12  13
ENDBRANCH   1  12
TORSDOF 16
ENDMDL
MODEL 5
REMARK VINA RESULT:    -4.672      1.765      3.004
REMARK INTER + INTRA:         -10.960
REMARK INTER:                  -9.659
REMARK INTRA:                  -1.301
REMARK UNBOUND:                -1.917
REMARK SMILES CCCCCCCCCCCCCCCCCC(=O)[O-]
REMARK SMILES IDX 10 1 11 2 12 3 13 4 14 5 15 6 16 7 17 8 18 9 19 10 20 11
REMARK SMILES IDX 9 12 8 13 7 14 6 15 5 16 4 17 3 18 2 19 1 20
REMARK H PARENT
REMARK Flexibility Score: inf
ROOT
ATOM      1  C   UNL     1     -13.424 -25.841 -36.055  1.00  0.00     0.000 C 
ENDROOT
BRANCH   1   2
ATOM      2  C   UNL     1     -13.360 -27.272 -35.492  1.00  0.00     0.000 C 
BRANCH   2   3
ATOM      3  C   UNL     1     -11.972 -27.718 -34.986  1.00  0.00     0.000 C 
BRANCH   3   4
ATOM      4  C   UNL     1     -11.985 -28.547 -33.691  1.00  0.00     0.000 C 
BRANCH   4   5
ATOM      5  C   UNL     1     -13.230 -28.291 -32.828  1.00  0.00     0.000 C 
BRANCH   5   6
ATOM      6  C   UNL     1     -12.933 -28.554 -31.345  1.00  0.00     0.000 C 
BRANCH   6   7
ATOM      7  C   UNL     1     -12.591 -27.270 -30.568  1.00  0.00     0.006 C 
BRANCH   7   8
ATOM      8  C   UNL     1     -13.137 -25.981 -31.203  1.00  0.00     0.053 C 
BRANCH   8   9
ATOM      9  C   UNL     1     -12.038 -25.062 -31.641  1.00  0.00     0.041 C 
ATOM     10  O   UNL     1     -12.160 -23.817 -31.501  1.00  0.00    -0.550 OA
ATOM     11  O   UNL     1     -10.866 -25.583 -32.174  1.00  0.00    -0.550 OA
ENDBRANCH   8   9
ENDBRANCH   7   8
ENDBRANCH   6   7
ENDBRANCH   5   6
ENDBRANCH   4   5
ENDBRANCH   3   4
ENDBRANCH   2   3
ENDBRANCH   1   2
BRANCH   1  12
ATOM     12  C   UNL     1     -12.555 -24.848 -35.264  1.00  0.00     0.000 C 
BRANCH  12  13
ATOM     13  C   UNL     1     -12.739 -23.397 -35.735  1.00  0.00    -0.000 C 
BRANCH  13  14
ATOM     14  C   UNL     1     -12.816 -22.399 -34.569  1.00  0.00    -0.000 C 
BRANCH  14  15
ATOM     15  C   UNL     1     -12.786 -20.953 -35.082  1.00  0.00    -0.000 C 
BRANCH  15  16
ATOM     16  C   UNL     1     -11.623 -20.686 -36.055  1.00  0.00    -0.000 C 
BRANCH  16  17
ATOM     17  C   UNL     1     -10.924 -19.321 -35.880  1.00  0.00    -0.000 C 
BRANCH  17  18
ATOM     18  C   UNL     1      -9.387 -19.375 -35.839  1.00  0.00    -0.000 C 
BRANCH  18  19
ATOM     19  C   UNL     1      -8.757 -19.465 -37.237  1.00  0.00    -0.003 C 
ATOM     20  C   UNL     1      -7.235 -19.546 -37.149  1.00  0.00     0.004 C 
ENDBRANCH  18  19
ENDBRANCH  17  18
ENDBRANCH  16  17
ENDBRANCH  15  16
ENDBRANCH  14  15
ENDBRANCH  13  14
ENDBRANCH  12  13
ENDBRANCH   1  12
TORSDOF 16
ENDMDL
MODEL 6
REMARK VINA RESULT:    -4.562      1.929      3.786
REMARK INTER + INTRA:         -10.747
REMARK INTER:                  -9.062
REMARK INTRA:                  -1.685
REMARK UNBOUND:                -1.917
REMARK SMILES CCCCCCCCCCCCCCCCCC(=O)[O-]
REMARK SMILES IDX 10 1 11 2 12 3 13 4 14 5 15 6 16 7 17 8 18 9 19 10 20 11
REMARK SMILES IDX 9 12 8 13 7 14 6 15 5 16 4 17 3 18 2 19 1 20
REMARK H PARENT
REMARK Flexibility Score: inf
ROOT
ATOM      1  C   UNL     1     -10.501 -25.925 -30.753  1.00  0.00     0.000 C 
ENDROOT
BRANCH   1   2
ATOM      2  C   UNL     1     -11.788 -26.556 -30.192  1.00  0.00     0.000 C 
BRANCH   2   3
ATOM      3  C   UNL     1     -11.839 -28.097 -30.238  1.00  0.00     0.000 C 
BRANCH   3   4
ATOM      4  C   UNL     1     -12.917 -28.688 -31.164  1.00  0.00     0.000 C 
BRANCH   4   5
ATOM      5  C   UNL     1     -12.710 -28.311 -32.639  1.00  0.00     0.000 C 
BRANCH   5   6
ATOM      6  C   UNL     1     -13.747 -27.271 -33.089  1.00  0.00     0.000 C 
BRANCH   6   7
ATOM      7  C   UNL     1     -14.357 -27.594 -34.465  1.00  0.00     0.006 C 
BRANCH   7   8
ATOM      8  C   UNL     1     -13.351 -27.562 -35.628  1.00  0.00     0.053 C 
BRANCH   8   9
ATOM      9  C   UNL     1     -12.726 -26.211 -35.792  1.00  0.00     0.041 C 
ATOM     10  O   UNL     1     -13.408 -25.246 -36.225  1.00  0.00    -0.550 OA
ATOM     11  O   UNL     1     -11.399 -26.009 -35.434  1.00  0.00    -0.550 OA
ENDBRANCH   8   9
ENDBRANCH   7   8
ENDBRANCH   6   7
ENDBRANCH   5   6
ENDBRANCH   4   5
ENDBRANCH   3   4
ENDBRANCH   2   3
ENDBRANCH   1   2
BRANCH   1  12
ATOM     12  C   UNL     1     -10.705 -25.286 -32.137  1.00  0.00     0.000 C 
BRANCH  12  13
ATOM     13  C   UNL     1     -11.831 -24.240 -32.145  1.00  0.00    -0.000 C 
BRANCH  13  14
ATOM     14  C   UNL     1     -11.336 -22.832 -31.783  1.00  0.00    -0.000 C 
BRANCH  14  15
ATOM     15  C   UNL     1     -11.857 -21.793 -32.786  1.00  0.00    -0.000 C 
BRANCH  15  16
ATOM     16  C   UNL     1     -12.413 -22.429 -34.073  1.00  0.00    -0.000 C 
BRANCH  16  17
ATOM     17  C   UNL     1     -13.385 -21.540 -34.875  1.00  0.00    -0.000 C 
BRANCH  17  18
ATOM     18  C   UNL     1     -13.021 -20.045 -34.916  1.00  0.00    -0.000 C 
BRANCH  18  19
ATOM     19  C   UNL     1     -12.419 -19.616 -36.262  1.00  0.00    -0.003 C 
ATOM     20  C   UNL     1     -10.931 -19.303 -36.123  1.00  0.00     0.004 C 
ENDBRANCH  18  19
ENDBRANCH  17  18
ENDBRANCH  16  17
ENDBRANCH  15  16
ENDBRANCH  14  15
ENDBRANCH  13  14
ENDBRANCH  12  13
ENDBRANCH   1  12
TORSDOF 16
ENDMDL
MODEL 7
REMARK VINA RESULT:    -4.507      2.249      4.241
REMARK INTER + INTRA:         -10.641
REMARK INTER:                  -8.449
REMARK INTRA:                  -2.192
REMARK UNBOUND:                -1.917
REMARK SMILES CCCCCCCCCCCCCCCCCC(=O)[O-]
REMARK SMILES IDX 10 1 11 2 12 3 13 4 14 5 15 6 16 7 17 8 18 9 19 10 20 11
REMARK SMILES IDX 9 12 8 13 7 14 6 15 5 16 4 17 3 18 2 19 1 20
REMARK H PARENT
REMARK Flexibility Score: inf
ROOT
ATOM      1  C   UNL     1     -11.889 -24.601 -32.158  1.00  0.00     0.000 C 
ENDROOT
BRANCH   1   2
ATOM      2  C   UNL     1     -10.669 -25.495 -31.870  1.00  0.00     0.000 C 
BRANCH   2   3
ATOM      3  C   UNL     1     -10.522 -25.956 -30.406  1.00  0.00     0.000 C 
BRANCH   3   4
ATOM      4  C   UNL     1     -11.573 -26.975 -29.934  1.00  0.00     0.000 C 
BRANCH   4   5
ATOM      5  C   UNL     1     -11.554 -28.276 -30.751  1.00  0.00     0.000 C 
BRANCH   5   6
ATOM      6  C   UNL     1     -12.956 -28.613 -31.278  1.00  0.00     0.000 C 
BRANCH   6   7
ATOM      7  C   UNL     1     -13.195 -28.099 -32.710  1.00  0.00     0.006 C 
BRANCH   7   8
ATOM      8  C   UNL     1     -12.069 -28.438 -33.701  1.00  0.00     0.053 C 
BRANCH   8   9
ATOM      9  C   UNL     1     -12.016 -27.471 -34.842  1.00  0.00     0.041 C 
ATOM     10  O   UNL     1     -13.065 -27.174 -35.471  1.00  0.00    -0.550 OA
ATOM     11  O   UNL     1     -10.812 -26.872 -35.192  1.00  0.00    -0.550 OA
ENDBRANCH   8   9
ENDBRANCH   7   8
ENDBRANCH   6   7
ENDBRANCH   5   6
ENDBRANCH   4   5
ENDBRANCH   3   4
ENDBRANCH   2   3
ENDBRANCH   1   2
BRANCH   1  12
ATOM     12  C   UNL     1     -11.991 -23.403 -31.198  1.00  0.00     0.000 C 
BRANCH  12  13
ATOM     13  C   UNL     1     -11.010 -22.275 -31.555  1.00  0.00    -0.000 C 
BRANCH  13  14
ATOM     14  C   UNL     1     -11.507 -20.892 -31.107  1.00  0.00    -0.000 C 
BRANCH  14  15
ATOM     15  C   UNL     1     -11.901 -20.033 -32.317  1.00  0.00    -0.000 C 
BRANCH  15  16
ATOM     16  C   UNL     1     -11.205 -20.475 -33.617  1.00  0.00    -0.000 C 
BRANCH  16  17
ATOM     17  C   UNL     1     -11.882 -19.994 -34.917  1.00  0.00    -0.000 C 
BRANCH  17  18
ATOM     18  C   UNL     1     -12.540 -21.102 -35.760  1.00  0.00    -0.000 C 
BRANCH  18  19
ATOM     19  C   UNL     1     -12.946 -22.324 -34.924  1.00  0.00    -0.003 C 
ATOM     20  C   UNL     1     -12.638 -23.623 -35.664  1.00  0.00     0.004 C 
ENDBRANCH  18  19
ENDBRANCH  17  18
ENDBRANCH  16  17
ENDBRANCH  15  16
ENDBRANCH  14  15
ENDBRANCH  13  14
ENDBRANCH  12  13
ENDBRANCH   1  12
TORSDOF 16
ENDMDL
MODEL 8
REMARK VINA RESULT:    -4.475      2.041      4.465
REMARK INTER + INTRA:         -10.578
REMARK INTER:                  -8.598
REMARK INTRA:                  -1.980
REMARK UNBOUND:                -1.917
REMARK SMILES CCCCCCCCCCCCCCCCCC(=O)[O-]
REMARK SMILES IDX 10 1 11 2 12 3 13 4 14 5 15 6 16 7 17 8 18 9 19 10 20 11
REMARK SMILES IDX 9 12 8 13 7 14 6 15 5 16 4 17 3 18 2 19 1 20
REMARK H PARENT
REMARK Flexibility Score: inf
ROOT
ATOM      1  C   UNL     1     -12.366 -24.659 -32.584  1.00  0.00     0.000 C 
ENDROOT
BRANCH   1   2
ATOM      2  C   UNL     1     -11.796 -24.768 -34.010  1.00  0.00     0.000 C 
BRANCH   2   3
ATOM      3  C   UNL     1     -12.707 -24.217 -35.126  1.00  0.00     0.000 C 
BRANCH   3   4
ATOM      4  C   UNL     1     -13.132 -25.245 -36.189  1.00  0.00     0.000 C 
BRANCH   4   5
ATOM      5  C   UNL     1     -12.862 -26.695 -35.760  1.00  0.00     0.000 C 
BRANCH   5   6
ATOM      6  C   UNL     1     -14.132 -27.345 -35.193  1.00  0.00     0.000 C 
BRANCH   6   7
ATOM      7  C   UNL     1     -13.972 -27.790 -33.728  1.00  0.00     0.006 C 
BRANCH   7   8
ATOM      8  C   UNL     1     -12.574 -28.327 -33.379  1.00  0.00     0.053 C 
BRANCH   8   9
ATOM      9  C   UNL     1     -12.340 -28.364 -31.900  1.00  0.00     0.041 C 
ATOM     10  O   UNL     1     -11.286 -27.878 -31.413  1.00  0.00    -0.550 OA
ATOM     11  O   UNL     1     -13.302 -28.905 -31.056  1.00  0.00    -0.550 OA
ENDBRANCH   8   9
ENDBRANCH   7   8
ENDBRANCH   6   7
ENDBRANCH   5   6
ENDBRANCH   4   5
ENDBRANCH   3   4
ENDBRANCH   2   3
ENDBRANCH   1   2
BRANCH   1  12
ATOM     12  C   UNL     1     -11.292 -24.319 -31.536  1.00  0.00     0.000 C 
BRANCH  12  13
ATOM     13  C   UNL     1     -11.483 -22.921 -30.927  1.00  0.00    -0.000 C 
BRANCH  13  14
ATOM     14  C   UNL     1     -10.614 -21.852 -31.607  1.00  0.00    -0.000 C 
BRANCH  14  15
ATOM     15  C   UNL     1     -11.371 -21.189 -32.767  1.00  0.00    -0.000 C 
BRANCH  15  16
ATOM     16  C   UNL     1     -10.674 -19.918 -33.287  1.00  0.00    -0.000 C 
BRANCH  16  17
ATOM     17  C   UNL     1     -10.781 -19.690 -34.809  1.00  0.00    -0.000 C 
BRANCH  17  18
ATOM     18  C   UNL     1     -11.719 -20.658 -35.551  1.00  0.00    -0.000 C 
BRANCH  18  19
ATOM     19  C   UNL     1     -13.086 -20.035 -35.871  1.00  0.00    -0.003 C 
ATOM     20  C   UNL     1     -14.139 -20.471 -34.856  1.00  0.00     0.004 C 
ENDBRANCH  18  19
ENDBRANCH  17  18
ENDBRANCH  16  17
ENDBRANCH  15  16
ENDBRANCH  14  15
ENDBRANCH  13  14
ENDBRANCH  12  13
ENDBRANCH   1  12
TORSDOF 16
ENDMDL
MODEL 9
REMARK VINA RESULT:    -4.470      1.918      5.806
REMARK INTER + INTRA:         -10.568
REMARK INTER:                  -8.719
REMARK INTRA:                  -1.849
REMARK UNBOUND:                -1.917
REMARK SMILES CCCCCCCCCCCCCCCCCC(=O)[O-]
REMARK SMILES IDX 10 1 11 2 12 3 13 4 14 5 15 6 16 7 17 8 18 9 19 10 20 11
REMARK SMILES IDX 9 12 8 13 7 14 6 15 5 16 4 17 3 18 2 19 1 20
REMARK H PARENT
REMARK Flexibility Score: inf
ROOT
ATOM      1  C   UNL     1     -11.903 -27.357 -35.029  1.00  0.00     0.000 C 
ENDROOT
BRANCH   1   2
ATOM      2  C   UNL     1     -11.501 -25.903 -35.337  1.00  0.00     0.000 C 
BRANCH   2   3
ATOM      3  C   UNL     1     -12.664 -24.891 -35.366  1.00  0.00     0.000 C 
BRANCH   3   4
ATOM      4  C   UNL     1     -12.352 -23.556 -36.064  1.00  0.00     0.000 C 
BRANCH   4   5
ATOM      5  C   UNL     1     -12.802 -22.335 -35.249  1.00  0.00     0.000 C 
BRANCH   5   6
ATOM      6  C   UNL     1     -12.245 -21.037 -35.852  1.00  0.00     0.000 C 
BRANCH   6   7
ATOM      7  C   UNL     1     -13.187 -19.835 -35.655  1.00  0.00     0.006 C 
BRANCH   7   8
ATOM      8  C   UNL     1     -14.260 -20.042 -34.574  1.00  0.00     0.053 C 
BRANCH   8   9
ATOM      9  C   UNL     1     -13.906 -19.351 -33.293  1.00  0.00     0.041 C 
ATOM     10  O   UNL     1     -12.699 -19.173 -32.981  1.00  0.00    -0.550 OA
ATOM     11  O   UNL     1     -14.909 -18.875 -32.458  1.00  0.00    -0.550 OA
ENDBRANCH   8   9
ENDBRANCH   7   8
ENDBRANCH   6   7
ENDBRANCH   5   6
ENDBRANCH   4   5
ENDBRANCH   3   4
ENDBRANCH   2   3
ENDBRANCH   1   2
BRANCH   1  12
ATOM     12  C   UNL     1     -13.419 -27.527 -34.828  1.00  0.00     0.000 C 
BRANCH  12  13
ATOM     13  C   UNL     1     -13.788 -27.866 -33.375  1.00  0.00    -0.000 C 
BRANCH  13  14
ATOM     14  C   UNL     1     -12.571 -28.286 -32.536  1.00  0.00    -0.000 C 
BRANCH  14  15
ATOM     15  C   UNL     1     -12.964 -28.489 -31.066  1.00  0.00    -0.000 C 
BRANCH  15  16
ATOM     16  C   UNL     1     -13.310 -27.170 -30.350  1.00  0.00    -0.000 C 
BRANCH  16  17
ATOM     17  C   UNL     1     -12.255 -26.054 -30.490  1.00  0.00    -0.000 C 
BRANCH  17  18
ATOM     18  C   UNL     1     -12.556 -25.002 -31.572  1.00  0.00    -0.000 C 
BRANCH  18  19
ATOM     19  C   UNL     1     -11.297 -24.270 -32.059  1.00  0.00    -0.003 C 
ATOM     20  C   UNL     1     -11.460 -22.757 -31.941  1.00  0.00     0.004 C 
ENDBRANCH  18  19
ENDBRANCH  17  18
ENDBRANCH  16  17
ENDBRANCH  15  16
ENDBRANCH  14  15
ENDBRANCH  13  14
ENDBRANCH  12  13
ENDBRANCH   1  12
TORSDOF 16
ENDMDL
