MODEL 1
REMARK VINA RESULT:    -3.330      0.000      0.000
REMARK INTER + INTRA:          -8.134
REMARK INTER:                  -6.055
REMARK INTRA:                  -2.079
REMARK UNBOUND:                -2.079
REMARK SMILES CCCCCCCCCCCCCCCC(=O)[O-]
REMARK SMILES IDX 9 1 10 2 11 3 12 4 13 5 14 6 15 7 16 8 17 9 18 10 8 11 7 12
REMARK SMILES IDX 6 13 5 14 4 15 3 16 2 17 1 18
REMARK H PARENT
REMARK Flexibility Score: inf
ROOT
ATOM      1  C   UNL     1      62.289  33.920  60.409  1.00  0.00     0.000 C 
ENDROOT
BRANCH   1   2
ATOM      2  C   UNL     1      61.580  33.221  59.234  1.00  0.00     0.000 C 
BRANCH   2   3
ATOM      3  C   UNL     1      60.813  31.963  59.669  1.00  0.00     0.000 C 
BRANCH   3   4
ATOM      4  C   UNL     1      61.006  31.634  61.157  1.00  0.00     0.000 C 
BRANCH   4   5
ATOM      5  C   UNL     1      61.185  30.124  61.366  1.00  0.00     0.000 C 
BRANCH   5   6
ATOM      6  C   UNL     1      62.624  29.649  61.090  1.00  0.00     0.006 C 
BRANCH   6   7
ATOM      7  C   UNL     1      63.704  30.712  61.348  1.00  0.00     0.053 C 
BRANCH   7   8
ATOM      8  C   UNL     1      64.758  30.713  60.283  1.00  0.00     0.041 C 
ATOM      9  O   UNL     1      65.500  29.709  60.127  1.00  0.00    -0.550 OA
ATOM     10  O   UNL     1      64.897  31.811  59.443  1.00  0.00    -0.550 OA
ENDBRANCH   7   8
ENDBRANCH   6   7
ENDBRANCH   5   6
ENDBRANCH   4   5
ENDBRANCH   3   4
ENDBRANCH   2   3
ENDBRANCH   1   2
BRANCH   1  11
ATOM     11  C   UNL     1      61.870  35.399  60.545  1.00  0.00     0.000 C 
BRANCH  11  12
ATOM     12  C   UNL     1      62.978  36.299  61.119  1.00  0.00    -0.000 C 
BRANCH  12  13
ATOM     13  C   UNL     1      64.211  35.507  61.580  1.00  0.00    -0.000 C 
BRANCH  13  14
ATOM     14  C   UNL     1      65.504  35.979  60.897  1.00  0.00    -0.000 C 
BRANCH  14  15
ATOM     15  C   UNL     1      65.252  36.560  59.494  1.00  0.00    -0.000 C 
BRANCH  15  16
ATOM     16  C   UNL     1      65.681  35.601  58.373  1.00  0.00    -0.000 C 
BRANCH  16  17
ATOM     17  C   UNL     1      64.484  34.994  57.626  1.00  0.00    -0.003 C 
ATOM     18  C   UNL     1      63.458  36.066  57.269  1.00  0.00     0.004 C 
ENDBRANCH  16  17
ENDBRANCH  15  16
ENDBRANCH  14  15
ENDBRANCH  13  14
ENDBRANCH  12  13
ENDBRANCH  11  12
ENDBRANCH   1  11
TORSDOF 14
ENDMDL
MODEL 2
REMARK VINA RESULT:    -3.275     12.090     13.746
REMARK INTER + INTRA:          -8.034
REMARK INTER:                  -6.210
REMARK INTRA:                  -1.824
REMARK UNBOUND:                -2.079
REMARK SMILES CCCCCCCCCCCCCCCC(=O)[O-]
REMARK SMILES IDX 9 1 10 2 11 3 12 4 13 5 14 6 15 7 16 8 17 9 18 10 8 11 7 12
REMARK SMILES IDX 6 13 5 14 4 15 3 16 2 17 1 18
REMARK H PARENT
REMARK Flexibility Score: inf
ROOT
ATOM      1  C   UNL     1      57.095  27.700  51.828  1.00  0.00     0.000 C 
ENDROOT
BRANCH   1   2
ATOM      2  C   UNL     1      56.460  26.352  51.442  1.00  0.00     0.000 C 
BRANCH   2   3
ATOM      3  C   UNL     1      55.989  26.315  49.980  1.00  0.00     0.000 C 
BRANCH   3   4
ATOM      4  C   UNL     1      54.576  25.733  49.827  1.00  0.00     0.000 C 
BRANCH   4   5
ATOM      5  C   UNL     1      53.603  26.790  49.286  1.00  0.00     0.000 C 
BRANCH   5   6
ATOM      6  C   UNL     1      52.997  27.668  50.396  1.00  0.00     0.006 C 
BRANCH   6   7
ATOM      7  C   UNL     1      53.267  29.173  50.235  1.00  0.00     0.053 C 
BRANCH   7   8
ATOM      8  C   UNL     1      53.637  29.821  51.534  1.00  0.00     0.041 C 
ATOM      9  O   UNL     1      53.881  29.114  52.546  1.00  0.00    -0.550 OA
ATOM     10  O   UNL     1      53.744  31.204  51.616  1.00  0.00    -0.550 OA
ENDBRANCH   7   8
ENDBRANCH   6   7
ENDBRANCH   5   6
ENDBRANCH   4   5
ENDBRANCH   3   4
ENDBRANCH   2   3
ENDBRANCH   1   2
BRANCH   1  11
ATOM     11  C   UNL     1      57.009  28.733  50.684  1.00  0.00     0.000 C 
BRANCH  11  12
ATOM     12  C   UNL     1      58.351  29.419  50.377  1.00  0.00    -0.000 C 
BRANCH  12  13
ATOM     13  C   UNL     1      59.069  28.810  49.162  1.00  0.00    -0.000 C 
BRANCH  13  14
ATOM     14  C   UNL     1      60.202  27.854  49.566  1.00  0.00    -0.000 C 
BRANCH  14  15
ATOM     15  C   UNL     1      59.748  26.384  49.604  1.00  0.00    -0.000 C 
BRANCH  15  16
ATOM     16  C   UNL     1      60.522  25.554  50.640  1.00  0.00    -0.000 C 
BRANCH  16  17
ATOM     17  C   UNL     1      62.034  25.532  50.369  1.00  0.00    -0.003 C 
ATOM     18  C   UNL     1      62.743  24.542  51.289  1.00  0.00     0.004 C 
ENDBRANCH  16  17
ENDBRANCH  15  16
ENDBRANCH  14  15
ENDBRANCH  13  14
ENDBRANCH  12  13
ENDBRANCH  11  12
ENDBRANCH   1  11
TORSDOF 14
ENDMDL
MODEL 3
REMARK VINA RESULT:    -3.270      1.966      2.749
REMARK INTER + INTRA:          -8.025
REMARK INTER:                  -6.032
REMARK INTRA:                  -1.993
REMARK UNBOUND:                -2.079
REMARK SMILES CCCCCCCCCCCCCCCC(=O)[O-]
REMARK SMILES IDX 9 1 10 2 11 3 12 4 13 5 14 6 15 7 16 8 17 9 18 10 8 11 7 12
REMARK SMILES IDX 6 13 5 14 4 15 3 16 2 17 1 18
REMARK H PARENT
REMARK Flexibility Score: inf
ROOT
ATOM      1  C   UNL     1      63.308  32.295  59.182  1.00  0.00     0.000 C 
ENDROOT
BRANCH   1   2
ATOM      2  C   UNL     1      61.811  31.994  59.374  1.00  0.00     0.000 C 
BRANCH   2   3
ATOM      3  C   UNL     1      61.332  32.263  60.809  1.00  0.00     0.000 C 
BRANCH   3   4
ATOM      4  C   UNL     1      61.016  30.972  61.581  1.00  0.00     0.000 C 
BRANCH   4   5
ATOM      5  C   UNL     1      61.173  29.741  60.677  1.00  0.00     0.000 C 
BRANCH   5   6
ATOM      6  C   UNL     1      62.327  28.820  61.117  1.00  0.00     0.006 C 
BRANCH   6   7
ATOM      7  C   UNL     1      63.456  28.679  60.083  1.00  0.00     0.053 C 
BRANCH   7   8
ATOM      8  C   UNL     1      64.502  27.701  60.522  1.00  0.00     0.041 C 
ATOM      9  O   UNL     1      64.235  26.472  60.581  1.00  0.00    -0.550 OA
ATOM     10  O   UNL     1      65.781  28.144  60.834  1.00  0.00    -0.550 OA
ENDBRANCH   7   8
ENDBRANCH   6   7
ENDBRANCH   5   6
ENDBRANCH   4   5
ENDBRANCH   3   4
ENDBRANCH   2   3
ENDBRANCH   1   2
BRANCH   1  11
ATOM     11  C   UNL     1      63.946  32.909  60.446  1.00  0.00     0.000 C 
BRANCH  11  12
ATOM     12  C   UNL     1      64.389  34.371  60.260  1.00  0.00    -0.000 C 
BRANCH  12  13
ATOM     13  C   UNL     1      64.335  35.182  61.564  1.00  0.00    -0.000 C 
BRANCH  13  14
ATOM     14  C   UNL     1      63.564  36.502  61.406  1.00  0.00    -0.000 C 
BRANCH  14  15
ATOM     15  C   UNL     1      62.601  36.483  60.206  1.00  0.00    -0.000 C 
BRANCH  15  16
ATOM     16  C   UNL     1      61.198  35.985  60.583  1.00  0.00    -0.000 C 
BRANCH  16  17
ATOM     17  C   UNL     1      60.286  35.806  59.360  1.00  0.00    -0.003 C 
ATOM     18  C   UNL     1      61.088  35.375  58.135  1.00  0.00     0.004 C 
ENDBRANCH  16  17
ENDBRANCH  15  16
ENDBRANCH  14  15
ENDBRANCH  13  14
ENDBRANCH  12  13
ENDBRANCH  11  12
ENDBRANCH   1  11
TORSDOF 14
ENDMDL
MODEL 4
REMARK VINA RESULT:    -3.221      1.896      3.548
REMARK INTER + INTRA:          -7.936
REMARK INTER:                  -5.774
REMARK INTRA:                  -2.162
REMARK UNBOUND:                -2.079
REMARK SMILES CCCCCCCCCCCCCCCC(=O)[O-]
REMARK SMILES IDX 9 1 10 2 11 3 12 4 13 5 14 6 15 7 16 8 17 9 18 10 8 11 7 12
REMARK SMILES IDX 6 13 5 14 4 15 3 16 2 17 1 18
REMARK H PARENT
REMARK Flexibility Score: inf
ROOT
ATOM      1  C   UNL     1      64.786  31.006  59.494  1.00  0.00     0.000 C 
ENDROOT
BRANCH   1   2
ATOM      2  C   UNL     1      64.375  30.439  60.865  1.00  0.00     0.000 C 
BRANCH   2   3
ATOM      3  C   UNL     1      63.718  29.054  60.761  1.00  0.00     0.000 C 
BRANCH   3   4
ATOM      4  C   UNL     1      62.230  29.074  61.143  1.00  0.00     0.000 C 
BRANCH   4   5
ATOM      5  C   UNL     1      61.853  30.403  61.814  1.00  0.00     0.000 C 
BRANCH   5   6
ATOM      6  C   UNL     1      60.739  31.156  61.064  1.00  0.00     0.006 C 
BRANCH   6   7
ATOM      7  C   UNL     1      60.363  30.544  59.704  1.00  0.00     0.053 C 
BRANCH   7   8
ATOM      8  C   UNL     1      60.667  31.471  58.568  1.00  0.00     0.041 C 
ATOM      9  O   UNL     1      60.190  32.636  58.556  1.00  0.00    -0.550 OA
ATOM     10  O   UNL     1      61.505  31.059  57.539  1.00  0.00    -0.550 OA
ENDBRANCH   7   8
ENDBRANCH   6   7
ENDBRANCH   5   6
ENDBRANCH   4   5
ENDBRANCH   3   4
ENDBRANCH   2   3
ENDBRANCH   1   2
BRANCH   1  11
ATOM     11  C   UNL     1      64.214  32.419  59.254  1.00  0.00     0.000 C 
BRANCH  11  12
ATOM     12  C   UNL     1      63.890  33.178  60.552  1.00  0.00    -0.000 C 
BRANCH  12  13
ATOM     13  C   UNL     1      62.702  34.142  60.401  1.00  0.00    -0.000 C 
BRANCH  13  14
ATOM     14  C   UNL     1      62.956  35.501  61.071  1.00  0.00    -0.000 C 
BRANCH  14  15
ATOM     15  C   UNL     1      64.381  35.621  61.641  1.00  0.00    -0.000 C 
BRANCH  15  16
ATOM     16  C   UNL     1      65.136  36.840  61.089  1.00  0.00    -0.000 C 
BRANCH  16  17
ATOM     17  C   UNL     1      65.006  36.975  59.565  1.00  0.00    -0.003 C 
ATOM     18  C   UNL     1      65.893  35.963  58.846  1.00  0.00     0.004 C 
ENDBRANCH  16  17
ENDBRANCH  15  16
ENDBRANCH  14  15
ENDBRANCH  13  14
ENDBRANCH  12  13
ENDBRANCH  11  12
ENDBRANCH   1  11
TORSDOF 14
ENDMDL
MODEL 5
REMARK VINA RESULT:    -3.212      1.721      3.014
REMARK INTER + INTRA:          -7.919
REMARK INTER:                  -5.900
REMARK INTRA:                  -2.019
REMARK UNBOUND:                -2.079
REMARK SMILES CCCCCCCCCCCCCCCC(=O)[O-]
REMARK SMILES IDX 9 1 10 2 11 3 12 4 13 5 14 6 15 7 16 8 17 9 18 10 8 11 7 12
REMARK SMILES IDX 6 13 5 14 4 15 3 16 2 17 1 18
REMARK H PARENT
REMARK Flexibility Score: inf
ROOT
ATOM      1  C   UNL     1      61.052  32.158  57.635  1.00  0.00     0.000 C 
ENDROOT
BRANCH   1   2
ATOM      2  C   UNL     1      59.906  31.762  58.584  1.00  0.00     0.000 C 
BRANCH   2   3
ATOM      3  C   UNL     1      60.331  30.712  59.621  1.00  0.00     0.000 C 
BRANCH   3   4
ATOM      4  C   UNL     1      60.799  31.338  60.943  1.00  0.00     0.000 C 
BRANCH   4   5
ATOM      5  C   UNL     1      61.775  30.407  61.676  1.00  0.00     0.000 C 
BRANCH   5   6
ATOM      6  C   UNL     1      63.101  30.214  60.916  1.00  0.00     0.006 C 
BRANCH   6   7
ATOM      7  C   UNL     1      63.620  28.767  60.904  1.00  0.00     0.053 C 
BRANCH   7   8
ATOM      8  C   UNL     1      65.086  28.699  60.604  1.00  0.00     0.041 C 
ATOM      9  O   UNL     1      65.743  29.755  60.412  1.00  0.00    -0.550 OA
ATOM     10  O   UNL     1      65.733  27.469  60.569  1.00  0.00    -0.550 OA
ENDBRANCH   7   8
ENDBRANCH   6   7
ENDBRANCH   5   6
ENDBRANCH   4   5
ENDBRANCH   3   4
ENDBRANCH   2   3
ENDBRANCH   1   2
BRANCH   1  11
ATOM     11  C   UNL     1      61.222  33.689  57.533  1.00  0.00     0.000 C 
BRANCH  11  12
ATOM     12  C   UNL     1      60.101  34.477  58.232  1.00  0.00    -0.000 C 
BRANCH  12  13
ATOM     13  C   UNL     1      60.635  35.573  59.168  1.00  0.00    -0.000 C 
BRANCH  13  14
ATOM     14  C   UNL     1      61.372  34.999  60.388  1.00  0.00    -0.000 C 
BRANCH  14  15
ATOM     15  C   UNL     1      62.510  35.913  60.875  1.00  0.00    -0.000 C 
BRANCH  15  16
ATOM     16  C   UNL     1      63.850  35.172  61.001  1.00  0.00    -0.000 C 
BRANCH  16  17
ATOM     17  C   UNL     1      63.734  33.680  60.656  1.00  0.00    -0.003 C 
ATOM     18  C   UNL     1      64.437  33.365  59.338  1.00  0.00     0.004 C 
ENDBRANCH  16  17
ENDBRANCH  15  16
ENDBRANCH  14  15
ENDBRANCH  13  14
ENDBRANCH  12  13
ENDBRANCH  11  12
ENDBRANCH   1  11
TORSDOF 14
ENDMDL
MODEL 6
REMARK VINA RESULT:    -3.150     11.447     13.394
REMARK INTER + INTRA:          -7.807
REMARK INTER:                  -5.732
REMARK INTRA:                  -2.075
REMARK UNBOUND:                -2.079
REMARK SMILES CCCCCCCCCCCCCCCC(=O)[O-]
REMARK SMILES IDX 9 1 10 2 11 3 12 4 13 5 14 6 15 7 16 8 17 9 18 10 8 11 7 12
REMARK SMILES IDX 6 13 5 14 4 15 3 16 2 17 1 18
REMARK H PARENT
REMARK Flexibility Score: inf
ROOT
ATOM      1  C   UNL     1      56.982  27.091  51.713  1.00  0.00     0.000 C 
ENDROOT
BRANCH   1   2
ATOM      2  C   UNL     1      57.427  28.562  51.625  1.00  0.00     0.000 C 
BRANCH   2   3
ATOM      3  C   UNL     1      57.513  29.070  50.178  1.00  0.00     0.000 C 
BRANCH   3   4
ATOM      4  C   UNL     1      58.958  29.317  49.720  1.00  0.00     0.000 C 
BRANCH   4   5
ATOM      5  C   UNL     1      59.601  28.020  49.209  1.00  0.00     0.000 C 
BRANCH   5   6
ATOM      6  C   UNL     1      60.883  27.646  49.976  1.00  0.00     0.006 C 
BRANCH   6   7
ATOM      7  C   UNL     1      60.753  26.392  50.856  1.00  0.00     0.053 C 
BRANCH   7   8
ATOM      8  C   UNL     1      61.673  25.296  50.413  1.00  0.00     0.041 C 
ATOM      9  O   UNL     1      62.919  25.471  50.425  1.00  0.00    -0.550 OA
ATOM     10  O   UNL     1      61.154  24.069  50.018  1.00  0.00    -0.550 OA
ENDBRANCH   7   8
ENDBRANCH   6   7
ENDBRANCH   5   6
ENDBRANCH   4   5
ENDBRANCH   3   4
ENDBRANCH   2   3
ENDBRANCH   1   2
BRANCH   1  11
ATOM     11  C   UNL     1      56.479  26.553  50.357  1.00  0.00     0.000 C 
BRANCH  11  12
ATOM     12  C   UNL     1      54.987  26.175  50.363  1.00  0.00    -0.000 C 
BRANCH  12  13
ATOM     13  C   UNL     1      54.110  27.197  49.623  1.00  0.00    -0.000 C 
BRANCH  13  14
ATOM     14  C   UNL     1      53.308  28.091  50.582  1.00  0.00    -0.000 C 
BRANCH  14  15
ATOM     15  C   UNL     1      53.555  29.590  50.336  1.00  0.00    -0.000 C 
BRANCH  15  16
ATOM     16  C   UNL     1      54.050  30.320  51.594  1.00  0.00    -0.000 C 
BRANCH  16  17
ATOM     17  C   UNL     1      54.120  29.400  52.822  1.00  0.00    -0.003 C 
ATOM     18  C   UNL     1      54.375  30.201  54.095  1.00  0.00     0.004 C 
ENDBRANCH  16  17
ENDBRANCH  15  16
ENDBRANCH  14  15
ENDBRANCH  13  14
ENDBRANCH  12  13
ENDBRANCH  11  12
ENDBRANCH   1  11
TORSDOF 14
ENDMDL
MODEL 7
REMARK VINA RESULT:    -3.141     10.986     13.488
REMARK INTER + INTRA:          -7.790
REMARK INTER:                  -5.722
REMARK INTRA:                  -2.069
REMARK UNBOUND:                -2.079
REMARK SMILES CCCCCCCCCCCCCCCC(=O)[O-]
REMARK SMILES IDX 9 1 10 2 11 3 12 4 13 5 14 6 15 7 16 8 17 9 18 10 8 11 7 12
REMARK SMILES IDX 6 13 5 14 4 15 3 16 2 17 1 18
REMARK H PARENT
REMARK Flexibility Score: inf
ROOT
ATOM      1  C   UNL     1      60.690  26.956  50.625  1.00  0.00     0.000 C 
ENDROOT
BRANCH   1   2
ATOM      2  C   UNL     1      60.476  28.425  50.219  1.00  0.00     0.000 C 
BRANCH   2   3
ATOM      3  C   UNL     1      59.287  28.609  49.262  1.00  0.00     0.000 C 
BRANCH   3   4
ATOM      4  C   UNL     1      58.195  29.521  49.842  1.00  0.00     0.000 C 
BRANCH   4   5
ATOM      5  C   UNL     1      58.311  29.612  51.370  1.00  0.00     0.000 C 
BRANCH   5   6
ATOM      6  C   UNL     1      56.943  29.569  52.076  1.00  0.00     0.006 C 
BRANCH   6   7
ATOM      7  C   UNL     1      56.685  30.743  53.034  1.00  0.00     0.053 C 
BRANCH   7   8
ATOM      8  C   UNL     1      55.249  31.170  53.029  1.00  0.00     0.041 C 
ATOM      9  O   UNL     1      54.334  30.308  52.959  1.00  0.00    -0.550 OA
ATOM     10  O   UNL     1      54.922  32.516  53.135  1.00  0.00    -0.550 OA
ENDBRANCH   7   8
ENDBRANCH   6   7
ENDBRANCH   5   6
ENDBRANCH   4   5
ENDBRANCH   3   4
ENDBRANCH   2   3
ENDBRANCH   1   2
BRANCH   1  11
ATOM     11  C   UNL     1      59.857  25.985  49.761  1.00  0.00     0.000 C 
BRANCH  11  12
ATOM     12  C   UNL     1      58.890  25.112  50.579  1.00  0.00    -0.000 C 
BRANCH  12  13
ATOM     13  C   UNL     1      58.140  25.905  51.661  1.00  0.00    -0.000 C 
BRANCH  13  14
ATOM     14  C   UNL     1      56.623  25.940  51.421  1.00  0.00    -0.000 C 
BRANCH  14  15
ATOM     15  C   UNL     1      56.256  26.526  50.046  1.00  0.00    -0.000 C 
BRANCH  15  16
ATOM     16  C   UNL     1      54.951  25.941  49.484  1.00  0.00    -0.000 C 
BRANCH  16  17
ATOM     17  C   UNL     1      53.729  26.815  49.801  1.00  0.00    -0.003 C 
ATOM     18  C   UNL     1      54.140  28.260  50.071  1.00  0.00     0.004 C 
ENDBRANCH  16  17
ENDBRANCH  15  16
ENDBRANCH  14  15
ENDBRANCH  13  14
ENDBRANCH  12  13
ENDBRANCH  11  12
ENDBRANCH   1  11
TORSDOF 14
ENDMDL
MODEL 8
REMARK VINA RESULT:    -3.103      1.347      2.782
REMARK INTER + INTRA:          -7.722
REMARK INTER:                  -5.570
REMARK INTRA:                  -2.153
REMARK UNBOUND:                -2.079
REMARK SMILES CCCCCCCCCCCCCCCC(=O)[O-]
REMARK SMILES IDX 9 1 10 2 11 3 12 4 13 5 14 6 15 7 16 8 17 9 18 10 8 11 7 12
REMARK SMILES IDX 6 13 5 14 4 15 3 16 2 17 1 18
REMARK H PARENT
REMARK Flexibility Score: inf
ROOT
ATOM      1  C   UNL     1      62.549  32.978  58.039  1.00  0.00     0.000 C 
ENDROOT
BRANCH   1   2
ATOM      2  C   UNL     1      61.276  32.118  57.949  1.00  0.00     0.000 C 
BRANCH   2   3
ATOM      3  C   UNL     1      60.415  32.198  59.219  1.00  0.00     0.000 C 
BRANCH   3   4
ATOM      4  C   UNL     1      61.257  32.269  60.502  1.00  0.00     0.000 C 
BRANCH   4   5
ATOM      5  C   UNL     1      60.947  31.084  61.428  1.00  0.00     0.000 C 
BRANCH   5   6
ATOM      6  C   UNL     1      62.155  30.149  61.625  1.00  0.00     0.006 C 
BRANCH   6   7
ATOM      7  C   UNL     1      62.613  29.425  60.348  1.00  0.00     0.053 C 
BRANCH   7   8
ATOM      8  C   UNL     1      64.003  29.813  59.950  1.00  0.00     0.041 C 
ATOM      9  O   UNL     1      64.591  29.197  59.023  1.00  0.00    -0.550 OA
ATOM     10  O   UNL     1      64.637  30.877  60.580  1.00  0.00    -0.550 OA
ENDBRANCH   7   8
ENDBRANCH   6   7
ENDBRANCH   5   6
ENDBRANCH   4   5
ENDBRANCH   3   4
ENDBRANCH   2   3
ENDBRANCH   1   2
BRANCH   1  11
ATOM     11  C   UNL     1      62.391  34.332  57.315  1.00  0.00     0.000 C 
BRANCH  11  12
ATOM     12  C   UNL     1      63.422  35.386  57.755  1.00  0.00    -0.000 C 
BRANCH  12  13
ATOM     13  C   UNL     1      62.781  36.580  58.481  1.00  0.00    -0.000 C 
BRANCH  13  14
ATOM     14  C   UNL     1      61.619  36.160  59.394  1.00  0.00    -0.000 C 
BRANCH  14  15
ATOM     15  C   UNL     1      62.082  35.831  60.825  1.00  0.00    -0.000 C 
BRANCH  15  16
ATOM     16  C   UNL     1      63.305  36.658  61.253  1.00  0.00    -0.000 C 
BRANCH  16  17
ATOM     17  C   UNL     1      64.523  35.782  61.582  1.00  0.00    -0.003 C 
ATOM     18  C   UNL     1      64.289  34.334  61.159  1.00  0.00     0.004 C 
ENDBRANCH  16  17
ENDBRANCH  15  16
ENDBRANCH  14  15
ENDBRANCH  13  14
ENDBRANCH  12  13
ENDBRANCH  11  12
ENDBRANCH   1  11
TORSDOF 14
ENDMDL
MODEL 9
REMARK VINA RESULT:    -3.067     10.503     12.596
REMARK INTER + INTRA:          -7.657
REMARK INTER:                  -5.671
REMARK INTRA:                  -1.986
REMARK UNBOUND:                -2.079
REMARK SMILES CCCCCCCCCCCCCCCC(=O)[O-]
REMARK SMILES IDX 9 1 10 2 11 3 12 4 13 5 14 6 15 7 16 8 17 9 18 10 8 11 7 12
REMARK SMILES IDX 6 13 5 14 4 15 3 16 2 17 1 18
REMARK H PARENT
REMARK Flexibility Score: inf
ROOT
ATOM      1  C   UNL     1      58.978  26.743  49.545  1.00  0.00     0.000 C 
ENDROOT
BRANCH   1   2
ATOM      2  C   UNL     1      59.748  26.024  50.667  1.00  0.00     0.000 C 
BRANCH   2   3
ATOM      3  C   UNL     1      61.107  25.481  50.201  1.00  0.00     0.000 C 
BRANCH   3   4
ATOM      4  C   UNL     1      62.287  26.331  50.695  1.00  0.00     0.000 C 
BRANCH   4   5
ATOM      5  C   UNL     1      61.875  27.196  51.895  1.00  0.00     0.000 C 
BRANCH   5   6
ATOM      6  C   UNL     1      62.380  28.647  51.787  1.00  0.00     0.006 C 
BRANCH   6   7
ATOM      7  C   UNL     1      63.037  28.992  50.440  1.00  0.00     0.053 C 
BRANCH   7   8
ATOM      8  C   UNL     1      62.753  30.402  50.021  1.00  0.00     0.041 C 
ATOM      9  O   UNL     1      63.476  30.962  49.157  1.00  0.00    -0.550 OA
ATOM     10  O   UNL     1      61.670  31.084  50.560  1.00  0.00    -0.550 OA
ENDBRANCH   7   8
ENDBRANCH   6   7
ENDBRANCH   5   6
ENDBRANCH   4   5
ENDBRANCH   3   4
ENDBRANCH   2   3
ENDBRANCH   1   2
BRANCH   1  11
ATOM     11  C   UNL     1      59.591  28.119  49.208  1.00  0.00     0.000 C 
BRANCH  11  12
ATOM     12  C   UNL     1      58.717  29.304  49.654  1.00  0.00    -0.000 C 
BRANCH  12  13
ATOM     13  C   UNL     1      58.564  29.391  51.181  1.00  0.00    -0.000 C 
BRANCH  13  14
ATOM     14  C   UNL     1      57.105  29.599  51.616  1.00  0.00    -0.000 C 
BRANCH  14  15
ATOM     15  C   UNL     1      56.235  28.351  51.379  1.00  0.00    -0.000 C 
BRANCH  15  16
ATOM     16  C   UNL     1      55.139  28.588  50.329  1.00  0.00    -0.000 C 
BRANCH  16  17
ATOM     17  C   UNL     1      54.339  27.316  50.014  1.00  0.00    -0.003 C 
ATOM     18  C   UNL     1      55.268  26.140  49.724  1.00  0.00     0.004 C 
ENDBRANCH  16  17
ENDBRANCH  15  16
ENDBRANCH  14  15
ENDBRANCH  13  14
ENDBRANCH  12  13
ENDBRANCH  11  12
ENDBRANCH   1  11
TORSDOF 14
ENDMDL
