MODEL 1
REMARK VINA RESULT:    -0.156      0.000      0.000
REMARK INTER + INTRA:          -3.034
REMARK INTER:                  -0.338
REMARK INTRA:                  -2.696
REMARK UNBOUND:                -2.696
REMARK SMILES CCCCCCCCCCCCCCCCCCCCCC(=O)[O-]
REMARK SMILES IDX 12 1 11 2 10 3 9 4 8 5 7 6 6 7 5 8 4 9 3 10 2 11 1 12 13 13
REMARK SMILES IDX 14 14 15 15 16 16 17 17 18 18 19 19 20 20 21 21 22 22 23 23
REMARK SMILES IDX 24 24
REMARK H PARENT
REMARK Flexibility Score: inf
ROOT
ATOM      1  C   UNL     1       8.614 -32.519  18.470  1.00  0.00     0.000 C 
ENDROOT
BRANCH   1   2
ATOM      2  C   UNL     1       7.536 -32.113  17.451  1.00  0.00     0.000 C 
BRANCH   2   3
ATOM      3  C   UNL     1       7.569 -32.972  16.177  1.00  0.00     0.000 C 
BRANCH   3   4
ATOM      4  C   UNL     1       6.575 -32.483  15.108  1.00  0.00    -0.000 C 
BRANCH   4   5
ATOM      5  C   UNL     1       7.031 -32.824  13.680  1.00  0.00    -0.000 C 
BRANCH   5   6
ATOM      6  C   UNL     1       5.957 -33.583  12.879  1.00  0.00    -0.000 C 
BRANCH   6   7
ATOM      7  C   UNL     1       5.952 -35.092  13.197  1.00  0.00    -0.000 C 
BRANCH   7   8
ATOM      8  C   UNL     1       7.277 -35.601  13.790  1.00  0.00    -0.000 C 
BRANCH   8   9
ATOM      9  C   UNL     1       7.076 -36.688  14.856  1.00  0.00    -0.000 C 
BRANCH   9  10
ATOM     10  C   UNL     1       5.961 -36.300  15.835  1.00  0.00    -0.000 C 
BRANCH  10  11
ATOM     11  C   UNL     1       6.063 -37.109  17.133  1.00  0.00    -0.003 C 
ATOM     12  C   UNL     1       7.343 -36.772  17.893  1.00  0.00     0.004 C 
ENDBRANCH  10  11
ENDBRANCH   9  10
ENDBRANCH   8   9
ENDBRANCH   7   8
ENDBRANCH   6   7
ENDBRANCH   5   6
ENDBRANCH   4   5
ENDBRANCH   3   4
ENDBRANCH   2   3
ENDBRANCH   1   2
BRANCH   1  13
ATOM     13  C   UNL     1      10.023 -32.049  18.069  1.00  0.00     0.000 C 
BRANCH  13  14
ATOM     14  C   UNL     1      10.141 -30.518  17.909  1.00  0.00     0.000 C 
BRANCH  14  15
ATOM     15  C   UNL     1      10.605 -30.113  16.498  1.00  0.00     0.000 C 
BRANCH  15  16
ATOM     16  C   UNL     1      11.774 -30.984  15.988  1.00  0.00     0.000 C 
BRANCH  16  17
ATOM     17  C   UNL     1      11.825 -31.115  14.453  1.00  0.00     0.000 C 
BRANCH  17  18
ATOM     18  C   UNL     1      10.462 -31.008  13.744  1.00  0.00     0.000 C 
BRANCH  18  19
ATOM     19  C   UNL     1      10.084 -32.222  12.875  1.00  0.00     0.000 C 
BRANCH  19  20
ATOM     20  C   UNL     1      11.101 -33.368  12.971  1.00  0.00     0.006 C 
BRANCH  20  21
ATOM     21  C   UNL     1      10.493 -34.584  13.676  1.00  0.00     0.053 C 
BRANCH  21  22
ATOM     22  C   UNL     1      11.176 -35.841  13.236  1.00  0.00     0.041 C 
ATOM     23  O   UNL     1      10.521 -36.908  13.113  1.00  0.00    -0.550 OA
ATOM     24  O   UNL     1      12.547 -35.844  13.013  1.00  0.00    -0.550 OA
ENDBRANCH  21  22
ENDBRANCH  20  21
ENDBRANCH  19  20
ENDBRANCH  18  19
ENDBRANCH  17  18
ENDBRANCH  16  17
ENDBRANCH  15  16
ENDBRANCH  14  15
ENDBRANCH  13  14
ENDBRANCH   1  13
TORSDOF 20
ENDMDL
MODEL 2
REMARK VINA RESULT:     0.077      3.106      4.083
REMARK INTER + INTRA:          -2.529
REMARK INTER:                  -0.141
REMARK INTRA:                  -2.388
REMARK UNBOUND:                -2.696
REMARK SMILES CCCCCCCCCCCCCCCCCCCCCC(=O)[O-]
REMARK SMILES IDX 12 1 11 2 10 3 9 4 8 5 7 6 6 7 5 8 4 9 3 10 2 11 1 12 13 13
REMARK SMILES IDX 14 14 15 15 16 16 17 17 18 18 19 19 20 20 21 21 22 22 23 23
REMARK SMILES IDX 24 24
REMARK H PARENT
REMARK Flexibility Score: inf
ROOT
ATOM      1  C   UNL     1       9.365 -32.469  17.543  1.00  0.00     0.000 C 
ENDROOT
BRANCH   1   2
ATOM      2  C   UNL     1       8.052 -32.864  16.844  1.00  0.00     0.000 C 
BRANCH   2   3
ATOM      3  C   UNL     1       7.726 -31.966  15.641  1.00  0.00     0.000 C 
BRANCH   3   4
ATOM      4  C   UNL     1       6.861 -32.680  14.588  1.00  0.00    -0.000 C 
BRANCH   4   5
ATOM      5  C   UNL     1       7.433 -32.549  13.167  1.00  0.00    -0.000 C 
BRANCH   5   6
ATOM      6  C   UNL     1       8.615 -33.502  12.912  1.00  0.00    -0.000 C 
BRANCH   6   7
ATOM      7  C   UNL     1       8.563 -34.749  13.818  1.00  0.00    -0.000 C 
BRANCH   7   8
ATOM      8  C   UNL     1       7.631 -35.855  13.291  1.00  0.00    -0.000 C 
BRANCH   8   9
ATOM      9  C   UNL     1       7.299 -36.913  14.353  1.00  0.00    -0.000 C 
BRANCH   9  10
ATOM     10  C   UNL     1       5.884 -36.709  14.909  1.00  0.00    -0.000 C 
BRANCH  10  11
ATOM     11  C   UNL     1       5.875 -36.805  16.439  1.00  0.00    -0.003 C 
ATOM     12  C   UNL     1       7.283 -36.654  17.009  1.00  0.00     0.004 C 
ENDBRANCH  10  11
ENDBRANCH   9  10
ENDBRANCH   8   9
ENDBRANCH   7   8
ENDBRANCH   6   7
ENDBRANCH   5   6
ENDBRANCH   4   5
ENDBRANCH   3   4
ENDBRANCH   2   3
ENDBRANCH   1   2
BRANCH   1  13
ATOM     13  C   UNL     1       9.419 -30.977  17.913  1.00  0.00     0.000 C 
BRANCH  13  14
ATOM     14  C   UNL     1      10.355 -30.149  17.006  1.00  0.00     0.000 C 
BRANCH  14  15
ATOM     15  C   UNL     1      11.380 -31.029  16.267  1.00  0.00     0.000 C 
BRANCH  15  16
ATOM     16  C   UNL     1      11.074 -31.154  14.759  1.00  0.00     0.000 C 
BRANCH  16  17
ATOM     17  C   UNL     1      11.723 -32.383  14.094  1.00  0.00     0.000 C 
BRANCH  17  18
ATOM     18  C   UNL     1      12.894 -32.067  13.145  1.00  0.00     0.000 C 
BRANCH  18  19
ATOM     19  C   UNL     1      14.202 -31.649  13.843  1.00  0.00     0.000 C 
BRANCH  19  20
ATOM     20  C   UNL     1      14.487 -30.144  13.728  1.00  0.00     0.006 C 
BRANCH  20  21
ATOM     21  C   UNL     1      14.533 -29.488  15.111  1.00  0.00     0.053 C 
BRANCH  21  22
ATOM     22  C   UNL     1      15.279 -28.192  15.052  1.00  0.00     0.041 C 
ATOM     23  O   UNL     1      15.269 -27.503  13.998  1.00  0.00    -0.550 OA
ATOM     24  O   UNL     1      16.027 -27.771  16.143  1.00  0.00    -0.550 OA
ENDBRANCH  21  22
ENDBRANCH  20  21
ENDBRANCH  19  20
ENDBRANCH  18  19
ENDBRANCH  17  18
ENDBRANCH  16  17
ENDBRANCH  15  16
ENDBRANCH  14  15
ENDBRANCH  13  14
ENDBRANCH   1  13
TORSDOF 20
ENDMDL
MODEL 3
REMARK VINA RESULT:     0.272      3.059      4.244
REMARK INTER + INTRA:          -2.106
REMARK INTER:                   0.468
REMARK INTRA:                  -2.575
REMARK UNBOUND:                -2.696
REMARK SMILES CCCCCCCCCCCCCCCCCCCCCC(=O)[O-]
REMARK SMILES IDX 12 1 11 2 10 3 9 4 8 5 7 6 6 7 5 8 4 9 3 10 2 11 1 12 13 13
REMARK SMILES IDX 14 14 15 15 16 16 17 17 18 18 19 19 20 20 21 21 22 22 23 23
REMARK SMILES IDX 24 24
REMARK H PARENT
REMARK Flexibility Score: inf
ROOT
ATOM      1  C   UNL     1       8.973 -31.942  18.667  1.00  0.00     0.000 C 
ENDROOT
BRANCH   1   2
ATOM      2  C   UNL     1       7.773 -31.736  17.727  1.00  0.00     0.000 C 
BRANCH   2   3
ATOM      3  C   UNL     1       7.841 -32.622  16.473  1.00  0.00     0.000 C 
BRANCH   3   4
ATOM      4  C   UNL     1       7.256 -31.931  15.228  1.00  0.00    -0.000 C 
BRANCH   4   5
ATOM      5  C   UNL     1       7.566 -32.695  13.930  1.00  0.00    -0.000 C 
BRANCH   5   6
ATOM      6  C   UNL     1       6.305 -32.988  13.098  1.00  0.00    -0.000 C 
BRANCH   6   7
ATOM      7  C   UNL     1       6.034 -34.501  12.965  1.00  0.00    -0.000 C 
BRANCH   7   8
ATOM      8  C   UNL     1       6.208 -35.276  14.283  1.00  0.00    -0.000 C 
BRANCH   8   9
ATOM      9  C   UNL     1       7.605 -35.896  14.431  1.00  0.00    -0.000 C 
BRANCH   9  10
ATOM     10  C   UNL     1       8.158 -36.337  13.070  1.00  0.00    -0.000 C 
BRANCH  10  11
ATOM     11  C   UNL     1       9.596 -35.843  12.875  1.00  0.00    -0.003 C 
ATOM     12  C   UNL     1      10.017 -34.910  14.008  1.00  0.00     0.004 C 
ENDBRANCH  10  11
ENDBRANCH   9  10
ENDBRANCH   8   9
ENDBRANCH   7   8
ENDBRANCH   6   7
ENDBRANCH   5   6
ENDBRANCH   4   5
ENDBRANCH   3   4
ENDBRANCH   2   3
ENDBRANCH   1   2
BRANCH   1  13
ATOM     13  C   UNL     1      10.321 -31.644  17.989  1.00  0.00     0.000 C 
BRANCH  13  14
ATOM     14  C   UNL     1      10.449 -30.193  17.476  1.00  0.00     0.000 C 
BRANCH  14  15
ATOM     15  C   UNL     1      10.964 -30.130  16.027  1.00  0.00     0.000 C 
BRANCH  15  16
ATOM     16  C   UNL     1      11.010 -31.519  15.354  1.00  0.00     0.000 C 
BRANCH  16  17
ATOM     17  C   UNL     1      11.518 -31.488  13.900  1.00  0.00     0.000 C 
BRANCH  17  18
ATOM     18  C   UNL     1      12.710 -32.419  13.607  1.00  0.00     0.000 C 
BRANCH  18  19
ATOM     19  C   UNL     1      14.098 -31.771  13.771  1.00  0.00     0.000 C 
BRANCH  19  20
ATOM     20  C   UNL     1      14.032 -30.243  13.917  1.00  0.00     0.006 C 
BRANCH  20  21
ATOM     21  C   UNL     1      14.750 -29.782  15.188  1.00  0.00     0.053 C 
BRANCH  21  22
ATOM     22  C   UNL     1      15.258 -28.384  15.025  1.00  0.00     0.041 C 
ATOM     23  O   UNL     1      15.107 -27.779  13.932  1.00  0.00    -0.550 OA
ATOM     24  O   UNL     1      15.945 -27.770  16.064  1.00  0.00    -0.550 OA
ENDBRANCH  21  22
ENDBRANCH  20  21
ENDBRANCH  19  20
ENDBRANCH  18  19
ENDBRANCH  17  18
ENDBRANCH  16  17
ENDBRANCH  15  16
ENDBRANCH  14  15
ENDBRANCH  13  14
ENDBRANCH   1  13
TORSDOF 20
ENDMDL
MODEL 4
REMARK VINA RESULT:     0.437      3.470      8.077
REMARK INTER + INTRA:          -1.748
REMARK INTER:                  -1.028
REMARK INTRA:                  -0.720
REMARK UNBOUND:                -2.696
REMARK SMILES CCCCCCCCCCCCCCCCCCCCCC(=O)[O-]
REMARK SMILES IDX 12 1 11 2 10 3 9 4 8 5 7 6 6 7 5 8 4 9 3 10 2 11 1 12 13 13
REMARK SMILES IDX 14 14 15 15 16 16 17 17 18 18 19 19 20 20 21 21 22 22 23 23
REMARK SMILES IDX 24 24
REMARK H PARENT
REMARK Flexibility Score: inf
ROOT
ATOM      1  C   UNL     1       9.495 -32.155  13.897  1.00  0.00     0.000 C 
ENDROOT
BRANCH   1   2
ATOM      2  C   UNL     1      10.927 -32.383  13.383  1.00  0.00     0.000 C 
BRANCH   2   3
ATOM      3  C   UNL     1      11.240 -33.867  13.133  1.00  0.00     0.000 C 
BRANCH   3   4
ATOM      4  C   UNL     1      12.748 -34.170  13.182  1.00  0.00    -0.000 C 
BRANCH   4   5
ATOM      5  C   UNL     1      13.608 -32.933  12.876  1.00  0.00    -0.000 C 
BRANCH   5   6
ATOM      6  C   UNL     1      13.719 -31.975  14.075  1.00  0.00    -0.000 C 
BRANCH   6   7
ATOM      7  C   UNL     1      13.486 -30.505  13.670  1.00  0.00    -0.000 C 
BRANCH   7   8
ATOM      8  C   UNL     1      14.776 -29.668  13.620  1.00  0.00    -0.000 C 
BRANCH   8   9
ATOM      9  C   UNL     1      14.663 -28.348  14.396  1.00  0.00    -0.000 C 
BRANCH   9  10
ATOM     10  C   UNL     1      15.899 -28.119  15.275  1.00  0.00    -0.000 C 
BRANCH  10  11
ATOM     11  C   UNL     1      15.732 -26.866  16.143  1.00  0.00    -0.003 C 
ATOM     12  C   UNL     1      16.958 -26.636  17.022  1.00  0.00     0.004 C 
ENDBRANCH  10  11
ENDBRANCH   9  10
ENDBRANCH   8   9
ENDBRANCH   7   8
ENDBRANCH   6   7
ENDBRANCH   5   6
ENDBRANCH   4   5
ENDBRANCH   3   4
ENDBRANCH   2   3
ENDBRANCH   1   2
BRANCH   1  13
ATOM     13  C   UNL     1       8.421 -32.567  12.875  1.00  0.00     0.000 C 
BRANCH  13  14
ATOM     14  C   UNL     1       6.985 -32.533  13.440  1.00  0.00     0.000 C 
BRANCH  14  15
ATOM     15  C   UNL     1       6.112 -33.671  12.881  1.00  0.00     0.000 C 
BRANCH  15  16
ATOM     16  C   UNL     1       5.962 -34.844  13.874  1.00  0.00     0.000 C 
BRANCH  16  17
ATOM     17  C   UNL     1       7.305 -35.401  14.383  1.00  0.00     0.000 C 
BRANCH  17  18
ATOM     18  C   UNL     1       7.288 -35.915  15.836  1.00  0.00     0.000 C 
BRANCH  18  19
ATOM     19  C   UNL     1       7.406 -34.821  16.914  1.00  0.00     0.000 C 
BRANCH  19  20
ATOM     20  C   UNL     1       8.588 -33.870  16.675  1.00  0.00     0.006 C 
BRANCH  20  21
ATOM     21  C   UNL     1       8.193 -32.420  16.966  1.00  0.00     0.053 C 
BRANCH  21  22
ATOM     22  C   UNL     1       8.740 -31.982  18.288  1.00  0.00     0.041 C 
ATOM     23  O   UNL     1       8.196 -32.366  19.357  1.00  0.00    -0.550 OA
ATOM     24  O   UNL     1       9.819 -31.109  18.339  1.00  0.00    -0.550 OA
ENDBRANCH  21  22
ENDBRANCH  20  21
ENDBRANCH  19  20
ENDBRANCH  18  19
ENDBRANCH  17  18
ENDBRANCH  16  17
ENDBRANCH  15  16
ENDBRANCH  14  15
ENDBRANCH  13  14
ENDBRANCH   1  13
TORSDOF 20
ENDMDL
MODEL 5
REMARK VINA RESULT:     0.741      3.768      8.590
REMARK INTER + INTRA:          -1.089
REMARK INTER:                   0.754
REMARK INTRA:                  -1.843
REMARK UNBOUND:                -2.696
REMARK SMILES CCCCCCCCCCCCCCCCCCCCCC(=O)[O-]
REMARK SMILES IDX 12 1 11 2 10 3 9 4 8 5 7 6 6 7 5 8 4 9 3 10 2 11 1 12 13 13
REMARK SMILES IDX 14 14 15 15 16 16 17 17 18 18 19 19 20 20 21 21 22 22 23 23
REMARK SMILES IDX 24 24
REMARK H PARENT
REMARK Flexibility Score: inf
ROOT
ATOM      1  C   UNL     1      10.072 -33.172  13.899  1.00  0.00     0.000 C 
ENDROOT
BRANCH   1   2
ATOM      2  C   UNL     1      11.203 -32.342  13.267  1.00  0.00     0.000 C 
BRANCH   2   3
ATOM      3  C   UNL     1      11.442 -31.010  13.995  1.00  0.00     0.000 C 
BRANCH   3   4
ATOM      4  C   UNL     1      12.683 -31.048  14.904  1.00  0.00    -0.000 C 
BRANCH   4   5
ATOM      5  C   UNL     1      13.940 -31.539  14.166  1.00  0.00    -0.000 C 
BRANCH   5   6
ATOM      6  C   UNL     1      14.727 -30.393  13.505  1.00  0.00    -0.000 C 
BRANCH   6   7
ATOM      7  C   UNL     1      15.167 -29.323  14.527  1.00  0.00    -0.000 C 
BRANCH   7   8
ATOM      8  C   UNL     1      14.930 -27.880  14.048  1.00  0.00    -0.000 C 
BRANCH   8   9
ATOM      9  C   UNL     1      15.622 -26.836  14.935  1.00  0.00    -0.000 C 
BRANCH   9  10
ATOM     10  C   UNL     1      15.871 -27.388  16.345  1.00  0.00    -0.000 C 
BRANCH  10  11
ATOM     11  C   UNL     1      16.714 -26.415  17.176  1.00  0.00    -0.003 C 
ATOM     12  C   UNL     1      18.149 -26.349  16.660  1.00  0.00     0.004 C 
ENDBRANCH  10  11
ENDBRANCH   9  10
ENDBRANCH   8   9
ENDBRANCH   7   8
ENDBRANCH   6   7
ENDBRANCH   5   6
ENDBRANCH   4   5
ENDBRANCH   3   4
ENDBRANCH   2   3
ENDBRANCH   1   2
BRANCH   1  13
ATOM     13  C   UNL     1       9.374 -34.097  12.888  1.00  0.00     0.000 C 
BRANCH  13  14
ATOM     14  C   UNL     1       9.670 -35.596  13.113  1.00  0.00     0.000 C 
BRANCH  14  15
ATOM     15  C   UNL     1       8.386 -36.443  13.162  1.00  0.00     0.000 C 
BRANCH  15  16
ATOM     16  C   UNL     1       7.108 -35.578  13.212  1.00  0.00     0.000 C 
BRANCH  16  17
ATOM     17  C   UNL     1       6.198 -35.885  14.416  1.00  0.00     0.000 C 
BRANCH  17  18
ATOM     18  C   UNL     1       5.953 -34.699  15.367  1.00  0.00     0.000 C 
BRANCH  18  19
ATOM     19  C   UNL     1       6.061 -33.308  14.714  1.00  0.00     0.000 C 
BRANCH  19  20
ATOM     20  C   UNL     1       7.090 -32.401  15.403  1.00  0.00     0.006 C 
BRANCH  20  21
ATOM     21  C   UNL     1       7.933 -33.191  16.408  1.00  0.00     0.053 C 
BRANCH  21  22
ATOM     22  C   UNL     1       8.593 -32.266  17.381  1.00  0.00     0.041 C 
ATOM     23  O   UNL     1       8.211 -32.230  18.580  1.00  0.00    -0.550 OA
ATOM     24  O   UNL     1       9.595 -31.406  16.950  1.00  0.00    -0.550 OA
ENDBRANCH  21  22
ENDBRANCH  20  21
ENDBRANCH  19  20
ENDBRANCH  18  19
ENDBRANCH  17  18
ENDBRANCH  16  17
ENDBRANCH  15  16
ENDBRANCH  14  15
ENDBRANCH  13  14
ENDBRANCH   1  13
TORSDOF 20
ENDMDL
MODEL 6
REMARK VINA RESULT:     0.931      4.177      6.322
REMARK INTER + INTRA:          -0.675
REMARK INTER:                   0.322
REMARK INTRA:                  -0.997
REMARK UNBOUND:                -2.696
REMARK SMILES CCCCCCCCCCCCCCCCCCCCCC(=O)[O-]
REMARK SMILES IDX 12 1 11 2 10 3 9 4 8 5 7 6 6 7 5 8 4 9 3 10 2 11 1 12 13 13
REMARK SMILES IDX 14 14 15 15 16 16 17 17 18 18 19 19 20 20 21 21 22 22 23 23
REMARK SMILES IDX 24 24
REMARK H PARENT
REMARK Flexibility Score: inf
ROOT
ATOM      1  C   UNL     1      11.592 -33.605  13.260  1.00  0.00     0.000 C 
ENDROOT
BRANCH   1   2
ATOM      2  C   UNL     1      10.955 -35.006  13.259  1.00  0.00     0.000 C 
BRANCH   2   3
ATOM      3  C   UNL     1       9.465 -34.981  12.883  1.00  0.00     0.000 C 
BRANCH   3   4
ATOM      4  C   UNL     1       8.805 -36.367  12.989  1.00  0.00    -0.000 C 
BRANCH   4   5
ATOM      5  C   UNL     1       7.339 -36.289  13.446  1.00  0.00    -0.000 C 
BRANCH   5   6
ATOM      6  C   UNL     1       6.725 -34.892  13.239  1.00  0.00    -0.000 C 
BRANCH   6   7
ATOM      7  C   UNL     1       7.219 -33.877  14.290  1.00  0.00    -0.000 C 
BRANCH   7   8
ATOM      8  C   UNL     1       7.337 -34.465  15.707  1.00  0.00    -0.000 C 
BRANCH   8   9
ATOM      9  C   UNL     1       8.544 -33.919  16.482  1.00  0.00    -0.000 C 
BRANCH   9  10
ATOM     10  C   UNL     1       8.499 -32.388  16.564  1.00  0.00    -0.000 C 
BRANCH  10  11
ATOM     11  C   UNL     1       9.079 -31.891  17.893  1.00  0.00    -0.003 C 
ATOM     12  C   UNL     1       9.850 -30.587  17.705  1.00  0.00     0.004 C 
ENDBRANCH  10  11
ENDBRANCH   9  10
ENDBRANCH   8   9
ENDBRANCH   7   8
ENDBRANCH   6   7
ENDBRANCH   5   6
ENDBRANCH   4   5
ENDBRANCH   3   4
ENDBRANCH   2   3
ENDBRANCH   1   2
BRANCH   1  13
ATOM     13  C   UNL     1      10.560 -32.480  13.447  1.00  0.00     0.000 C 
BRANCH  13  14
ATOM     14  C   UNL     1      11.193 -31.084  13.634  1.00  0.00     0.000 C 
BRANCH  14  15
ATOM     15  C   UNL     1      12.254 -31.070  14.749  1.00  0.00     0.000 C 
BRANCH  15  16
ATOM     16  C   UNL     1      13.577 -31.739  14.317  1.00  0.00     0.000 C 
BRANCH  16  17
ATOM     17  C   UNL     1      14.416 -30.884  13.348  1.00  0.00     0.000 C 
BRANCH  17  18
ATOM     18  C   UNL     1      14.365 -29.366  13.606  1.00  0.00     0.000 C 
BRANCH  18  19
ATOM     19  C   UNL     1      15.586 -28.791  14.347  1.00  0.00     0.000 C 
BRANCH  19  20
ATOM     20  C   UNL     1      15.208 -28.045  15.635  1.00  0.00     0.006 C 
BRANCH  20  21
ATOM     21  C   UNL     1      15.876 -26.667  15.687  1.00  0.00     0.053 C 
BRANCH  21  22
ATOM     22  C   UNL     1      16.830 -26.591  16.838  1.00  0.00     0.041 C 
ATOM     23  O   UNL     1      16.406 -26.686  18.019  1.00  0.00    -0.550 OA
ATOM     24  O   UNL     1      18.179 -26.361  16.606  1.00  0.00    -0.550 OA
ENDBRANCH  21  22
ENDBRANCH  20  21
ENDBRANCH  19  20
ENDBRANCH  18  19
ENDBRANCH  17  18
ENDBRANCH  16  17
ENDBRANCH  15  16
ENDBRANCH  14  15
ENDBRANCH  13  14
ENDBRANCH   1  13
TORSDOF 20
ENDMDL
