MODEL 1
REMARK VINA RESULT:    -4.594      0.000      0.000
REMARK INTER + INTRA:         -11.566
REMARK INTER:                  -9.966
REMARK INTRA:                  -1.600
REMARK UNBOUND:                -1.600
REMARK SMILES CCCCCCCCCCCCCCCCCCCCCC(=O)[O-]
REMARK SMILES IDX 12 1 11 2 10 3 9 4 8 5 7 6 6 7 5 8 4 9 3 10 2 11 1 12 13 13
REMARK SMILES IDX 14 14 15 15 16 16 17 17 18 18 19 19 20 20 21 21 22 22 23 23
REMARK SMILES IDX 24 24
REMARK H PARENT
REMARK Flexibility Score: inf
ROOT
ATOM      1  C   UNL     1       8.786  -4.157  -3.880  1.00  0.00     0.000 C 
ENDROOT
BRANCH   1   2
ATOM      2  C   UNL     1       7.513  -4.036  -4.734  1.00  0.00     0.000 C 
BRANCH   2   3
ATOM      3  C   UNL     1       7.788  -3.499  -6.152  1.00  0.00     0.000 C 
BRANCH   3   4
ATOM      4  C   UNL     1       8.697  -4.384  -7.025  1.00  0.00    -0.000 C 
BRANCH   4   5
ATOM      5  C   UNL     1       8.104  -5.773  -7.297  1.00  0.00    -0.000 C 
BRANCH   5   6
ATOM      6  C   UNL     1       8.862  -6.485  -8.428  1.00  0.00    -0.000 C 
BRANCH   6   7
ATOM      7  C   UNL     1       8.285  -7.874  -8.758  1.00  0.00    -0.000 C 
BRANCH   7   8
ATOM      8  C   UNL     1       6.970  -7.856  -9.557  1.00  0.00    -0.000 C 
BRANCH   8   9
ATOM      9  C   UNL     1       6.401  -9.264  -9.800  1.00  0.00    -0.000 C 
BRANCH   9  10
ATOM     10  C   UNL     1       5.407  -9.696  -8.710  1.00  0.00    -0.000 C 
BRANCH  10  11
ATOM     11  C   UNL     1       4.198 -10.453  -9.280  1.00  0.00    -0.003 C 
ATOM     12  C   UNL     1       3.639  -9.748 -10.511  1.00  0.00     0.004 C 
ENDBRANCH  10  11
ENDBRANCH   9  10
ENDBRANCH   8   9
ENDBRANCH   7   8
ENDBRANCH   6   7
ENDBRANCH   5   6
ENDBRANCH   4   5
ENDBRANCH   3   4
ENDBRANCH   2   3
ENDBRANCH   1   2
BRANCH   1  13
ATOM     13  C   UNL     1       8.846  -5.467  -3.073  1.00  0.00     0.000 C 
BRANCH  13  14
ATOM     14  C   UNL     1       9.066  -6.746  -3.902  1.00  0.00     0.000 C 
BRANCH  14  15
ATOM     15  C   UNL     1       7.874  -7.718  -3.836  1.00  0.00     0.000 C 
BRANCH  15  16
ATOM     16  C   UNL     1       8.245  -9.143  -4.276  1.00  0.00     0.000 C 
BRANCH  16  17
ATOM     17  C   UNL     1       7.994 -10.191  -3.181  1.00  0.00     0.000 C 
BRANCH  17  18
ATOM     18  C   UNL     1       7.967  -9.536  -1.791  1.00  0.00     0.000 C 
BRANCH  18  19
ATOM     19  C   UNL     1       8.873 -10.249  -0.772  1.00  0.00     0.000 C 
BRANCH  19  20
ATOM     20  C   UNL     1       8.599  -9.894   0.703  1.00  0.00     0.006 C 
BRANCH  20  21
ATOM     21  C   UNL     1       7.166  -9.420   0.990  1.00  0.00     0.053 C 
BRANCH  21  22
ATOM     22  C   UNL     1       6.489 -10.271   2.020  1.00  0.00     0.041 C 
ATOM     23  O   UNL     1       7.053 -10.500   3.122  1.00  0.00    -0.550 OA
ATOM     24  O   UNL     1       5.246 -10.833   1.753  1.00  0.00    -0.550 OA
ENDBRANCH  21  22
ENDBRANCH  20  21
ENDBRANCH  19  20
ENDBRANCH  18  19
ENDBRANCH  17  18
ENDBRANCH  16  17
ENDBRANCH  15  16
ENDBRANCH  14  15
ENDBRANCH  13  14
ENDBRANCH   1  13
TORSDOF 20
ENDMDL
MODEL 2
REMARK VINA RESULT:    -4.489      4.032      8.697
REMARK INTER + INTRA:         -11.338
REMARK INTER:                  -9.827
REMARK INTRA:                  -1.511
REMARK UNBOUND:                -1.600
REMARK SMILES CCCCCCCCCCCCCCCCCCCCCC(=O)[O-]
REMARK SMILES IDX 12 1 11 2 10 3 9 4 8 5 7 6 6 7 5 8 4 9 3 10 2 11 1 12 13 13
REMARK SMILES IDX 14 14 15 15 16 16 17 17 18 18 19 19 20 20 21 21 22 22 23 23
REMARK SMILES IDX 24 24
REMARK H PARENT
REMARK Flexibility Score: inf
ROOT
ATOM      1  C   UNL     1       7.489  -4.399  -4.662  1.00  0.00     0.000 C 
ENDROOT
BRANCH   1   2
ATOM      2  C   UNL     1       8.637  -4.529  -3.647  1.00  0.00     0.000 C 
BRANCH   2   3
ATOM      3  C   UNL     1       8.771  -5.950  -3.068  1.00  0.00     0.000 C 
BRANCH   3   4
ATOM      4  C   UNL     1       8.259  -7.082  -3.978  1.00  0.00    -0.000 C 
BRANCH   4   5
ATOM      5  C   UNL     1       7.986  -8.388  -3.219  1.00  0.00    -0.000 C 
BRANCH   5   6
ATOM      6  C   UNL     1       7.771  -8.121  -1.722  1.00  0.00    -0.000 C 
BRANCH   6   7
ATOM      7  C   UNL     1       7.622  -9.412  -0.896  1.00  0.00    -0.000 C 
BRANCH   7   8
ATOM      8  C   UNL     1       7.946  -9.264   0.601  1.00  0.00    -0.000 C 
BRANCH   8   9
ATOM      9  C   UNL     1       7.935 -10.608   1.350  1.00  0.00    -0.000 C 
BRANCH   9  10
ATOM     10  C   UNL     1       6.988 -10.602   2.560  1.00  0.00    -0.000 C 
BRANCH  10  11
ATOM     11  C   UNL     1       5.509 -10.668   2.152  1.00  0.00    -0.003 C 
ATOM     12  C   UNL     1       4.597 -10.376   3.340  1.00  0.00     0.004 C 
ENDBRANCH  10  11
ENDBRANCH   9  10
ENDBRANCH   8   9
ENDBRANCH   7   8
ENDBRANCH   6   7
ENDBRANCH   5   6
ENDBRANCH   4   5
ENDBRANCH   3   4
ENDBRANCH   2   3
ENDBRANCH   1   2
BRANCH   1  13
ATOM     13  C   UNL     1       7.939  -3.788  -6.003  1.00  0.00     0.000 C 
BRANCH  13  14
ATOM     14  C   UNL     1       7.841  -4.724  -7.222  1.00  0.00     0.000 C 
BRANCH  14  15
ATOM     15  C   UNL     1       9.058  -5.655  -7.364  1.00  0.00     0.000 C 
BRANCH  15  16
ATOM     16  C   UNL     1       9.049  -6.446  -8.682  1.00  0.00     0.000 C 
BRANCH  16  17
ATOM     17  C   UNL     1       7.784  -7.300  -8.856  1.00  0.00     0.000 C 
BRANCH  17  18
ATOM     18  C   UNL     1       8.020  -8.737  -8.364  1.00  0.00     0.000 C 
BRANCH  18  19
ATOM     19  C   UNL     1       6.736  -9.417  -7.857  1.00  0.00     0.000 C 
BRANCH  19  20
ATOM     20  C   UNL     1       6.060 -10.367  -8.868  1.00  0.00     0.006 C 
BRANCH  20  21
ATOM     21  C   UNL     1       4.563 -10.101  -9.090  1.00  0.00     0.053 C 
BRANCH  21  22
ATOM     22  C   UNL     1       4.313  -9.314 -10.339  1.00  0.00     0.041 C 
ATOM     23  O   UNL     1       5.271  -8.765 -10.946  1.00  0.00    -0.550 OA
ATOM     24  O   UNL     1       3.018  -9.163 -10.821  1.00  0.00    -0.550 OA
ENDBRANCH  21  22
ENDBRANCH  20  21
ENDBRANCH  19  20
ENDBRANCH  18  19
ENDBRANCH  17  18
ENDBRANCH  16  17
ENDBRANCH  15  16
ENDBRANCH  14  15
ENDBRANCH  13  14
ENDBRANCH   1  13
TORSDOF 20
ENDMDL
MODEL 3
REMARK VINA RESULT:    -4.409      1.887      3.020
REMARK INTER + INTRA:         -11.165
REMARK INTER:                  -9.911
REMARK INTRA:                  -1.254
REMARK UNBOUND:                -1.600
REMARK SMILES CCCCCCCCCCCCCCCCCCCCCC(=O)[O-]
REMARK SMILES IDX 12 1 11 2 10 3 9 4 8 5 7 6 6 7 5 8 4 9 3 10 2 11 1 12 13 13
REMARK SMILES IDX 14 14 15 15 16 16 17 17 18 18 19 19 20 20 21 21 22 22 23 23
REMARK SMILES IDX 24 24
REMARK H PARENT
REMARK Flexibility Score: inf
ROOT
ATOM      1  C   UNL     1       8.523  -6.340  -3.841  1.00  0.00     0.000 C 
ENDROOT
BRANCH   1   2
ATOM      2  C   UNL     1       8.391  -4.807  -3.822  1.00  0.00     0.000 C 
BRANCH   2   3
ATOM      3  C   UNL     1       8.810  -4.150  -5.151  1.00  0.00     0.000 C 
BRANCH   3   4
ATOM      4  C   UNL     1       8.084  -4.677  -6.402  1.00  0.00    -0.000 C 
BRANCH   4   5
ATOM      5  C   UNL     1       9.032  -5.330  -7.417  1.00  0.00    -0.000 C 
BRANCH   5   6
ATOM      6  C   UNL     1       8.297  -6.385  -8.259  1.00  0.00    -0.000 C 
BRANCH   6   7
ATOM      7  C   UNL     1       8.869  -7.803  -8.079  1.00  0.00    -0.000 C 
BRANCH   7   8
ATOM      8  C   UNL     1       8.242  -8.614  -6.931  1.00  0.00    -0.000 C 
BRANCH   8   9
ATOM      9  C   UNL     1       7.767 -10.008  -7.375  1.00  0.00    -0.000 C 
BRANCH   9  10
ATOM     10  C   UNL     1       6.958  -9.968  -8.682  1.00  0.00    -0.000 C 
BRANCH  10  11
ATOM     11  C   UNL     1       5.545  -9.398  -8.483  1.00  0.00    -0.003 C 
ATOM     12  C   UNL     1       4.595  -9.895  -9.567  1.00  0.00     0.004 C 
ENDBRANCH  10  11
ENDBRANCH   9  10
ENDBRANCH   8   9
ENDBRANCH   7   8
ENDBRANCH   6   7
ENDBRANCH   5   6
ENDBRANCH   4   5
ENDBRANCH   3   4
ENDBRANCH   2   3
ENDBRANCH   1   2
BRANCH   1  13
ATOM     13  C   UNL     1       8.009  -7.003  -2.549  1.00  0.00     0.000 C 
BRANCH  13  14
ATOM     14  C   UNL     1       8.719  -8.309  -2.148  1.00  0.00     0.000 C 
BRANCH  14  15
ATOM     15  C   UNL     1       7.929  -9.129  -1.112  1.00  0.00     0.000 C 
BRANCH  15  16
ATOM     16  C   UNL     1       8.655  -9.234   0.239  1.00  0.00     0.000 C 
BRANCH  16  17
ATOM     17  C   UNL     1       7.997 -10.242   1.194  1.00  0.00     0.000 C 
BRANCH  17  18
ATOM     18  C   UNL     1       6.704  -9.667   1.791  1.00  0.00     0.000 C 
BRANCH  18  19
ATOM     19  C   UNL     1       5.689 -10.754   2.187  1.00  0.00     0.000 C 
BRANCH  19  20
ATOM     20  C   UNL     1       5.468 -10.917   3.705  1.00  0.00     0.006 C 
BRANCH  20  21
ATOM     21  C   UNL     1       5.046  -9.629   4.429  1.00  0.00     0.053 C 
BRANCH  21  22
ATOM     22  C   UNL     1       3.571  -9.387   4.331  1.00  0.00     0.041 C 
ATOM     23  O   UNL     1       2.779 -10.356   4.190  1.00  0.00    -0.550 OA
ATOM     24  O   UNL     1       3.073  -8.090   4.369  1.00  0.00    -0.550 OA
ENDBRANCH  21  22
ENDBRANCH  20  21
ENDBRANCH  19  20
ENDBRANCH  18  19
ENDBRANCH  17  18
ENDBRANCH  16  17
ENDBRANCH  15  16
ENDBRANCH  14  15
ENDBRANCH  13  14
ENDBRANCH   1  13
TORSDOF 20
ENDMDL
MODEL 4
REMARK VINA RESULT:    -4.376      3.657      9.555
REMARK INTER + INTRA:         -11.092
REMARK INTER:                 -10.070
REMARK INTRA:                  -1.021
REMARK UNBOUND:                -1.600
REMARK SMILES CCCCCCCCCCCCCCCCCCCCCC(=O)[O-]
REMARK SMILES IDX 12 1 11 2 10 3 9 4 8 5 7 6 6 7 5 8 4 9 3 10 2 11 1 12 13 13
REMARK SMILES IDX 14 14 15 15 16 16 17 17 18 18 19 19 20 20 21 21 22 22 23 23
REMARK SMILES IDX 24 24
REMARK H PARENT
REMARK Flexibility Score: inf
ROOT
ATOM      1  C   UNL     1       8.609  -5.497  -3.253  1.00  0.00     0.000 C 
ENDROOT
BRANCH   1   2
ATOM      2  C   UNL     1       8.392  -7.012  -3.104  1.00  0.00     0.000 C 
BRANCH   2   3
ATOM      3  C   UNL     1       9.123  -7.609  -1.886  1.00  0.00     0.000 C 
BRANCH   3   4
ATOM      4  C   UNL     1       8.384  -8.756  -1.173  1.00  0.00    -0.000 C 
BRANCH   4   5
ATOM      5  C   UNL     1       9.065  -9.193   0.131  1.00  0.00    -0.000 C 
BRANCH   5   6
ATOM      6  C   UNL     1       8.097  -9.986   1.020  1.00  0.00    -0.000 C 
BRANCH   6   7
ATOM      7  C   UNL     1       6.625  -9.582   0.817  1.00  0.00    -0.000 C 
BRANCH   7   8
ATOM      8  C   UNL     1       5.655 -10.107   1.890  1.00  0.00    -0.000 C 
BRANCH   8   9
ATOM      9  C   UNL     1       6.326 -10.294   3.261  1.00  0.00    -0.000 C 
BRANCH   9  10
ATOM     10  C   UNL     1       5.322 -10.235   4.423  1.00  0.00    -0.000 C 
BRANCH  10  11
ATOM     11  C   UNL     1       3.865 -10.166   3.941  1.00  0.00    -0.003 C 
ATOM     12  C   UNL     1       3.172  -8.911   4.464  1.00  0.00     0.004 C 
ENDBRANCH  10  11
ENDBRANCH   9  10
ENDBRANCH   8   9
ENDBRANCH   7   8
ENDBRANCH   6   7
ENDBRANCH   5   6
ENDBRANCH   4   5
ENDBRANCH   3   4
ENDBRANCH   2   3
ENDBRANCH   1   2
BRANCH   1  13
ATOM     13  C   UNL     1       7.441  -4.790  -3.968  1.00  0.00     0.000 C 
BRANCH  13  14
ATOM     14  C   UNL     1       7.837  -3.899  -5.160  1.00  0.00     0.000 C 
BRANCH  14  15
ATOM     15  C   UNL     1       9.060  -4.431  -5.927  1.00  0.00     0.000 C 
BRANCH  15  16
ATOM     16  C   UNL     1       8.708  -4.911  -7.345  1.00  0.00     0.000 C 
BRANCH  16  17
ATOM     17  C   UNL     1       8.822  -6.435  -7.505  1.00  0.00     0.000 C 
BRANCH  17  18
ATOM     18  C   UNL     1       8.594  -6.851  -8.966  1.00  0.00     0.000 C 
BRANCH  18  19
ATOM     19  C   UNL     1       7.166  -7.359  -9.231  1.00  0.00     0.000 C 
BRANCH  19  20
ATOM     20  C   UNL     1       7.066  -8.847  -9.621  1.00  0.00     0.006 C 
BRANCH  20  21
ATOM     21  C   UNL     1       5.953  -9.169 -10.630  1.00  0.00     0.053 C 
BRANCH  21  22
ATOM     22  C   UNL     1       4.690  -9.604  -9.952  1.00  0.00     0.041 C 
ATOM     23  O   UNL     1       3.792 -10.198 -10.605  1.00  0.00    -0.550 OA
ATOM     24  O   UNL     1       4.493  -9.331  -8.603  1.00  0.00    -0.550 OA
ENDBRANCH  21  22
ENDBRANCH  20  21
ENDBRANCH  19  20
ENDBRANCH  18  19
ENDBRANCH  17  18
ENDBRANCH  16  17
ENDBRANCH  15  16
ENDBRANCH  14  15
ENDBRANCH  13  14
ENDBRANCH   1  13
TORSDOF 20
ENDMDL
MODEL 5
REMARK VINA RESULT:    -4.099      1.069      2.267
REMARK INTER + INTRA:         -10.491
REMARK INTER:                  -9.395
REMARK INTRA:                  -1.096
REMARK UNBOUND:                -1.600
REMARK SMILES CCCCCCCCCCCCCCCCCCCCCC(=O)[O-]
REMARK SMILES IDX 12 1 11 2 10 3 9 4 8 5 7 6 6 7 5 8 4 9 3 10 2 11 1 12 13 13
REMARK SMILES IDX 14 14 15 15 16 16 17 17 18 18 19 19 20 20 21 21 22 22 23 23
REMARK SMILES IDX 24 24
REMARK H PARENT
REMARK Flexibility Score: inf
ROOT
ATOM      1  C   UNL     1       7.844  -4.418  -6.816  1.00  0.00     0.000 C 
ENDROOT
BRANCH   1   2
ATOM      2  C   UNL     1       9.105  -5.266  -7.050  1.00  0.00     0.000 C 
BRANCH   2   3
ATOM      3  C   UNL     1       8.938  -6.731  -6.606  1.00  0.00     0.000 C 
BRANCH   3   4
ATOM      4  C   UNL     1       8.788  -7.752  -7.750  1.00  0.00    -0.000 C 
BRANCH   4   5
ATOM      5  C   UNL     1       9.025  -7.140  -9.137  1.00  0.00    -0.000 C 
BRANCH   5   6
ATOM      6  C   UNL     1       8.253  -7.910 -10.219  1.00  0.00    -0.000 C 
BRANCH   6   7
ATOM      7  C   UNL     1       6.878  -8.408  -9.737  1.00  0.00    -0.000 C 
BRANCH   7   8
ATOM      8  C   UNL     1       6.563  -9.875 -10.082  1.00  0.00    -0.000 C 
BRANCH   8   9
ATOM      9  C   UNL     1       5.679 -10.560  -9.025  1.00  0.00    -0.000 C 
BRANCH   9  10
ATOM     10  C   UNL     1       4.221 -10.075  -9.071  1.00  0.00    -0.000 C 
BRANCH  10  11
ATOM     11  C   UNL     1       3.837  -9.489 -10.438  1.00  0.00    -0.003 C 
ATOM     12  C   UNL     1       2.972 -10.464 -11.230  1.00  0.00     0.004 C 
ENDBRANCH  10  11
ENDBRANCH   9  10
ENDBRANCH   8   9
ENDBRANCH   7   8
ENDBRANCH   6   7
ENDBRANCH   5   6
ENDBRANCH   4   5
ENDBRANCH   3   4
ENDBRANCH   2   3
ENDBRANCH   1   2
BRANCH   1  13
ATOM     13  C   UNL     1       7.989  -3.439  -5.636  1.00  0.00     0.000 C 
BRANCH  13  14
ATOM     14  C   UNL     1       8.731  -3.991  -4.405  1.00  0.00     0.000 C 
BRANCH  14  15
ATOM     15  C   UNL     1       7.960  -5.116  -3.692  1.00  0.00     0.000 C 
BRANCH  15  16
ATOM     16  C   UNL     1       8.854  -5.951  -2.761  1.00  0.00     0.000 C 
BRANCH  16  17
ATOM     17  C   UNL     1       8.723  -7.462  -3.004  1.00  0.00     0.000 C 
BRANCH  17  18
ATOM     18  C   UNL     1       7.948  -8.136  -1.861  1.00  0.00     0.000 C 
BRANCH  18  19
ATOM     19  C   UNL     1       8.816  -9.097  -1.031  1.00  0.00     0.000 C 
BRANCH  19  20
ATOM     20  C   UNL     1       8.327  -9.336   0.412  1.00  0.00     0.006 C 
BRANCH  20  21
ATOM     21  C   UNL     1       6.806  -9.504   0.550  1.00  0.00     0.053 C 
BRANCH  21  22
ATOM     22  C   UNL     1       6.419 -10.017   1.903  1.00  0.00     0.041 C 
ATOM     23  O   UNL     1       7.281 -10.553   2.648  1.00  0.00    -0.550 OA
ATOM     24  O   UNL     1       5.100  -9.927   2.332  1.00  0.00    -0.550 OA
ENDBRANCH  21  22
ENDBRANCH  20  21
ENDBRANCH  19  20
ENDBRANCH  18  19
ENDBRANCH  17  18
ENDBRANCH  16  17
ENDBRANCH  15  16
ENDBRANCH  14  15
ENDBRANCH  13  14
ENDBRANCH   1  13
TORSDOF 20
ENDMDL
MODEL 6
REMARK VINA RESULT:    -3.764      3.438      8.036
REMARK INTER + INTRA:          -9.764
REMARK INTER:                  -7.753
REMARK INTRA:                  -2.011
REMARK UNBOUND:                -1.600
REMARK SMILES CCCCCCCCCCCCCCCCCCCCCC(=O)[O-]
REMARK SMILES IDX 12 1 11 2 10 3 9 4 8 5 7 6 6 7 5 8 4 9 3 10 2 11 1 12 13 13
REMARK SMILES IDX 14 14 15 15 16 16 17 17 18 18 19 19 20 20 21 21 22 22 23 23
REMARK SMILES IDX 24 24
REMARK H PARENT
REMARK Flexibility Score: inf
ROOT
ATOM      1  C   UNL     1       7.809  -4.019  -4.080  1.00  0.00     0.000 C 
ENDROOT
BRANCH   1   2
ATOM      2  C   UNL     1       9.089  -4.800  -3.736  1.00  0.00     0.000 C 
BRANCH   2   3
ATOM      3  C   UNL     1       8.803  -6.176  -3.104  1.00  0.00     0.000 C 
BRANCH   3   4
ATOM      4  C   UNL     1       8.959  -7.380  -4.053  1.00  0.00    -0.000 C 
BRANCH   4   5
ATOM      5  C   UNL     1       7.717  -8.281  -4.090  1.00  0.00    -0.000 C 
BRANCH   5   6
ATOM      6  C   UNL     1       7.960  -9.518  -4.968  1.00  0.00    -0.000 C 
BRANCH   6   7
ATOM      7  C   UNL     1       8.552 -10.705  -4.186  1.00  0.00    -0.000 C 
BRANCH   7   8
ATOM      8  C   UNL     1       8.048 -10.844  -2.739  1.00  0.00    -0.000 C 
BRANCH   8   9
ATOM      9  C   UNL     1       9.099 -10.422  -1.698  1.00  0.00    -0.000 C 
BRANCH   9  10
ATOM     10  C   UNL     1       8.652  -9.210  -0.865  1.00  0.00    -0.000 C 
BRANCH  10  11
ATOM     11  C   UNL     1       7.914  -9.618   0.419  1.00  0.00    -0.003 C 
ATOM     12  C   UNL     1       8.815 -10.444   1.332  1.00  0.00     0.004 C 
ENDBRANCH  10  11
ENDBRANCH   9  10
ENDBRANCH   8   9
ENDBRANCH   7   8
ENDBRANCH   6   7
ENDBRANCH   5   6
ENDBRANCH   4   5
ENDBRANCH   3   4
ENDBRANCH   2   3
ENDBRANCH   1   2
BRANCH   1  13
ATOM     13  C   UNL     1       7.460  -4.070  -5.580  1.00  0.00     0.000 C 
BRANCH  13  14
ATOM     14  C   UNL     1       8.659  -4.220  -6.534  1.00  0.00     0.000 C 
BRANCH  14  15
ATOM     15  C   UNL     1       8.471  -5.350  -7.562  1.00  0.00     0.000 C 
BRANCH  15  16
ATOM     16  C   UNL     1       9.124  -6.669  -7.118  1.00  0.00     0.000 C 
BRANCH  16  17
ATOM     17  C   UNL     1       8.880  -7.819  -8.107  1.00  0.00     0.000 C 
BRANCH  17  18
ATOM     18  C   UNL     1       7.620  -7.562  -8.947  1.00  0.00     0.000 C 
BRANCH  18  19
ATOM     19  C   UNL     1       7.695  -8.187 -10.351  1.00  0.00     0.000 C 
BRANCH  19  20
ATOM     20  C   UNL     1       6.331  -8.524 -10.988  1.00  0.00     0.006 C 
BRANCH  20  21
ATOM     21  C   UNL     1       5.657  -9.784 -10.422  1.00  0.00     0.053 C 
BRANCH  21  22
ATOM     22  C   UNL     1       4.357  -9.470  -9.748  1.00  0.00     0.041 C 
ATOM     23  O   UNL     1       4.270  -9.505  -8.492  1.00  0.00    -0.550 OA
ATOM     24  O   UNL     1       3.234  -9.164 -10.507  1.00  0.00    -0.550 OA
ENDBRANCH  21  22
ENDBRANCH  20  21
ENDBRANCH  19  20
ENDBRANCH  18  19
ENDBRANCH  17  18
ENDBRANCH  16  17
ENDBRANCH  15  16
ENDBRANCH  14  15
ENDBRANCH  13  14
ENDBRANCH   1  13
TORSDOF 20
ENDMDL
MODEL 7
REMARK VINA RESULT:    -3.700      1.724      4.729
REMARK INTER + INTRA:          -9.625
REMARK INTER:                  -7.841
REMARK INTRA:                  -1.785
REMARK UNBOUND:                -1.600
REMARK SMILES CCCCCCCCCCCCCCCCCCCCCC(=O)[O-]
REMARK SMILES IDX 12 1 11 2 10 3 9 4 8 5 7 6 6 7 5 8 4 9 3 10 2 11 1 12 13 13
REMARK SMILES IDX 14 14 15 15 16 16 17 17 18 18 19 19 20 20 21 21 22 22 23 23
REMARK SMILES IDX 24 24
REMARK H PARENT
REMARK Flexibility Score: inf
ROOT
ATOM      1  C   UNL     1       7.745  -9.560  -6.121  1.00  0.00     0.000 C 
ENDROOT
BRANCH   1   2
ATOM      2  C   UNL     1       8.333 -10.555  -7.136  1.00  0.00     0.000 C 
BRANCH   2   3
ATOM      3  C   UNL     1       8.259 -10.048  -8.589  1.00  0.00     0.000 C 
BRANCH   3   4
ATOM      4  C   UNL     1       7.391  -8.795  -8.804  1.00  0.00    -0.000 C 
BRANCH   4   5
ATOM      5  C   UNL     1       8.096  -7.708  -9.628  1.00  0.00    -0.000 C 
BRANCH   5   6
ATOM      6  C   UNL     1       8.900  -6.764  -8.721  1.00  0.00    -0.000 C 
BRANCH   6   7
ATOM      7  C   UNL     1       8.183  -6.448  -7.395  1.00  0.00    -0.000 C 
BRANCH   7   8
ATOM      8  C   UNL     1       7.705  -4.992  -7.248  1.00  0.00    -0.000 C 
BRANCH   8   9
ATOM      9  C   UNL     1       8.836  -4.032  -6.840  1.00  0.00    -0.000 C 
BRANCH   9  10
ATOM     10  C   UNL     1       8.776  -3.647  -5.353  1.00  0.00    -0.000 C 
BRANCH  10  11
ATOM     11  C   UNL     1       9.123  -4.822  -4.426  1.00  0.00    -0.003 C 
ATOM     12  C   UNL     1       7.937  -5.191  -3.540  1.00  0.00     0.004 C 
ENDBRANCH  10  11
ENDBRANCH   9  10
ENDBRANCH   8   9
ENDBRANCH   7   8
ENDBRANCH   6   7
ENDBRANCH   5   6
ENDBRANCH   4   5
ENDBRANCH   3   4
ENDBRANCH   2   3
ENDBRANCH   1   2
BRANCH   1  13
ATOM     13  C   UNL     1       8.803  -8.992  -5.155  1.00  0.00     0.000 C 
BRANCH  13  14
ATOM     14  C   UNL     1       8.687  -9.466  -3.694  1.00  0.00     0.000 C 
BRANCH  14  15
ATOM     15  C   UNL     1       7.446  -8.905  -2.977  1.00  0.00     0.000 C 
BRANCH  15  16
ATOM     16  C   UNL     1       7.762  -8.382  -1.567  1.00  0.00     0.000 C 
BRANCH  16  17
ATOM     17  C   UNL     1       8.955  -9.099  -0.917  1.00  0.00     0.000 C 
BRANCH  17  18
ATOM     18  C   UNL     1       8.490  -9.999   0.239  1.00  0.00     0.000 C 
BRANCH  18  19
ATOM     19  C   UNL     1       7.151  -9.550   0.849  1.00  0.00     0.000 C 
BRANCH  19  20
ATOM     20  C   UNL     1       6.957  -9.913   2.335  1.00  0.00     0.006 C 
BRANCH  20  21
ATOM     21  C   UNL     1       5.807 -10.895   2.607  1.00  0.00     0.053 C 
BRANCH  21  22
ATOM     22  C   UNL     1       4.869 -10.384   3.657  1.00  0.00     0.041 C 
ATOM     23  O   UNL     1       5.207  -9.418   4.392  1.00  0.00    -0.550 OA
ATOM     24  O   UNL     1       3.632 -10.990   3.841  1.00  0.00    -0.550 OA
ENDBRANCH  21  22
ENDBRANCH  20  21
ENDBRANCH  19  20
ENDBRANCH  18  19
ENDBRANCH  17  18
ENDBRANCH  16  17
ENDBRANCH  15  16
ENDBRANCH  14  15
ENDBRANCH  13  14
ENDBRANCH   1  13
TORSDOF 20
ENDMDL
MODEL 8
REMARK VINA RESULT:    -3.602      3.687      9.586
REMARK INTER + INTRA:          -9.412
REMARK INTER:                  -8.248
REMARK INTRA:                  -1.164
REMARK UNBOUND:                -1.600
REMARK SMILES CCCCCCCCCCCCCCCCCCCCCC(=O)[O-]
REMARK SMILES IDX 12 1 11 2 10 3 9 4 8 5 7 6 6 7 5 8 4 9 3 10 2 11 1 12 13 13
REMARK SMILES IDX 14 14 15 15 16 16 17 17 18 18 19 19 20 20 21 21 22 22 23 23
REMARK SMILES IDX 24 24
REMARK H PARENT
REMARK Flexibility Score: inf
ROOT
ATOM      1  C   UNL     1       8.853  -7.009  -3.958  1.00  0.00     0.000 C 
ENDROOT
BRANCH   1   2
ATOM      2  C   UNL     1       8.110  -8.266  -3.476  1.00  0.00     0.000 C 
BRANCH   2   3
ATOM      3  C   UNL     1       8.066  -8.388  -1.941  1.00  0.00     0.000 C 
BRANCH   3   4
ATOM      4  C   UNL     1       7.687  -9.781  -1.403  1.00  0.00    -0.000 C 
BRANCH   4   5
ATOM      5  C   UNL     1       8.744 -10.370  -0.459  1.00  0.00    -0.000 C 
BRANCH   5   6
ATOM      6  C   UNL     1       8.580  -9.818   0.965  1.00  0.00    -0.000 C 
BRANCH   6   7
ATOM      7  C   UNL     1       8.301 -10.917   2.008  1.00  0.00    -0.000 C 
BRANCH   7   8
ATOM      8  C   UNL     1       6.823 -11.072   2.406  1.00  0.00    -0.000 C 
BRANCH   8   9
ATOM      9  C   UNL     1       6.607 -11.025   3.929  1.00  0.00    -0.000 C 
BRANCH   9  10
ATOM     10  C   UNL     1       5.565  -9.974   4.345  1.00  0.00    -0.000 C 
BRANCH  10  11
ATOM     11  C   UNL     1       4.165 -10.281   3.794  1.00  0.00    -0.003 C 
ATOM     12  C   UNL     1       3.152  -9.237   4.253  1.00  0.00     0.004 C 
ENDBRANCH  10  11
ENDBRANCH   9  10
ENDBRANCH   8   9
ENDBRANCH   7   8
ENDBRANCH   6   7
ENDBRANCH   5   6
ENDBRANCH   4   5
ENDBRANCH   3   4
ENDBRANCH   2   3
ENDBRANCH   1   2
BRANCH   1  13
ATOM     13  C   UNL     1       7.995  -5.732  -3.870  1.00  0.00     0.000 C 
BRANCH  13  14
ATOM     14  C   UNL     1       8.744  -4.412  -4.128  1.00  0.00     0.000 C 
BRANCH  14  15
ATOM     15  C   UNL     1       7.993  -3.472  -5.087  1.00  0.00     0.000 C 
BRANCH  15  16
ATOM     16  C   UNL     1       7.623  -4.153  -6.415  1.00  0.00     0.000 C 
BRANCH  16  17
ATOM     17  C   UNL     1       8.851  -4.489  -7.276  1.00  0.00     0.000 C 
BRANCH  17  18
ATOM     18  C   UNL     1       9.122  -6.002  -7.277  1.00  0.00     0.000 C 
BRANCH  18  19
ATOM     19  C   UNL     1       7.899  -6.832  -7.706  1.00  0.00     0.000 C 
BRANCH  19  20
ATOM     20  C   UNL     1       7.702  -6.960  -9.230  1.00  0.00     0.006 C 
BRANCH  20  21
ATOM     21  C   UNL     1       8.543  -8.063  -9.891  1.00  0.00     0.053 C 
BRANCH  21  22
ATOM     22  C   UNL     1       7.977  -9.427  -9.640  1.00  0.00     0.041 C 
ATOM     23  O   UNL     1       8.071  -9.951  -8.498  1.00  0.00    -0.550 OA
ATOM     24  O   UNL     1       7.369 -10.131 -10.672  1.00  0.00    -0.550 OA
ENDBRANCH  21  22
ENDBRANCH  20  21
ENDBRANCH  19  20
ENDBRANCH  18  19
ENDBRANCH  17  18
ENDBRANCH  16  17
ENDBRANCH  15  16
ENDBRANCH  14  15
ENDBRANCH  13  14
ENDBRANCH   1  13
TORSDOF 20
ENDMDL
MODEL 9
REMARK VINA RESULT:    -3.460      4.615      7.429
REMARK INTER + INTRA:          -9.106
REMARK INTER:                  -8.299
REMARK INTRA:                  -0.807
REMARK UNBOUND:                -1.600
REMARK SMILES CCCCCCCCCCCCCCCCCCCCCC(=O)[O-]
REMARK SMILES IDX 12 1 11 2 10 3 9 4 8 5 7 6 6 7 5 8 4 9 3 10 2 11 1 12 13 13
REMARK SMILES IDX 14 14 15 15 16 16 17 17 18 18 19 19 20 20 21 21 22 22 23 23
REMARK SMILES IDX 24 24
REMARK H PARENT
REMARK Flexibility Score: inf
ROOT
ATOM      1  C   UNL     1       6.656  -8.696  -8.673  1.00  0.00     0.000 C 
ENDROOT
BRANCH   1   2
ATOM      2  C   UNL     1       6.572  -8.572 -10.204  1.00  0.00     0.000 C 
BRANCH   2   3
ATOM      3  C   UNL     1       5.725  -9.683 -10.853  1.00  0.00     0.000 C 
BRANCH   3   4
ATOM      4  C   UNL     1       4.403 -10.008 -10.132  1.00  0.00    -0.000 C 
BRANCH   4   5
ATOM      5  C   UNL     1       3.263 -10.364 -11.097  1.00  0.00    -0.000 C 
BRANCH   5   6
ATOM      6  C   UNL     1       2.374  -9.143 -11.375  1.00  0.00    -0.000 C 
BRANCH   6   7
ATOM      7  C   UNL     1       1.078  -9.501 -12.125  1.00  0.00    -0.000 C 
BRANCH   7   8
ATOM      8  C   UNL     1      -0.138  -8.627 -11.770  1.00  0.00    -0.000 C 
BRANCH   8   9
ATOM      9  C   UNL     1      -1.421  -9.448 -11.554  1.00  0.00    -0.000 C 
BRANCH   9  10
ATOM     10  C   UNL     1      -2.674  -8.566 -11.436  1.00  0.00    -0.000 C 
BRANCH  10  11
ATOM     11  C   UNL     1      -3.921  -9.364 -11.028  1.00  0.00    -0.003 C 
ATOM     12  C   UNL     1      -5.198  -8.613 -11.395  1.00  0.00     0.004 C 
ENDBRANCH  10  11
ENDBRANCH   9  10
ENDBRANCH   8   9
ENDBRANCH   7   8
ENDBRANCH   6   7
ENDBRANCH   5   6
ENDBRANCH   4   5
ENDBRANCH   3   4
ENDBRANCH   2   3
ENDBRANCH   1   2
BRANCH   1  13
ATOM     13  C   UNL     1       8.002  -8.208  -8.104  1.00  0.00     0.000 C 
BRANCH  13  14
ATOM     14  C   UNL     1       8.637  -9.115  -7.035  1.00  0.00     0.000 C 
BRANCH  14  15
ATOM     15  C   UNL     1       7.631  -9.584  -5.969  1.00  0.00     0.000 C 
BRANCH  15  16
ATOM     16  C   UNL     1       8.295  -9.866  -4.611  1.00  0.00     0.000 C 
BRANCH  16  17
ATOM     17  C   UNL     1       8.050  -8.749  -3.584  1.00  0.00     0.000 C 
BRANCH  17  18
ATOM     18  C   UNL     1       8.249  -7.365  -4.221  1.00  0.00     0.000 C 
BRANCH  18  19
ATOM     19  C   UNL     1       8.306  -6.229  -3.185  1.00  0.00     0.000 C 
BRANCH  19  20
ATOM     20  C   UNL     1       8.549  -4.824  -3.772  1.00  0.00     0.006 C 
BRANCH  20  21
ATOM     21  C   UNL     1       7.402  -4.289  -4.642  1.00  0.00     0.053 C 
BRANCH  21  22
ATOM     22  C   UNL     1       7.843  -4.013  -6.046  1.00  0.00     0.041 C 
ATOM     23  O   UNL     1       8.504  -4.876  -6.683  1.00  0.00    -0.550 OA
ATOM     24  O   UNL     1       7.549  -2.793  -6.643  1.00  0.00    -0.550 OA
ENDBRANCH  21  22
ENDBRANCH  20  21
ENDBRANCH  19  20
ENDBRANCH  18  19
ENDBRANCH  17  18
ENDBRANCH  16  17
ENDBRANCH  15  16
ENDBRANCH  14  15
ENDBRANCH  13  14
ENDBRANCH   1  13
TORSDOF 20
ENDMDL
