MODEL 1
REMARK VINA RESULT:    -7.859      0.000      0.000
REMARK INTER + INTRA:          -8.998
REMARK INTER:                  -9.467
REMARK INTRA:                   0.469
REMARK UNBOUND:                 0.469
REMARK SMILES O=c1c(O)c(-c2ccc(O)c(O)c2)oc2cc(O)cc(O)c12
REMARK SMILES IDX 5 1 3 2 2 3 1 4 22 5 20 6 19 7 17 8 16 9 15 10 14 11 6 12
REMARK SMILES IDX 7 13 8 14 9 15 13 16 11 17 10 18 12 20 4 22 21 24 18 26
REMARK H PARENT 10 19 12 21 4 23 21 25 18 27
REMARK Flexibility Score: inf
ROOT
ATOM      1  C   UNL     1      18.168  22.744  40.030  1.00  0.00     0.180 A 
ATOM      2  C   UNL     1      17.991  23.881  39.223  1.00  0.00     0.208 A 
ATOM      3  C   UNL     1      16.862  24.691  39.424  1.00  0.00     0.238 A 
ATOM      4  O   UNL     1      16.737  25.737  38.736  1.00  0.00    -0.285 OA
ATOM      5  C   UNL     1      15.916  24.345  40.420  1.00  0.00     0.111 A 
ATOM      6  C   UNL     1      14.715  25.070  40.684  1.00  0.00     0.134 A 
ATOM      7  C   UNL     1      13.918  24.713  41.779  1.00  0.00     0.093 A 
ATOM      8  C   UNL     1      14.243  23.616  42.577  1.00  0.00     0.123 A 
ATOM      9  C   UNL     1      15.383  22.864  42.292  1.00  0.00     0.094 A 
ATOM     10  C   UNL     1      16.217  23.218  41.229  1.00  0.00     0.146 A 
ATOM     11  O   UNL     1      17.297  22.482  40.998  1.00  0.00    -0.452 OA
ENDROOT
BRANCH   1  12
ATOM     12  C   UNL     1      19.319  21.829  39.859  1.00  0.00     0.025 A 
ATOM     13  C   UNL     1      19.316  20.536  40.414  1.00  0.00     0.016 A 
ATOM     14  C   UNL     1      20.424  19.699  40.261  1.00  0.00     0.051 A 
ATOM     15  C   UNL     1      21.555  20.144  39.564  1.00  0.00     0.157 A 
ATOM     16  C   UNL     1      20.464  22.278  39.181  1.00  0.00     0.062 A 
ATOM     17  C   UNL     1      21.576  21.437  39.025  1.00  0.00     0.158 A 
BRANCH  15  18
ATOM     18  O   UNL     1      22.662  19.312  39.408  1.00  0.00    -0.504 OA
ATOM     19  H   UNL     1      22.628  18.491  38.815  1.00  0.00     0.293 HD
ENDBRANCH  15  18
BRANCH  17  20
ATOM     20  O   UNL     1      22.706  21.881  38.340  1.00  0.00    -0.504 OA
ATOM     21  H   UNL     1      22.920  21.557  37.404  1.00  0.00     0.293 HD
ENDBRANCH  17  20
ENDBRANCH   1  12
BRANCH   2  22
ATOM     22  O   UNL     1      18.948  24.216  38.261  1.00  0.00    -0.502 OA
ATOM     23  H   UNL     1      18.723  24.758  37.435  1.00  0.00     0.293 HD
ENDBRANCH   2  22
BRANCH   6  24
ATOM     24  O   UNL     1      14.250  26.125  39.892  1.00  0.00    -0.507 OA
ATOM     25  H   UNL     1      13.979  27.030  40.242  1.00  0.00     0.293 HD
ENDBRANCH   6  24
BRANCH   8  26
ATOM     26  O   UNL     1      13.419  23.279  43.649  1.00  0.00    -0.508 OA
ATOM     27  H   UNL     1      13.667  23.513  44.602  1.00  0.00     0.293 HD
ENDBRANCH   8  26
TORSDOF 6
ENDMDL
MODEL 2
REMARK VINA RESULT:    -7.672      1.873      7.163
REMARK INTER + INTRA:          -8.773
REMARK INTER:                  -9.217
REMARK INTRA:                   0.444
REMARK UNBOUND:                 0.469
REMARK SMILES O=c1c(O)c(-c2ccc(O)c(O)c2)oc2cc(O)cc(O)c12
REMARK SMILES IDX 5 1 3 2 2 3 1 4 22 5 20 6 19 7 17 8 16 9 15 10 14 11 6 12
REMARK SMILES IDX 7 13 8 14 9 15 13 16 11 17 10 18 12 20 4 22 21 24 18 26
REMARK H PARENT 10 19 12 21 4 23 21 25 18 27
REMARK Flexibility Score: inf
ROOT
ATOM      1  C   UNL     1      14.966  23.801  41.873  1.00  0.00     0.180 A 
ATOM      2  C   UNL     1      15.080  24.767  40.858  1.00  0.00     0.208 A 
ATOM      3  C   UNL     1      16.109  24.644  39.912  1.00  0.00     0.238 A 
ATOM      4  O   UNL     1      16.172  25.481  38.974  1.00  0.00    -0.285 OA
ATOM      5  C   UNL     1      17.021  23.565  39.999  1.00  0.00     0.111 A 
ATOM      6  C   UNL     1      18.126  23.362  39.119  1.00  0.00     0.134 A 
ATOM      7  C   UNL     1      18.885  22.190  39.219  1.00  0.00     0.093 A 
ATOM      8  C   UNL     1      18.622  21.245  40.211  1.00  0.00     0.123 A 
ATOM      9  C   UNL     1      17.582  21.460  41.115  1.00  0.00     0.094 A 
ATOM     10  C   UNL     1      16.784  22.603  41.017  1.00  0.00     0.146 A 
ATOM     11  O   UNL     1      15.797  22.765  41.891  1.00  0.00    -0.452 OA
ENDROOT
BRANCH   1  12
ATOM     12  C   UNL     1      13.924  23.878  42.921  1.00  0.00     0.025 A 
ATOM     13  C   UNL     1      12.849  24.779  42.820  1.00  0.00     0.016 A 
ATOM     14  C   UNL     1      11.890  24.851  43.833  1.00  0.00     0.051 A 
ATOM     15  C   UNL     1      11.997  24.035  44.968  1.00  0.00     0.157 A 
ATOM     16  C   UNL     1      14.039  23.078  44.071  1.00  0.00     0.062 A 
ATOM     17  C   UNL     1      13.076  23.149  45.088  1.00  0.00     0.158 A 
BRANCH  15  18
ATOM     18  O   UNL     1      11.043  24.103  45.980  1.00  0.00    -0.504 OA
ATOM     19  H   UNL     1      11.178  23.634  46.869  1.00  0.00     0.293 HD
ENDBRANCH  15  18
BRANCH  17  20
ATOM     20  O   UNL     1      13.186  22.345  46.221  1.00  0.00    -0.504 OA
ATOM     21  H   UNL     1      13.730  22.634  47.026  1.00  0.00     0.293 HD
ENDBRANCH  17  20
ENDBRANCH   1  12
BRANCH   2  22
ATOM     22  O   UNL     1      14.155  25.812  40.777  1.00  0.00    -0.502 OA
ATOM     23  H   UNL     1      14.272  26.683  41.281  1.00  0.00     0.293 HD
ENDBRANCH   2  22
BRANCH   6  24
ATOM     24  O   UNL     1      18.533  24.288  38.152  1.00  0.00    -0.507 OA
ATOM     25  H   UNL     1      18.204  24.306  37.200  1.00  0.00     0.293 HD
ENDBRANCH   6  24
BRANCH   8  26
ATOM     26  O   UNL     1      19.408  20.098  40.292  1.00  0.00    -0.508 OA
ATOM     27  H   UNL     1      20.114  19.989  41.010  1.00  0.00     0.293 HD
ENDBRANCH   8  26
TORSDOF 6
ENDMDL
MODEL 3
REMARK VINA RESULT:    -7.505      2.103      3.655
REMARK INTER + INTRA:          -8.571
REMARK INTER:                  -8.575
REMARK INTRA:                   0.003
REMARK UNBOUND:                 0.469
REMARK SMILES O=c1c(O)c(-c2ccc(O)c(O)c2)oc2cc(O)cc(O)c12
REMARK SMILES IDX 5 1 3 2 2 3 1 4 22 5 20 6 19 7 17 8 16 9 15 10 14 11 6 12
REMARK SMILES IDX 7 13 8 14 9 15 13 16 11 17 10 18 12 20 4 22 21 24 18 26
REMARK H PARENT 10 19 12 21 4 23 21 25 18 27
REMARK Flexibility Score: inf
ROOT
ATOM      1  C   UNL     1      15.620  23.382  41.352  1.00  0.00     0.180 A 
ATOM      2  C   UNL     1      14.946  24.544  40.938  1.00  0.00     0.208 A 
ATOM      3  C   UNL     1      13.912  25.053  41.739  1.00  0.00     0.238 A 
ATOM      4  O   UNL     1      13.350  26.125  41.391  1.00  0.00    -0.285 OA
ATOM      5  C   UNL     1      13.553  24.387  42.935  1.00  0.00     0.111 A 
ATOM      6  C   UNL     1      12.494  24.790  43.803  1.00  0.00     0.134 A 
ATOM      7  C   UNL     1      12.313  24.132  45.025  1.00  0.00     0.093 A 
ATOM      8  C   UNL     1      13.108  23.042  45.380  1.00  0.00     0.123 A 
ATOM      9  C   UNL     1      14.108  22.601  44.513  1.00  0.00     0.094 A 
ATOM     10  C   UNL     1      14.336  23.260  43.303  1.00  0.00     0.146 A 
ATOM     11  O   UNL     1      15.304  22.816  42.510  1.00  0.00    -0.452 OA
ENDROOT
BRANCH   1  12
ATOM     12  C   UNL     1      16.704  22.771  40.548  1.00  0.00     0.025 A 
ATOM     13  C   UNL     1      17.788  23.535  40.081  1.00  0.00     0.016 A 
ATOM     14  C   UNL     1      18.787  22.942  39.304  1.00  0.00     0.051 A 
ATOM     15  C   UNL     1      18.709  21.583  38.970  1.00  0.00     0.157 A 
ATOM     16  C   UNL     1      16.620  21.415  40.193  1.00  0.00     0.062 A 
ATOM     17  C   UNL     1      17.622  20.819  39.413  1.00  0.00     0.158 A 
BRANCH  15  18
ATOM     18  O   UNL     1      19.703  20.987  38.197  1.00  0.00    -0.504 OA
ATOM     19  H   UNL     1      19.504  20.196  37.595  1.00  0.00     0.293 HD
ENDBRANCH  15  18
BRANCH  17  20
ATOM     20  O   UNL     1      17.543  19.469  39.073  1.00  0.00    -0.504 OA
ATOM     21  H   UNL     1      17.744  18.740  39.748  1.00  0.00     0.293 HD
ENDBRANCH  17  20
ENDBRANCH   1  12
BRANCH   2  22
ATOM     22  O   UNL     1      15.332  25.200  39.765  1.00  0.00    -0.502 OA
ATOM     23  H   UNL     1      15.987  25.973  39.764  1.00  0.00     0.293 HD
ENDBRANCH   2  22
BRANCH   6  24
ATOM     24  O   UNL     1      11.583  25.807  43.501  1.00  0.00    -0.507 OA
ATOM     25  H   UNL     1      10.986  25.820  42.689  1.00  0.00     0.293 HD
ENDBRANCH   6  24
BRANCH   8  26
ATOM     26  O   UNL     1      12.889  22.400  46.597  1.00  0.00    -0.508 OA
ATOM     27  H   UNL     1      12.182  22.723  47.247  1.00  0.00     0.293 HD
ENDBRANCH   8  26
TORSDOF 6
ENDMDL
MODEL 4
REMARK VINA RESULT:    -7.492      1.195      6.815
REMARK INTER + INTRA:          -8.556
REMARK INTER:                  -8.965
REMARK INTRA:                   0.409
REMARK UNBOUND:                 0.469
REMARK SMILES O=c1c(O)c(-c2ccc(O)c(O)c2)oc2cc(O)cc(O)c12
REMARK SMILES IDX 5 1 3 2 2 3 1 4 22 5 20 6 19 7 17 8 16 9 15 10 14 11 6 12
REMARK SMILES IDX 7 13 8 14 9 15 13 16 11 17 10 18 12 20 4 22 21 24 18 26
REMARK H PARENT 10 19 12 21 4 23 21 25 18 27
REMARK Flexibility Score: inf
ROOT
ATOM      1  C   UNL     1      16.384  23.323  40.947  1.00  0.00     0.180 A 
ATOM      2  C   UNL     1      16.851  24.188  39.942  1.00  0.00     0.208 A 
ATOM      3  C   UNL     1      18.023  23.853  39.245  1.00  0.00     0.238 A 
ATOM      4  O   UNL     1      18.405  24.603  38.310  1.00  0.00    -0.285 OA
ATOM      5  C   UNL     1      18.723  22.667  39.573  1.00  0.00     0.111 A 
ATOM      6  C   UNL     1      19.943  22.249  38.960  1.00  0.00     0.134 A 
ATOM      7  C   UNL     1      20.478  20.993  39.271  1.00  0.00     0.093 A 
ATOM      8  C   UNL     1      19.874  20.169  40.221  1.00  0.00     0.123 A 
ATOM      9  C   UNL     1      18.714  20.592  40.870  1.00  0.00     0.094 A 
ATOM     10  C   UNL     1      18.137  21.824  40.554  1.00  0.00     0.146 A 
ATOM     11  O   UNL     1      17.027  22.186  41.187  1.00  0.00    -0.452 OA
ENDROOT
BRANCH   1  12
ATOM     12  C   UNL     1      15.171  23.621  41.742  1.00  0.00     0.025 A 
ATOM     13  C   UNL     1      14.228  24.571  41.310  1.00  0.00     0.016 A 
ATOM     14  C   UNL     1      13.103  24.853  42.088  1.00  0.00     0.051 A 
ATOM     15  C   UNL     1      12.910  24.202  43.314  1.00  0.00     0.157 A 
ATOM     16  C   UNL     1      14.984  22.988  42.982  1.00  0.00     0.062 A 
ATOM     17  C   UNL     1      13.854  23.270  43.763  1.00  0.00     0.158 A 
BRANCH  15  18
ATOM     18  O   UNL     1      11.789  24.480  44.093  1.00  0.00    -0.504 OA
ATOM     19  H   UNL     1      11.642  24.032  44.991  1.00  0.00     0.293 HD
ENDBRANCH  15  18
BRANCH  17  20
ATOM     20  O   UNL     1      13.665  22.630  44.987  1.00  0.00    -0.504 OA
ATOM     21  H   UNL     1      13.069  21.815  45.073  1.00  0.00     0.293 HD
ENDBRANCH  17  20
ENDBRANCH   1  12
BRANCH   2  22
ATOM     22  O   UNL     1      16.133  25.342  39.619  1.00  0.00    -0.502 OA
ATOM     23  H   UNL     1      15.465  25.373  38.858  1.00  0.00     0.293 HD
ENDBRANCH   2  22
BRANCH   6  24
ATOM     24  O   UNL     1      20.676  23.036  38.067  1.00  0.00    -0.507 OA
ATOM     25  H   UNL     1      20.381  23.271  37.132  1.00  0.00     0.293 HD
ENDBRANCH   6  24
BRANCH   8  26
ATOM     26  O   UNL     1      20.443  18.932  40.518  1.00  0.00    -0.508 OA
ATOM     27  H   UNL     1      20.301  18.485  41.415  1.00  0.00     0.293 HD
ENDBRANCH   8  26
TORSDOF 6
ENDMDL
MODEL 5
REMARK VINA RESULT:    -6.728      2.039      7.005
REMARK INTER + INTRA:          -7.635
REMARK INTER:                  -7.328
REMARK INTRA:                  -0.308
REMARK UNBOUND:                 0.469
REMARK SMILES O=c1c(O)c(-c2ccc(O)c(O)c2)oc2cc(O)cc(O)c12
REMARK SMILES IDX 5 1 3 2 2 3 1 4 22 5 20 6 19 7 17 8 16 9 15 10 14 11 6 12
REMARK SMILES IDX 7 13 8 14 9 15 13 16 11 17 10 18 12 20 4 22 21 24 18 26
REMARK H PARENT 10 19 12 21 4 23 21 25 18 27
REMARK Flexibility Score: inf
ROOT
ATOM      1  C   UNL     1      16.880  22.791  40.696  1.00  0.00     0.180 A 
ATOM      2  C   UNL     1      16.891  21.624  39.912  1.00  0.00     0.208 A 
ATOM      3  C   UNL     1      18.057  21.289  39.205  1.00  0.00     0.238 A 
ATOM      4  O   UNL     1      18.078  20.215  38.549  1.00  0.00    -0.285 OA
ATOM      5  C   UNL     1      19.191  22.133  39.277  1.00  0.00     0.111 A 
ATOM      6  C   UNL     1      20.412  21.913  38.570  1.00  0.00     0.134 A 
ATOM      7  C   UNL     1      21.513  22.741  38.818  1.00  0.00     0.093 A 
ATOM      8  C   UNL     1      21.418  23.821  39.696  1.00  0.00     0.123 A 
ATOM      9  C   UNL     1      20.213  24.081  40.347  1.00  0.00     0.094 A 
ATOM     10  C   UNL     1      19.107  23.251  40.148  1.00  0.00     0.146 A 
ATOM     11  O   UNL     1      17.981  23.527  40.795  1.00  0.00    -0.452 OA
ENDROOT
BRANCH   1  12
ATOM     12  C   UNL     1      15.681  23.223  41.449  1.00  0.00     0.025 A 
ATOM     13  C   UNL     1      14.808  24.200  40.939  1.00  0.00     0.016 A 
ATOM     14  C   UNL     1      13.696  24.609  41.678  1.00  0.00     0.051 A 
ATOM     15  C   UNL     1      13.446  24.059  42.943  1.00  0.00     0.157 A 
ATOM     16  C   UNL     1      15.438  22.690  42.726  1.00  0.00     0.062 A 
ATOM     17  C   UNL     1      14.321  23.100  43.469  1.00  0.00     0.158 A 
BRANCH  15  18
ATOM     18  O   UNL     1      12.337  24.463  43.683  1.00  0.00    -0.504 OA
ATOM     19  H   UNL     1      12.438  24.926  44.579  1.00  0.00     0.293 HD
ENDBRANCH  15  18
BRANCH  17  20
ATOM     20  O   UNL     1      14.075  22.559  44.730  1.00  0.00    -0.504 OA
ATOM     21  H   UNL     1      14.806  22.490  45.429  1.00  0.00     0.293 HD
ENDBRANCH  17  20
ENDBRANCH   1  12
BRANCH   2  22
ATOM     22  O   UNL     1      15.768  20.793  39.873  1.00  0.00    -0.502 OA
ATOM     23  H   UNL     1      15.402  20.333  40.698  1.00  0.00     0.293 HD
ENDBRANCH   2  22
BRANCH   6  24
ATOM     24  O   UNL     1      20.584  20.918  37.602  1.00  0.00    -0.507 OA
ATOM     25  H   UNL     1      21.477  20.610  37.248  1.00  0.00     0.293 HD
ENDBRANCH   6  24
BRANCH   8  26
ATOM     26  O   UNL     1      22.530  24.634  39.906  1.00  0.00    -0.508 OA
ATOM     27  H   UNL     1      22.671  25.486  39.377  1.00  0.00     0.293 HD
ENDBRANCH   8  26
TORSDOF 6
ENDMDL
MODEL 6
REMARK VINA RESULT:    -5.859     16.801     18.740
REMARK INTER + INTRA:          -6.588
REMARK INTER:                  -7.142
REMARK INTRA:                   0.554
REMARK UNBOUND:                 0.469
REMARK SMILES O=c1c(O)c(-c2ccc(O)c(O)c2)oc2cc(O)cc(O)c12
REMARK SMILES IDX 5 1 3 2 2 3 1 4 22 5 20 6 19 7 17 8 16 9 15 10 14 11 6 12
REMARK SMILES IDX 7 13 8 14 9 15 13 16 11 17 10 18 12 20 4 22 21 24 18 26
REMARK H PARENT 10 19 12 21 4 23 21 25 18 27
REMARK Flexibility Score: inf
ROOT
ATOM      1  C   UNL     1      31.007  10.677  41.417  1.00  0.00     0.180 A 
ATOM      2  C   UNL     1      30.933  12.071  41.249  1.00  0.00     0.208 A 
ATOM      3  C   UNL     1      30.911  12.601  39.949  1.00  0.00     0.238 A 
ATOM      4  O   UNL     1      30.789  13.845  39.805  1.00  0.00    -0.285 OA
ATOM      5  C   UNL     1      30.979  11.732  38.833  1.00  0.00     0.111 A 
ATOM      6  C   UNL     1      31.004  12.160  37.472  1.00  0.00     0.134 A 
ATOM      7  C   UNL     1      30.941  11.209  36.446  1.00  0.00     0.093 A 
ATOM      8  C   UNL     1      30.921   9.844  36.731  1.00  0.00     0.123 A 
ATOM      9  C   UNL     1      30.956   9.412  38.057  1.00  0.00     0.094 A 
ATOM     10  C   UNL     1      30.982  10.338  39.103  1.00  0.00     0.146 A 
ATOM     11  O   UNL     1      31.004   9.886  40.351  1.00  0.00    -0.452 OA
ENDROOT
BRANCH   1  12
ATOM     12  C   UNL     1      31.060  10.047  42.755  1.00  0.00     0.025 A 
ATOM     13  C   UNL     1      31.095   8.649  42.906  1.00  0.00     0.016 A 
ATOM     14  C   UNL     1      31.121   8.076  44.180  1.00  0.00     0.051 A 
ATOM     15  C   UNL     1      31.098   8.890  45.321  1.00  0.00     0.157 A 
ATOM     16  C   UNL     1      31.016  10.856  43.903  1.00  0.00     0.062 A 
ATOM     17  C   UNL     1      31.043  10.282  45.182  1.00  0.00     0.158 A 
BRANCH  15  18
ATOM     18  O   UNL     1      31.125   8.322  46.593  1.00  0.00    -0.504 OA
ATOM     19  H   UNL     1      30.519   7.549  46.842  1.00  0.00     0.293 HD
ENDBRANCH  15  18
BRANCH  17  20
ATOM     20  O   UNL     1      31.012  11.089  46.318  1.00  0.00    -0.504 OA
ATOM     21  H   UNL     1      30.241  11.051  46.975  1.00  0.00     0.293 HD
ENDBRANCH  17  20
ENDBRANCH   1  12
BRANCH   2  22
ATOM     22  O   UNL     1      30.844  12.909  42.364  1.00  0.00    -0.502 OA
ATOM     23  H   UNL     1      31.582  13.553  42.621  1.00  0.00     0.293 HD
ENDBRANCH   2  22
BRANCH   6  24
ATOM     24  O   UNL     1      31.118  13.497  37.077  1.00  0.00    -0.507 OA
ATOM     25  H   UNL     1      30.476  13.970  36.459  1.00  0.00     0.293 HD
ENDBRANCH   6  24
BRANCH   8  26
ATOM     26  O   UNL     1      30.874   8.925  35.685  1.00  0.00    -0.508 OA
ATOM     27  H   UNL     1      30.979   9.215  34.720  1.00  0.00     0.293 HD
ENDBRANCH   8  26
TORSDOF 6
ENDMDL
MODEL 7
REMARK VINA RESULT:    -5.707      1.373      7.403
REMARK INTER + INTRA:          -6.405
REMARK INTER:                  -6.960
REMARK INTRA:                   0.554
REMARK UNBOUND:                 0.469
REMARK SMILES O=c1c(O)c(-c2ccc(O)c(O)c2)oc2cc(O)cc(O)c12
REMARK SMILES IDX 5 1 3 2 2 3 1 4 22 5 20 6 19 7 17 8 16 9 15 10 14 11 6 12
REMARK SMILES IDX 7 13 8 14 9 15 13 16 11 17 10 18 12 20 4 22 21 24 18 26
REMARK H PARENT 10 19 12 21 4 23 21 25 18 27
REMARK Flexibility Score: inf
ROOT
ATOM      1  C   UNL     1      18.121  22.347  40.106  1.00  0.00     0.180 A 
ATOM      2  C   UNL     1      18.137  21.212  40.934  1.00  0.00     0.208 A 
ATOM      3  C   UNL     1      19.208  20.309  40.832  1.00  0.00     0.238 A 
ATOM      4  O   UNL     1      19.244  19.324  41.615  1.00  0.00    -0.285 OA
ATOM      5  C   UNL     1      20.241  20.545  39.894  1.00  0.00     0.111 A 
ATOM      6  C   UNL     1      21.353  19.677  39.677  1.00  0.00     0.134 A 
ATOM      7  C   UNL     1      22.383  20.075  38.815  1.00  0.00     0.093 A 
ATOM      8  C   UNL     1      22.308  21.277  38.112  1.00  0.00     0.123 A 
ATOM      9  C   UNL     1      21.198  22.106  38.271  1.00  0.00     0.094 A 
ATOM     10  C   UNL     1      20.172  21.753  39.151  1.00  0.00     0.146 A 
ATOM     11  O   UNL     1      19.137  22.574  39.281  1.00  0.00    -0.452 OA
ENDROOT
BRANCH   1  12
ATOM     12  C   UNL     1      17.014  23.330  40.138  1.00  0.00     0.025 A 
ATOM     13  C   UNL     1      17.014  24.461  39.302  1.00  0.00     0.016 A 
ATOM     14  C   UNL     1      15.970  25.387  39.366  1.00  0.00     0.051 A 
ATOM     15  C   UNL     1      14.918  25.204  40.275  1.00  0.00     0.157 A 
ATOM     16  C   UNL     1      15.969  23.164  41.062  1.00  0.00     0.062 A 
ATOM     17  C   UNL     1      14.920  24.092  41.126  1.00  0.00     0.158 A 
BRANCH  15  18
ATOM     18  O   UNL     1      13.875  26.125  40.342  1.00  0.00    -0.504 OA
ATOM     19  H   UNL     1      13.471  26.405  41.229  1.00  0.00     0.293 HD
ENDBRANCH  15  18
BRANCH  17  20
ATOM     20  O   UNL     1      13.877  23.917  42.035  1.00  0.00    -0.504 OA
ATOM     21  H   UNL     1      13.605  24.652  42.678  1.00  0.00     0.293 HD
ENDBRANCH  17  20
ENDBRANCH   1  12
BRANCH   2  22
ATOM     22  O   UNL     1      17.119  21.010  41.870  1.00  0.00    -0.502 OA
ATOM     23  H   UNL     1      16.614  20.134  41.945  1.00  0.00     0.293 HD
ENDBRANCH   2  22
BRANCH   6  24
ATOM     24  O   UNL     1      21.480  18.412  40.258  1.00  0.00    -0.507 OA
ATOM     25  H   UNL     1      20.949  17.599  39.987  1.00  0.00     0.293 HD
ENDBRANCH   6  24
BRANCH   8  26
ATOM     26  O   UNL     1      23.344  21.634  37.250  1.00  0.00    -0.508 OA
ATOM     27  H   UNL     1      24.206  21.104  37.210  1.00  0.00     0.293 HD
ENDBRANCH   8  26
TORSDOF 6
ENDMDL
MODEL 8
REMARK VINA RESULT:    -5.272     16.834     18.311
REMARK INTER + INTRA:          -5.882
REMARK INTER:                  -6.426
REMARK INTRA:                   0.544
REMARK UNBOUND:                 0.469
REMARK SMILES O=c1c(O)c(-c2ccc(O)c(O)c2)oc2cc(O)cc(O)c12
REMARK SMILES IDX 5 1 3 2 2 3 1 4 22 5 20 6 19 7 17 8 16 9 15 10 14 11 6 12
REMARK SMILES IDX 7 13 8 14 9 15 13 16 11 17 10 18 12 20 4 22 21 24 18 26
REMARK H PARENT 10 19 12 21 4 23 21 25 18 27
REMARK Flexibility Score: inf
ROOT
ATOM      1  C   UNL     1      30.831  10.758  39.766  1.00  0.00     0.180 A 
ATOM      2  C   UNL     1      30.750  12.108  40.152  1.00  0.00     0.208 A 
ATOM      3  C   UNL     1      30.706  12.425  41.518  1.00  0.00     0.238 A 
ATOM      4  O   UNL     1      30.689  13.636  41.858  1.00  0.00    -0.285 OA
ATOM      5  C   UNL     1      30.728  11.388  42.483  1.00  0.00     0.111 A 
ATOM      6  C   UNL     1      30.648  11.591  43.894  1.00  0.00     0.134 A 
ATOM      7  C   UNL     1      30.810  10.502  44.759  1.00  0.00     0.093 A 
ATOM      8  C   UNL     1      30.983   9.210  44.264  1.00  0.00     0.123 A 
ATOM      9  C   UNL     1      31.003   8.991  42.887  1.00  0.00     0.094 A 
ATOM     10  C   UNL     1      30.880  10.062  41.998  1.00  0.00     0.146 A 
ATOM     11  O   UNL     1      30.915   9.813  40.695  1.00  0.00    -0.452 OA
ENDROOT
BRANCH   1  12
ATOM     12  C   UNL     1      30.855  10.345  38.344  1.00  0.00     0.025 A 
ATOM     13  C   UNL     1      31.081   9.008  37.974  1.00  0.00     0.016 A 
ATOM     14  C   UNL     1      31.123   8.646  36.625  1.00  0.00     0.051 A 
ATOM     15  C   UNL     1      30.954   9.615  35.628  1.00  0.00     0.157 A 
ATOM     16  C   UNL     1      30.708  11.316  37.340  1.00  0.00     0.062 A 
ATOM     17  C   UNL     1      30.749  10.953  35.986  1.00  0.00     0.158 A 
BRANCH  15  18
ATOM     18  O   UNL     1      30.994   9.258  34.282  1.00  0.00    -0.504 OA
ATOM     19  H   UNL     1      30.690   9.896  33.555  1.00  0.00     0.293 HD
ENDBRANCH  15  18
BRANCH  17  20
ATOM     20  O   UNL     1      30.589  11.917  34.992  1.00  0.00    -0.504 OA
ATOM     21  H   UNL     1      31.378  12.438  34.626  1.00  0.00     0.293 HD
ENDBRANCH  17  20
ENDBRANCH   1  12
BRANCH   2  22
ATOM     22  O   UNL     1      30.752  13.116  39.184  1.00  0.00    -0.502 OA
ATOM     23  H   UNL     1      31.565  13.324  38.616  1.00  0.00     0.293 HD
ENDBRANCH   2  22
BRANCH   6  24
ATOM     24  O   UNL     1      30.386  12.829  44.490  1.00  0.00    -0.507 OA
ATOM     25  H   UNL     1      30.719  13.715  44.143  1.00  0.00     0.293 HD
ENDBRANCH   6  24
BRANCH   8  26
ATOM     26  O   UNL     1      31.125   8.147  45.155  1.00  0.00    -0.508 OA
ATOM     27  H   UNL     1      30.397   7.453  45.271  1.00  0.00     0.293 HD
ENDBRANCH   8  26
TORSDOF 6
ENDMDL
