MODEL 1
REMARK VINA RESULT:    -4.062      0.000      0.000
REMARK INTER + INTRA:          -5.089
REMARK INTER:                  -4.774
REMARK INTRA:                  -0.315
REMARK UNBOUND:                -0.315
REMARK SMILES O=c1cc(-c2ccc(O)c(O)c2)oc2cc(O)cc(O)c12
REMARK SMILES IDX 4 1 3 2 2 3 1 4 21 5 19 6 18 7 16 8 15 9 14 10 13 11 5 12
REMARK SMILES IDX 6 13 7 14 8 15 12 16 10 17 9 18 11 20 20 22 17 24
REMARK H PARENT 9 19 11 21 20 23 17 25
REMARK Flexibility Score: inf
ROOT
ATOM      1  C   UNL     1      20.040  49.790  88.566  1.00  0.00     0.138 A 
ATOM      2  C   UNL     1      19.487  51.041  88.875  1.00  0.00     0.100 A 
ATOM      3  C   UNL     1      20.277  52.187  88.781  1.00  0.00     0.197 A 
ATOM      4  O   UNL     1      19.771  53.288  89.125  1.00  0.00    -0.289 OA
ATOM      5  C   UNL     1      21.619  52.083  88.345  1.00  0.00     0.107 A 
ATOM      6  C   UNL     1      22.505  53.188  88.172  1.00  0.00     0.134 A 
ATOM      7  C   UNL     1      23.847  52.952  87.847  1.00  0.00     0.093 A 
ATOM      8  C   UNL     1      24.319  51.658  87.629  1.00  0.00     0.123 A 
ATOM      9  C   UNL     1      23.448  50.574  87.743  1.00  0.00     0.094 A 
ATOM     10  C   UNL     1      22.112  50.774  88.100  1.00  0.00     0.146 A 
ATOM     11  O   UNL     1      21.319  49.714  88.211  1.00  0.00    -0.456 OA
ENDROOT
BRANCH   1  12
ATOM     12  C   UNL     1      19.245  48.540  88.648  1.00  0.00     0.021 A 
ATOM     13  C   UNL     1      17.845  48.615  88.754  1.00  0.00     0.016 A 
ATOM     14  C   UNL     1      17.075  47.453  88.840  1.00  0.00     0.051 A 
ATOM     15  C   UNL     1      17.690  46.196  88.833  1.00  0.00     0.157 A 
ATOM     16  C   UNL     1      19.859  47.272  88.654  1.00  0.00     0.062 A 
ATOM     17  C   UNL     1      19.084  46.105  88.743  1.00  0.00     0.158 A 
BRANCH  15  18
ATOM     18  O   UNL     1      16.925  45.034  88.918  1.00  0.00    -0.504 OA
ATOM     19  H   UNL     1      16.896  44.479  89.766  1.00  0.00     0.293 HD
ENDBRANCH  15  18
BRANCH  17  20
ATOM     20  O   UNL     1      19.695  44.852  88.746  1.00  0.00    -0.504 OA
ATOM     21  H   UNL     1      20.089  44.456  89.591  1.00  0.00     0.293 HD
ENDBRANCH  17  20
ENDBRANCH   1  12
BRANCH   6  22
ATOM     22  O   UNL     1      22.117  54.526  88.283  1.00  0.00    -0.507 OA
ATOM     23  H   UNL     1      21.168  54.842  88.413  1.00  0.00     0.293 HD
ENDBRANCH   6  22
BRANCH   8  24
ATOM     24  O   UNL     1      25.657  51.462  87.293  1.00  0.00    -0.508 OA
ATOM     25  H   UNL     1      26.243  52.229  86.984  1.00  0.00     0.293 HD
ENDBRANCH   8  24
TORSDOF 5
ENDMDL
MODEL 2
REMARK VINA RESULT:    -3.918      1.858      6.901
REMARK INTER + INTRA:          -4.921
REMARK INTER:                  -4.641
REMARK INTRA:                  -0.280
REMARK UNBOUND:                -0.315
REMARK SMILES O=c1cc(-c2ccc(O)c(O)c2)oc2cc(O)cc(O)c12
REMARK SMILES IDX 4 1 3 2 2 3 1 4 21 5 19 6 18 7 16 8 15 9 14 10 13 11 5 12
REMARK SMILES IDX 6 13 7 14 8 15 12 16 10 17 9 18 11 20 20 22 17 24
REMARK H PARENT 9 19 11 21 20 23 17 25
REMARK Flexibility Score: inf
ROOT
ATOM      1  C   UNL     1      22.459  49.962  87.283  1.00  0.00     0.138 A 
ATOM      2  C   UNL     1      21.559  51.014  87.502  1.00  0.00     0.100 A 
ATOM      3  C   UNL     1      20.267  50.736  87.948  1.00  0.00     0.197 A 
ATOM      4  O   UNL     1      19.463  51.695  88.077  1.00  0.00    -0.289 OA
ATOM      5  C   UNL     1      19.885  49.398  88.206  1.00  0.00     0.107 A 
ATOM      6  C   UNL     1      18.608  48.999  88.702  1.00  0.00     0.134 A 
ATOM      7  C   UNL     1      18.304  47.636  88.808  1.00  0.00     0.093 A 
ATOM      8  C   UNL     1      19.249  46.660  88.494  1.00  0.00     0.123 A 
ATOM      9  C   UNL     1      20.520  47.040  88.059  1.00  0.00     0.094 A 
ATOM     10  C   UNL     1      20.841  48.391  87.910  1.00  0.00     0.146 A 
ATOM     11  O   UNL     1      22.058  48.710  87.480  1.00  0.00    -0.456 OA
ENDROOT
BRANCH   1  12
ATOM     12  C   UNL     1      23.845  50.202  86.809  1.00  0.00     0.021 A 
ATOM     13  C   UNL     1      24.394  49.366  85.821  1.00  0.00     0.016 A 
ATOM     14  C   UNL     1      25.699  49.565  85.364  1.00  0.00     0.051 A 
ATOM     15  C   UNL     1      26.482  50.597  85.894  1.00  0.00     0.157 A 
ATOM     16  C   UNL     1      24.644  51.230  87.348  1.00  0.00     0.062 A 
ATOM     17  C   UNL     1      25.956  51.429  86.890  1.00  0.00     0.158 A 
BRANCH  15  18
ATOM     18  O   UNL     1      27.784  50.801  85.441  1.00  0.00    -0.504 OA
ATOM     19  H   UNL     1      28.551  50.217  85.753  1.00  0.00     0.293 HD
ENDBRANCH  15  18
BRANCH  17  20
ATOM     20  O   UNL     1      26.741  52.449  87.423  1.00  0.00    -0.504 OA
ATOM     21  H   UNL     1      27.286  53.064  86.830  1.00  0.00     0.293 HD
ENDBRANCH  17  20
ENDBRANCH   1  12
BRANCH   6  22
ATOM     22  O   UNL     1      17.619  49.893  89.125  1.00  0.00    -0.507 OA
ATOM     23  H   UNL     1      16.876  49.668  89.767  1.00  0.00     0.293 HD
ENDBRANCH   6  22
BRANCH   8  24
ATOM     24  O   UNL     1      18.916  45.313  88.626  1.00  0.00    -0.508 OA
ATOM     25  H   UNL     1      18.054  44.941  88.244  1.00  0.00     0.293 HD
ENDBRANCH   8  24
TORSDOF 5
ENDMDL
MODEL 3
REMARK VINA RESULT:    -3.917      2.731      6.618
REMARK INTER + INTRA:          -4.920
REMARK INTER:                  -4.609
REMARK INTRA:                  -0.311
REMARK UNBOUND:                -0.315
REMARK SMILES O=c1cc(-c2ccc(O)c(O)c2)oc2cc(O)cc(O)c12
REMARK SMILES IDX 4 1 3 2 2 3 1 4 21 5 19 6 18 7 16 8 15 9 14 10 13 11 5 12
REMARK SMILES IDX 6 13 7 14 8 15 12 16 10 17 9 18 11 20 20 22 17 24
REMARK H PARENT 9 19 11 21 20 23 17 25
REMARK Flexibility Score: inf
ROOT
ATOM      1  C   UNL     1      22.890  48.857  86.938  1.00  0.00     0.138 A 
ATOM      2  C   UNL     1      21.981  47.802  87.100  1.00  0.00     0.100 A 
ATOM      3  C   UNL     1      20.713  48.057  87.621  1.00  0.00     0.197 A 
ATOM      4  O   UNL     1      19.942  47.080  87.812  1.00  0.00    -0.289 OA
ATOM      5  C   UNL     1      20.342  49.382  87.953  1.00  0.00     0.107 A 
ATOM      6  C   UNL     1      19.061  49.765  88.453  1.00  0.00     0.134 A 
ATOM      7  C   UNL     1      18.847  51.089  88.857  1.00  0.00     0.093 A 
ATOM      8  C   UNL     1      19.844  52.054  88.722  1.00  0.00     0.123 A 
ATOM      9  C   UNL     1      21.083  51.701  88.184  1.00  0.00     0.094 A 
ATOM     10  C   UNL     1      21.338  50.382  87.805  1.00  0.00     0.146 A 
ATOM     11  O   UNL     1      22.536  50.084  87.309  1.00  0.00    -0.456 OA
ENDROOT
BRANCH   1  12
ATOM     12  C   UNL     1      24.252  48.643  86.388  1.00  0.00     0.021 A 
ATOM     13  C   UNL     1      24.834  47.366  86.461  1.00  0.00     0.016 A 
ATOM     14  C   UNL     1      26.117  47.139  85.957  1.00  0.00     0.051 A 
ATOM     15  C   UNL     1      26.845  48.187  85.382  1.00  0.00     0.157 A 
ATOM     16  C   UNL     1      24.995  49.696  85.820  1.00  0.00     0.062 A 
ATOM     17  C   UNL     1      26.285  49.469  85.316  1.00  0.00     0.158 A 
BRANCH  15  18
ATOM     18  O   UNL     1      28.125  47.966  84.878  1.00  0.00    -0.504 OA
ATOM     19  H   UNL     1      28.823  47.456  85.407  1.00  0.00     0.293 HD
ENDBRANCH  15  18
BRANCH  17  20
ATOM     20  O   UNL     1      27.016  50.513  84.752  1.00  0.00    -0.504 OA
ATOM     21  H   UNL     1      26.903  51.469  85.067  1.00  0.00     0.293 HD
ENDBRANCH  17  20
ENDBRANCH   1  12
BRANCH   6  22
ATOM     22  O   UNL     1      17.968  48.899  88.550  1.00  0.00    -0.507 OA
ATOM     23  H   UNL     1      17.943  48.063  89.112  1.00  0.00     0.293 HD
ENDBRANCH   6  22
BRANCH   8  24
ATOM     24  O   UNL     1      19.590  53.365  89.121  1.00  0.00    -0.508 OA
ATOM     25  H   UNL     1      18.857  53.584  89.786  1.00  0.00     0.293 HD
ENDBRANCH   8  24
TORSDOF 5
ENDMDL
MODEL 4
REMARK VINA RESULT:    -3.878      2.585      6.764
REMARK INTER + INTRA:          -4.874
REMARK INTER:                  -4.586
REMARK INTRA:                  -0.288
REMARK UNBOUND:                -0.315
REMARK SMILES O=c1cc(-c2ccc(O)c(O)c2)oc2cc(O)cc(O)c12
REMARK SMILES IDX 4 1 3 2 2 3 1 4 21 5 19 6 18 7 16 8 15 9 14 10 13 11 5 12
REMARK SMILES IDX 6 13 7 14 8 15 12 16 10 17 9 18 11 20 20 22 17 24
REMARK H PARENT 9 19 11 21 20 23 17 25
REMARK Flexibility Score: inf
ROOT
ATOM      1  C   UNL     1      22.650  48.811  87.203  1.00  0.00     0.138 A 
ATOM      2  C   UNL     1      22.131  50.103  87.364  1.00  0.00     0.100 A 
ATOM      3  C   UNL     1      20.828  50.271  87.834  1.00  0.00     0.197 A 
ATOM      4  O   UNL     1      20.369  51.440  87.909  1.00  0.00    -0.289 OA
ATOM      5  C   UNL     1      20.052  49.137  88.172  1.00  0.00     0.107 A 
ATOM      6  C   UNL     1      18.726  49.188  88.698  1.00  0.00     0.134 A 
ATOM      7  C   UNL     1      18.013  47.998  88.886  1.00  0.00     0.093 A 
ATOM      8  C   UNL     1      18.596  46.759  88.626  1.00  0.00     0.123 A 
ATOM      9  C   UNL     1      19.911  46.695  88.162  1.00  0.00     0.094 A 
ATOM     10  C   UNL     1      20.636  47.866  87.931  1.00  0.00     0.146 A 
ATOM     11  O   UNL     1      21.881  47.762  87.476  1.00  0.00    -0.456 OA
ENDROOT
BRANCH   1  12
ATOM     12  C   UNL     1      24.030  48.576  86.708  1.00  0.00     0.021 A 
ATOM     13  C   UNL     1      24.716  47.413  87.098  1.00  0.00     0.016 A 
ATOM     14  C   UNL     1      26.018  47.172  86.652  1.00  0.00     0.051 A 
ATOM     15  C   UNL     1      26.660  48.094  85.819  1.00  0.00     0.157 A 
ATOM     16  C   UNL     1      24.688  49.507  85.880  1.00  0.00     0.062 A 
ATOM     17  C   UNL     1      25.996  49.266  85.434  1.00  0.00     0.158 A 
BRANCH  15  18
ATOM     18  O   UNL     1      27.959  47.858  85.371  1.00  0.00    -0.504 OA
ATOM     19  H   UNL     1      28.672  48.578  85.408  1.00  0.00     0.293 HD
ENDBRANCH  15  18
BRANCH  17  20
ATOM     20  O   UNL     1      26.643  50.187  84.613  1.00  0.00    -0.504 OA
ATOM     21  H   UNL     1      26.433  50.255  83.624  1.00  0.00     0.293 HD
ENDBRANCH  17  20
ENDBRANCH   1  12
BRANCH   6  22
ATOM     22  O   UNL     1      18.079  50.369  89.073  1.00  0.00    -0.507 OA
ATOM     23  H   UNL     1      17.216  50.413  89.592  1.00  0.00     0.293 HD
ENDBRANCH   6  22
BRANCH   8  24
ATOM     24  O   UNL     1      17.860  45.594  88.839  1.00  0.00    -0.508 OA
ATOM     25  H   UNL     1      18.299  44.745  89.176  1.00  0.00     0.293 HD
ENDBRANCH   8  24
TORSDOF 5
ENDMDL
MODEL 5
REMARK VINA RESULT:    -3.878      1.144      2.660
REMARK INTER + INTRA:          -4.873
REMARK INTER:                  -4.579
REMARK INTRA:                  -0.294
REMARK UNBOUND:                -0.315
REMARK SMILES O=c1cc(-c2ccc(O)c(O)c2)oc2cc(O)cc(O)c12
REMARK SMILES IDX 4 1 3 2 2 3 1 4 21 5 19 6 18 7 16 8 15 9 14 10 13 11 5 12
REMARK SMILES IDX 6 13 7 14 8 15 12 16 10 17 9 18 11 20 20 22 17 24
REMARK H PARENT 9 19 11 21 20 23 17 25
REMARK Flexibility Score: inf
ROOT
ATOM      1  C   UNL     1      20.743  49.720  88.324  1.00  0.00     0.138 A 
ATOM      2  C   UNL     1      22.014  49.499  87.775  1.00  0.00     0.100 A 
ATOM      3  C   UNL     1      22.892  50.570  87.611  1.00  0.00     0.197 A 
ATOM      4  O   UNL     1      24.001  50.350  87.057  1.00  0.00    -0.289 OA
ATOM      5  C   UNL     1      22.505  51.866  88.028  1.00  0.00     0.107 A 
ATOM      6  C   UNL     1      23.333  53.025  87.946  1.00  0.00     0.134 A 
ATOM      7  C   UNL     1      22.802  54.277  88.282  1.00  0.00     0.093 A 
ATOM      8  C   UNL     1      21.496  54.403  88.753  1.00  0.00     0.123 A 
ATOM      9  C   UNL     1      20.694  53.268  88.887  1.00  0.00     0.094 A 
ATOM     10  C   UNL     1      21.184  52.010  88.528  1.00  0.00     0.146 A 
ATOM     11  O   UNL     1      20.385  50.956  88.658  1.00  0.00    -0.456 OA
ENDROOT
BRANCH   1  12
ATOM     12  C   UNL     1      19.771  48.616  88.522  1.00  0.00     0.021 A 
ATOM     13  C   UNL     1      18.417  48.919  88.746  1.00  0.00     0.016 A 
ATOM     14  C   UNL     1      17.483  47.899  88.942  1.00  0.00     0.051 A 
ATOM     15  C   UNL     1      17.888  46.559  88.930  1.00  0.00     0.157 A 
ATOM     16  C   UNL     1      20.174  47.266  88.525  1.00  0.00     0.062 A 
ATOM     17  C   UNL     1      19.236  46.242  88.724  1.00  0.00     0.158 A 
BRANCH  15  18
ATOM     18  O   UNL     1      16.960  45.538  89.125  1.00  0.00    -0.504 OA
ATOM     19  H   UNL     1      15.983  45.655  88.879  1.00  0.00     0.293 HD
ENDBRANCH  15  18
BRANCH  17  20
ATOM     20  O   UNL     1      19.638  44.907  88.723  1.00  0.00    -0.504 OA
ATOM     21  H   UNL     1      19.332  44.262  88.004  1.00  0.00     0.293 HD
ENDBRANCH  17  20
ENDBRANCH   1  12
BRANCH   6  22
ATOM     22  O   UNL     1      24.679  53.001  87.570  1.00  0.00    -0.507 OA
ATOM     23  H   UNL     1      25.457  53.073  88.206  1.00  0.00     0.293 HD
ENDBRANCH   6  22
BRANCH   8  24
ATOM     24  O   UNL     1      21.005  55.663  89.092  1.00  0.00    -0.508 OA
ATOM     25  H   UNL     1      20.697  56.319  88.383  1.00  0.00     0.293 HD
ENDBRANCH   8  24
TORSDOF 5
ENDMDL
MODEL 6
REMARK VINA RESULT:    -3.821      3.198      5.855
REMARK INTER + INTRA:          -4.807
REMARK INTER:                  -4.542
REMARK INTRA:                  -0.264
REMARK UNBOUND:                -0.315
REMARK SMILES O=c1cc(-c2ccc(O)c(O)c2)oc2cc(O)cc(O)c12
REMARK SMILES IDX 4 1 3 2 2 3 1 4 21 5 19 6 18 7 16 8 15 9 14 10 13 11 5 12
REMARK SMILES IDX 6 13 7 14 8 15 12 16 10 17 9 18 11 20 20 22 17 24
REMARK H PARENT 9 19 11 21 20 23 17 25
REMARK Flexibility Score: inf
ROOT
ATOM      1  C   UNL     1      23.220  49.596  87.363  1.00  0.00     0.138 A 
ATOM      2  C   UNL     1      23.378  48.306  87.888  1.00  0.00     0.100 A 
ATOM      3  C   UNL     1      24.488  47.543  87.523  1.00  0.00     0.197 A 
ATOM      4  O   UNL     1      24.570  46.366  87.962  1.00  0.00    -0.289 OA
ATOM      5  C   UNL     1      25.460  48.088  86.651  1.00  0.00     0.107 A 
ATOM      6  C   UNL     1      26.651  47.418  86.243  1.00  0.00     0.134 A 
ATOM      7  C   UNL     1      27.482  48.011  85.284  1.00  0.00     0.093 A 
ATOM      8  C   UNL     1      27.198  49.274  84.766  1.00  0.00     0.123 A 
ATOM      9  C   UNL     1      26.063  49.961  85.198  1.00  0.00     0.094 A 
ATOM     10  C   UNL     1      25.197  49.381  86.127  1.00  0.00     0.146 A 
ATOM     11  O   UNL     1      24.119  50.064  86.503  1.00  0.00    -0.456 OA
ENDROOT
BRANCH   1  12
ATOM     12  C   UNL     1      22.059  50.451  87.718  1.00  0.00     0.021 A 
ATOM     13  C   UNL     1      22.259  51.593  88.513  1.00  0.00     0.016 A 
ATOM     14  C   UNL     1      21.182  52.410  88.867  1.00  0.00     0.051 A 
ATOM     15  C   UNL     1      19.887  52.093  88.444  1.00  0.00     0.157 A 
ATOM     16  C   UNL     1      20.751  50.130  87.306  1.00  0.00     0.062 A 
ATOM     17  C   UNL     1      19.669  50.950  87.665  1.00  0.00     0.158 A 
BRANCH  15  18
ATOM     18  O   UNL     1      18.810  52.905  88.794  1.00  0.00    -0.504 OA
ATOM     19  H   UNL     1      18.948  53.819  89.211  1.00  0.00     0.293 HD
ENDBRANCH  15  18
BRANCH  17  20
ATOM     20  O   UNL     1      18.376  50.631  87.253  1.00  0.00    -0.504 OA
ATOM     21  H   UNL     1      17.563  51.062  87.677  1.00  0.00     0.293 HD
ENDBRANCH  17  20
ENDBRANCH   1  12
BRANCH   6  22
ATOM     22  O   UNL     1      27.075  46.190  86.761  1.00  0.00    -0.507 OA
ATOM     23  H   UNL     1      26.995  45.915  87.728  1.00  0.00     0.293 HD
ENDBRANCH   6  22
BRANCH   8  24
ATOM     24  O   UNL     1      28.056  49.839  83.824  1.00  0.00    -0.508 OA
ATOM     25  H   UNL     1      28.998  50.122  84.069  1.00  0.00     0.293 HD
ENDBRANCH   8  24
TORSDOF 5
ENDMDL
MODEL 7
REMARK VINA RESULT:    -3.747      3.612      5.586
REMARK INTER + INTRA:          -4.720
REMARK INTER:                  -4.423
REMARK INTRA:                  -0.296
REMARK UNBOUND:                -0.315
REMARK SMILES O=c1cc(-c2ccc(O)c(O)c2)oc2cc(O)cc(O)c12
REMARK SMILES IDX 4 1 3 2 2 3 1 4 21 5 19 6 18 7 16 8 15 9 14 10 13 11 5 12
REMARK SMILES IDX 6 13 7 14 8 15 12 16 10 17 9 18 11 20 20 22 17 24
REMARK H PARENT 9 19 11 21 20 23 17 25
REMARK Flexibility Score: inf
ROOT
ATOM      1  C   UNL     1      22.916  48.728  87.303  1.00  0.00     0.138 A 
ATOM      2  C   UNL     1      23.585  49.384  86.260  1.00  0.00     0.100 A 
ATOM      3  C   UNL     1      24.876  48.988  85.910  1.00  0.00     0.197 A 
ATOM      4  O   UNL     1      25.474  49.636  85.012  1.00  0.00    -0.289 OA
ATOM      5  C   UNL     1      25.488  47.907  86.589  1.00  0.00     0.107 A 
ATOM      6  C   UNL     1      26.785  47.391  86.291  1.00  0.00     0.134 A 
ATOM      7  C   UNL     1      27.335  46.395  87.107  1.00  0.00     0.093 A 
ATOM      8  C   UNL     1      26.613  45.854  88.171  1.00  0.00     0.123 A 
ATOM      9  C   UNL     1      25.323  46.315  88.439  1.00  0.00     0.094 A 
ATOM     10  C   UNL     1      24.761  47.332  87.664  1.00  0.00     0.146 A 
ATOM     11  O   UNL     1      23.535  47.752  87.960  1.00  0.00    -0.456 OA
ENDROOT
BRANCH   1  12
ATOM     12  C   UNL     1      21.542  49.108  87.715  1.00  0.00     0.021 A 
ATOM     13  C   UNL     1      20.895  48.375  88.724  1.00  0.00     0.016 A 
ATOM     14  C   UNL     1      19.599  48.708  89.125  1.00  0.00     0.051 A 
ATOM     15  C   UNL     1      18.923  49.772  88.516  1.00  0.00     0.157 A 
ATOM     16  C   UNL     1      20.851  50.169  87.097  1.00  0.00     0.062 A 
ATOM     17  C   UNL     1      19.548  50.502  87.498  1.00  0.00     0.158 A 
BRANCH  15  18
ATOM     18  O   UNL     1      17.630  50.108  88.913  1.00  0.00    -0.504 OA
ATOM     19  H   UNL     1      17.072  50.775  88.393  1.00  0.00     0.293 HD
ENDBRANCH  15  18
BRANCH  17  20
ATOM     20  O   UNL     1      18.869  51.554  86.887  1.00  0.00    -0.504 OA
ATOM     21  H   UNL     1      19.336  52.422  86.653  1.00  0.00     0.293 HD
ENDBRANCH  17  20
ENDBRANCH   1  12
BRANCH   6  22
ATOM     22  O   UNL     1      27.557  47.800  85.200  1.00  0.00    -0.507 OA
ATOM     23  H   UNL     1      28.212  48.566  85.212  1.00  0.00     0.293 HD
ENDBRANCH   6  22
BRANCH   8  24
ATOM     24  O   UNL     1      27.187  44.853  88.953  1.00  0.00    -0.508 OA
ATOM     25  H   UNL     1      28.089  44.453  88.722  1.00  0.00     0.293 HD
ENDBRANCH   8  24
TORSDOF 5
ENDMDL
MODEL 8
REMARK VINA RESULT:    -3.621      2.282      4.070
REMARK INTER + INTRA:          -4.571
REMARK INTER:                  -4.278
REMARK INTRA:                  -0.292
REMARK UNBOUND:                -0.315
REMARK SMILES O=c1cc(-c2ccc(O)c(O)c2)oc2cc(O)cc(O)c12
REMARK SMILES IDX 4 1 3 2 2 3 1 4 21 5 19 6 18 7 16 8 15 9 14 10 13 11 5 12
REMARK SMILES IDX 6 13 7 14 8 15 12 16 10 17 9 18 11 20 20 22 17 24
REMARK H PARENT 9 19 11 21 20 23 17 25
REMARK Flexibility Score: inf
ROOT
ATOM      1  C   UNL     1      23.345  49.822  87.737  1.00  0.00     0.138 A 
ATOM      2  C   UNL     1      24.598  49.945  87.121  1.00  0.00     0.100 A 
ATOM      3  C   UNL     1      25.143  51.212  86.912  1.00  0.00     0.197 A 
ATOM      4  O   UNL     1      26.241  51.294  86.301  1.00  0.00    -0.289 OA
ATOM      5  C   UNL     1      24.442  52.360  87.350  1.00  0.00     0.107 A 
ATOM      6  C   UNL     1      24.919  53.700  87.227  1.00  0.00     0.134 A 
ATOM      7  C   UNL     1      24.086  54.765  87.591  1.00  0.00     0.093 A 
ATOM      8  C   UNL     1      22.820  54.538  88.130  1.00  0.00     0.123 A 
ATOM      9  C   UNL     1      22.365  53.231  88.305  1.00  0.00     0.094 A 
ATOM     10  C   UNL     1      23.158  52.148  87.919  1.00  0.00     0.146 A 
ATOM     11  O   UNL     1      22.682  50.919  88.090  1.00  0.00    -0.456 OA
ENDROOT
BRANCH   1  12
ATOM     12  C   UNL     1      22.720  48.499  87.985  1.00  0.00     0.021 A 
ATOM     13  C   UNL     1      23.497  47.454  88.514  1.00  0.00     0.016 A 
ATOM     14  C   UNL     1      22.934  46.197  88.749  1.00  0.00     0.051 A 
ATOM     15  C   UNL     1      21.588  45.960  88.450  1.00  0.00     0.157 A 
ATOM     16  C   UNL     1      21.369  48.249  87.673  1.00  0.00     0.062 A 
ATOM     17  C   UNL     1      20.804  46.985  87.908  1.00  0.00     0.158 A 
BRANCH  15  18
ATOM     18  O   UNL     1      21.022  44.708  88.684  1.00  0.00    -0.504 OA
ATOM     19  H   UNL     1      20.140  44.608  89.172  1.00  0.00     0.293 HD
ENDBRANCH  15  18
BRANCH  17  20
ATOM     20  O   UNL     1      19.466  46.743  87.601  1.00  0.00    -0.504 OA
ATOM     21  H   UNL     1      19.001  47.224  86.841  1.00  0.00     0.293 HD
ENDBRANCH  17  20
ENDBRANCH   1  12
BRANCH   6  22
ATOM     22  O   UNL     1      26.200  54.035  86.779  1.00  0.00    -0.507 OA
ATOM     23  H   UNL     1      26.620  53.698  85.927  1.00  0.00     0.293 HD
ENDBRANCH   6  22
BRANCH   8  24
ATOM     24  O   UNL     1      22.024  55.623  88.495  1.00  0.00    -0.508 OA
ATOM     25  H   UNL     1      21.448  55.600  89.329  1.00  0.00     0.293 HD
ENDBRANCH   8  24
TORSDOF 5
ENDMDL
