MODEL 1
REMARK VINA RESULT:    -4.644      0.000      0.000
REMARK INTER + INTRA:          -9.015
REMARK INTER:                  -7.359
REMARK INTRA:                  -1.656
REMARK UNBOUND:                -1.656
REMARK SMILES CCCCCCCCCCCC(=O)[O-]
REMARK SMILES IDX 7 1 8 2 9 3 10 4 11 5 12 6 13 7 14 8 6 9 5 10 4 11 3 12 2 13
REMARK SMILES IDX 1 14
REMARK H PARENT
REMARK Flexibility Score: inf
ROOT
ATOM      1  C   UNL     1      21.255  -4.943 -37.583  1.00  0.00     0.000 C 
ENDROOT
BRANCH   1   2
ATOM      2  C   UNL     1      22.302  -4.829 -36.464  1.00  0.00     0.000 C 
BRANCH   2   3
ATOM      3  C   UNL     1      23.255  -6.032 -36.418  1.00  0.00     0.000 C 
BRANCH   3   4
ATOM      4  C   UNL     1      22.677  -7.220 -37.201  1.00  0.00     0.006 C 
BRANCH   4   5
ATOM      5  C   UNL     1      23.729  -7.897 -38.090  1.00  0.00     0.053 C 
BRANCH   5   6
ATOM      6  C   UNL     1      23.139  -8.383 -39.377  1.00  0.00     0.041 C 
ATOM      7  O   UNL     1      22.074  -7.876 -39.819  1.00  0.00    -0.550 OA
ATOM      8  O   UNL     1      23.784  -9.373 -40.108  1.00  0.00    -0.550 OA
ENDBRANCH   5   6
ENDBRANCH   4   5
ENDBRANCH   3   4
ENDBRANCH   2   3
ENDBRANCH   1   2
BRANCH   1   9
ATOM      9  C   UNL     1      21.420  -3.863 -38.662  1.00  0.00     0.000 C 
BRANCH   9  10
ATOM     10  C   UNL     1      22.000  -4.460 -39.953  1.00  0.00    -0.000 C 
BRANCH  10  11
ATOM     11  C   UNL     1      23.526  -4.634 -39.892  1.00  0.00    -0.000 C 
BRANCH  11  12
ATOM     12  C   UNL     1      24.262  -3.309 -39.628  1.00  0.00    -0.000 C 
BRANCH  12  13
ATOM     13  C   UNL     1      25.219  -3.395 -38.429  1.00  0.00    -0.003 C 
ATOM     14  C   UNL     1      25.975  -4.723 -38.373  1.00  0.00     0.004 C 
ENDBRANCH  12  13
ENDBRANCH  11  12
ENDBRANCH  10  11
ENDBRANCH   9  10
ENDBRANCH   1   9
TORSDOF 10
ENDMDL
MODEL 2
REMARK VINA RESULT:    -4.628      1.054      2.116
REMARK INTER + INTRA:          -8.989
REMARK INTER:                  -7.484
REMARK INTRA:                  -1.505
REMARK UNBOUND:                -1.656
REMARK SMILES CCCCCCCCCCCC(=O)[O-]
REMARK SMILES IDX 7 1 8 2 9 3 10 4 11 5 12 6 13 7 14 8 6 9 5 10 4 11 3 12 2 13
REMARK SMILES IDX 1 14
REMARK H PARENT
REMARK Flexibility Score: inf
ROOT
ATOM      1  C   UNL     1      22.059  -4.488 -36.144  1.00  0.00     0.000 C 
ENDROOT
BRANCH   1   2
ATOM      2  C   UNL     1      23.528  -4.940 -36.136  1.00  0.00     0.000 C 
BRANCH   2   3
ATOM      3  C   UNL     1      23.750  -6.245 -36.915  1.00  0.00     0.000 C 
BRANCH   3   4
ATOM      4  C   UNL     1      22.430  -7.009 -37.093  1.00  0.00     0.006 C 
BRANCH   4   5
ATOM      5  C   UNL     1      22.638  -8.386 -37.739  1.00  0.00     0.053 C 
BRANCH   5   6
ATOM      6  C   UNL     1      22.679  -8.299 -39.232  1.00  0.00     0.041 C 
ATOM      7  O   UNL     1      23.520  -8.972 -39.886  1.00  0.00    -0.550 OA
ATOM      8  O   UNL     1      21.764  -7.501 -39.908  1.00  0.00    -0.550 OA
ENDBRANCH   5   6
ENDBRANCH   4   5
ENDBRANCH   3   4
ENDBRANCH   2   3
ENDBRANCH   1   2
BRANCH   1   9
ATOM      9  C   UNL     1      21.896  -3.009 -36.526  1.00  0.00     0.000 C 
BRANCH   9  10
ATOM     10  C   UNL     1      20.889  -2.848 -37.674  1.00  0.00    -0.000 C 
BRANCH  10  11
ATOM     11  C   UNL     1      20.874  -4.056 -38.623  1.00  0.00    -0.000 C 
BRANCH  11  12
ATOM     12  C   UNL     1      21.674  -3.805 -39.913  1.00  0.00    -0.000 C 
BRANCH  12  13
ATOM     13  C   UNL     1      23.097  -4.383 -39.845  1.00  0.00    -0.003 C 
ATOM     14  C   UNL     1      24.155  -3.315 -39.568  1.00  0.00     0.004 C 
ENDBRANCH  12  13
ENDBRANCH  11  12
ENDBRANCH  10  11
ENDBRANCH   9  10
ENDBRANCH   1   9
TORSDOF 10
ENDMDL
MODEL 3
REMARK VINA RESULT:    -4.589      1.192      2.946
REMARK INTER + INTRA:          -8.927
REMARK INTER:                  -7.379
REMARK INTRA:                  -1.548
REMARK UNBOUND:                -1.656
REMARK SMILES CCCCCCCCCCCC(=O)[O-]
REMARK SMILES IDX 7 1 8 2 9 3 10 4 11 5 12 6 13 7 14 8 6 9 5 10 4 11 3 12 2 13
REMARK SMILES IDX 1 14
REMARK H PARENT
REMARK Flexibility Score: inf
ROOT
ATOM      1  C   UNL     1      24.894  -3.750 -38.148  1.00  0.00     0.000 C 
ENDROOT
BRANCH   1   2
ATOM      2  C   UNL     1      25.640  -5.093 -38.163  1.00  0.00     0.000 C 
BRANCH   2   3
ATOM      3  C   UNL     1      25.008  -6.132 -37.223  1.00  0.00     0.000 C 
BRANCH   3   4
ATOM      4  C   UNL     1      25.043  -7.533 -37.851  1.00  0.00     0.006 C 
BRANCH   4   5
ATOM      5  C   UNL     1      24.220  -7.610 -39.144  1.00  0.00     0.053 C 
BRANCH   5   6
ATOM      6  C   UNL     1      22.778  -7.900 -38.868  1.00  0.00     0.041 C 
ATOM      7  O   UNL     1      21.897  -7.613 -39.722  1.00  0.00    -0.550 OA
ATOM      8  O   UNL     1      22.407  -8.519 -37.681  1.00  0.00    -0.550 OA
ENDBRANCH   5   6
ENDBRANCH   4   5
ENDBRANCH   3   4
ENDBRANCH   2   3
ENDBRANCH   1   2
BRANCH   1   9
ATOM      9  C   UNL     1      24.244  -3.418 -39.499  1.00  0.00     0.000 C 
BRANCH   9  10
ATOM     10  C   UNL     1      22.917  -4.172 -39.669  1.00  0.00    -0.000 C 
BRANCH  10  11
ATOM     11  C   UNL     1      21.750  -3.492 -38.935  1.00  0.00    -0.000 C 
BRANCH  11  12
ATOM     12  C   UNL     1      20.882  -4.491 -38.151  1.00  0.00    -0.000 C 
BRANCH  12  13
ATOM     13  C   UNL     1      21.564  -4.982 -36.865  1.00  0.00    -0.003 C 
ATOM     14  C   UNL     1      21.919  -3.840 -35.912  1.00  0.00     0.004 C 
ENDBRANCH  12  13
ENDBRANCH  11  12
ENDBRANCH  10  11
ENDBRANCH   9  10
ENDBRANCH   1   9
TORSDOF 10
ENDMDL
MODEL 4
REMARK VINA RESULT:    -4.555      1.850      4.186
REMARK INTER + INTRA:          -8.873
REMARK INTER:                  -7.611
REMARK INTRA:                  -1.262
REMARK UNBOUND:                -1.656
REMARK SMILES CCCCCCCCCCCC(=O)[O-]
REMARK SMILES IDX 7 1 8 2 9 3 10 4 11 5 12 6 13 7 14 8 6 9 5 10 4 11 3 12 2 13
REMARK SMILES IDX 1 14
REMARK H PARENT
REMARK Flexibility Score: inf
ROOT
ATOM      1  C   UNL     1      21.680  -4.576 -36.357  1.00  0.00     0.000 C 
ENDROOT
BRANCH   1   2
ATOM      2  C   UNL     1      21.341  -3.446 -37.342  1.00  0.00     0.000 C 
BRANCH   2   3
ATOM      3  C   UNL     1      20.544  -3.940 -38.559  1.00  0.00     0.000 C 
BRANCH   3   4
ATOM      4  C   UNL     1      21.369  -3.806 -39.847  1.00  0.00     0.006 C 
BRANCH   4   5
ATOM      5  C   UNL     1      22.297  -5.009 -40.069  1.00  0.00     0.053 C 
BRANCH   5   6
ATOM      6  C   UNL     1      23.735  -4.646 -39.865  1.00  0.00     0.041 C 
ATOM      7  O   UNL     1      24.616  -5.546 -39.814  1.00  0.00    -0.550 OA
ATOM      8  O   UNL     1      24.108  -3.312 -39.766  1.00  0.00    -0.550 OA
ENDBRANCH   5   6
ENDBRANCH   4   5
ENDBRANCH   3   4
ENDBRANCH   2   3
ENDBRANCH   1   2
BRANCH   1   9
ATOM      9  C   UNL     1      23.187  -4.857 -36.273  1.00  0.00     0.000 C 
BRANCH   9  10
ATOM     10  C   UNL     1      23.484  -6.341 -36.540  1.00  0.00    -0.000 C 
BRANCH  10  11
ATOM     11  C   UNL     1      22.317  -7.063 -37.232  1.00  0.00    -0.000 C 
BRANCH  11  12
ATOM     12  C   UNL     1      22.678  -8.496 -37.659  1.00  0.00    -0.000 C 
BRANCH  12  13
ATOM     13  C   UNL     1      23.428  -8.540 -38.999  1.00  0.00    -0.003 C 
ATOM     14  C   UNL     1      24.848  -9.091 -38.863  1.00  0.00     0.004 C 
ENDBRANCH  12  13
ENDBRANCH  11  12
ENDBRANCH  10  11
ENDBRANCH   9  10
ENDBRANCH   1   9
TORSDOF 10
ENDMDL
MODEL 5
REMARK VINA RESULT:    -4.538      1.855      3.722
REMARK INTER + INTRA:          -8.846
REMARK INTER:                  -7.152
REMARK INTRA:                  -1.695
REMARK UNBOUND:                -1.656
REMARK SMILES CCCCCCCCCCCC(=O)[O-]
REMARK SMILES IDX 7 1 8 2 9 3 10 4 11 5 12 6 13 7 14 8 6 9 5 10 4 11 3 12 2 13
REMARK SMILES IDX 1 14
REMARK H PARENT
REMARK Flexibility Score: inf
ROOT
ATOM      1  C   UNL     1      23.397  -6.376 -36.452  1.00  0.00     0.000 C 
ENDROOT
BRANCH   1   2
ATOM      2  C   UNL     1      23.138  -4.866 -36.573  1.00  0.00     0.000 C 
BRANCH   2   3
ATOM      3  C   UNL     1      24.313  -4.114 -37.217  1.00  0.00     0.000 C 
BRANCH   3   4
ATOM      4  C   UNL     1      23.864  -3.383 -38.491  1.00  0.00     0.006 C 
BRANCH   4   5
ATOM      5  C   UNL     1      23.669  -4.343 -39.673  1.00  0.00     0.053 C 
BRANCH   5   6
ATOM      6  C   UNL     1      22.221  -4.522 -40.009  1.00  0.00     0.041 C 
ATOM      7  O   UNL     1      21.857  -5.459 -40.769  1.00  0.00    -0.550 OA
ATOM      8  O   UNL     1      21.269  -3.676 -39.456  1.00  0.00    -0.550 OA
ENDBRANCH   5   6
ENDBRANCH   4   5
ENDBRANCH   3   4
ENDBRANCH   2   3
ENDBRANCH   1   2
BRANCH   1   9
ATOM      9  C   UNL     1      22.441  -7.212 -37.315  1.00  0.00     0.000 C 
BRANCH   9  10
ATOM     10  C   UNL     1      23.200  -7.912 -38.453  1.00  0.00    -0.000 C 
BRANCH  10  11
ATOM     11  C   UNL     1      24.695  -8.090 -38.146  1.00  0.00    -0.000 C 
BRANCH  11  12
ATOM     12  C   UNL     1      25.598  -7.445 -39.212  1.00  0.00    -0.000 C 
BRANCH  12  13
ATOM     13  C   UNL     1      26.728  -6.605 -38.597  1.00  0.00    -0.003 C 
ATOM     14  C   UNL     1      26.906  -6.863 -37.100  1.00  0.00     0.004 C 
ENDBRANCH  12  13
ENDBRANCH  11  12
ENDBRANCH  10  11
ENDBRANCH   9  10
ENDBRANCH   1   9
TORSDOF 10
ENDMDL
MODEL 6
REMARK VINA RESULT:    -4.460      2.693      4.688
REMARK INTER + INTRA:          -8.723
REMARK INTER:                  -7.137
REMARK INTRA:                  -1.586
REMARK UNBOUND:                -1.656
REMARK SMILES CCCCCCCCCCCC(=O)[O-]
REMARK SMILES IDX 7 1 8 2 9 3 10 4 11 5 12 6 13 7 14 8 6 9 5 10 4 11 3 12 2 13
REMARK SMILES IDX 1 14
REMARK H PARENT
REMARK Flexibility Score: inf
ROOT
ATOM      1  C   UNL     1      24.083  -4.345 -36.992  1.00  0.00     0.000 C 
ENDROOT
BRANCH   1   2
ATOM      2  C   UNL     1      24.914  -4.751 -38.219  1.00  0.00     0.000 C 
BRANCH   2   3
ATOM      3  C   UNL     1      24.223  -4.399 -39.546  1.00  0.00     0.000 C 
BRANCH   3   4
ATOM      4  C   UNL     1      23.071  -3.410 -39.319  1.00  0.00     0.006 C 
BRANCH   4   5
ATOM      5  C   UNL     1      21.719  -3.979 -39.773  1.00  0.00     0.053 C 
BRANCH   5   6
ATOM      6  C   UNL     1      20.571  -3.232 -39.169  1.00  0.00     0.041 C 
ATOM      7  O   UNL     1      20.621  -2.853 -37.969  1.00  0.00    -0.550 OA
ATOM      8  O   UNL     1      19.458  -2.924 -39.942  1.00  0.00    -0.550 OA
ENDBRANCH   5   6
ENDBRANCH   4   5
ENDBRANCH   3   4
ENDBRANCH   2   3
ENDBRANCH   1   2
BRANCH   1   9
ATOM      9  C   UNL     1      23.550  -5.554 -36.211  1.00  0.00     0.000 C 
BRANCH   9  10
ATOM     10  C   UNL     1      22.268  -6.102 -36.857  1.00  0.00    -0.000 C 
BRANCH  10  11
ATOM     11  C   UNL     1      22.413  -7.562 -37.313  1.00  0.00    -0.000 C 
BRANCH  11  12
ATOM     12  C   UNL     1      22.363  -7.711 -38.844  1.00  0.00    -0.000 C 
BRANCH  12  13
ATOM     13  C   UNL     1      23.649  -8.327 -39.417  1.00  0.00    -0.003 C 
ATOM     14  C   UNL     1      24.712  -8.578 -38.347  1.00  0.00     0.004 C 
ENDBRANCH  12  13
ENDBRANCH  11  12
ENDBRANCH  10  11
ENDBRANCH   9  10
ENDBRANCH   1   9
TORSDOF 10
ENDMDL
MODEL 7
REMARK VINA RESULT:    -4.447      1.021      2.612
REMARK INTER + INTRA:          -8.703
REMARK INTER:                  -7.198
REMARK INTRA:                  -1.505
REMARK UNBOUND:                -1.656
REMARK SMILES CCCCCCCCCCCC(=O)[O-]
REMARK SMILES IDX 7 1 8 2 9 3 10 4 11 5 12 6 13 7 14 8 6 9 5 10 4 11 3 12 2 13
REMARK SMILES IDX 1 14
REMARK H PARENT
REMARK Flexibility Score: inf
ROOT
ATOM      1  C   UNL     1      24.213  -3.927 -37.100  1.00  0.00     0.000 C 
ENDROOT
BRANCH   1   2
ATOM      2  C   UNL     1      23.508  -4.948 -36.193  1.00  0.00     0.000 C 
BRANCH   2   3
ATOM      3  C   UNL     1      23.723  -6.398 -36.654  1.00  0.00     0.000 C 
BRANCH   3   4
ATOM      4  C   UNL     1      22.380  -7.097 -36.910  1.00  0.00     0.006 C 
BRANCH   4   5
ATOM      5  C   UNL     1      22.544  -8.391 -37.720  1.00  0.00     0.053 C 
BRANCH   5   6
ATOM      6  C   UNL     1      22.984  -8.115 -39.124  1.00  0.00     0.041 C 
ATOM      7  O   UNL     1      22.168  -7.654 -39.966  1.00  0.00    -0.550 OA
ATOM      8  O   UNL     1      24.304  -8.334 -39.495  1.00  0.00    -0.550 OA
ENDBRANCH   5   6
ENDBRANCH   4   5
ENDBRANCH   3   4
ENDBRANCH   2   3
ENDBRANCH   1   2
BRANCH   1   9
ATOM      9  C   UNL     1      25.000  -4.591 -38.239  1.00  0.00     0.000 C 
BRANCH   9  10
ATOM     10  C   UNL     1      24.203  -4.551 -39.552  1.00  0.00    -0.000 C 
BRANCH  10  11
ATOM     11  C   UNL     1      23.054  -3.531 -39.516  1.00  0.00    -0.000 C 
BRANCH  11  12
ATOM     12  C   UNL     1      21.687  -4.170 -39.818  1.00  0.00    -0.000 C 
BRANCH  12  13
ATOM     13  C   UNL     1      20.748  -4.152 -38.603  1.00  0.00    -0.003 C 
ATOM     14  C   UNL     1      20.726  -2.797 -37.894  1.00  0.00     0.004 C 
ENDBRANCH  12  13
ENDBRANCH  11  12
ENDBRANCH  10  11
ENDBRANCH   9  10
ENDBRANCH   1   9
TORSDOF 10
ENDMDL
MODEL 8
REMARK VINA RESULT:    -4.437      1.596      3.342
REMARK INTER + INTRA:          -8.686
REMARK INTER:                  -7.357
REMARK INTRA:                  -1.329
REMARK UNBOUND:                -1.656
REMARK SMILES CCCCCCCCCCCC(=O)[O-]
REMARK SMILES IDX 7 1 8 2 9 3 10 4 11 5 12 6 13 7 14 8 6 9 5 10 4 11 3 12 2 13
REMARK SMILES IDX 1 14
REMARK H PARENT
REMARK Flexibility Score: inf
ROOT
ATOM      1  C   UNL     1      23.912  -5.027 -39.834  1.00  0.00     0.000 C 
ENDROOT
BRANCH   1   2
ATOM      2  C   UNL     1      22.466  -5.385 -40.211  1.00  0.00     0.000 C 
BRANCH   2   3
ATOM      3  C   UNL     1      21.833  -6.393 -39.240  1.00  0.00     0.000 C 
BRANCH   3   4
ATOM      4  C   UNL     1      22.429  -7.794 -39.437  1.00  0.00     0.006 C 
BRANCH   4   5
ATOM      5  C   UNL     1      23.097  -8.326 -38.161  1.00  0.00     0.053 C 
BRANCH   5   6
ATOM      6  C   UNL     1      24.562  -8.564 -38.359  1.00  0.00     0.041 C 
ATOM      7  O   UNL     1      24.958  -9.455 -39.157  1.00  0.00    -0.550 OA
ATOM      8  O   UNL     1      25.491  -7.780 -37.688  1.00  0.00    -0.550 OA
ENDBRANCH   5   6
ENDBRANCH   4   5
ENDBRANCH   3   4
ENDBRANCH   2   3
ENDBRANCH   1   2
BRANCH   1   9
ATOM      9  C   UNL     1      24.091  -3.533 -39.528  1.00  0.00     0.000 C 
BRANCH   9  10
ATOM     10  C   UNL     1      23.853  -3.247 -38.037  1.00  0.00    -0.000 C 
BRANCH  10  11
ATOM     11  C   UNL     1      24.369  -4.373 -37.128  1.00  0.00    -0.000 C 
BRANCH  11  12
ATOM     12  C   UNL     1      23.303  -4.864 -36.132  1.00  0.00    -0.000 C 
BRANCH  12  13
ATOM     13  C   UNL     1      21.951  -4.158 -36.321  1.00  0.00    -0.003 C 
ATOM     14  C   UNL     1      21.584  -3.261 -35.137  1.00  0.00     0.004 C 
ENDBRANCH  12  13
ENDBRANCH  11  12
ENDBRANCH  10  11
ENDBRANCH   9  10
ENDBRANCH   1   9
TORSDOF 10
ENDMDL
MODEL 9
REMARK VINA RESULT:    -4.384      2.373      4.798
REMARK INTER + INTRA:          -8.603
REMARK INTER:                  -7.185
REMARK INTRA:                  -1.418
REMARK UNBOUND:                -1.656
REMARK SMILES CCCCCCCCCCCC(=O)[O-]
REMARK SMILES IDX 7 1 8 2 9 3 10 4 11 5 12 6 13 7 14 8 6 9 5 10 4 11 3 12 2 13
REMARK SMILES IDX 1 14
REMARK H PARENT
REMARK Flexibility Score: inf
ROOT
ATOM      1  C   UNL     1      24.734  -4.102 -38.795  1.00  0.00     0.000 C 
ENDROOT
BRANCH   1   2
ATOM      2  C   UNL     1      23.963  -4.842 -39.899  1.00  0.00     0.000 C 
BRANCH   2   3
ATOM      3  C   UNL     1      22.441  -4.792 -39.695  1.00  0.00     0.000 C 
BRANCH   3   4
ATOM      4  C   UNL     1      22.069  -3.800 -38.583  1.00  0.00     0.006 C 
BRANCH   4   5
ATOM      5  C   UNL     1      21.353  -4.483 -37.410  1.00  0.00     0.053 C 
BRANCH   5   6
ATOM      6  C   UNL     1      22.064  -4.250 -36.114  1.00  0.00     0.041 C 
ATOM      7  O   UNL     1      21.630  -3.396 -35.295  1.00  0.00    -0.550 OA
ATOM      8  O   UNL     1      23.189  -5.000 -35.793  1.00  0.00    -0.550 OA
ENDBRANCH   5   6
ENDBRANCH   4   5
ENDBRANCH   3   4
ENDBRANCH   2   3
ENDBRANCH   1   2
BRANCH   1   9
ATOM      9  C   UNL     1      25.717  -5.013 -38.047  1.00  0.00     0.000 C 
BRANCH   9  10
ATOM     10  C   UNL     1      25.778  -6.404 -38.695  1.00  0.00    -0.000 C 
BRANCH  10  11
ATOM     11  C   UNL     1      25.461  -7.534 -37.703  1.00  0.00    -0.000 C 
BRANCH  11  12
ATOM     12  C   UNL     1      24.795  -8.745 -38.379  1.00  0.00    -0.000 C 
BRANCH  12  13
ATOM     13  C   UNL     1      23.351  -8.455 -38.816  1.00  0.00    -0.003 C 
ATOM     14  C   UNL     1      22.463  -8.004 -37.655  1.00  0.00     0.004 C 
ENDBRANCH  12  13
ENDBRANCH  11  12
ENDBRANCH  10  11
ENDBRANCH   9  10
ENDBRANCH   1   9
TORSDOF 10
ENDMDL
