MODEL 1
REMARK VINA RESULT:    -4.020      0.000      0.000
REMARK INTER + INTRA:         -12.192
REMARK INTER:                  -8.720
REMARK INTRA:                  -3.472
REMARK UNBOUND:                -3.472
REMARK SMILES CCCCCCCCCCCCCCCCCCCCCC(=O)[O-]
REMARK SMILES IDX 12 1 11 2 10 3 9 4 8 5 7 6 6 7 5 8 4 9 3 10 2 11 1 12 13 13
REMARK SMILES IDX 14 14 15 15 16 16 17 17 18 18 19 19 20 20 21 21 22 22 23 23
REMARK SMILES IDX 24 24
REMARK H PARENT
REMARK Flexibility Score: inf
ROOT
ATOM      1  C   UNL     1       1.733   4.737   7.103  1.00  0.00     0.000 C 
ENDROOT
BRANCH   1   2
ATOM      2  C   UNL     1       1.082   4.982   5.732  1.00  0.00     0.000 C 
BRANCH   2   3
ATOM      3  C   UNL     1      -0.454   5.043   5.808  1.00  0.00     0.000 C 
BRANCH   3   4
ATOM      4  C   UNL     1      -1.138   4.144   4.761  1.00  0.00    -0.000 C 
BRANCH   4   5
ATOM      5  C   UNL     1      -1.386   2.689   5.208  1.00  0.00    -0.000 C 
BRANCH   5   6
ATOM      6  C   UNL     1      -2.763   2.428   5.844  1.00  0.00    -0.000 C 
BRANCH   6   7
ATOM      7  C   UNL     1      -2.867   2.957   7.281  1.00  0.00    -0.000 C 
BRANCH   7   8
ATOM      8  C   UNL     1      -4.110   3.844   7.452  1.00  0.00    -0.000 C 
BRANCH   8   9
ATOM      9  C   UNL     1      -4.731   4.257   6.108  1.00  0.00    -0.000 C 
BRANCH   9  10
ATOM     10  C   UNL     1      -4.411   5.714   5.730  1.00  0.00    -0.000 C 
BRANCH  10  11
ATOM     11  C   UNL     1      -3.982   6.555   6.940  1.00  0.00    -0.003 C 
ATOM     12  C   UNL     1      -2.996   7.663   6.570  1.00  0.00     0.004 C 
ENDBRANCH  10  11
ENDBRANCH   9  10
ENDBRANCH   8   9
ENDBRANCH   7   8
ENDBRANCH   6   7
ENDBRANCH   5   6
ENDBRANCH   4   5
ENDBRANCH   3   4
ENDBRANCH   2   3
ENDBRANCH   1   2
BRANCH   1  13
ATOM     13  C   UNL     1       0.841   3.915   8.047  1.00  0.00     0.000 C 
BRANCH  13  14
ATOM     14  C   UNL     1       1.544   2.619   8.477  1.00  0.00     0.000 C 
BRANCH  14  15
ATOM     15  C   UNL     1       0.912   1.363   7.854  1.00  0.00     0.000 C 
BRANCH  15  16
ATOM     16  C   UNL     1       1.439   1.073   6.438  1.00  0.00     0.000 C 
BRANCH  16  17
ATOM     17  C   UNL     1       2.025  -0.344   6.295  1.00  0.00     0.000 C 
BRANCH  17  18
ATOM     18  C   UNL     1       2.406  -1.038   7.616  1.00  0.00     0.000 C 
BRANCH  18  19
ATOM     19  C   UNL     1       3.924  -1.078   7.857  1.00  0.00     0.000 C 
BRANCH  19  20
ATOM     20  C   UNL     1       4.487   0.262   8.363  1.00  0.00     0.006 C 
BRANCH  20  21
ATOM     21  C   UNL     1       5.413   0.974   7.359  1.00  0.00     0.053 C 
BRANCH  21  22
ATOM     22  C   UNL     1       4.944   2.355   7.016  1.00  0.00     0.041 C 
ATOM     23  O   UNL     1       4.463   2.599   5.878  1.00  0.00    -0.550 OA
ATOM     24  O   UNL     1       4.998   3.366   7.969  1.00  0.00    -0.550 OA
ENDBRANCH  21  22
ENDBRANCH  20  21
ENDBRANCH  19  20
ENDBRANCH  18  19
ENDBRANCH  17  18
ENDBRANCH  16  17
ENDBRANCH  15  16
ENDBRANCH  14  15
ENDBRANCH  13  14
ENDBRANCH   1  13
TORSDOF 20
ENDMDL
MODEL 2
REMARK VINA RESULT:    -3.953      2.037      2.593
REMARK INTER + INTRA:         -12.046
REMARK INTER:                  -9.092
REMARK INTRA:                  -2.955
REMARK UNBOUND:                -3.472
REMARK SMILES CCCCCCCCCCCCCCCCCCCCCC(=O)[O-]
REMARK SMILES IDX 12 1 11 2 10 3 9 4 8 5 7 6 6 7 5 8 4 9 3 10 2 11 1 12 13 13
REMARK SMILES IDX 14 14 15 15 16 16 17 17 18 18 19 19 20 20 21 21 22 22 23 23
REMARK SMILES IDX 24 24
REMARK H PARENT
REMARK Flexibility Score: inf
ROOT
ATOM      1  C   UNL     1       1.947   3.447   7.023  1.00  0.00     0.000 C 
ENDROOT
BRANCH   1   2
ATOM      2  C   UNL     1       1.349   4.864   7.024  1.00  0.00     0.000 C 
BRANCH   2   3
ATOM      3  C   UNL     1       0.827   5.288   5.640  1.00  0.00     0.000 C 
BRANCH   3   4
ATOM      4  C   UNL     1      -0.664   4.963   5.442  1.00  0.00    -0.000 C 
BRANCH   4   5
ATOM      5  C   UNL     1      -0.955   3.693   4.618  1.00  0.00    -0.000 C 
BRANCH   5   6
ATOM      6  C   UNL     1      -1.650   2.559   5.392  1.00  0.00    -0.000 C 
BRANCH   6   7
ATOM      7  C   UNL     1      -2.199   3.014   6.752  1.00  0.00    -0.000 C 
BRANCH   7   8
ATOM      8  C   UNL     1      -3.687   2.656   6.892  1.00  0.00    -0.000 C 
BRANCH   8   9
ATOM      9  C   UNL     1      -4.602   3.887   6.791  1.00  0.00    -0.000 C 
BRANCH   9  10
ATOM     10  C   UNL     1      -3.930   5.169   7.313  1.00  0.00    -0.000 C 
BRANCH  10  11
ATOM     11  C   UNL     1      -3.945   6.304   6.278  1.00  0.00    -0.003 C 
ATOM     12  C   UNL     1      -4.926   6.048   5.134  1.00  0.00     0.004 C 
ENDBRANCH  10  11
ENDBRANCH   9  10
ENDBRANCH   8   9
ENDBRANCH   7   8
ENDBRANCH   6   7
ENDBRANCH   5   6
ENDBRANCH   4   5
ENDBRANCH   3   4
ENDBRANCH   2   3
ENDBRANCH   1   2
BRANCH   1  13
ATOM     13  C   UNL     1       1.534   2.626   8.255  1.00  0.00     0.000 C 
BRANCH  13  14
ATOM     14  C   UNL     1       0.968   1.260   7.839  1.00  0.00     0.000 C 
BRANCH  14  15
ATOM     15  C   UNL     1       1.481   0.795   6.466  1.00  0.00     0.000 C 
BRANCH  15  16
ATOM     16  C   UNL     1       2.368  -0.458   6.555  1.00  0.00     0.000 C 
BRANCH  16  17
ATOM     17  C   UNL     1       3.658  -0.224   7.364  1.00  0.00     0.000 C 
BRANCH  17  18
ATOM     18  C   UNL     1       4.514   0.974   6.910  1.00  0.00     0.000 C 
BRANCH  18  19
ATOM     19  C   UNL     1       5.733   1.217   7.814  1.00  0.00     0.000 C 
BRANCH  19  20
ATOM     20  C   UNL     1       5.976   0.073   8.815  1.00  0.00     0.006 C 
BRANCH  20  21
ATOM     21  C   UNL     1       7.327  -0.646   8.633  1.00  0.00     0.053 C 
BRANCH  21  22
ATOM     22  C   UNL     1       7.274  -1.722   7.592  1.00  0.00     0.041 C 
ATOM     23  O   UNL     1       8.171  -1.801   6.712  1.00  0.00    -0.550 OA
ATOM     24  O   UNL     1       6.254  -2.667   7.618  1.00  0.00    -0.550 OA
ENDBRANCH  21  22
ENDBRANCH  20  21
ENDBRANCH  19  20
ENDBRANCH  18  19
ENDBRANCH  17  18
ENDBRANCH  16  17
ENDBRANCH  15  16
ENDBRANCH  14  15
ENDBRANCH  13  14
ENDBRANCH   1  13
TORSDOF 20
ENDMDL
MODEL 3
REMARK VINA RESULT:    -3.862      3.009      7.366
REMARK INTER + INTRA:         -11.848
REMARK INTER:                  -8.439
REMARK INTRA:                  -3.410
REMARK UNBOUND:                -3.472
REMARK SMILES CCCCCCCCCCCCCCCCCCCCCC(=O)[O-]
REMARK SMILES IDX 12 1 11 2 10 3 9 4 8 5 7 6 6 7 5 8 4 9 3 10 2 11 1 12 13 13
REMARK SMILES IDX 14 14 15 15 16 16 17 17 18 18 19 19 20 20 21 21 22 22 23 23
REMARK SMILES IDX 24 24
REMARK H PARENT
REMARK Flexibility Score: inf
ROOT
ATOM      1  C   UNL     1       5.375   3.927   7.565  1.00  0.00     0.000 C 
ENDROOT
BRANCH   1   2
ATOM      2  C   UNL     1       4.526   3.645   6.314  1.00  0.00     0.000 C 
BRANCH   2   3
ATOM      3  C   UNL     1       3.823   2.278   6.372  1.00  0.00     0.000 C 
BRANCH   3   4
ATOM      4  C   UNL     1       2.992   2.088   7.653  1.00  0.00    -0.000 C 
BRANCH   4   5
ATOM      5  C   UNL     1       1.647   1.359   7.462  1.00  0.00    -0.000 C 
BRANCH   5   6
ATOM      6  C   UNL     1       1.613   0.347   6.302  1.00  0.00    -0.000 C 
BRANCH   6   7
ATOM      7  C   UNL     1       2.214  -1.014   6.680  1.00  0.00    -0.000 C 
BRANCH   7   8
ATOM      8  C   UNL     1       1.967  -1.331   8.163  1.00  0.00    -0.000 C 
BRANCH   8   9
ATOM      9  C   UNL     1       3.259  -1.687   8.915  1.00  0.00    -0.000 C 
BRANCH   9  10
ATOM     10  C   UNL     1       4.522  -1.449   8.068  1.00  0.00    -0.000 C 
BRANCH  10  11
ATOM     11  C   UNL     1       5.624  -0.717   8.847  1.00  0.00    -0.003 C 
ATOM     12  C   UNL     1       6.420   0.253   7.974  1.00  0.00     0.004 C 
ENDBRANCH  10  11
ENDBRANCH   9  10
ENDBRANCH   8   9
ENDBRANCH   7   8
ENDBRANCH   6   7
ENDBRANCH   5   6
ENDBRANCH   4   5
ENDBRANCH   3   4
ENDBRANCH   2   3
ENDBRANCH   1   2
BRANCH   1  13
ATOM     13  C   UNL     1       4.873   5.141   8.364  1.00  0.00     0.000 C 
BRANCH  13  14
ATOM     14  C   UNL     1       3.971   4.698   9.526  1.00  0.00     0.000 C 
BRANCH  14  15
ATOM     15  C   UNL     1       2.611   5.417   9.531  1.00  0.00     0.000 C 
BRANCH  15  16
ATOM     16  C   UNL     1       2.196   5.916   8.137  1.00  0.00     0.000 C 
BRANCH  16  17
ATOM     17  C   UNL     1       1.028   5.114   7.535  1.00  0.00     0.000 C 
BRANCH  17  18
ATOM     18  C   UNL     1       1.078   4.919   6.007  1.00  0.00     0.000 C 
BRANCH  18  19
ATOM     19  C   UNL     1      -0.315   4.913   5.358  1.00  0.00     0.000 C 
BRANCH  19  20
ATOM     20  C   UNL     1      -0.799   3.500   4.988  1.00  0.00     0.006 C 
BRANCH  20  21
ATOM     21  C   UNL     1      -1.605   2.801   6.100  1.00  0.00     0.053 C 
BRANCH  21  22
ATOM     22  C   UNL     1      -3.085   2.869   5.874  1.00  0.00     0.041 C 
ATOM     23  O   UNL     1      -3.672   3.983   5.840  1.00  0.00    -0.550 OA
ATOM     24  O   UNL     1      -3.811   1.703   5.657  1.00  0.00    -0.550 OA
ENDBRANCH  21  22
ENDBRANCH  20  21
ENDBRANCH  19  20
ENDBRANCH  18  19
ENDBRANCH  17  18
ENDBRANCH  16  17
ENDBRANCH  15  16
ENDBRANCH  14  15
ENDBRANCH  13  14
ENDBRANCH   1  13
TORSDOF 20
ENDMDL
MODEL 4
REMARK VINA RESULT:    -3.853      1.520      2.803
REMARK INTER + INTRA:         -11.830
REMARK INTER:                  -8.785
REMARK INTRA:                  -3.045
REMARK UNBOUND:                -3.472
REMARK SMILES CCCCCCCCCCCCCCCCCCCCCC(=O)[O-]
REMARK SMILES IDX 12 1 11 2 10 3 9 4 8 5 7 6 6 7 5 8 4 9 3 10 2 11 1 12 13 13
REMARK SMILES IDX 14 14 15 15 16 16 17 17 18 18 19 19 20 20 21 21 22 22 23 23
REMARK SMILES IDX 24 24
REMARK H PARENT
REMARK Flexibility Score: inf
ROOT
ATOM      1  C   UNL     1       0.154   4.987   5.338  1.00  0.00     0.000 C 
ENDROOT
BRANCH   1   2
ATOM      2  C   UNL     1      -1.150   4.410   4.761  1.00  0.00     0.000 C 
BRANCH   2   3
ATOM      3  C   UNL     1      -1.324   2.913   5.071  1.00  0.00     0.000 C 
BRANCH   3   4
ATOM      4  C   UNL     1      -2.664   2.599   5.760  1.00  0.00    -0.000 C 
BRANCH   4   5
ATOM      5  C   UNL     1      -3.146   3.659   6.771  1.00  0.00    -0.000 C 
BRANCH   5   6
ATOM      6  C   UNL     1      -4.626   4.060   6.639  1.00  0.00    -0.000 C 
BRANCH   6   7
ATOM      7  C   UNL     1      -4.834   5.286   5.738  1.00  0.00    -0.000 C 
BRANCH   7   8
ATOM      8  C   UNL     1      -3.811   6.386   6.060  1.00  0.00    -0.000 C 
BRANCH   8   9
ATOM      9  C   UNL     1      -4.394   7.799   5.903  1.00  0.00    -0.000 C 
BRANCH   9  10
ATOM     10  C   UNL     1      -5.905   7.789   5.615  1.00  0.00    -0.000 C 
BRANCH  10  11
ATOM     11  C   UNL     1      -6.279   8.649   4.399  1.00  0.00    -0.003 C 
ATOM     12  C   UNL     1      -5.447   8.315   3.161  1.00  0.00     0.004 C 
ENDBRANCH  10  11
ENDBRANCH   9  10
ENDBRANCH   8   9
ENDBRANCH   7   8
ENDBRANCH   6   7
ENDBRANCH   5   6
ENDBRANCH   4   5
ENDBRANCH   3   4
ENDBRANCH   2   3
ENDBRANCH   1   2
BRANCH   1  13
ATOM     13  C   UNL     1      -0.090   6.157   6.304  1.00  0.00     0.000 C 
BRANCH  13  14
ATOM     14  C   UNL     1       0.003   5.691   7.765  1.00  0.00     0.000 C 
BRANCH  14  15
ATOM     15  C   UNL     1       0.829   4.404   7.928  1.00  0.00     0.000 C 
BRANCH  15  16
ATOM     16  C   UNL     1       0.092   3.322   8.736  1.00  0.00     0.000 C 
BRANCH  16  17
ATOM     17  C   UNL     1       0.328   1.901   8.192  1.00  0.00     0.000 C 
BRANCH  17  18
ATOM     18  C   UNL     1       1.282   1.805   6.986  1.00  0.00     0.000 C 
BRANCH  18  19
ATOM     19  C   UNL     1       1.936   0.421   6.848  1.00  0.00     0.000 C 
BRANCH  19  20
ATOM     20  C   UNL     1       3.443   0.497   6.545  1.00  0.00     0.006 C 
BRANCH  20  21
ATOM     21  C   UNL     1       4.235   1.394   7.516  1.00  0.00     0.053 C 
BRANCH  21  22
ATOM     22  C   UNL     1       4.848   2.581   6.838  1.00  0.00     0.041 C 
ATOM     23  O   UNL     1       4.509   2.889   5.665  1.00  0.00    -0.550 OA
ATOM     24  O   UNL     1       5.766   3.374   7.517  1.00  0.00    -0.550 OA
ENDBRANCH  21  22
ENDBRANCH  20  21
ENDBRANCH  19  20
ENDBRANCH  18  19
ENDBRANCH  17  18
ENDBRANCH  16  17
ENDBRANCH  15  16
ENDBRANCH  14  15
ENDBRANCH  13  14
ENDBRANCH   1  13
TORSDOF 20
ENDMDL
MODEL 5
REMARK VINA RESULT:    -3.817      3.851      8.132
REMARK INTER + INTRA:         -11.752
REMARK INTER:                  -8.450
REMARK INTRA:                  -3.302
REMARK UNBOUND:                -3.472
REMARK SMILES CCCCCCCCCCCCCCCCCCCCCC(=O)[O-]
REMARK SMILES IDX 12 1 11 2 10 3 9 4 8 5 7 6 6 7 5 8 4 9 3 10 2 11 1 12 13 13
REMARK SMILES IDX 14 14 15 15 16 16 17 17 18 18 19 19 20 20 21 21 22 22 23 23
REMARK SMILES IDX 24 24
REMARK H PARENT
REMARK Flexibility Score: inf
ROOT
ATOM      1  C   UNL     1      -0.658   4.940   5.700  1.00  0.00     0.000 C 
ENDROOT
BRANCH   1   2
ATOM      2  C   UNL     1       0.863   5.163   5.738  1.00  0.00     0.000 C 
BRANCH   2   3
ATOM      3  C   UNL     1       1.407   5.297   7.171  1.00  0.00     0.000 C 
BRANCH   3   4
ATOM      4  C   UNL     1       0.452   4.713   8.228  1.00  0.00    -0.000 C 
BRANCH   4   5
ATOM      5  C   UNL     1       0.994   3.495   9.001  1.00  0.00    -0.000 C 
BRANCH   5   6
ATOM      6  C   UNL     1       0.132   2.224   8.904  1.00  0.00    -0.000 C 
BRANCH   6   7
ATOM      7  C   UNL     1       0.888   1.034   8.296  1.00  0.00    -0.000 C 
BRANCH   7   8
ATOM      8  C   UNL     1       1.472   1.398   6.922  1.00  0.00    -0.000 C 
BRANCH   8   9
ATOM      9  C   UNL     1       2.655   0.501   6.527  1.00  0.00    -0.000 C 
BRANCH   9  10
ATOM     10  C   UNL     1       4.015   1.116   6.901  1.00  0.00    -0.000 C 
BRANCH  10  11
ATOM     11  C   UNL     1       3.934   2.633   7.128  1.00  0.00    -0.003 C 
ATOM     12  C   UNL     1       4.440   3.437   5.932  1.00  0.00     0.004 C 
ENDBRANCH  10  11
ENDBRANCH   9  10
ENDBRANCH   8   9
ENDBRANCH   7   8
ENDBRANCH   6   7
ENDBRANCH   5   6
ENDBRANCH   4   5
ENDBRANCH   3   4
ENDBRANCH   2   3
ENDBRANCH   1   2
BRANCH   1  13
ATOM     13  C   UNL     1      -1.084   3.923   4.630  1.00  0.00     0.000 C 
BRANCH  13  14
ATOM     14  C   UNL     1      -1.544   2.607   5.276  1.00  0.00     0.000 C 
BRANCH  14  15
ATOM     15  C   UNL     1      -2.507   2.827   6.455  1.00  0.00     0.000 C 
BRANCH  15  16
ATOM     16  C   UNL     1      -3.979   2.602   6.069  1.00  0.00     0.000 C 
BRANCH  16  17
ATOM     17  C   UNL     1      -4.828   3.884   6.168  1.00  0.00     0.000 C 
BRANCH  17  18
ATOM     18  C   UNL     1      -4.175   5.051   6.933  1.00  0.00     0.000 C 
BRANCH  18  19
ATOM     19  C   UNL     1      -3.907   6.276   6.043  1.00  0.00     0.000 C 
BRANCH  19  20
ATOM     20  C   UNL     1      -4.935   6.430   4.908  1.00  0.00     0.006 C 
BRANCH  20  21
ATOM     21  C   UNL     1      -5.458   7.868   4.725  1.00  0.00     0.053 C 
BRANCH  21  22
ATOM     22  C   UNL     1      -6.268   8.342   5.893  1.00  0.00     0.041 C 
ATOM     23  O   UNL     1      -6.096   9.499   6.359  1.00  0.00    -0.550 OA
ATOM     24  O   UNL     1      -7.246   7.519   6.441  1.00  0.00    -0.550 OA
ENDBRANCH  21  22
ENDBRANCH  20  21
ENDBRANCH  19  20
ENDBRANCH  18  19
ENDBRANCH  17  18
ENDBRANCH  16  17
ENDBRANCH  15  16
ENDBRANCH  14  15
ENDBRANCH  13  14
ENDBRANCH   1  13
TORSDOF 20
ENDMDL
MODEL 6
REMARK VINA RESULT:    -3.725      1.719      4.150
REMARK INTER + INTRA:         -11.552
REMARK INTER:                  -7.626
REMARK INTRA:                  -3.925
REMARK UNBOUND:                -3.472
REMARK SMILES CCCCCCCCCCCCCCCCCCCCCC(=O)[O-]
REMARK SMILES IDX 12 1 11 2 10 3 9 4 8 5 7 6 6 7 5 8 4 9 3 10 2 11 1 12 13 13
REMARK SMILES IDX 14 14 15 15 16 16 17 17 18 18 19 19 20 20 21 21 22 22 23 23
REMARK SMILES IDX 24 24
REMARK H PARENT
REMARK Flexibility Score: inf
ROOT
ATOM      1  C   UNL     1      -1.275   2.766   5.237  1.00  0.00     0.000 C 
ENDROOT
BRANCH   1   2
ATOM      2  C   UNL     1      -2.522   2.686   6.132  1.00  0.00     0.000 C 
BRANCH   2   3
ATOM      3  C   UNL     1      -2.172   2.554   7.625  1.00  0.00     0.000 C 
BRANCH   3   4
ATOM      4  C   UNL     1      -3.193   3.254   8.540  1.00  0.00    -0.000 C 
BRANCH   4   5
ATOM      5  C   UNL     1      -2.934   4.755   8.785  1.00  0.00    -0.000 C 
BRANCH   5   6
ATOM      6  C   UNL     1      -4.018   5.478   9.603  1.00  0.00    -0.000 C 
BRANCH   6   7
ATOM      7  C   UNL     1      -5.441   5.038   9.230  1.00  0.00    -0.000 C 
BRANCH   7   8
ATOM      8  C   UNL     1      -6.284   6.236   8.769  1.00  0.00    -0.000 C 
BRANCH   8   9
ATOM      9  C   UNL     1      -6.431   6.303   7.240  1.00  0.00    -0.000 C 
BRANCH   9  10
ATOM     10  C   UNL     1      -5.939   5.024   6.541  1.00  0.00    -0.000 C 
BRANCH  10  11
ATOM     11  C   UNL     1      -4.821   5.301   5.526  1.00  0.00    -0.003 C 
ATOM     12  C   UNL     1      -4.115   6.634   5.773  1.00  0.00     0.004 C 
ENDBRANCH  10  11
ENDBRANCH   9  10
ENDBRANCH   8   9
ENDBRANCH   7   8
ENDBRANCH   6   7
ENDBRANCH   5   6
ENDBRANCH   4   5
ENDBRANCH   3   4
ENDBRANCH   2   3
ENDBRANCH   1   2
BRANCH   1  13
ATOM     13  C   UNL     1      -1.118   4.136   4.557  1.00  0.00     0.000 C 
BRANCH  13  14
ATOM     14  C   UNL     1      -0.018   4.964   5.238  1.00  0.00     0.000 C 
BRANCH  14  15
ATOM     15  C   UNL     1      -0.568   5.910   6.319  1.00  0.00     0.000 C 
BRANCH  15  16
ATOM     16  C   UNL     1       0.534   6.475   7.231  1.00  0.00     0.000 C 
BRANCH  16  17
ATOM     17  C   UNL     1       1.461   5.384   7.799  1.00  0.00     0.000 C 
BRANCH  17  18
ATOM     18  C   UNL     1       0.773   4.329   8.687  1.00  0.00     0.000 C 
BRANCH  18  19
ATOM     19  C   UNL     1       1.488   2.969   8.665  1.00  0.00     0.000 C 
BRANCH  19  20
ATOM     20  C   UNL     1       1.830   2.493   7.242  1.00  0.00     0.006 C 
BRANCH  20  21
ATOM     21  C   UNL     1       1.458   1.023   6.965  1.00  0.00     0.053 C 
BRANCH  21  22
ATOM     22  C   UNL     1       2.567   0.260   6.307  1.00  0.00     0.041 C 
ATOM     23  O   UNL     1       3.738   0.723   6.293  1.00  0.00    -0.550 OA
ATOM     24  O   UNL     1       2.315  -0.986   5.744  1.00  0.00    -0.550 OA
ENDBRANCH  21  22
ENDBRANCH  20  21
ENDBRANCH  19  20
ENDBRANCH  18  19
ENDBRANCH  17  18
ENDBRANCH  16  17
ENDBRANCH  15  16
ENDBRANCH  14  15
ENDBRANCH  13  14
ENDBRANCH   1  13
TORSDOF 20
ENDMDL
MODEL 7
REMARK VINA RESULT:    -3.725      1.525      4.205
REMARK INTER + INTRA:         -11.552
REMARK INTER:                  -7.670
REMARK INTRA:                  -3.881
REMARK UNBOUND:                -3.472
REMARK SMILES CCCCCCCCCCCCCCCCCCCCCC(=O)[O-]
REMARK SMILES IDX 12 1 11 2 10 3 9 4 8 5 7 6 6 7 5 8 4 9 3 10 2 11 1 12 13 13
REMARK SMILES IDX 14 14 15 15 16 16 17 17 18 18 19 19 20 20 21 21 22 22 23 23
REMARK SMILES IDX 24 24
REMARK H PARENT
REMARK Flexibility Score: inf
ROOT
ATOM      1  C   UNL     1      -1.248   2.616   5.627  1.00  0.00     0.000 C 
ENDROOT
BRANCH   1   2
ATOM      2  C   UNL     1      -2.706   2.209   5.898  1.00  0.00     0.000 C 
BRANCH   2   3
ATOM      3  C   UNL     1      -3.170   2.576   7.318  1.00  0.00     0.000 C 
BRANCH   3   4
ATOM      4  C   UNL     1      -4.142   3.768   7.338  1.00  0.00    -0.000 C 
BRANCH   4   5
ATOM      5  C   UNL     1      -4.643   4.230   5.954  1.00  0.00    -0.000 C 
BRANCH   5   6
ATOM      6  C   UNL     1      -5.532   5.486   5.968  1.00  0.00    -0.000 C 
BRANCH   6   7
ATOM      7  C   UNL     1      -4.931   6.652   5.171  1.00  0.00    -0.000 C 
BRANCH   7   8
ATOM      8  C   UNL     1      -5.689   7.959   5.451  1.00  0.00    -0.000 C 
BRANCH   8   9
ATOM      9  C   UNL     1      -4.801   9.029   6.104  1.00  0.00    -0.000 C 
BRANCH   9  10
ATOM     10  C   UNL     1      -3.361   8.541   6.342  1.00  0.00    -0.000 C 
BRANCH  10  11
ATOM     11  C   UNL     1      -2.991   8.504   7.832  1.00  0.00    -0.003 C 
ATOM     12  C   UNL     1      -3.847   7.522   8.630  1.00  0.00     0.004 C 
ENDBRANCH  10  11
ENDBRANCH   9  10
ENDBRANCH   8   9
ENDBRANCH   7   8
ENDBRANCH   6   7
ENDBRANCH   5   6
ENDBRANCH   4   5
ENDBRANCH   3   4
ENDBRANCH   2   3
ENDBRANCH   1   2
BRANCH   1  13
ATOM     13  C   UNL     1      -1.128   3.755   4.602  1.00  0.00     0.000 C 
BRANCH  13  14
ATOM     14  C   UNL     1      -0.399   4.964   5.209  1.00  0.00     0.000 C 
BRANCH  14  15
ATOM     15  C   UNL     1      -1.208   5.651   6.321  1.00  0.00     0.000 C 
BRANCH  15  16
ATOM     16  C   UNL     1      -0.373   5.922   7.584  1.00  0.00     0.000 C 
BRANCH  16  17
ATOM     17  C   UNL     1      -0.478   4.794   8.627  1.00  0.00     0.000 C 
BRANCH  17  18
ATOM     18  C   UNL     1       0.642   3.738   8.574  1.00  0.00     0.000 C 
BRANCH  18  19
ATOM     19  C   UNL     1       1.978   4.305   8.067  1.00  0.00     0.000 C 
BRANCH  19  20
ATOM     20  C   UNL     1       2.535   3.537   6.855  1.00  0.00     0.006 C 
BRANCH  20  21
ATOM     21  C   UNL     1       2.201   2.033   6.857  1.00  0.00     0.053 C 
BRANCH  21  22
ATOM     22  C   UNL     1       3.418   1.170   6.715  1.00  0.00     0.041 C 
ATOM     23  O   UNL     1       4.493   1.654   6.272  1.00  0.00    -0.550 OA
ATOM     24  O   UNL     1       3.377  -0.163   7.110  1.00  0.00    -0.550 OA
ENDBRANCH  21  22
ENDBRANCH  20  21
ENDBRANCH  19  20
ENDBRANCH  18  19
ENDBRANCH  17  18
ENDBRANCH  16  17
ENDBRANCH  15  16
ENDBRANCH  14  15
ENDBRANCH  13  14
ENDBRANCH   1  13
TORSDOF 20
ENDMDL
MODEL 8
REMARK VINA RESULT:    -3.714      3.023      8.370
REMARK INTER + INTRA:         -11.528
REMARK INTER:                  -7.966
REMARK INTRA:                  -3.562
REMARK UNBOUND:                -3.472
REMARK SMILES CCCCCCCCCCCCCCCCCCCCCC(=O)[O-]
REMARK SMILES IDX 12 1 11 2 10 3 9 4 8 5 7 6 6 7 5 8 4 9 3 10 2 11 1 12 13 13
REMARK SMILES IDX 14 14 15 15 16 16 17 17 18 18 19 19 20 20 21 21 22 22 23 23
REMARK SMILES IDX 24 24
REMARK H PARENT
REMARK Flexibility Score: inf
ROOT
ATOM      1  C   UNL     1       3.028   0.373   6.397  1.00  0.00     0.000 C 
ENDROOT
BRANCH   1   2
ATOM      2  C   UNL     1       4.159   1.255   6.950  1.00  0.00     0.000 C 
BRANCH   2   3
ATOM      3  C   UNL     1       4.119   2.689   6.393  1.00  0.00     0.000 C 
BRANCH   3   4
ATOM      4  C   UNL     1       4.442   3.752   7.458  1.00  0.00    -0.000 C 
BRANCH   4   5
ATOM      5  C   UNL     1       4.783   3.197   8.856  1.00  0.00    -0.000 C 
BRANCH   5   6
ATOM      6  C   UNL     1       6.246   3.387   9.295  1.00  0.00    -0.000 C 
BRANCH   6   7
ATOM      7  C   UNL     1       6.931   2.068   9.676  1.00  0.00    -0.000 C 
BRANCH   7   8
ATOM      8  C   UNL     1       7.577   1.408   8.447  1.00  0.00    -0.000 C 
BRANCH   8   9
ATOM      9  C   UNL     1       8.206   0.044   8.771  1.00  0.00    -0.000 C 
BRANCH   9  10
ATOM     10  C   UNL     1       7.800  -1.049   7.767  1.00  0.00    -0.000 C 
BRANCH  10  11
ATOM     11  C   UNL     1       6.339  -1.491   7.937  1.00  0.00    -0.003 C 
ATOM     12  C   UNL     1       5.951  -1.697   9.401  1.00  0.00     0.004 C 
ENDBRANCH  10  11
ENDBRANCH   9  10
ENDBRANCH   8   9
ENDBRANCH   7   8
ENDBRANCH   6   7
ENDBRANCH   5   6
ENDBRANCH   4   5
ENDBRANCH   3   4
ENDBRANCH   2   3
ENDBRANCH   1   2
BRANCH   1  13
ATOM     13  C   UNL     1       2.230  -0.335   7.504  1.00  0.00     0.000 C 
BRANCH  13  14
ATOM     14  C   UNL     1       2.618   0.203   8.890  1.00  0.00     0.000 C 
BRANCH  14  15
ATOM     15  C   UNL     1       1.431   0.835   9.637  1.00  0.00     0.000 C 
BRANCH  15  16
ATOM     16  C   UNL     1       0.441   1.539   8.693  1.00  0.00     0.000 C 
BRANCH  16  17
ATOM     17  C   UNL     1       0.841   2.992   8.380  1.00  0.00     0.000 C 
BRANCH  17  18
ATOM     18  C   UNL     1       0.667   3.424   6.911  1.00  0.00     0.000 C 
BRANCH  18  19
ATOM     19  C   UNL     1      -0.129   2.407   6.077  1.00  0.00     0.000 C 
BRANCH  19  20
ATOM     20  C   UNL     1      -1.000   3.069   4.995  1.00  0.00     0.006 C 
BRANCH  20  21
ATOM     21  C   UNL     1      -2.219   3.832   5.550  1.00  0.00     0.053 C 
BRANCH  21  22
ATOM     22  C   UNL     1      -3.246   2.922   6.153  1.00  0.00     0.041 C 
ATOM     23  O   UNL     1      -3.758   1.998   5.468  1.00  0.00    -0.550 OA
ATOM     24  O   UNL     1      -3.608   3.069   7.488  1.00  0.00    -0.550 OA
ENDBRANCH  21  22
ENDBRANCH  20  21
ENDBRANCH  19  20
ENDBRANCH  18  19
ENDBRANCH  17  18
ENDBRANCH  16  17
ENDBRANCH  15  16
ENDBRANCH  14  15
ENDBRANCH  13  14
ENDBRANCH   1  13
TORSDOF 20
ENDMDL
MODEL 9
REMARK VINA RESULT:    -3.692      3.045      8.529
REMARK INTER + INTRA:         -11.480
REMARK INTER:                  -8.092
REMARK INTRA:                  -3.388
REMARK UNBOUND:                -3.472
REMARK SMILES CCCCCCCCCCCCCCCCCCCCCC(=O)[O-]
REMARK SMILES IDX 12 1 11 2 10 3 9 4 8 5 7 6 6 7 5 8 4 9 3 10 2 11 1 12 13 13
REMARK SMILES IDX 14 14 15 15 16 16 17 17 18 18 19 19 20 20 21 21 22 22 23 23
REMARK SMILES IDX 24 24
REMARK H PARENT
REMARK Flexibility Score: inf
ROOT
ATOM      1  C   UNL     1       1.874  -0.580   7.292  1.00  0.00     0.000 C 
ENDROOT
BRANCH   1   2
ATOM      2  C   UNL     1       1.988  -0.122   8.755  1.00  0.00     0.000 C 
BRANCH   2   3
ATOM      3  C   UNL     1       1.629  -1.236   9.754  1.00  0.00     0.000 C 
BRANCH   3   4
ATOM      4  C   UNL     1       2.727  -2.308   9.871  1.00  0.00    -0.000 C 
BRANCH   4   5
ATOM      5  C   UNL     1       4.172  -1.770   9.875  1.00  0.00    -0.000 C 
BRANCH   5   6
ATOM      6  C   UNL     1       5.240  -2.764   9.387  1.00  0.00    -0.000 C 
BRANCH   6   7
ATOM      7  C   UNL     1       5.518  -2.651   7.881  1.00  0.00    -0.000 C 
BRANCH   7   8
ATOM      8  C   UNL     1       7.025  -2.728   7.592  1.00  0.00    -0.000 C 
BRANCH   8   9
ATOM      9  C   UNL     1       7.842  -1.748   8.448  1.00  0.00    -0.000 C 
BRANCH   9  10
ATOM     10  C   UNL     1       7.701  -0.290   7.976  1.00  0.00    -0.000 C 
BRANCH  10  11
ATOM     11  C   UNL     1       7.188   0.641   9.085  1.00  0.00    -0.003 C 
ATOM     12  C   UNL     1       7.364   2.120   8.743  1.00  0.00     0.004 C 
ENDBRANCH  10  11
ENDBRANCH   9  10
ENDBRANCH   8   9
ENDBRANCH   7   8
ENDBRANCH   6   7
ENDBRANCH   5   6
ENDBRANCH   4   5
ENDBRANCH   3   4
ENDBRANCH   2   3
ENDBRANCH   1   2
BRANCH   1  13
ATOM     13  C   UNL     1       3.060  -0.117   6.430  1.00  0.00     0.000 C 
BRANCH  13  14
ATOM     14  C   UNL     1       4.021   0.761   7.245  1.00  0.00     0.000 C 
BRANCH  14  15
ATOM     15  C   UNL     1       4.379   2.075   6.530  1.00  0.00     0.000 C 
BRANCH  15  16
ATOM     16  C   UNL     1       3.804   3.313   7.238  1.00  0.00     0.000 C 
BRANCH  16  17
ATOM     17  C   UNL     1       2.578   3.902   6.516  1.00  0.00     0.000 C 
BRANCH  17  18
ATOM     18  C   UNL     1       1.375   4.236   7.419  1.00  0.00     0.000 C 
BRANCH  18  19
ATOM     19  C   UNL     1       0.387   3.067   7.559  1.00  0.00     0.000 C 
BRANCH  19  20
ATOM     20  C   UNL     1       0.076   2.380   6.217  1.00  0.00     0.006 C 
BRANCH  20  21
ATOM     21  C   UNL     1      -0.872   3.183   5.306  1.00  0.00     0.053 C 
BRANCH  21  22
ATOM     22  C   UNL     1      -2.316   2.989   5.658  1.00  0.00     0.041 C 
ATOM     23  O   UNL     1      -2.954   3.900   6.248  1.00  0.00    -0.550 OA
ATOM     24  O   UNL     1      -2.969   1.816   5.296  1.00  0.00    -0.550 OA
ENDBRANCH  21  22
ENDBRANCH  20  21
ENDBRANCH  19  20
ENDBRANCH  18  19
ENDBRANCH  17  18
ENDBRANCH  16  17
ENDBRANCH  15  16
ENDBRANCH  14  15
ENDBRANCH  13  14
ENDBRANCH   1  13
TORSDOF 20
ENDMDL
