MODEL 1
REMARK VINA RESULT:    -2.476      0.000      0.000
REMARK INTER + INTRA:          -6.554
REMARK INTER:                  -5.659
REMARK INTRA:                  -0.894
REMARK UNBOUND:                -0.894
REMARK SMILES CCCCCCCCCCCCCCCCCCCCCCCC(=O)[O-]
REMARK SMILES IDX 13 1 14 2 15 3 16 4 17 5 18 6 19 7 20 8 21 9 22 10 23 11
REMARK SMILES IDX 24 12 25 13 26 14 12 15 11 16 10 17 9 18 8 19 7 20 6 21 5 22
REMARK SMILES IDX 4 23 3 24 2 25 1 26
REMARK H PARENT
REMARK Flexibility Score: inf
ROOT
ATOM      1  C   UNL     1      -0.981 -22.393  16.382  1.00  0.00     0.000 C 
ENDROOT
BRANCH   1   2
ATOM      2  C   UNL     1       0.265 -23.045  15.752  1.00  0.00     0.000 C 
BRANCH   2   3
ATOM      3  C   UNL     1       1.590 -22.282  15.966  1.00  0.00     0.000 C 
BRANCH   3   4
ATOM      4  C   UNL     1       2.815 -22.870  15.241  1.00  0.00     0.000 C 
BRANCH   4   5
ATOM      5  C   UNL     1       4.113 -22.733  16.054  1.00  0.00     0.000 C 
BRANCH   5   6
ATOM      6  C   UNL     1       5.381 -22.838  15.186  1.00  0.00     0.000 C 
BRANCH   6   7
ATOM      7  C   UNL     1       6.702 -22.504  15.902  1.00  0.00     0.000 C 
BRANCH   7   8
ATOM      8  C   UNL     1       7.881 -22.316  14.932  1.00  0.00     0.000 C 
BRANCH   8   9
ATOM      9  C   UNL     1       7.453 -22.344  13.453  1.00  0.00     0.000 C 
BRANCH   9  10
ATOM     10  C   UNL     1       8.135 -21.301  12.542  1.00  0.00     0.006 C 
BRANCH  10  11
ATOM     11  C   UNL     1       7.190 -20.645  11.517  1.00  0.00     0.053 C 
BRANCH  11  12
ATOM     12  C   UNL     1       7.657 -20.822  10.105  1.00  0.00     0.041 C 
ATOM     13  O   UNL     1       6.931 -21.429   9.272  1.00  0.00    -0.550 OA
ATOM     14  O   UNL     1       8.868 -20.280   9.694  1.00  0.00    -0.550 OA
ENDBRANCH  11  12
ENDBRANCH  10  11
ENDBRANCH   9  10
ENDBRANCH   8   9
ENDBRANCH   7   8
ENDBRANCH   6   7
ENDBRANCH   5   6
ENDBRANCH   4   5
ENDBRANCH   3   4
ENDBRANCH   2   3
ENDBRANCH   1   2
BRANCH   1  15
ATOM     15  C   UNL     1      -2.326 -23.032  15.983  1.00  0.00     0.000 C 
BRANCH  15  16
ATOM     16  C   UNL     1      -3.528 -22.067  16.063  1.00  0.00     0.000 C 
BRANCH  16  17
ATOM     17  C   UNL     1      -4.879 -22.803  16.046  1.00  0.00     0.000 C 
BRANCH  17  18
ATOM     18  C   UNL     1      -5.633 -22.705  17.386  1.00  0.00    -0.000 C 
BRANCH  18  19
ATOM     19  C   UNL     1      -7.157 -22.911  17.292  1.00  0.00    -0.000 C 
BRANCH  19  20
ATOM     20  C   UNL     1      -7.953 -21.834  18.051  1.00  0.00    -0.000 C 
BRANCH  20  21
ATOM     21  C   UNL     1      -9.460 -22.135  18.096  1.00  0.00    -0.000 C 
BRANCH  21  22
ATOM     22  C   UNL     1     -10.270 -20.994  18.740  1.00  0.00    -0.000 C 
BRANCH  22  23
ATOM     23  C   UNL     1     -11.099 -20.204  17.705  1.00  0.00    -0.000 C 
BRANCH  23  24
ATOM     24  C   UNL     1     -10.988 -20.743  16.265  1.00  0.00    -0.000 C 
BRANCH  24  25
ATOM     25  C   UNL     1      -9.951 -20.003  15.396  1.00  0.00    -0.003 C 
ATOM     26  C   UNL     1      -9.636 -20.750  14.099  1.00  0.00     0.004 C 
ENDBRANCH  24  25
ENDBRANCH  23  24
ENDBRANCH  22  23
ENDBRANCH  21  22
ENDBRANCH  20  21
ENDBRANCH  19  20
ENDBRANCH  18  19
ENDBRANCH  17  18
ENDBRANCH  16  17
ENDBRANCH  15  16
ENDBRANCH   1  15
TORSDOF 22
ENDMDL
MODEL 2
REMARK VINA RESULT:    -2.342      1.226      2.794
REMARK INTER + INTRA:          -6.248
REMARK INTER:                  -5.181
REMARK INTRA:                  -1.067
REMARK UNBOUND:                -0.894
REMARK SMILES CCCCCCCCCCCCCCCCCCCCCCCC(=O)[O-]
REMARK SMILES IDX 13 1 14 2 15 3 16 4 17 5 18 6 19 7 20 8 21 9 22 10 23 11
REMARK SMILES IDX 24 12 25 13 26 14 12 15 11 16 10 17 9 18 8 19 7 20 6 21 5 22
REMARK SMILES IDX 4 23 3 24 2 25 1 26
REMARK H PARENT
REMARK Flexibility Score: inf
ROOT
ATOM      1  C   UNL     1       1.786 -22.875  14.954  1.00  0.00     0.000 C 
ENDROOT
BRANCH   1   2
ATOM      2  C   UNL     1       2.734 -22.352  16.050  1.00  0.00     0.000 C 
BRANCH   2   3
ATOM      3  C   UNL     1       4.215 -22.760  15.893  1.00  0.00     0.000 C 
BRANCH   3   4
ATOM      4  C   UNL     1       5.181 -22.154  16.927  1.00  0.00     0.000 C 
BRANCH   4   5
ATOM      5  C   UNL     1       6.659 -22.323  16.537  1.00  0.00     0.000 C 
BRANCH   5   6
ATOM      6  C   UNL     1       6.882 -22.330  15.012  1.00  0.00     0.000 C 
BRANCH   6   7
ATOM      7  C   UNL     1       8.217 -22.938  14.543  1.00  0.00     0.000 C 
BRANCH   7   8
ATOM      8  C   UNL     1       8.737 -22.310  13.238  1.00  0.00     0.000 C 
BRANCH   8   9
ATOM      9  C   UNL     1       8.646 -20.773  13.232  1.00  0.00     0.000 C 
BRANCH   9  10
ATOM     10  C   UNL     1       8.861 -20.097  11.862  1.00  0.00     0.006 C 
BRANCH  10  11
ATOM     11  C   UNL     1       7.597 -19.439  11.277  1.00  0.00     0.053 C 
BRANCH  11  12
ATOM     12  C   UNL     1       7.291 -19.907   9.888  1.00  0.00     0.041 C 
ATOM     13  O   UNL     1       7.842 -20.946   9.436  1.00  0.00    -0.550 OA
ATOM     14  O   UNL     1       6.365 -19.226   9.108  1.00  0.00    -0.550 OA
ENDBRANCH  11  12
ENDBRANCH  10  11
ENDBRANCH   9  10
ENDBRANCH   8   9
ENDBRANCH   7   8
ENDBRANCH   6   7
ENDBRANCH   5   6
ENDBRANCH   4   5
ENDBRANCH   3   4
ENDBRANCH   2   3
ENDBRANCH   1   2
BRANCH   1  15
ATOM     15  C   UNL     1       0.335 -23.125  15.411  1.00  0.00     0.000 C 
BRANCH  15  16
ATOM     16  C   UNL     1      -0.074 -22.326  16.667  1.00  0.00     0.000 C 
BRANCH  16  17
ATOM     17  C   UNL     1      -1.521 -21.807  16.593  1.00  0.00     0.000 C 
BRANCH  17  18
ATOM     18  C   UNL     1      -2.481 -22.801  15.911  1.00  0.00    -0.000 C 
BRANCH  18  19
ATOM     19  C   UNL     1      -3.964 -22.387  15.927  1.00  0.00    -0.000 C 
BRANCH  19  20
ATOM     20  C   UNL     1      -4.779 -23.125  17.006  1.00  0.00    -0.000 C 
BRANCH  20  21
ATOM     21  C   UNL     1      -6.214 -22.589  17.132  1.00  0.00    -0.000 C 
BRANCH  21  22
ATOM     22  C   UNL     1      -6.877 -22.350  15.762  1.00  0.00    -0.000 C 
BRANCH  22  23
ATOM     23  C   UNL     1      -7.680 -21.033  15.719  1.00  0.00    -0.000 C 
BRANCH  23  24
ATOM     24  C   UNL     1      -8.569 -20.877  14.469  1.00  0.00    -0.000 C 
BRANCH  24  25
ATOM     25  C   UNL     1     -10.068 -20.702  14.784  1.00  0.00    -0.003 C 
ATOM     26  C   UNL     1     -10.335 -20.517  16.279  1.00  0.00     0.004 C 
ENDBRANCH  24  25
ENDBRANCH  23  24
ENDBRANCH  22  23
ENDBRANCH  21  22
ENDBRANCH  20  21
ENDBRANCH  19  20
ENDBRANCH  18  19
ENDBRANCH  17  18
ENDBRANCH  16  17
ENDBRANCH  15  16
ENDBRANCH   1  15
TORSDOF 22
ENDMDL
MODEL 3
REMARK VINA RESULT:    -2.214      1.669      2.831
REMARK INTER + INTRA:          -5.956
REMARK INTER:                  -4.986
REMARK INTRA:                  -0.970
REMARK UNBOUND:                -0.894
REMARK SMILES CCCCCCCCCCCCCCCCCCCCCCCC(=O)[O-]
REMARK SMILES IDX 13 1 14 2 15 3 16 4 17 5 18 6 19 7 20 8 21 9 22 10 23 11
REMARK SMILES IDX 24 12 25 13 26 14 12 15 11 16 10 17 9 18 8 19 7 20 6 21 5 22
REMARK SMILES IDX 4 23 3 24 2 25 1 26
REMARK H PARENT
REMARK Flexibility Score: inf
ROOT
ATOM      1  C   UNL     1      -0.628 -21.986  16.355  1.00  0.00     0.000 C 
ENDROOT
BRANCH   1   2
ATOM      2  C   UNL     1       0.630 -22.802  15.999  1.00  0.00     0.000 C 
BRANCH   2   3
ATOM      3  C   UNL     1       1.933 -21.984  15.866  1.00  0.00     0.000 C 
BRANCH   3   4
ATOM      4  C   UNL     1       3.231 -22.811  15.827  1.00  0.00     0.000 C 
BRANCH   4   5
ATOM      5  C   UNL     1       4.328 -22.246  16.745  1.00  0.00     0.000 C 
BRANCH   5   6
ATOM      6  C   UNL     1       5.737 -22.747  16.377  1.00  0.00     0.000 C 
BRANCH   6   7
ATOM      7  C   UNL     1       6.902 -21.880  16.891  1.00  0.00     0.000 C 
BRANCH   7   8
ATOM      8  C   UNL     1       8.017 -21.692  15.849  1.00  0.00     0.000 C 
BRANCH   8   9
ATOM      9  C   UNL     1       7.552 -21.986  14.410  1.00  0.00     0.000 C 
BRANCH   9  10
ATOM     10  C   UNL     1       8.619 -21.792  13.312  1.00  0.00     0.006 C 
BRANCH  10  11
ATOM     11  C   UNL     1       8.048 -21.360  11.948  1.00  0.00     0.053 C 
BRANCH  11  12
ATOM     12  C   UNL     1       7.983 -19.872  11.794  1.00  0.00     0.041 C 
ATOM     13  O   UNL     1       8.542 -19.124  12.640  1.00  0.00    -0.550 OA
ATOM     14  O   UNL     1       7.345 -19.309  10.696  1.00  0.00    -0.550 OA
ENDBRANCH  11  12
ENDBRANCH  10  11
ENDBRANCH   9  10
ENDBRANCH   8   9
ENDBRANCH   7   8
ENDBRANCH   6   7
ENDBRANCH   5   6
ENDBRANCH   4   5
ENDBRANCH   3   4
ENDBRANCH   2   3
ENDBRANCH   1   2
BRANCH   1  15
ATOM     15  C   UNL     1      -1.902 -22.820  16.593  1.00  0.00     0.000 C 
BRANCH  15  16
ATOM     16  C   UNL     1      -3.186 -22.181  16.022  1.00  0.00     0.000 C 
BRANCH  16  17
ATOM     17  C   UNL     1      -4.407 -23.110  16.130  1.00  0.00     0.000 C 
BRANCH  17  18
ATOM     18  C   UNL     1      -5.086 -23.051  17.513  1.00  0.00    -0.000 C 
BRANCH  18  19
ATOM     19  C   UNL     1      -6.624 -23.124  17.486  1.00  0.00    -0.000 C 
BRANCH  19  20
ATOM     20  C   UNL     1      -7.292 -21.752  17.693  1.00  0.00    -0.000 C 
BRANCH  20  21
ATOM     21  C   UNL     1      -8.745 -21.719  17.193  1.00  0.00    -0.000 C 
BRANCH  21  22
ATOM     22  C   UNL     1      -9.764 -21.917  18.330  1.00  0.00    -0.000 C 
BRANCH  22  23
ATOM     23  C   UNL     1      -9.189 -21.531  19.709  1.00  0.00    -0.000 C 
BRANCH  23  24
ATOM     24  C   UNL     1      -9.234 -22.666  20.751  1.00  0.00    -0.000 C 
BRANCH  24  25
ATOM     25  C   UNL     1      -8.294 -22.451  21.955  1.00  0.00    -0.003 C 
ATOM     26  C   UNL     1      -8.759 -21.312  22.864  1.00  0.00     0.004 C 
ENDBRANCH  24  25
ENDBRANCH  23  24
ENDBRANCH  22  23
ENDBRANCH  21  22
ENDBRANCH  20  21
ENDBRANCH  19  20
ENDBRANCH  18  19
ENDBRANCH  17  18
ENDBRANCH  16  17
ENDBRANCH  15  16
ENDBRANCH   1  15
TORSDOF 22
ENDMDL
MODEL 4
REMARK VINA RESULT:    -2.210      2.049      2.884
REMARK INTER + INTRA:          -5.947
REMARK INTER:                  -5.023
REMARK INTRA:                  -0.924
REMARK UNBOUND:                -0.894
REMARK SMILES CCCCCCCCCCCCCCCCCCCCCCCC(=O)[O-]
REMARK SMILES IDX 13 1 14 2 15 3 16 4 17 5 18 6 19 7 20 8 21 9 22 10 23 11
REMARK SMILES IDX 24 12 25 13 26 14 12 15 11 16 10 17 9 18 8 19 7 20 6 21 5 22
REMARK SMILES IDX 4 23 3 24 2 25 1 26
REMARK H PARENT
REMARK Flexibility Score: inf
ROOT
ATOM      1  C   UNL     1      -2.942 -22.129  15.990  1.00  0.00     0.000 C 
ENDROOT
BRANCH   1   2
ATOM      2  C   UNL     1      -1.764 -22.926  16.581  1.00  0.00     0.000 C 
BRANCH   2   3
ATOM      3  C   UNL     1      -0.376 -22.268  16.425  1.00  0.00     0.000 C 
BRANCH   3   4
ATOM      4  C   UNL     1       0.682 -23.121  15.702  1.00  0.00     0.000 C 
BRANCH   4   5
ATOM      5  C   UNL     1       1.932 -22.317  15.307  1.00  0.00     0.000 C 
BRANCH   5   6
ATOM      6  C   UNL     1       3.228 -22.881  15.920  1.00  0.00     0.000 C 
BRANCH   6   7
ATOM      7  C   UNL     1       4.105 -21.859  16.667  1.00  0.00     0.000 C 
BRANCH   7   8
ATOM      8  C   UNL     1       5.445 -22.449  17.140  1.00  0.00     0.000 C 
BRANCH   8   9
ATOM      9  C   UNL     1       6.637 -21.505  16.898  1.00  0.00     0.000 C 
BRANCH   9  10
ATOM     10  C   UNL     1       8.025 -22.079  17.253  1.00  0.00     0.006 C 
BRANCH  10  11
ATOM     11  C   UNL     1       8.951 -22.284  16.040  1.00  0.00     0.053 C 
BRANCH  11  12
ATOM     12  C   UNL     1       8.491 -21.535  14.827  1.00  0.00     0.041 C 
ATOM     13  O   UNL     1       7.946 -22.152  13.873  1.00  0.00    -0.550 OA
ATOM     14  O   UNL     1       8.621 -20.153  14.767  1.00  0.00    -0.550 OA
ENDBRANCH  11  12
ENDBRANCH  10  11
ENDBRANCH   9  10
ENDBRANCH   8   9
ENDBRANCH   7   8
ENDBRANCH   6   7
ENDBRANCH   5   6
ENDBRANCH   4   5
ENDBRANCH   3   4
ENDBRANCH   2   3
ENDBRANCH   1   2
BRANCH   1  15
ATOM     15  C   UNL     1      -4.298 -22.863  15.997  1.00  0.00     0.000 C 
BRANCH  15  16
ATOM     16  C   UNL     1      -5.395 -22.146  16.812  1.00  0.00     0.000 C 
BRANCH  16  17
ATOM     17  C   UNL     1      -6.423 -23.123  17.409  1.00  0.00     0.000 C 
BRANCH  17  18
ATOM     18  C   UNL     1      -6.732 -22.838  18.891  1.00  0.00    -0.000 C 
BRANCH  18  19
ATOM     19  C   UNL     1      -8.193 -23.087  19.311  1.00  0.00    -0.000 C 
BRANCH  19  20
ATOM     20  C   UNL     1      -9.205 -22.683  18.223  1.00  0.00    -0.000 C 
BRANCH  20  21
ATOM     21  C   UNL     1     -10.461 -22.014  18.804  1.00  0.00    -0.000 C 
BRANCH  21  22
ATOM     22  C   UNL     1     -11.088 -20.995  17.833  1.00  0.00    -0.000 C 
BRANCH  22  23
ATOM     23  C   UNL     1     -10.056 -20.415  16.843  1.00  0.00    -0.000 C 
BRANCH  23  24
ATOM     24  C   UNL     1     -10.445 -20.577  15.360  1.00  0.00    -0.000 C 
BRANCH  24  25
ATOM     25  C   UNL     1      -9.252 -20.503  14.386  1.00  0.00    -0.003 C 
ATOM     26  C   UNL     1      -7.927 -20.872  15.055  1.00  0.00     0.004 C 
ENDBRANCH  24  25
ENDBRANCH  23  24
ENDBRANCH  22  23
ENDBRANCH  21  22
ENDBRANCH  20  21
ENDBRANCH  19  20
ENDBRANCH  18  19
ENDBRANCH  17  18
ENDBRANCH  16  17
ENDBRANCH  15  16
ENDBRANCH   1  15
TORSDOF 22
ENDMDL
MODEL 5
REMARK VINA RESULT:    -2.092      6.133     14.837
REMARK INTER + INTRA:          -5.678
REMARK INTER:                  -4.618
REMARK INTRA:                  -1.060
REMARK UNBOUND:                -0.894
REMARK SMILES CCCCCCCCCCCCCCCCCCCCCCCC(=O)[O-]
REMARK SMILES IDX 13 1 14 2 15 3 16 4 17 5 18 6 19 7 20 8 21 9 22 10 23 11
REMARK SMILES IDX 24 12 25 13 26 14 12 15 11 16 10 17 9 18 8 19 7 20 6 21 5 22
REMARK SMILES IDX 4 23 3 24 2 25 1 26
REMARK H PARENT
REMARK Flexibility Score: inf
ROOT
ATOM      1  C   UNL     1       1.096 -22.352  15.928  1.00  0.00     0.000 C 
ENDROOT
BRANCH   1   2
ATOM      2  C   UNL     1      -0.317 -22.954  16.055  1.00  0.00     0.000 C 
BRANCH   2   3
ATOM      3  C   UNL     1      -1.402 -21.988  16.578  1.00  0.00     0.000 C 
BRANCH   3   4
ATOM      4  C   UNL     1      -2.763 -22.074  15.862  1.00  0.00     0.000 C 
BRANCH   4   5
ATOM      5  C   UNL     1      -3.700 -23.124  16.482  1.00  0.00     0.000 C 
BRANCH   5   6
ATOM      6  C   UNL     1      -5.186 -22.730  16.397  1.00  0.00     0.000 C 
BRANCH   6   7
ATOM      7  C   UNL     1      -5.862 -22.404  17.741  1.00  0.00     0.000 C 
BRANCH   7   8
ATOM      8  C   UNL     1      -7.340 -22.828  17.789  1.00  0.00     0.000 C 
BRANCH   8   9
ATOM      9  C   UNL     1      -8.218 -21.858  18.602  1.00  0.00     0.000 C 
BRANCH   9  10
ATOM     10  C   UNL     1      -9.173 -22.516  19.620  1.00  0.00     0.006 C 
BRANCH  10  11
ATOM     11  C   UNL     1      -8.571 -22.692  21.027  1.00  0.00     0.053 C 
BRANCH  11  12
ATOM     12  C   UNL     1      -9.214 -21.802  22.046  1.00  0.00     0.041 C 
ATOM     13  O   UNL     1     -10.463 -21.831  22.212  1.00  0.00    -0.550 OA
ATOM     14  O   UNL     1      -8.434 -20.975  22.844  1.00  0.00    -0.550 OA
ENDBRANCH  11  12
ENDBRANCH  10  11
ENDBRANCH   9  10
ENDBRANCH   8   9
ENDBRANCH   7   8
ENDBRANCH   6   7
ENDBRANCH   5   6
ENDBRANCH   4   5
ENDBRANCH   3   4
ENDBRANCH   2   3
ENDBRANCH   1   2
BRANCH   1  15
ATOM     15  C   UNL     1       2.046 -23.109  14.979  1.00  0.00     0.000 C 
BRANCH  15  16
ATOM     16  C   UNL     1       3.460 -22.496  14.887  1.00  0.00     0.000 C 
BRANCH  16  17
ATOM     17  C   UNL     1       4.384 -22.968  16.023  1.00  0.00     0.000 C 
BRANCH  17  18
ATOM     18  C   UNL     1       4.732 -21.845  17.020  1.00  0.00    -0.000 C 
BRANCH  18  19
ATOM     19  C   UNL     1       6.210 -21.789  17.447  1.00  0.00    -0.000 C 
BRANCH  19  20
ATOM     20  C   UNL     1       7.120 -22.669  16.570  1.00  0.00    -0.000 C 
BRANCH  20  21
ATOM     21  C   UNL     1       8.581 -22.191  16.569  1.00  0.00    -0.000 C 
BRANCH  21  22
ATOM     22  C   UNL     1       9.046 -21.722  15.178  1.00  0.00    -0.000 C 
BRANCH  22  23
ATOM     23  C   UNL     1       7.865 -21.335  14.262  1.00  0.00    -0.000 C 
BRANCH  23  24
ATOM     24  C   UNL     1       7.935 -21.948  12.850  1.00  0.00    -0.000 C 
BRANCH  24  25
ATOM     25  C   UNL     1       7.200 -21.127  11.772  1.00  0.00    -0.003 C 
ATOM     26  C   UNL     1       8.065 -20.000  11.205  1.00  0.00     0.004 C 
ENDBRANCH  24  25
ENDBRANCH  23  24
ENDBRANCH  22  23
ENDBRANCH  21  22
ENDBRANCH  20  21
ENDBRANCH  19  20
ENDBRANCH  18  19
ENDBRANCH  17  18
ENDBRANCH  16  17
ENDBRANCH  15  16
ENDBRANCH   1  15
TORSDOF 22
ENDMDL
MODEL 6
REMARK VINA RESULT:    -2.085      2.194      3.627
REMARK INTER + INTRA:          -5.662
REMARK INTER:                  -4.360
REMARK INTRA:                  -1.302
REMARK UNBOUND:                -0.894
REMARK SMILES CCCCCCCCCCCCCCCCCCCCCCCC(=O)[O-]
REMARK SMILES IDX 13 1 14 2 15 3 16 4 17 5 18 6 19 7 20 8 21 9 22 10 23 11
REMARK SMILES IDX 24 12 25 13 26 14 12 15 11 16 10 17 9 18 8 19 7 20 6 21 5 22
REMARK SMILES IDX 4 23 3 24 2 25 1 26
REMARK H PARENT
REMARK Flexibility Score: inf
ROOT
ATOM      1  C   UNL     1      -3.367 -22.703  15.930  1.00  0.00     0.000 C 
ENDROOT
BRANCH   1   2
ATOM      2  C   UNL     1      -1.980 -22.109  16.241  1.00  0.00     0.000 C 
BRANCH   2   3
ATOM      3  C   UNL     1      -0.805 -23.111  16.195  1.00  0.00     0.000 C 
BRANCH   3   4
ATOM      4  C   UNL     1       0.587 -22.487  15.991  1.00  0.00     0.000 C 
BRANCH   4   5
ATOM      5  C   UNL     1       1.364 -23.125  14.827  1.00  0.00     0.000 C 
BRANCH   5   6
ATOM      6  C   UNL     1       2.891 -23.093  15.033  1.00  0.00     0.000 C 
BRANCH   6   7
ATOM      7  C   UNL     1       3.358 -22.697  16.446  1.00  0.00     0.000 C 
BRANCH   7   8
ATOM      8  C   UNL     1       4.616 -21.811  16.437  1.00  0.00     0.000 C 
BRANCH   8   9
ATOM      9  C   UNL     1       5.613 -22.171  17.554  1.00  0.00     0.000 C 
BRANCH   9  10
ATOM     10  C   UNL     1       7.098 -22.204  17.136  1.00  0.00     0.006 C 
BRANCH  10  11
ATOM     11  C   UNL     1       7.338 -22.699  15.697  1.00  0.00     0.053 C 
BRANCH  11  12
ATOM     12  C   UNL     1       8.377 -21.897  14.976  1.00  0.00     0.041 C 
ATOM     13  O   UNL     1       8.698 -20.754  15.398  1.00  0.00    -0.550 OA
ATOM     14  O   UNL     1       9.024 -22.426  13.866  1.00  0.00    -0.550 OA
ENDBRANCH  11  12
ENDBRANCH  10  11
ENDBRANCH   9  10
ENDBRANCH   8   9
ENDBRANCH   7   8
ENDBRANCH   6   7
ENDBRANCH   5   6
ENDBRANCH   4   5
ENDBRANCH   3   4
ENDBRANCH   2   3
ENDBRANCH   1   2
BRANCH   1  15
ATOM     15  C   UNL     1      -4.195 -23.111  17.165  1.00  0.00     0.000 C 
BRANCH  15  16
ATOM     16  C   UNL     1      -5.645 -22.581  17.150  1.00  0.00     0.000 C 
BRANCH  16  17
ATOM     17  C   UNL     1      -5.854 -21.457  16.121  1.00  0.00     0.000 C 
BRANCH  17  18
ATOM     18  C   UNL     1      -7.032 -21.728  15.165  1.00  0.00    -0.000 C 
BRANCH  18  19
ATOM     19  C   UNL     1      -8.426 -21.656  15.814  1.00  0.00    -0.000 C 
BRANCH  19  20
ATOM     20  C   UNL     1      -9.316 -20.559  15.200  1.00  0.00    -0.000 C 
BRANCH  20  21
ATOM     21  C   UNL     1     -10.506 -20.190  16.101  1.00  0.00    -0.000 C 
BRANCH  21  22
ATOM     22  C   UNL     1     -11.053 -21.401  16.880  1.00  0.00    -0.000 C 
BRANCH  22  23
ATOM     23  C   UNL     1     -11.124 -21.139  18.399  1.00  0.00    -0.000 C 
BRANCH  23  24
ATOM     24  C   UNL     1      -9.965 -20.284  18.946  1.00  0.00    -0.000 C 
BRANCH  24  25
ATOM     25  C   UNL     1     -10.363 -19.359  20.114  1.00  0.00    -0.003 C 
ATOM     26  C   UNL     1     -11.054 -18.080  19.639  1.00  0.00     0.004 C 
ENDBRANCH  24  25
ENDBRANCH  23  24
ENDBRANCH  22  23
ENDBRANCH  21  22
ENDBRANCH  20  21
ENDBRANCH  19  20
ENDBRANCH  18  19
ENDBRANCH  17  18
ENDBRANCH  16  17
ENDBRANCH  15  16
ENDBRANCH   1  15
TORSDOF 22
ENDMDL
MODEL 7
REMARK VINA RESULT:    -1.946      6.167     15.223
REMARK INTER + INTRA:          -5.344
REMARK INTER:                  -4.339
REMARK INTRA:                  -1.005
REMARK UNBOUND:                -0.894
REMARK SMILES CCCCCCCCCCCCCCCCCCCCCCCC(=O)[O-]
REMARK SMILES IDX 13 1 14 2 15 3 16 4 17 5 18 6 19 7 20 8 21 9 22 10 23 11
REMARK SMILES IDX 24 12 25 13 26 14 12 15 11 16 10 17 9 18 8 19 7 20 6 21 5 22
REMARK SMILES IDX 4 23 3 24 2 25 1 26
REMARK H PARENT
REMARK Flexibility Score: inf
ROOT
ATOM      1  C   UNL     1      -3.829 -22.102  16.009  1.00  0.00     0.000 C 
ENDROOT
BRANCH   1   2
ATOM      2  C   UNL     1      -4.815 -22.949  16.838  1.00  0.00     0.000 C 
BRANCH   2   3
ATOM      3  C   UNL     1      -6.296 -22.839  16.417  1.00  0.00     0.000 C 
BRANCH   3   4
ATOM      4  C   UNL     1      -7.230 -22.185  17.451  1.00  0.00     0.000 C 
BRANCH   4   5
ATOM      5  C   UNL     1      -8.324 -21.317  16.806  1.00  0.00     0.000 C 
BRANCH   5   6
ATOM      6  C   UNL     1      -9.749 -21.779  17.164  1.00  0.00     0.000 C 
BRANCH   6   7
ATOM      7  C   UNL     1      -9.848 -22.754  18.353  1.00  0.00     0.000 C 
BRANCH   7   8
ATOM      8  C   UNL     1     -11.097 -22.520  19.219  1.00  0.00     0.000 C 
BRANCH   8   9
ATOM      9  C   UNL     1     -10.765 -22.287  20.704  1.00  0.00     0.000 C 
BRANCH   9  10
ATOM     10  C   UNL     1     -10.628 -20.811  21.133  1.00  0.00     0.006 C 
BRANCH  10  11
ATOM     11  C   UNL     1     -10.447 -20.609  22.650  1.00  0.00     0.053 C 
BRANCH  11  12
ATOM     12  C   UNL     1      -9.508 -21.606  23.257  1.00  0.00     0.041 C 
ATOM     13  O   UNL     1      -9.931 -22.435  24.107  1.00  0.00    -0.550 OA
ATOM     14  O   UNL     1      -8.179 -21.652  22.855  1.00  0.00    -0.550 OA
ENDBRANCH  11  12
ENDBRANCH  10  11
ENDBRANCH   9  10
ENDBRANCH   8   9
ENDBRANCH   7   8
ENDBRANCH   6   7
ENDBRANCH   5   6
ENDBRANCH   4   5
ENDBRANCH   3   4
ENDBRANCH   2   3
ENDBRANCH   1   2
BRANCH   1  15
ATOM     15  C   UNL     1      -2.490 -22.791  15.683  1.00  0.00     0.000 C 
BRANCH  15  16
ATOM     16  C   UNL     1      -1.249 -22.009  16.163  1.00  0.00     0.000 C 
BRANCH  16  17
ATOM     17  C   UNL     1      -0.034 -22.920  16.412  1.00  0.00     0.000 C 
BRANCH  17  18
ATOM     18  C   UNL     1       1.127 -22.655  15.435  1.00  0.00    -0.000 C 
BRANCH  18  19
ATOM     19  C   UNL     1       2.510 -23.123  15.925  1.00  0.00    -0.000 C 
BRANCH  19  20
ATOM     20  C   UNL     1       3.613 -22.943  14.866  1.00  0.00    -0.000 C 
BRANCH  20  21
ATOM     21  C   UNL     1       4.997 -22.701  15.489  1.00  0.00    -0.000 C 
BRANCH  21  22
ATOM     22  C   UNL     1       4.910 -22.057  16.885  1.00  0.00    -0.000 C 
BRANCH  22  23
ATOM     23  C   UNL     1       6.296 -21.656  17.434  1.00  0.00    -0.000 C 
BRANCH  23  24
ATOM     24  C   UNL     1       7.465 -22.478  16.858  1.00  0.00    -0.000 C 
BRANCH  24  25
ATOM     25  C   UNL     1       8.478 -21.646  16.047  1.00  0.00    -0.003 C 
ATOM     26  C   UNL     1       8.349 -21.874  14.540  1.00  0.00     0.004 C 
ENDBRANCH  24  25
ENDBRANCH  23  24
ENDBRANCH  22  23
ENDBRANCH  21  22
ENDBRANCH  20  21
ENDBRANCH  19  20
ENDBRANCH  18  19
ENDBRANCH  17  18
ENDBRANCH  16  17
ENDBRANCH  15  16
ENDBRANCH   1  15
TORSDOF 22
ENDMDL
MODEL 8
REMARK VINA RESULT:    -1.844      6.160     15.031
REMARK INTER + INTRA:          -5.111
REMARK INTER:                  -4.171
REMARK INTRA:                  -0.939
REMARK UNBOUND:                -0.894
REMARK SMILES CCCCCCCCCCCCCCCCCCCCCCCC(=O)[O-]
REMARK SMILES IDX 13 1 14 2 15 3 16 4 17 5 18 6 19 7 20 8 21 9 22 10 23 11
REMARK SMILES IDX 24 12 25 13 26 14 12 15 11 16 10 17 9 18 8 19 7 20 6 21 5 22
REMARK SMILES IDX 4 23 3 24 2 25 1 26
REMARK H PARENT
REMARK Flexibility Score: inf
ROOT
ATOM      1  C   UNL     1      -2.324 -22.407  15.907  1.00  0.00     0.000 C 
ENDROOT
BRANCH   1   2
ATOM      2  C   UNL     1      -3.583 -22.984  16.581  1.00  0.00     0.000 C 
BRANCH   2   3
ATOM      3  C   UNL     1      -4.870 -22.150  16.404  1.00  0.00     0.000 C 
BRANCH   3   4
ATOM      4  C   UNL     1      -6.183 -22.954  16.399  1.00  0.00     0.000 C 
BRANCH   4   5
ATOM      5  C   UNL     1      -6.849 -23.020  17.784  1.00  0.00     0.000 C 
BRANCH   5   6
ATOM      6  C   UNL     1      -7.553 -21.707  18.176  1.00  0.00     0.000 C 
BRANCH   6   7
ATOM      7  C   UNL     1      -9.089 -21.783  18.267  1.00  0.00     0.000 C 
BRANCH   7   8
ATOM      8  C   UNL     1      -9.666 -20.931  19.410  1.00  0.00     0.000 C 
BRANCH   8   9
ATOM      9  C   UNL     1     -10.184 -21.777  20.588  1.00  0.00     0.000 C 
BRANCH   9  10
ATOM     10  C   UNL     1      -9.387 -23.065  20.885  1.00  0.00     0.006 C 
BRANCH  10  11
ATOM     11  C   UNL     1      -8.499 -22.982  22.141  1.00  0.00     0.053 C 
BRANCH  11  12
ATOM     12  C   UNL     1      -8.849 -21.821  23.021  1.00  0.00     0.041 C 
ATOM     13  O   UNL     1      -8.039 -20.866  23.159  1.00  0.00    -0.550 OA
ATOM     14  O   UNL     1     -10.085 -21.770  23.653  1.00  0.00    -0.550 OA
ENDBRANCH  11  12
ENDBRANCH  10  11
ENDBRANCH   9  10
ENDBRANCH   8   9
ENDBRANCH   7   8
ENDBRANCH   6   7
ENDBRANCH   5   6
ENDBRANCH   4   5
ENDBRANCH   3   4
ENDBRANCH   2   3
ENDBRANCH   1   2
BRANCH   1  15
ATOM     15  C   UNL     1      -1.006 -23.125  16.258  1.00  0.00     0.000 C 
BRANCH  15  16
ATOM     16  C   UNL     1       0.238 -22.213  16.210  1.00  0.00     0.000 C 
BRANCH  16  17
ATOM     17  C   UNL     1       1.555 -23.000  16.324  1.00  0.00     0.000 C 
BRANCH  17  18
ATOM     18  C   UNL     1       2.743 -22.287  15.650  1.00  0.00    -0.000 C 
BRANCH  18  19
ATOM     19  C   UNL     1       4.132 -22.726  16.147  1.00  0.00    -0.000 C 
BRANCH  19  20
ATOM     20  C   UNL     1       4.948 -21.565  16.745  1.00  0.00    -0.000 C 
BRANCH  20  21
ATOM     21  C   UNL     1       5.899 -22.024  17.862  1.00  0.00    -0.000 C 
BRANCH  21  22
ATOM     22  C   UNL     1       7.217 -22.602  17.312  1.00  0.00    -0.000 C 
BRANCH  22  23
ATOM     23  C   UNL     1       7.887 -21.665  16.286  1.00  0.00    -0.000 C 
BRANCH  23  24
ATOM     24  C   UNL     1       8.262 -22.350  14.957  1.00  0.00    -0.000 C 
BRANCH  24  25
ATOM     25  C   UNL     1       7.353 -21.964  13.773  1.00  0.00    -0.003 C 
ATOM     26  C   UNL     1       7.680 -22.750  12.503  1.00  0.00     0.004 C 
ENDBRANCH  24  25
ENDBRANCH  23  24
ENDBRANCH  22  23
ENDBRANCH  21  22
ENDBRANCH  20  21
ENDBRANCH  19  20
ENDBRANCH  18  19
ENDBRANCH  17  18
ENDBRANCH  16  17
ENDBRANCH  15  16
ENDBRANCH   1  15
TORSDOF 22
ENDMDL
MODEL 9
REMARK VINA RESULT:    -0.981      5.824     14.450
REMARK INTER + INTRA:          -3.137
REMARK INTER:                  -2.022
REMARK INTRA:                  -1.116
REMARK UNBOUND:                -0.894
REMARK SMILES CCCCCCCCCCCCCCCCCCCCCCCC(=O)[O-]
REMARK SMILES IDX 13 1 14 2 15 3 16 4 17 5 18 6 19 7 20 8 21 9 22 10 23 11
REMARK SMILES IDX 24 12 25 13 26 14 12 15 11 16 10 17 9 18 8 19 7 20 6 21 5 22
REMARK SMILES IDX 4 23 3 24 2 25 1 26
REMARK H PARENT
REMARK Flexibility Score: inf
ROOT
ATOM      1  C   UNL     1       2.110 -22.568  15.921  1.00  0.00     0.000 C 
ENDROOT
BRANCH   1   2
ATOM      2  C   UNL     1       0.721 -22.877  15.330  1.00  0.00     0.000 C 
BRANCH   2   3
ATOM      3  C   UNL     1      -0.404 -23.095  16.365  1.00  0.00     0.000 C 
BRANCH   3   4
ATOM      4  C   UNL     1      -1.488 -22.003  16.403  1.00  0.00     0.000 C 
BRANCH   4   5
ATOM      5  C   UNL     1      -2.760 -22.396  15.632  1.00  0.00     0.000 C 
BRANCH   5   6
ATOM      6  C   UNL     1      -3.853 -22.992  16.538  1.00  0.00     0.000 C 
BRANCH   6   7
ATOM      7  C   UNL     1      -5.187 -22.223  16.558  1.00  0.00     0.000 C 
BRANCH   7   8
ATOM      8  C   UNL     1      -6.181 -22.771  17.596  1.00  0.00     0.000 C 
BRANCH   8   9
ATOM      9  C   UNL     1      -7.551 -23.125  16.989  1.00  0.00     0.000 C 
BRANCH   9  10
ATOM     10  C   UNL     1      -8.779 -22.597  17.760  1.00  0.00     0.006 C 
BRANCH  10  11
ATOM     11  C   UNL     1      -8.439 -21.584  18.871  1.00  0.00     0.053 C 
BRANCH  11  12
ATOM     12  C   UNL     1      -9.592 -20.692  19.213  1.00  0.00     0.041 C 
ATOM     13  O   UNL     1     -10.304 -20.201  18.296  1.00  0.00    -0.550 OA
ATOM     14  O   UNL     1      -9.911 -20.438  20.541  1.00  0.00    -0.550 OA
ENDBRANCH  11  12
ENDBRANCH  10  11
ENDBRANCH   9  10
ENDBRANCH   8   9
ENDBRANCH   7   8
ENDBRANCH   6   7
ENDBRANCH   5   6
ENDBRANCH   4   5
ENDBRANCH   3   4
ENDBRANCH   2   3
ENDBRANCH   1   2
BRANCH   1  15
ATOM     15  C   UNL     1       3.304 -23.027  15.060  1.00  0.00     0.000 C 
BRANCH  15  16
ATOM     16  C   UNL     1       4.662 -22.971  15.790  1.00  0.00     0.000 C 
BRANCH  16  17
ATOM     17  C   UNL     1       4.638 -22.042  17.016  1.00  0.00     0.000 C 
BRANCH  17  18
ATOM     18  C   UNL     1       6.020 -21.444  17.345  1.00  0.00    -0.000 C 
BRANCH  18  19
ATOM     19  C   UNL     1       7.177 -22.461  17.377  1.00  0.00    -0.000 C 
BRANCH  19  20
ATOM     20  C   UNL     1       7.904 -22.581  16.025  1.00  0.00    -0.000 C 
BRANCH  20  21
ATOM     21  C   UNL     1       8.455 -21.235  15.528  1.00  0.00    -0.000 C 
BRANCH  21  22
ATOM     22  C   UNL     1       8.383 -21.098  13.995  1.00  0.00    -0.000 C 
BRANCH  22  23
ATOM     23  C   UNL     1       7.345 -22.053  13.368  1.00  0.00    -0.000 C 
BRANCH  23  24
ATOM     24  C   UNL     1       6.994 -21.728  11.903  1.00  0.00    -0.000 C 
BRANCH  24  25
ATOM     25  C   UNL     1       7.245 -20.258  11.509  1.00  0.00    -0.003 C 
ATOM     26  C   UNL     1       7.830 -20.122  10.102  1.00  0.00     0.004 C 
ENDBRANCH  24  25
ENDBRANCH  23  24
ENDBRANCH  22  23
ENDBRANCH  21  22
ENDBRANCH  20  21
ENDBRANCH  19  20
ENDBRANCH  18  19
ENDBRANCH  17  18
ENDBRANCH  16  17
ENDBRANCH  15  16
ENDBRANCH   1  15
TORSDOF 22
ENDMDL
