MODEL 1
REMARK VINA RESULT:    -1.345      0.000      0.000
REMARK INTER + INTRA:          -1.001
REMARK INTER:                  -3.546
REMARK INTRA:                   2.545
REMARK UNBOUND:                 2.545
REMARK SMILES CCCCCCCCCCCCCCCCCCCCCCCCCCCCCC(=O)[O-]
REMARK SMILES IDX 16 1 17 2 18 3 19 4 20 5 21 6 22 7 23 8 24 9 25 10 26 11
REMARK SMILES IDX 27 12 28 13 29 14 30 15 31 16 32 17 15 18 14 19 13 20 12 21
REMARK SMILES IDX 11 22 10 23 9 24 8 25 7 26 6 27 5 28 4 29 3 30 2 31 1 32
REMARK H PARENT
REMARK Flexibility Score: inf
ROOT
ATOM      1  C   UNL     1      41.223  63.851  55.766  1.00  0.00     0.000 C 
ENDROOT
BRANCH   1   2
ATOM      2  C   UNL     1      41.764  64.190  54.364  1.00  0.00     0.000 C 
BRANCH   2   3
ATOM      3  C   UNL     1      43.024  65.075  54.353  1.00  0.00     0.000 C 
BRANCH   3   4
ATOM      4  C   UNL     1      44.305  64.272  54.070  1.00  0.00     0.000 C 
BRANCH   4   5
ATOM      5  C   UNL     1      44.270  62.861  54.683  1.00  0.00     0.000 C 
BRANCH   5   6
ATOM      6  C   UNL     1      43.820  62.871  56.155  1.00  0.00     0.000 C 
BRANCH   6   7
ATOM      7  C   UNL     1      44.116  64.205  56.865  1.00  0.00     0.000 C 
BRANCH   7   8
ATOM      8  C   UNL     1      45.579  64.678  56.784  1.00  0.00     0.000 C 
BRANCH   8   9
ATOM      9  C   UNL     1      46.195  64.960  58.162  1.00  0.00     0.000 C 
BRANCH   9  10
ATOM     10  C   UNL     1      45.451  64.196  59.268  1.00  0.00     0.000 C 
BRANCH  10  11
ATOM     11  C   UNL     1      46.065  64.413  60.660  1.00  0.00     0.000 C 
BRANCH  11  12
ATOM     12  C   UNL     1      47.518  64.917  60.596  1.00  0.00     0.000 C 
BRANCH  12  13
ATOM     13  C   UNL     1      48.533  63.873  61.088  1.00  0.00     0.006 C 
BRANCH  13  14
ATOM     14  C   UNL     1      49.352  63.258  59.943  1.00  0.00     0.053 C 
BRANCH  14  15
ATOM     15  C   UNL     1      50.644  63.989  59.762  1.00  0.00     0.041 C 
ATOM     16  O   UNL     1      50.921  64.978  60.492  1.00  0.00    -0.550 OA
ATOM     17  O   UNL     1      51.549  63.575  58.792  1.00  0.00    -0.550 OA
ENDBRANCH  14  15
ENDBRANCH  13  14
ENDBRANCH  12  13
ENDBRANCH  11  12
ENDBRANCH  10  11
ENDBRANCH   9  10
ENDBRANCH   8   9
ENDBRANCH   7   8
ENDBRANCH   6   7
ENDBRANCH   5   6
ENDBRANCH   4   5
ENDBRANCH   3   4
ENDBRANCH   2   3
ENDBRANCH   1   2
BRANCH   1  18
ATOM     18  C   UNL     1      41.129  65.043  56.742  1.00  0.00     0.000 C 
BRANCH  18  19
ATOM     19  C   UNL     1      39.823  65.123  57.554  1.00  0.00     0.000 C 
BRANCH  19  20
ATOM     20  C   UNL     1      40.048  64.962  59.064  1.00  0.00     0.000 C 
BRANCH  20  21
ATOM     21  C   UNL     1      40.424  63.512  59.411  1.00  0.00     0.000 C 
BRANCH  21  22
ATOM     22  C   UNL     1      39.886  62.499  58.387  1.00  0.00     0.000 C 
BRANCH  22  23
ATOM     23  C   UNL     1      38.459  62.028  58.721  1.00  0.00     0.000 C 
BRANCH  23  24
ATOM     24  C   UNL     1      38.300  60.504  58.616  1.00  0.00    -0.000 C 
BRANCH  24  25
ATOM     25  C   UNL     1      38.939  59.757  59.797  1.00  0.00    -0.000 C 
BRANCH  25  26
ATOM     26  C   UNL     1      38.184  60.051  61.099  1.00  0.00    -0.000 C 
BRANCH  26  27
ATOM     27  C   UNL     1      36.667  60.097  60.865  1.00  0.00    -0.000 C 
BRANCH  27  28
ATOM     28  C   UNL     1      36.072  61.498  61.123  1.00  0.00    -0.000 C 
BRANCH  28  29
ATOM     29  C   UNL     1      36.094  62.421  59.889  1.00  0.00    -0.000 C 
BRANCH  29  30
ATOM     30  C   UNL     1      35.227  63.689  60.006  1.00  0.00    -0.000 C 
BRANCH  30  31
ATOM     31  C   UNL     1      35.671  64.680  61.096  1.00  0.00    -0.003 C 
ATOM     32  C   UNL     1      37.126  65.124  60.941  1.00  0.00     0.004 C 
ENDBRANCH  30  31
ENDBRANCH  29  30
ENDBRANCH  28  29
ENDBRANCH  27  28
ENDBRANCH  26  27
ENDBRANCH  25  26
ENDBRANCH  24  25
ENDBRANCH  23  24
ENDBRANCH  22  23
ENDBRANCH  21  22
ENDBRANCH  20  21
ENDBRANCH  19  20
ENDBRANCH  18  19
ENDBRANCH   1  18
TORSDOF 28
ENDMDL
MODEL 2
REMARK VINA RESULT:     0.288     19.985     23.349
REMARK INTER + INTRA:           3.305
REMARK INTER:                   4.284
REMARK INTRA:                  -0.979
REMARK UNBOUND:                 2.545
REMARK SMILES CCCCCCCCCCCCCCCCCCCCCCCCCCCCCC(=O)[O-]
REMARK SMILES IDX 16 1 17 2 18 3 19 4 20 5 21 6 22 7 23 8 24 9 25 10 26 11
REMARK SMILES IDX 27 12 28 13 29 14 30 15 31 16 32 17 15 18 14 19 13 20 12 21
REMARK SMILES IDX 11 22 10 23 9 24 8 25 7 26 6 27 5 28 4 29 3 30 2 31 1 32
REMARK H PARENT
REMARK Flexibility Score: inf
ROOT
ATOM      1  C   UNL     1      45.859  49.464  48.342  1.00  0.00     0.000 C 
ENDROOT
BRANCH   1   2
ATOM      2  C   UNL     1      47.143  49.020  49.067  1.00  0.00     0.000 C 
BRANCH   2   3
ATOM      3  C   UNL     1      47.232  47.511  49.358  1.00  0.00     0.000 C 
BRANCH   3   4
ATOM      4  C   UNL     1      48.176  46.778  48.388  1.00  0.00     0.000 C 
BRANCH   4   5
ATOM      5  C   UNL     1      49.048  47.743  47.566  1.00  0.00     0.000 C 
BRANCH   5   6
ATOM      6  C   UNL     1      49.839  47.022  46.460  1.00  0.00     0.000 C 
BRANCH   6   7
ATOM      7  C   UNL     1      51.363  47.190  46.604  1.00  0.00     0.000 C 
BRANCH   7   8
ATOM      8  C   UNL     1      52.186  46.762  45.375  1.00  0.00     0.000 C 
BRANCH   8   9
ATOM      9  C   UNL     1      51.412  45.833  44.428  1.00  0.00     0.000 C 
BRANCH   9  10
ATOM     10  C   UNL     1      52.362  44.875  43.693  1.00  0.00     0.000 C 
BRANCH  10  11
ATOM     11  C   UNL     1      52.797  45.405  42.318  1.00  0.00     0.000 C 
BRANCH  11  12
ATOM     12  C   UNL     1      53.368  46.833  42.384  1.00  0.00     0.000 C 
BRANCH  12  13
ATOM     13  C   UNL     1      52.684  47.794  41.400  1.00  0.00     0.006 C 
BRANCH  13  14
ATOM     14  C   UNL     1      51.267  47.340  41.017  1.00  0.00     0.053 C 
BRANCH  14  15
ATOM     15  C   UNL     1      50.316  48.495  41.044  1.00  0.00     0.041 C 
ATOM     16  O   UNL     1      50.748  49.672  41.164  1.00  0.00    -0.550 OA
ATOM     17  O   UNL     1      48.948  48.273  40.926  1.00  0.00    -0.550 OA
ENDBRANCH  14  15
ENDBRANCH  13  14
ENDBRANCH  12  13
ENDBRANCH  11  12
ENDBRANCH  10  11
ENDBRANCH   9  10
ENDBRANCH   8   9
ENDBRANCH   7   8
ENDBRANCH   6   7
ENDBRANCH   5   6
ENDBRANCH   4   5
ENDBRANCH   3   4
ENDBRANCH   2   3
ENDBRANCH   1   2
BRANCH   1  18
ATOM     18  C   UNL     1      46.038  49.842  46.856  1.00  0.00     0.000 C 
BRANCH  18  19
ATOM     19  C   UNL     1      44.801  50.467  46.184  1.00  0.00     0.000 C 
BRANCH  19  20
ATOM     20  C   UNL     1      44.843  50.376  44.653  1.00  0.00     0.000 C 
BRANCH  20  21
ATOM     21  C   UNL     1      43.587  49.676  44.109  1.00  0.00     0.000 C 
BRANCH  21  22
ATOM     22  C   UNL     1      43.623  49.496  42.582  1.00  0.00     0.000 C 
BRANCH  22  23
ATOM     23  C   UNL     1      42.309  48.916  42.028  1.00  0.00     0.000 C 
BRANCH  23  24
ATOM     24  C   UNL     1      42.524  47.611  41.247  1.00  0.00    -0.000 C 
BRANCH  24  25
ATOM     25  C   UNL     1      42.720  46.393  42.163  1.00  0.00    -0.000 C 
BRANCH  25  26
ATOM     26  C   UNL     1      43.035  45.138  41.341  1.00  0.00    -0.000 C 
BRANCH  26  27
ATOM     27  C   UNL     1      44.539  45.028  41.049  1.00  0.00    -0.000 C 
BRANCH  27  28
ATOM     28  C   UNL     1      45.237  46.405  41.019  1.00  0.00    -0.000 C 
BRANCH  28  29
ATOM     29  C   UNL     1      46.752  46.341  41.296  1.00  0.00    -0.000 C 
BRANCH  29  30
ATOM     30  C   UNL     1      47.298  44.939  41.625  1.00  0.00    -0.000 C 
BRANCH  30  31
ATOM     31  C   UNL     1      48.750  44.912  42.133  1.00  0.00    -0.003 C 
ATOM     32  C   UNL     1      48.887  45.400  43.575  1.00  0.00     0.004 C 
ENDBRANCH  30  31
ENDBRANCH  29  30
ENDBRANCH  28  29
ENDBRANCH  27  28
ENDBRANCH  26  27
ENDBRANCH  25  26
ENDBRANCH  24  25
ENDBRANCH  23  24
ENDBRANCH  22  23
ENDBRANCH  21  22
ENDBRANCH  20  21
ENDBRANCH  19  20
ENDBRANCH  18  19
ENDBRANCH   1  18
TORSDOF 28
ENDMDL
MODEL 3
REMARK VINA RESULT:     1.193     20.115     24.357
REMARK INTER + INTRA:           5.692
REMARK INTER:                   6.726
REMARK INTRA:                  -1.034
REMARK UNBOUND:                 2.545
REMARK SMILES CCCCCCCCCCCCCCCCCCCCCCCCCCCCCC(=O)[O-]
REMARK SMILES IDX 16 1 17 2 18 3 19 4 20 5 21 6 22 7 23 8 24 9 25 10 26 11
REMARK SMILES IDX 27 12 28 13 29 14 30 15 31 16 32 17 15 18 14 19 13 20 12 21
REMARK SMILES IDX 11 22 10 23 9 24 8 25 7 26 6 27 5 28 4 29 3 30 2 31 1 32
REMARK H PARENT
REMARK Flexibility Score: inf
ROOT
ATOM      1  C   UNL     1      48.398  47.892  47.382  1.00  0.00     0.000 C 
ENDROOT
BRANCH   1   2
ATOM      2  C   UNL     1      48.079  48.700  48.654  1.00  0.00     0.000 C 
BRANCH   2   3
ATOM      3  C   UNL     1      46.594  48.711  49.058  1.00  0.00     0.000 C 
BRANCH   3   4
ATOM      4  C   UNL     1      45.654  48.840  47.847  1.00  0.00     0.000 C 
BRANCH   4   5
ATOM      5  C   UNL     1      45.587  50.276  47.299  1.00  0.00     0.000 C 
BRANCH   5   6
ATOM      6  C   UNL     1      45.257  50.317  45.796  1.00  0.00     0.000 C 
BRANCH   6   7
ATOM      7  C   UNL     1      43.745  50.398  45.515  1.00  0.00     0.000 C 
BRANCH   7   8
ATOM      8  C   UNL     1      43.356  50.370  44.025  1.00  0.00     0.000 C 
BRANCH   8   9
ATOM      9  C   UNL     1      44.412  49.689  43.142  1.00  0.00     0.000 C 
BRANCH   9  10
ATOM     10  C   UNL     1      44.244  50.091  41.668  1.00  0.00     0.000 C 
BRANCH  10  11
ATOM     11  C   UNL     1      43.374  49.103  40.876  1.00  0.00     0.000 C 
BRANCH  11  12
ATOM     12  C   UNL     1      42.823  47.963  41.751  1.00  0.00     0.000 C 
BRANCH  12  13
ATOM     13  C   UNL     1      41.734  47.142  41.043  1.00  0.00     0.006 C 
BRANCH  13  14
ATOM     14  C   UNL     1      42.121  45.665  40.875  1.00  0.00     0.053 C 
BRANCH  14  15
ATOM     15  C   UNL     1      43.230  45.298  41.810  1.00  0.00     0.041 C 
ATOM     16  O   UNL     1      44.328  44.877  41.358  1.00  0.00    -0.550 OA
ATOM     17  O   UNL     1      43.056  45.429  43.182  1.00  0.00    -0.550 OA
ENDBRANCH  14  15
ENDBRANCH  13  14
ENDBRANCH  12  13
ENDBRANCH  11  12
ENDBRANCH  10  11
ENDBRANCH   9  10
ENDBRANCH   8   9
ENDBRANCH   7   8
ENDBRANCH   6   7
ENDBRANCH   5   6
ENDBRANCH   4   5
ENDBRANCH   3   4
ENDBRANCH   2   3
ENDBRANCH   1   2
BRANCH   1  18
ATOM     18  C   UNL     1      49.796  47.241  47.347  1.00  0.00     0.000 C 
BRANCH  18  19
ATOM     19  C   UNL     1      50.315  46.874  45.944  1.00  0.00     0.000 C 
BRANCH  19  20
ATOM     20  C   UNL     1      51.811  46.531  45.930  1.00  0.00     0.000 C 
BRANCH  20  21
ATOM     21  C   UNL     1      52.229  45.951  44.570  1.00  0.00     0.000 C 
BRANCH  21  22
ATOM     22  C   UNL     1      53.617  46.439  44.120  1.00  0.00     0.000 C 
BRANCH  22  23
ATOM     23  C   UNL     1      54.244  45.522  43.054  1.00  0.00     0.000 C 
BRANCH  23  24
ATOM     24  C   UNL     1      53.581  45.680  41.677  1.00  0.00    -0.000 C 
BRANCH  24  25
ATOM     25  C   UNL     1      52.117  45.215  41.663  1.00  0.00    -0.000 C 
BRANCH  25  26
ATOM     26  C   UNL     1      51.230  46.232  40.936  1.00  0.00    -0.000 C 
BRANCH  26  27
ATOM     27  C   UNL     1      51.017  47.494  41.786  1.00  0.00    -0.000 C 
BRANCH  27  28
ATOM     28  C   UNL     1      49.522  47.825  41.986  1.00  0.00    -0.000 C 
BRANCH  28  29
ATOM     29  C   UNL     1      48.833  46.965  43.063  1.00  0.00    -0.000 C 
BRANCH  29  30
ATOM     30  C   UNL     1      48.163  45.678  42.542  1.00  0.00    -0.000 C 
BRANCH  30  31
ATOM     31  C   UNL     1      47.178  45.887  41.378  1.00  0.00    -0.003 C 
ATOM     32  C   UNL     1      46.600  47.301  41.333  1.00  0.00     0.004 C 
ENDBRANCH  30  31
ENDBRANCH  29  30
ENDBRANCH  28  29
ENDBRANCH  27  28
ENDBRANCH  26  27
ENDBRANCH  25  26
ENDBRANCH  24  25
ENDBRANCH  23  24
ENDBRANCH  22  23
ENDBRANCH  21  22
ENDBRANCH  20  21
ENDBRANCH  19  20
ENDBRANCH  18  19
ENDBRANCH   1  18
TORSDOF 28
ENDMDL
