MODEL 1
REMARK VINA RESULT:    -4.225      0.000      0.000
REMARK INTER + INTRA:         -10.212
REMARK INTER:                  -8.176
REMARK INTRA:                  -2.036
REMARK UNBOUND:                -2.036
REMARK SMILES CCCCCCCCCCCCCCCCCC(=O)[O-]
REMARK SMILES IDX 10 1 11 2 12 3 13 4 14 5 15 6 16 7 17 8 18 9 19 10 20 11
REMARK SMILES IDX 9 12 8 13 7 14 6 15 5 16 4 17 3 18 2 19 1 20
REMARK H PARENT
REMARK Flexibility Score: inf
ROOT
ATOM      1  C   UNL     1      -5.793  20.318 -60.391  1.00  0.00     0.000 C 
ENDROOT
BRANCH   1   2
ATOM      2  C   UNL     1      -4.546  19.457 -60.643  1.00  0.00     0.000 C 
BRANCH   2   3
ATOM      3  C   UNL     1      -4.798  17.963 -60.389  1.00  0.00     0.000 C 
BRANCH   3   4
ATOM      4  C   UNL     1      -6.295  17.608 -60.377  1.00  0.00     0.000 C 
BRANCH   4   5
ATOM      5  C   UNL     1      -6.641  16.481 -61.363  1.00  0.00     0.000 C 
BRANCH   5   6
ATOM      6  C   UNL     1      -8.000  15.826 -61.058  1.00  0.00     0.000 C 
BRANCH   6   7
ATOM      7  C   UNL     1      -9.024  16.036 -62.184  1.00  0.00     0.006 C 
BRANCH   7   8
ATOM      8  C   UNL     1      -8.759  17.313 -62.991  1.00  0.00     0.053 C 
BRANCH   8   9
ATOM      9  C   UNL     1      -9.513  17.279 -64.283  1.00  0.00     0.041 C 
ATOM     10  O   UNL     1      -9.850  18.353 -64.847  1.00  0.00    -0.550 OA
ATOM     11  O   UNL     1      -9.807  16.061 -64.885  1.00  0.00    -0.550 OA
ENDBRANCH   8   9
ENDBRANCH   7   8
ENDBRANCH   6   7
ENDBRANCH   5   6
ENDBRANCH   4   5
ENDBRANCH   3   4
ENDBRANCH   2   3
ENDBRANCH   1   2
BRANCH   1  12
ATOM     12  C   UNL     1      -6.102  21.204 -61.607  1.00  0.00     0.000 C 
BRANCH  12  13
ATOM     13  C   UNL     1      -6.974  20.500 -62.662  1.00  0.00    -0.000 C 
BRANCH  13  14
ATOM     14  C   UNL     1      -6.270  20.211 -64.002  1.00  0.00    -0.000 C 
BRANCH  14  15
ATOM     15  C   UNL     1      -5.674  18.797 -64.128  1.00  0.00    -0.000 C 
BRANCH  15  16
ATOM     16  C   UNL     1      -4.397  18.763 -64.988  1.00  0.00    -0.000 C 
BRANCH  16  17
ATOM     17  C   UNL     1      -3.303  19.709 -64.463  1.00  0.00    -0.000 C 
BRANCH  17  18
ATOM     18  C   UNL     1      -1.879  19.377 -64.946  1.00  0.00    -0.000 C 
BRANCH  18  19
ATOM     19  C   UNL     1      -0.869  19.157 -63.799  1.00  0.00    -0.003 C 
ATOM     20  C   UNL     1       0.289  18.248 -64.205  1.00  0.00     0.004 C 
ENDBRANCH  18  19
ENDBRANCH  17  18
ENDBRANCH  16  17
ENDBRANCH  15  16
ENDBRANCH  14  15
ENDBRANCH  13  14
ENDBRANCH  12  13
ENDBRANCH   1  12
TORSDOF 16
ENDMDL
MODEL 2
REMARK VINA RESULT:    -4.158     11.893     14.188
REMARK INTER + INTRA:         -10.084
REMARK INTER:                  -7.621
REMARK INTRA:                  -2.463
REMARK UNBOUND:                -2.036
REMARK SMILES CCCCCCCCCCCCCCCCCC(=O)[O-]
REMARK SMILES IDX 10 1 11 2 12 3 13 4 14 5 15 6 16 7 17 8 18 9 19 10 20 11
REMARK SMILES IDX 9 12 8 13 7 14 6 15 5 16 4 17 3 18 2 19 1 20
REMARK H PARENT
REMARK Flexibility Score: inf
ROOT
ATOM      1  C   UNL     1      -5.864   8.618 -57.845  1.00  0.00     0.000 C 
ENDROOT
BRANCH   1   2
ATOM      2  C   UNL     1      -6.825   7.424 -57.937  1.00  0.00     0.000 C 
BRANCH   2   3
ATOM      3  C   UNL     1      -6.090   6.082 -58.073  1.00  0.00     0.000 C 
BRANCH   3   4
ATOM      4  C   UNL     1      -5.972   5.332 -56.734  1.00  0.00     0.000 C 
BRANCH   4   5
ATOM      5  C   UNL     1      -4.519   4.968 -56.390  1.00  0.00     0.000 C 
BRANCH   5   6
ATOM      6  C   UNL     1      -3.642   6.209 -56.141  1.00  0.00     0.000 C 
BRANCH   6   7
ATOM      7  C   UNL     1      -2.373   5.885 -55.338  1.00  0.00     0.006 C 
BRANCH   7   8
ATOM      8  C   UNL     1      -1.510   7.126 -55.074  1.00  0.00     0.053 C 
BRANCH   8   9
ATOM      9  C   UNL     1      -0.313   6.764 -54.253  1.00  0.00     0.041 C 
ATOM     10  O   UNL     1       0.528   5.937 -54.692  1.00  0.00    -0.550 OA
ATOM     11  O   UNL     1      -0.106   7.372 -53.020  1.00  0.00    -0.550 OA
ENDBRANCH   8   9
ENDBRANCH   7   8
ENDBRANCH   6   7
ENDBRANCH   5   6
ENDBRANCH   4   5
ENDBRANCH   3   4
ENDBRANCH   2   3
ENDBRANCH   1   2
BRANCH   1  12
ATOM     12  C   UNL     1      -4.704   8.466 -58.839  1.00  0.00     0.000 C 
BRANCH  12  13
ATOM     13  C   UNL     1      -3.429   9.207 -58.400  1.00  0.00    -0.000 C 
BRANCH  13  14
ATOM     14  C   UNL     1      -2.143   8.786 -59.138  1.00  0.00    -0.000 C 
BRANCH  14  15
ATOM     15  C   UNL     1      -1.642   7.368 -58.809  1.00  0.00    -0.000 C 
BRANCH  15  16
ATOM     16  C   UNL     1      -1.881   6.370 -59.956  1.00  0.00    -0.000 C 
BRANCH  16  17
ATOM     17  C   UNL     1      -2.764   5.182 -59.537  1.00  0.00    -0.000 C 
BRANCH  17  18
ATOM     18  C   UNL     1      -3.934   4.881 -60.491  1.00  0.00    -0.000 C 
BRANCH  18  19
ATOM     19  C   UNL     1      -3.841   5.623 -61.841  1.00  0.00    -0.003 C 
ATOM     20  C   UNL     1      -4.555   4.880 -62.968  1.00  0.00     0.004 C 
ENDBRANCH  18  19
ENDBRANCH  17  18
ENDBRANCH  16  17
ENDBRANCH  15  16
ENDBRANCH  14  15
ENDBRANCH  13  14
ENDBRANCH  12  13
ENDBRANCH   1  12
TORSDOF 16
ENDMDL
MODEL 3
REMARK VINA RESULT:    -4.096     11.889     14.398
REMARK INTER + INTRA:          -9.962
REMARK INTER:                  -8.078
REMARK INTRA:                  -1.884
REMARK UNBOUND:                -2.036
REMARK SMILES CCCCCCCCCCCCCCCCCC(=O)[O-]
REMARK SMILES IDX 10 1 11 2 12 3 13 4 14 5 15 6 16 7 17 8 18 9 19 10 20 11
REMARK SMILES IDX 9 12 8 13 7 14 6 15 5 16 4 17 3 18 2 19 1 20
REMARK H PARENT
REMARK Flexibility Score: inf
ROOT
ATOM      1  C   UNL     1      -4.592   9.477 -58.657  1.00  0.00     0.000 C 
ENDROOT
BRANCH   1   2
ATOM      2  C   UNL     1      -3.124   9.408 -58.211  1.00  0.00     0.000 C 
BRANCH   2   3
ATOM      3  C   UNL     1      -2.748   8.039 -57.623  1.00  0.00     0.000 C 
BRANCH   3   4
ATOM      4  C   UNL     1      -1.779   7.253 -58.524  1.00  0.00     0.000 C 
BRANCH   4   5
ATOM      5  C   UNL     1      -1.020   6.158 -57.758  1.00  0.00     0.000 C 
BRANCH   5   6
ATOM      6  C   UNL     1      -1.735   5.742 -56.460  1.00  0.00     0.000 C 
BRANCH   6   7
ATOM      7  C   UNL     1      -0.768   5.579 -55.277  1.00  0.00     0.006 C 
BRANCH   7   8
ATOM      8  C   UNL     1       0.106   6.820 -55.055  1.00  0.00     0.053 C 
BRANCH   8   9
ATOM      9  C   UNL     1       0.061   7.240 -53.620  1.00  0.00     0.041 C 
ATOM     10  O   UNL     1      -0.331   6.433 -52.737  1.00  0.00    -0.550 OA
ATOM     11  O   UNL     1       0.491   8.511 -53.253  1.00  0.00    -0.550 OA
ENDBRANCH   8   9
ENDBRANCH   7   8
ENDBRANCH   6   7
ENDBRANCH   5   6
ENDBRANCH   4   5
ENDBRANCH   3   4
ENDBRANCH   2   3
ENDBRANCH   1   2
BRANCH   1  12
ATOM     12  C   UNL     1      -5.491   8.670 -57.709  1.00  0.00     0.000 C 
BRANCH  12  13
ATOM     13  C   UNL     1      -6.753   8.119 -58.395  1.00  0.00    -0.000 C 
BRANCH  13  14
ATOM     14  C   UNL     1      -7.389   6.896 -57.706  1.00  0.00    -0.000 C 
BRANCH  14  15
ATOM     15  C   UNL     1      -6.412   6.036 -56.883  1.00  0.00    -0.000 C 
BRANCH  15  16
ATOM     16  C   UNL     1      -5.810   4.875 -57.696  1.00  0.00    -0.000 C 
BRANCH  16  17
ATOM     17  C   UNL     1      -4.649   5.324 -58.601  1.00  0.00    -0.000 C 
BRANCH  17  18
ATOM     18  C   UNL     1      -4.770   4.880 -60.071  1.00  0.00    -0.000 C 
BRANCH  18  19
ATOM     19  C   UNL     1      -3.836   5.647 -61.030  1.00  0.00    -0.003 C 
ATOM     20  C   UNL     1      -4.114   5.329 -62.497  1.00  0.00     0.004 C 
ENDBRANCH  18  19
ENDBRANCH  17  18
ENDBRANCH  16  17
ENDBRANCH  15  16
ENDBRANCH  14  15
ENDBRANCH  13  14
ENDBRANCH  12  13
ENDBRANCH   1  12
TORSDOF 16
ENDMDL
MODEL 4
REMARK VINA RESULT:    -3.972      3.349      6.624
REMARK INTER + INTRA:          -9.723
REMARK INTER:                  -7.924
REMARK INTRA:                  -1.799
REMARK UNBOUND:                -2.036
REMARK SMILES CCCCCCCCCCCCCCCCCC(=O)[O-]
REMARK SMILES IDX 10 1 11 2 12 3 13 4 14 5 15 6 16 7 17 8 18 9 19 10 20 11
REMARK SMILES IDX 9 12 8 13 7 14 6 15 5 16 4 17 3 18 2 19 1 20
REMARK H PARENT
REMARK Flexibility Score: inf
ROOT
ATOM      1  C   UNL     1      -5.781  21.793 -60.917  1.00  0.00     0.000 C 
ENDROOT
BRANCH   1   2
ATOM      2  C   UNL     1      -6.276  21.639 -62.363  1.00  0.00     0.000 C 
BRANCH   2   3
ATOM      3  C   UNL     1      -6.712  20.202 -62.690  1.00  0.00     0.000 C 
BRANCH   3   4
ATOM      4  C   UNL     1      -6.438  19.819 -64.155  1.00  0.00     0.000 C 
BRANCH   4   5
ATOM      5  C   UNL     1      -5.095  19.095 -64.332  1.00  0.00     0.000 C 
BRANCH   5   6
ATOM      6  C   UNL     1      -3.985  20.027 -64.851  1.00  0.00     0.000 C 
BRANCH   6   7
ATOM      7  C   UNL     1      -2.656  19.292 -65.084  1.00  0.00     0.006 C 
BRANCH   7   8
ATOM      8  C   UNL     1      -1.742  19.321 -63.852  1.00  0.00     0.053 C 
BRANCH   8   9
ATOM      9  C   UNL     1      -0.307  19.235 -64.265  1.00  0.00     0.041 C 
ATOM     10  O   UNL     1       0.292  20.258 -64.687  1.00  0.00    -0.550 OA
ATOM     11  O   UNL     1       0.381  18.033 -64.143  1.00  0.00    -0.550 OA
ENDBRANCH   8   9
ENDBRANCH   7   8
ENDBRANCH   6   7
ENDBRANCH   5   6
ENDBRANCH   4   5
ENDBRANCH   3   4
ENDBRANCH   2   3
ENDBRANCH   1   2
BRANCH   1  12
ATOM     12  C   UNL     1      -6.124  20.548 -60.085  1.00  0.00     0.000 C 
BRANCH  12  13
ATOM     13  C   UNL     1      -4.971  20.094 -59.174  1.00  0.00    -0.000 C 
BRANCH  13  14
ATOM     14  C   UNL     1      -4.332  18.743 -59.554  1.00  0.00    -0.000 C 
BRANCH  14  15
ATOM     15  C   UNL     1      -4.911  18.088 -60.822  1.00  0.00    -0.000 C 
BRANCH  15  16
ATOM     16  C   UNL     1      -5.804  16.873 -60.510  1.00  0.00    -0.000 C 
BRANCH  16  17
ATOM     17  C   UNL     1      -6.771  16.537 -61.658  1.00  0.00    -0.000 C 
BRANCH  17  18
ATOM     18  C   UNL     1      -8.037  15.771 -61.229  1.00  0.00    -0.000 C 
BRANCH  18  19
ATOM     19  C   UNL     1      -9.290  16.130 -62.056  1.00  0.00    -0.003 C 
ATOM     20  C   UNL     1      -8.953  16.927 -63.314  1.00  0.00     0.004 C 
ENDBRANCH  18  19
ENDBRANCH  17  18
ENDBRANCH  16  17
ENDBRANCH  15  16
ENDBRANCH  14  15
ENDBRANCH  13  14
ENDBRANCH  12  13
ENDBRANCH   1  12
TORSDOF 16
ENDMDL
MODEL 5
REMARK VINA RESULT:    -3.966     12.405     15.189
REMARK INTER + INTRA:          -9.712
REMARK INTER:                  -7.617
REMARK INTRA:                  -2.095
REMARK UNBOUND:                -2.036
REMARK SMILES CCCCCCCCCCCCCCCCCC(=O)[O-]
REMARK SMILES IDX 10 1 11 2 12 3 13 4 14 5 15 6 16 7 17 8 18 9 19 10 20 11
REMARK SMILES IDX 9 12 8 13 7 14 6 15 5 16 4 17 3 18 2 19 1 20
REMARK H PARENT
REMARK Flexibility Score: inf
ROOT
ATOM      1  C   UNL     1      -4.612   9.020 -58.078  1.00  0.00     0.000 C 
ENDROOT
BRANCH   1   2
ATOM      2  C   UNL     1      -3.304   8.933 -57.278  1.00  0.00     0.000 C 
BRANCH   2   3
ATOM      3  C   UNL     1      -3.490   8.252 -55.913  1.00  0.00     0.000 C 
BRANCH   3   4
ATOM      4  C   UNL     1      -2.207   7.561 -55.417  1.00  0.00     0.000 C 
BRANCH   4   5
ATOM      5  C   UNL     1      -2.117   6.094 -55.867  1.00  0.00     0.000 C 
BRANCH   5   6
ATOM      6  C   UNL     1      -0.667   5.640 -56.112  1.00  0.00     0.000 C 
BRANCH   6   7
ATOM      7  C   UNL     1       0.292   6.096 -55.001  1.00  0.00     0.006 C 
BRANCH   7   8
ATOM      8  C   UNL     1       0.200   5.218 -53.746  1.00  0.00     0.053 C 
BRANCH   8   9
ATOM      9  C   UNL     1      -0.491   5.956 -52.643  1.00  0.00     0.041 C 
ATOM     10  O   UNL     1       0.017   7.006 -52.169  1.00  0.00    -0.550 OA
ATOM     11  O   UNL     1      -1.717   5.506 -52.166  1.00  0.00    -0.550 OA
ENDBRANCH   8   9
ENDBRANCH   7   8
ENDBRANCH   6   7
ENDBRANCH   5   6
ENDBRANCH   4   5
ENDBRANCH   3   4
ENDBRANCH   2   3
ENDBRANCH   1   2
BRANCH   1  12
ATOM     12  C   UNL     1      -4.593   8.050 -59.268  1.00  0.00     0.000 C 
BRANCH  12  13
ATOM     13  C   UNL     1      -3.294   7.231 -59.360  1.00  0.00    -0.000 C 
BRANCH  13  14
ATOM     14  C   UNL     1      -3.492   5.711 -59.526  1.00  0.00    -0.000 C 
BRANCH  14  15
ATOM     15  C   UNL     1      -4.804   5.161 -58.938  1.00  0.00    -0.000 C 
BRANCH  15  16
ATOM     16  C   UNL     1      -4.769   5.047 -57.403  1.00  0.00    -0.000 C 
BRANCH  16  17
ATOM     17  C   UNL     1      -6.167   5.137 -56.768  1.00  0.00    -0.000 C 
BRANCH  17  18
ATOM     18  C   UNL     1      -7.333   4.875 -57.739  1.00  0.00    -0.000 C 
BRANCH  18  19
ATOM     19  C   UNL     1      -8.366   6.021 -57.792  1.00  0.00    -0.003 C 
ATOM     20  C   UNL     1      -7.711   7.399 -57.840  1.00  0.00     0.004 C 
ENDBRANCH  18  19
ENDBRANCH  17  18
ENDBRANCH  16  17
ENDBRANCH  15  16
ENDBRANCH  14  15
ENDBRANCH  13  14
ENDBRANCH  12  13
ENDBRANCH   1  12
TORSDOF 16
ENDMDL
MODEL 6
REMARK VINA RESULT:    -3.894     12.014     14.813
REMARK INTER + INTRA:          -9.573
REMARK INTER:                  -7.779
REMARK INTRA:                  -1.794
REMARK UNBOUND:                -2.036
REMARK SMILES CCCCCCCCCCCCCCCCCC(=O)[O-]
REMARK SMILES IDX 10 1 11 2 12 3 13 4 14 5 15 6 16 7 17 8 18 9 19 10 20 11
REMARK SMILES IDX 9 12 8 13 7 14 6 15 5 16 4 17 3 18 2 19 1 20
REMARK H PARENT
REMARK Flexibility Score: inf
ROOT
ATOM      1  C   UNL     1      -3.471   9.716 -58.750  1.00  0.00     0.000 C 
ENDROOT
BRANCH   1   2
ATOM      2  C   UNL     1      -2.074   9.078 -58.762  1.00  0.00     0.000 C 
BRANCH   2   3
ATOM      3  C   UNL     1      -2.105   7.594 -59.160  1.00  0.00     0.000 C 
BRANCH   3   4
ATOM      4  C   UNL     1      -0.869   6.822 -58.666  1.00  0.00     0.000 C 
BRANCH   4   5
ATOM      5  C   UNL     1      -1.154   5.326 -58.457  1.00  0.00     0.000 C 
BRANCH   5   6
ATOM      6  C   UNL     1      -0.905   4.875 -57.007  1.00  0.00     0.000 C 
BRANCH   6   7
ATOM      7  C   UNL     1      -0.601   6.050 -56.065  1.00  0.00     0.006 C 
BRANCH   7   8
ATOM      8  C   UNL     1      -0.002   5.594 -54.728  1.00  0.00     0.053 C 
BRANCH   8   9
ATOM      9  C   UNL     1      -0.269   6.611 -53.664  1.00  0.00     0.041 C 
ATOM     10  O   UNL     1      -0.617   7.779 -53.978  1.00  0.00    -0.550 OA
ATOM     11  O   UNL     1      -0.172   6.256 -52.323  1.00  0.00    -0.550 OA
ENDBRANCH   8   9
ENDBRANCH   7   8
ENDBRANCH   6   7
ENDBRANCH   5   6
ENDBRANCH   4   5
ENDBRANCH   3   4
ENDBRANCH   2   3
ENDBRANCH   1   2
BRANCH   1  12
ATOM     12  C   UNL     1      -4.553   8.662 -58.478  1.00  0.00     0.000 C 
BRANCH  12  13
ATOM     13  C   UNL     1      -4.806   8.428 -56.978  1.00  0.00    -0.000 C 
BRANCH  13  14
ATOM     14  C   UNL     1      -3.912   7.355 -56.326  1.00  0.00    -0.000 C 
BRANCH  14  15
ATOM     15  C   UNL     1      -4.376   5.904 -56.550  1.00  0.00    -0.000 C 
BRANCH  15  16
ATOM     16  C   UNL     1      -4.816   5.636 -58.001  1.00  0.00    -0.000 C 
BRANCH  16  17
ATOM     17  C   UNL     1      -6.150   4.875 -58.086  1.00  0.00    -0.000 C 
BRANCH  17  18
ATOM     18  C   UNL     1      -7.211   5.319 -57.061  1.00  0.00    -0.000 C 
BRANCH  18  19
ATOM     19  C   UNL     1      -8.388   6.099 -57.683  1.00  0.00    -0.003 C 
ATOM     20  C   UNL     1      -8.004   7.522 -58.079  1.00  0.00     0.004 C 
ENDBRANCH  18  19
ENDBRANCH  17  18
ENDBRANCH  16  17
ENDBRANCH  15  16
ENDBRANCH  14  15
ENDBRANCH  13  14
ENDBRANCH  12  13
ENDBRANCH   1  12
TORSDOF 16
ENDMDL
MODEL 7
REMARK VINA RESULT:    -3.631     14.045     16.560
REMARK INTER + INTRA:          -9.064
REMARK INTER:                  -7.772
REMARK INTRA:                  -1.292
REMARK UNBOUND:                -2.036
REMARK SMILES CCCCCCCCCCCCCCCCCC(=O)[O-]
REMARK SMILES IDX 10 1 11 2 12 3 13 4 14 5 15 6 16 7 17 8 18 9 19 10 20 11
REMARK SMILES IDX 9 12 8 13 7 14 6 15 5 16 4 17 3 18 2 19 1 20
REMARK H PARENT
REMARK Flexibility Score: inf
ROOT
ATOM      1  C   UNL     1      -1.162   6.833 -54.525  1.00  0.00     0.000 C 
ENDROOT
BRANCH   1   2
ATOM      2  C   UNL     1      -1.554   6.050 -55.786  1.00  0.00     0.000 C 
BRANCH   2   3
ATOM      3  C   UNL     1      -0.336   5.488 -56.536  1.00  0.00     0.000 C 
BRANCH   3   4
ATOM      4  C   UNL     1      -0.437   5.684 -58.059  1.00  0.00     0.000 C 
BRANCH   4   5
ATOM      5  C   UNL     1      -1.857   5.438 -58.592  1.00  0.00     0.000 C 
BRANCH   5   6
ATOM      6  C   UNL     1      -2.389   6.619 -59.423  1.00  0.00     0.000 C 
BRANCH   6   7
ATOM      7  C   UNL     1      -3.923   6.641 -59.506  1.00  0.00     0.006 C 
BRANCH   7   8
ATOM      8  C   UNL     1      -4.567   7.371 -58.320  1.00  0.00     0.053 C 
BRANCH   8   9
ATOM      9  C   UNL     1      -3.956   8.725 -58.147  1.00  0.00     0.041 C 
ATOM     10  O   UNL     1      -4.159   9.625 -59.004  1.00  0.00    -0.550 OA
ATOM     11  O   UNL     1      -3.195   9.006 -57.018  1.00  0.00    -0.550 OA
ENDBRANCH   8   9
ENDBRANCH   7   8
ENDBRANCH   6   7
ENDBRANCH   5   6
ENDBRANCH   4   5
ENDBRANCH   3   4
ENDBRANCH   2   3
ENDBRANCH   1   2
BRANCH   1  12
ATOM     12  C   UNL     1       0.131   6.275 -53.912  1.00  0.00     0.000 C 
BRANCH  12  13
ATOM     13  C   UNL     1      -0.122   5.178 -52.863  1.00  0.00    -0.000 C 
BRANCH  13  14
ATOM     14  C   UNL     1      -1.421   5.340 -52.049  1.00  0.00    -0.000 C 
BRANCH  14  15
ATOM     15  C   UNL     1      -1.269   5.106 -50.535  1.00  0.00    -0.000 C 
BRANCH  15  16
ATOM     16  C   UNL     1       0.029   5.708 -49.966  1.00  0.00    -0.000 C 
BRANCH  16  17
ATOM     17  C   UNL     1      -0.055   5.979 -48.454  1.00  0.00    -0.000 C 
BRANCH  17  18
ATOM     18  C   UNL     1      -1.400   5.602 -47.806  1.00  0.00    -0.000 C 
BRANCH  18  19
ATOM     19  C   UNL     1      -2.097   6.778 -47.089  1.00  0.00    -0.003 C 
ATOM     20  C   UNL     1      -3.578   6.885 -47.442  1.00  0.00     0.004 C 
ENDBRANCH  18  19
ENDBRANCH  17  18
ENDBRANCH  16  17
ENDBRANCH  15  16
ENDBRANCH  14  15
ENDBRANCH  13  14
ENDBRANCH  12  13
ENDBRANCH   1  12
TORSDOF 16
ENDMDL
MODEL 8
REMARK VINA RESULT:    -3.574     13.711     16.523
REMARK INTER + INTRA:          -8.953
REMARK INTER:                  -7.853
REMARK INTRA:                  -1.100
REMARK UNBOUND:                -2.036
REMARK SMILES CCCCCCCCCCCCCCCCCC(=O)[O-]
REMARK SMILES IDX 10 1 11 2 12 3 13 4 14 5 15 6 16 7 17 8 18 9 19 10 20 11
REMARK SMILES IDX 9 12 8 13 7 14 6 15 5 16 4 17 3 18 2 19 1 20
REMARK H PARENT
REMARK Flexibility Score: inf
ROOT
ATOM      1  C   UNL     1      -1.491   6.772 -54.460  1.00  0.00     0.000 C 
ENDROOT
BRANCH   1   2
ATOM      2  C   UNL     1      -1.491   5.659 -55.518  1.00  0.00     0.000 C 
BRANCH   2   3
ATOM      3  C   UNL     1      -0.134   5.514 -56.225  1.00  0.00     0.000 C 
BRANCH   3   4
ATOM      4  C   UNL     1      -0.254   5.595 -57.757  1.00  0.00     0.000 C 
BRANCH   4   5
ATOM      5  C   UNL     1      -1.686   5.904 -58.220  1.00  0.00     0.000 C 
BRANCH   5   6
ATOM      6  C   UNL     1      -1.764   7.166 -59.098  1.00  0.00     0.000 C 
BRANCH   6   7
ATOM      7  C   UNL     1      -2.774   8.195 -58.567  1.00  0.00     0.006 C 
BRANCH   7   8
ATOM      8  C   UNL     1      -4.226   7.721 -58.704  1.00  0.00     0.053 C 
BRANCH   8   9
ATOM      9  C   UNL     1      -4.869   7.614 -57.357  1.00  0.00     0.041 C 
ATOM     10  O   UNL     1      -4.274   8.049 -56.336  1.00  0.00    -0.550 OA
ATOM     11  O   UNL     1      -6.142   7.069 -57.235  1.00  0.00    -0.550 OA
ENDBRANCH   8   9
ENDBRANCH   7   8
ENDBRANCH   6   7
ENDBRANCH   5   6
ENDBRANCH   4   5
ENDBRANCH   3   4
ENDBRANCH   2   3
ENDBRANCH   1   2
BRANCH   1  12
ATOM     12  C   UNL     1      -0.341   6.578 -53.460  1.00  0.00     0.000 C 
BRANCH  12  13
ATOM     13  C   UNL     1      -0.579   5.413 -52.483  1.00  0.00    -0.000 C 
BRANCH  13  14
ATOM     14  C   UNL     1      -2.029   5.270 -51.980  1.00  0.00    -0.000 C 
BRANCH  14  15
ATOM     15  C   UNL     1      -2.177   5.183 -50.450  1.00  0.00    -0.000 C 
BRANCH  15  16
ATOM     16  C   UNL     1      -3.642   5.272 -49.986  1.00  0.00    -0.000 C 
BRANCH  16  17
ATOM     17  C   UNL     1      -3.796   6.003 -48.641  1.00  0.00    -0.000 C 
BRANCH  17  18
ATOM     18  C   UNL     1      -5.251   6.188 -48.172  1.00  0.00    -0.000 C 
BRANCH  18  19
ATOM     19  C   UNL     1      -5.730   7.656 -48.196  1.00  0.00    -0.003 C 
ATOM     20  C   UNL     1      -5.010   8.524 -47.167  1.00  0.00     0.004 C 
ENDBRANCH  18  19
ENDBRANCH  17  18
ENDBRANCH  16  17
ENDBRANCH  15  16
ENDBRANCH  14  15
ENDBRANCH  13  14
ENDBRANCH  12  13
ENDBRANCH   1  12
TORSDOF 16
ENDMDL
MODEL 9
REMARK VINA RESULT:    -1.945      3.088      5.217
REMARK INTER + INTRA:          -5.801
REMARK INTER:                  -3.641
REMARK INTRA:                  -2.160
REMARK UNBOUND:                -2.036
REMARK SMILES CCCCCCCCCCCCCCCCCC(=O)[O-]
REMARK SMILES IDX 10 1 11 2 12 3 13 4 14 5 15 6 16 7 17 8 18 9 19 10 20 11
REMARK SMILES IDX 9 12 8 13 7 14 6 15 5 16 4 17 3 18 2 19 1 20
REMARK H PARENT
REMARK Flexibility Score: inf
ROOT
ATOM      1  C   UNL     1      -7.490  16.712 -60.671  1.00  0.00     0.000 C 
ENDROOT
BRANCH   1   2
ATOM      2  C   UNL     1      -5.956  16.783 -60.648  1.00  0.00     0.000 C 
BRANCH   2   3
ATOM      3  C   UNL     1      -5.409  18.025 -61.370  1.00  0.00     0.000 C 
BRANCH   3   4
ATOM      4  C   UNL     1      -4.443  18.842 -60.494  1.00  0.00     0.000 C 
BRANCH   4   5
ATOM      5  C   UNL     1      -5.139  20.018 -59.790  1.00  0.00     0.000 C 
BRANCH   5   6
ATOM      6  C   UNL     1      -6.405  20.484 -60.531  1.00  0.00     0.000 C 
BRANCH   6   7
ATOM      7  C   UNL     1      -6.169  21.750 -61.369  1.00  0.00     0.006 C 
BRANCH   7   8
ATOM      8  C   UNL     1      -5.535  22.886 -60.555  1.00  0.00     0.053 C 
BRANCH   8   9
ATOM      9  C   UNL     1      -5.881  24.212 -61.154  1.00  0.00     0.041 C 
ATOM     10  O   UNL     1      -6.364  25.125 -60.434  1.00  0.00    -0.550 OA
ATOM     11  O   UNL     1      -5.631  24.454 -62.500  1.00  0.00    -0.550 OA
ENDBRANCH   8   9
ENDBRANCH   7   8
ENDBRANCH   6   7
ENDBRANCH   5   6
ENDBRANCH   4   5
ENDBRANCH   3   4
ENDBRANCH   2   3
ENDBRANCH   1   2
BRANCH   1  12
ATOM     12  C   UNL     1      -7.979  15.817 -61.819  1.00  0.00     0.000 C 
BRANCH  12  13
ATOM     13  C   UNL     1      -9.274  16.328 -62.475  1.00  0.00    -0.000 C 
BRANCH  13  14
ATOM     14  C   UNL     1      -9.104  16.897 -63.897  1.00  0.00    -0.000 C 
BRANCH  14  15
ATOM     15  C   UNL     1      -7.921  17.867 -64.070  1.00  0.00    -0.000 C 
BRANCH  15  16
ATOM     16  C   UNL     1      -6.871  17.356 -65.074  1.00  0.00    -0.000 C 
BRANCH  16  17
ATOM     17  C   UNL     1      -5.590  18.208 -65.080  1.00  0.00    -0.000 C 
BRANCH  17  18
ATOM     18  C   UNL     1      -5.767  19.640 -64.541  1.00  0.00    -0.000 C 
BRANCH  18  19
ATOM     19  C   UNL     1      -4.444  20.309 -64.110  1.00  0.00    -0.003 C 
ATOM     20  C   UNL     1      -3.217  19.594 -64.670  1.00  0.00     0.004 C 
ENDBRANCH  18  19
ENDBRANCH  17  18
ENDBRANCH  16  17
ENDBRANCH  15  16
ENDBRANCH  14  15
ENDBRANCH  13  14
ENDBRANCH  12  13
ENDBRANCH   1  12
TORSDOF 16
ENDMDL
