MODEL 1
REMARK VINA RESULT:    -4.936      0.000      0.000
REMARK INTER + INTRA:         -11.005
REMARK INTER:                  -9.265
REMARK INTRA:                  -1.741
REMARK UNBOUND:                -1.741
REMARK SMILES CCCCCCCCC=CCCCCCCCC(=O)[O-]
REMARK SMILES IDX 10 1 9 2 11 3 12 4 13 5 14 6 15 7 16 8 17 9 18 10 19 11
REMARK SMILES IDX 20 12 8 13 7 14 6 15 5 16 4 17 3 18 2 19 1 20
REMARK H PARENT
REMARK Flexibility Score: inf
ROOT
ATOM      1  C   UNL     1      -8.018  -4.193  -9.407  1.00  0.00    -0.031 C 
ATOM      2  C   UNL     1      -7.060  -4.715  -8.620  1.00  0.00    -0.031 C 
ENDROOT
BRANCH   1   3
ATOM      3  C   UNL     1      -9.359  -4.849  -9.635  1.00  0.00     0.027 C 
BRANCH   3   4
ATOM      4  C   UNL     1     -10.420  -4.280  -8.682  1.00  0.00     0.004 C 
BRANCH   4   5
ATOM      5  C   UNL     1     -11.021  -5.353  -7.759  1.00  0.00     0.000 C 
BRANCH   5   6
ATOM      6  C   UNL     1     -10.552  -5.208  -6.300  1.00  0.00     0.000 C 
BRANCH   6   7
ATOM      7  C   UNL     1     -10.346  -3.742  -5.888  1.00  0.00     0.000 C 
BRANCH   7   8
ATOM      8  C   UNL     1      -9.370  -3.590  -4.711  1.00  0.00     0.006 C 
BRANCH   8   9
ATOM      9  C   UNL     1      -9.955  -4.197  -3.432  1.00  0.00     0.053 C 
BRANCH   9  10
ATOM     10  C   UNL     1      -9.334  -3.574  -2.222  1.00  0.00     0.041 C 
ATOM     11  O   UNL     1      -9.676  -2.418  -1.858  1.00  0.00    -0.550 OA
ATOM     12  O   UNL     1      -8.409  -4.287  -1.470  1.00  0.00    -0.550 OA
ENDBRANCH   9  10
ENDBRANCH   8   9
ENDBRANCH   7   8
ENDBRANCH   6   7
ENDBRANCH   5   6
ENDBRANCH   4   5
ENDBRANCH   3   4
ENDBRANCH   1   3
BRANCH   2  13
ATOM     13  C   UNL     1      -7.209  -5.990  -7.827  1.00  0.00     0.027 C 
BRANCH  13  14
ATOM     14  C   UNL     1      -6.967  -5.768  -6.326  1.00  0.00     0.004 C 
BRANCH  14  15
ATOM     15  C   UNL     1      -5.999  -6.809  -5.736  1.00  0.00     0.000 C 
BRANCH  15  16
ATOM     16  C   UNL     1      -4.594  -6.725  -6.353  1.00  0.00     0.000 C 
BRANCH  16  17
ATOM     17  C   UNL     1      -3.681  -5.724  -5.624  1.00  0.00    -0.000 C 
BRANCH  17  18
ATOM     18  C   UNL     1      -4.034  -4.261  -5.964  1.00  0.00    -0.000 C 
BRANCH  18  19
ATOM     19  C   UNL     1      -2.910  -3.265  -5.631  1.00  0.00    -0.003 C 
ATOM     20  C   UNL     1      -3.251  -1.827  -6.018  1.00  0.00     0.004 C 
ENDBRANCH  18  19
ENDBRANCH  17  18
ENDBRANCH  16  17
ENDBRANCH  15  16
ENDBRANCH  14  15
ENDBRANCH  13  14
ENDBRANCH   2  13
TORSDOF 15
ENDMDL
MODEL 2
REMARK VINA RESULT:    -4.927      1.187      1.492
REMARK INTER + INTRA:         -10.988
REMARK INTER:                  -9.381
REMARK INTRA:                  -1.607
REMARK UNBOUND:                -1.741
REMARK SMILES CCCCCCCCC=CCCCCCCCC(=O)[O-]
REMARK SMILES IDX 10 1 9 2 11 3 12 4 13 5 14 6 15 7 16 8 17 9 18 10 19 11
REMARK SMILES IDX 20 12 8 13 7 14 6 15 5 16 4 17 3 18 2 19 1 20
REMARK H PARENT
REMARK Flexibility Score: inf
ROOT
ATOM      1  C   UNL     1      -8.203  -4.142  -9.130  1.00  0.00    -0.031 C 
ATOM      2  C   UNL     1      -7.194  -4.853  -9.665  1.00  0.00    -0.031 C 
ENDROOT
BRANCH   1   3
ATOM      3  C   UNL     1      -9.569  -4.718  -8.846  1.00  0.00     0.027 C 
BRANCH   3   4
ATOM      4  C   UNL     1     -10.032  -4.363  -7.425  1.00  0.00     0.004 C 
BRANCH   4   5
ATOM      5  C   UNL     1      -8.913  -4.522  -6.382  1.00  0.00     0.000 C 
BRANCH   5   6
ATOM      6  C   UNL     1      -9.233  -5.602  -5.333  1.00  0.00     0.000 C 
BRANCH   6   7
ATOM      7  C   UNL     1     -10.448  -5.243  -4.464  1.00  0.00     0.000 C 
BRANCH   7   8
ATOM      8  C   UNL     1     -10.441  -3.775  -4.012  1.00  0.00     0.006 C 
BRANCH   8   9
ATOM      9  C   UNL     1     -10.561  -3.669  -2.489  1.00  0.00     0.053 C 
BRANCH   9  10
ATOM     10  C   UNL     1      -9.237  -3.338  -1.879  1.00  0.00     0.041 C 
ATOM     11  O   UNL     1      -8.917  -2.137  -1.671  1.00  0.00    -0.550 OA
ATOM     12  O   UNL     1      -8.372  -4.356  -1.498  1.00  0.00    -0.550 OA
ENDBRANCH   9  10
ENDBRANCH   8   9
ENDBRANCH   7   8
ENDBRANCH   6   7
ENDBRANCH   5   6
ENDBRANCH   4   5
ENDBRANCH   3   4
ENDBRANCH   1   3
BRANCH   2  13
ATOM     13  C   UNL     1      -7.272  -6.321 -10.006  1.00  0.00     0.027 C 
BRANCH  13  14
ATOM     14  C   UNL     1      -6.594  -7.198  -8.942  1.00  0.00     0.004 C 
BRANCH  14  15
ATOM     15  C   UNL     1      -5.477  -6.445  -8.199  1.00  0.00     0.000 C 
BRANCH  15  16
ATOM     16  C   UNL     1      -5.528  -6.662  -6.678  1.00  0.00     0.000 C 
BRANCH  16  17
ATOM     17  C   UNL     1      -4.386  -5.948  -5.935  1.00  0.00    -0.000 C 
BRANCH  17  18
ATOM     18  C   UNL     1      -4.495  -4.412  -6.038  1.00  0.00    -0.000 C 
BRANCH  18  19
ATOM     19  C   UNL     1      -3.188  -3.679  -5.690  1.00  0.00    -0.003 C 
ATOM     20  C   UNL     1      -3.251  -2.179  -5.970  1.00  0.00     0.004 C 
ENDBRANCH  18  19
ENDBRANCH  17  18
ENDBRANCH  16  17
ENDBRANCH  15  16
ENDBRANCH  14  15
ENDBRANCH  13  14
ENDBRANCH   2  13
TORSDOF 15
ENDMDL
MODEL 3
REMARK VINA RESULT:    -4.723      1.544      2.459
REMARK INTER + INTRA:         -10.606
REMARK INTER:                  -9.267
REMARK INTRA:                  -1.339
REMARK UNBOUND:                -1.741
REMARK SMILES CCCCCCCCC=CCCCCCCCC(=O)[O-]
REMARK SMILES IDX 10 1 9 2 11 3 12 4 13 5 14 6 15 7 16 8 17 9 18 10 19 11
REMARK SMILES IDX 20 12 8 13 7 14 6 15 5 16 4 17 3 18 2 19 1 20
REMARK H PARENT
REMARK Flexibility Score: inf
ROOT
ATOM      1  C   UNL     1      -8.632  -4.535  -7.440  1.00  0.00    -0.031 C 
ATOM      2  C   UNL     1      -7.885  -4.728  -8.542  1.00  0.00    -0.031 C 
ENDROOT
BRANCH   1   3
ATOM      3  C   UNL     1      -9.457  -5.620  -6.791  1.00  0.00     0.027 C 
BRANCH   3   4
ATOM      4  C   UNL     1      -9.307  -5.587  -5.263  1.00  0.00     0.004 C 
BRANCH   4   5
ATOM      5  C   UNL     1     -10.505  -4.923  -4.565  1.00  0.00     0.000 C 
BRANCH   5   6
ATOM      6  C   UNL     1     -10.157  -3.545  -3.974  1.00  0.00     0.000 C 
BRANCH   6   7
ATOM      7  C   UNL     1     -10.209  -3.529  -2.438  1.00  0.00     0.000 C 
BRANCH   7   8
ATOM      8  C   UNL     1      -8.819  -3.668  -1.797  1.00  0.00     0.006 C 
BRANCH   8   9
ATOM      9  C   UNL     1      -8.482  -2.439  -0.947  1.00  0.00     0.053 C 
BRANCH   9  10
ATOM     10  C   UNL     1      -7.876  -1.365  -1.793  1.00  0.00     0.041 C 
ATOM     11  O   UNL     1      -7.844  -0.175  -1.381  1.00  0.00    -0.550 OA
ATOM     12  O   UNL     1      -7.306  -1.684  -3.019  1.00  0.00    -0.550 OA
ENDBRANCH   9  10
ENDBRANCH   8   9
ENDBRANCH   7   8
ENDBRANCH   6   7
ENDBRANCH   5   6
ENDBRANCH   4   5
ENDBRANCH   3   4
ENDBRANCH   1   3
BRANCH   2  13
ATOM     13  C   UNL     1      -7.732  -6.054  -9.246  1.00  0.00     0.027 C 
BRANCH  13  14
ATOM     14  C   UNL     1      -6.603  -6.903  -8.641  1.00  0.00     0.004 C 
BRANCH  14  15
ATOM     15  C   UNL     1      -5.595  -6.047  -7.853  1.00  0.00     0.000 C 
BRANCH  15  16
ATOM     16  C   UNL     1      -5.102  -6.741  -6.574  1.00  0.00     0.000 C 
BRANCH  16  17
ATOM     17  C   UNL     1      -4.210  -5.834  -5.709  1.00  0.00    -0.000 C 
BRANCH  17  18
ATOM     18  C   UNL     1      -4.351  -4.345  -6.089  1.00  0.00    -0.000 C 
BRANCH  18  19
ATOM     19  C   UNL     1      -3.178  -3.474  -5.608  1.00  0.00    -0.003 C 
ATOM     20  C   UNL     1      -3.305  -2.012  -6.030  1.00  0.00     0.004 C 
ENDBRANCH  18  19
ENDBRANCH  17  18
ENDBRANCH  16  17
ENDBRANCH  15  16
ENDBRANCH  14  15
ENDBRANCH  13  14
ENDBRANCH   2  13
TORSDOF 15
ENDMDL
MODEL 4
REMARK VINA RESULT:    -4.598      2.969      5.849
REMARK INTER + INTRA:         -10.370
REMARK INTER:                  -8.534
REMARK INTRA:                  -1.836
REMARK UNBOUND:                -1.741
REMARK SMILES CCCCCCCCC=CCCCCCCCC(=O)[O-]
REMARK SMILES IDX 10 1 9 2 11 3 12 4 13 5 14 6 15 7 16 8 17 9 18 10 19 11
REMARK SMILES IDX 20 12 8 13 7 14 6 15 5 16 4 17 3 18 2 19 1 20
REMARK H PARENT
REMARK Flexibility Score: inf
ROOT
ATOM      1  C   UNL     1      -8.958  -5.396  -5.860  1.00  0.00    -0.031 C 
ATOM      2  C   UNL     1      -9.054  -4.248  -5.165  1.00  0.00    -0.031 C 
ENDROOT
BRANCH   1   3
ATOM      3  C   UNL     1      -9.970  -5.835  -6.891  1.00  0.00     0.027 C 
BRANCH   3   4
ATOM      4  C   UNL     1      -9.386  -5.750  -8.308  1.00  0.00     0.004 C 
BRANCH   4   5
ATOM      5  C   UNL     1      -8.709  -4.398  -8.589  1.00  0.00     0.000 C 
BRANCH   5   6
ATOM      6  C   UNL     1      -7.234  -4.550  -9.004  1.00  0.00     0.000 C 
BRANCH   6   7
ATOM      7  C   UNL     1      -6.888  -5.980  -9.448  1.00  0.00     0.000 C 
BRANCH   7   8
ATOM      8  C   UNL     1      -5.719  -6.581  -8.653  1.00  0.00     0.006 C 
BRANCH   8   9
ATOM      9  C   UNL     1      -5.640  -5.970  -7.250  1.00  0.00     0.053 C 
BRANCH   9  10
ATOM     10  C   UNL     1      -5.080  -6.959  -6.277  1.00  0.00     0.041 C 
ATOM     11  O   UNL     1      -5.739  -7.986  -5.968  1.00  0.00    -0.550 OA
ATOM     12  O   UNL     1      -3.811  -6.768  -5.744  1.00  0.00    -0.550 OA
ENDBRANCH   9  10
ENDBRANCH   8   9
ENDBRANCH   7   8
ENDBRANCH   6   7
ENDBRANCH   5   6
ENDBRANCH   4   5
ENDBRANCH   3   4
ENDBRANCH   1   3
BRANCH   2  13
ATOM     13  C   UNL     1     -10.151  -3.228  -5.352  1.00  0.00     0.027 C 
BRANCH  13  14
ATOM     14  C   UNL     1     -11.124  -3.202  -4.163  1.00  0.00     0.004 C 
BRANCH  14  15
ATOM     15  C   UNL     1     -10.765  -4.255  -3.100  1.00  0.00     0.000 C 
BRANCH  15  16
ATOM     16  C   UNL     1     -11.057  -3.774  -1.670  1.00  0.00     0.000 C 
BRANCH  16  17
ATOM     17  C   UNL     1      -9.996  -2.793  -1.142  1.00  0.00    -0.000 C 
BRANCH  17  18
ATOM     18  C   UNL     1      -8.574  -3.167  -1.610  1.00  0.00    -0.000 C 
BRANCH  18  19
ATOM     19  C   UNL     1      -7.679  -1.947  -1.886  1.00  0.00    -0.003 C 
ATOM     20  C   UNL     1      -8.070  -0.719  -1.067  1.00  0.00     0.004 C 
ENDBRANCH  18  19
ENDBRANCH  17  18
ENDBRANCH  16  17
ENDBRANCH  15  16
ENDBRANCH  14  15
ENDBRANCH  13  14
ENDBRANCH   2  13
TORSDOF 15
ENDMDL
MODEL 5
REMARK VINA RESULT:    -4.484      2.687      5.801
REMARK INTER + INTRA:         -10.157
REMARK INTER:                  -8.783
REMARK INTRA:                  -1.374
REMARK UNBOUND:                -1.741
REMARK SMILES CCCCCCCCC=CCCCCCCCC(=O)[O-]
REMARK SMILES IDX 10 1 9 2 11 3 12 4 13 5 14 6 15 7 16 8 17 9 18 10 19 11
REMARK SMILES IDX 20 12 8 13 7 14 6 15 5 16 4 17 3 18 2 19 1 20
REMARK H PARENT
REMARK Flexibility Score: inf
ROOT
ATOM      1  C   UNL     1     -10.580  -5.442  -4.777  1.00  0.00    -0.031 C 
ATOM      2  C   UNL     1     -11.052  -4.916  -3.633  1.00  0.00    -0.031 C 
ENDROOT
BRANCH   1   3
ATOM      3  C   UNL     1      -9.954  -4.619  -5.877  1.00  0.00     0.027 C 
BRANCH   3   4
ATOM      4  C   UNL     1     -10.124  -5.302  -7.242  1.00  0.00     0.004 C 
BRANCH   4   5
ATOM      5  C   UNL     1      -9.711  -4.394  -8.413  1.00  0.00     0.000 C 
BRANCH   5   6
ATOM      6  C   UNL     1      -8.193  -4.416  -8.670  1.00  0.00     0.000 C 
BRANCH   6   7
ATOM      7  C   UNL     1      -7.588  -5.821  -8.525  1.00  0.00     0.000 C 
BRANCH   7   8
ATOM      8  C   UNL     1      -6.203  -5.803  -7.860  1.00  0.00     0.006 C 
BRANCH   8   9
ATOM      9  C   UNL     1      -6.317  -5.486  -6.366  1.00  0.00     0.053 C 
BRANCH   9  10
ATOM     10  C   UNL     1      -6.282  -6.743  -5.557  1.00  0.00     0.041 C 
ATOM     11  O   UNL     1      -6.855  -6.792  -4.436  1.00  0.00    -0.550 OA
ATOM     12  O   UNL     1      -5.654  -7.876  -6.059  1.00  0.00    -0.550 OA
ENDBRANCH   9  10
ENDBRANCH   8   9
ENDBRANCH   7   8
ENDBRANCH   6   7
ENDBRANCH   5   6
ENDBRANCH   4   5
ENDBRANCH   3   4
ENDBRANCH   1   3
BRANCH   2  13
ATOM     13  C   UNL     1     -10.979  -3.452  -3.273  1.00  0.00     0.027 C 
BRANCH  13  14
ATOM     14  C   UNL     1     -11.027  -3.228  -1.753  1.00  0.00     0.004 C 
BRANCH  14  15
ATOM     15  C   UNL     1      -9.622  -3.045  -1.152  1.00  0.00     0.000 C 
BRANCH  15  16
ATOM     16  C   UNL     1      -8.516  -3.059  -2.219  1.00  0.00     0.000 C 
BRANCH  16  17
ATOM     17  C   UNL     1      -7.695  -1.758  -2.244  1.00  0.00    -0.000 C 
BRANCH  17  18
ATOM     18  C   UNL     1      -8.031  -0.834  -1.056  1.00  0.00    -0.000 C 
BRANCH  18  19
ATOM     19  C   UNL     1      -7.502   0.600  -1.224  1.00  0.00    -0.003 C 
ATOM     20  C   UNL     1      -8.508   1.664  -0.791  1.00  0.00     0.004 C 
ENDBRANCH  18  19
ENDBRANCH  17  18
ENDBRANCH  16  17
ENDBRANCH  15  16
ENDBRANCH  14  15
ENDBRANCH  13  14
ENDBRANCH   2  13
TORSDOF 15
ENDMDL
MODEL 6
REMARK VINA RESULT:    -4.480      2.529      5.838
REMARK INTER + INTRA:         -10.149
REMARK INTER:                  -8.409
REMARK INTRA:                  -1.739
REMARK UNBOUND:                -1.741
REMARK SMILES CCCCCCCCC=CCCCCCCCC(=O)[O-]
REMARK SMILES IDX 10 1 9 2 11 3 12 4 13 5 14 6 15 7 16 8 17 9 18 10 19 11
REMARK SMILES IDX 20 12 8 13 7 14 6 15 5 16 4 17 3 18 2 19 1 20
REMARK H PARENT
REMARK Flexibility Score: inf
ROOT
ATOM      1  C   UNL     1      -7.190  -4.838  -8.163  1.00  0.00    -0.031 C 
ATOM      2  C   UNL     1      -8.480  -4.682  -7.816  1.00  0.00    -0.031 C 
ENDROOT
BRANCH   1   3
ATOM      3  C   UNL     1      -6.657  -6.067  -8.860  1.00  0.00     0.027 C 
BRANCH   3   4
ATOM      4  C   UNL     1      -5.486  -6.680  -8.077  1.00  0.00     0.004 C 
BRANCH   4   5
ATOM      5  C   UNL     1      -5.871  -7.053  -6.635  1.00  0.00     0.000 C 
BRANCH   5   6
ATOM      6  C   UNL     1      -5.152  -6.183  -5.589  1.00  0.00     0.000 C 
BRANCH   6   7
ATOM      7  C   UNL     1      -3.624  -6.193  -5.757  1.00  0.00     0.000 C 
BRANCH   7   8
ATOM      8  C   UNL     1      -3.002  -4.797  -5.603  1.00  0.00     0.006 C 
BRANCH   8   9
ATOM      9  C   UNL     1      -3.987  -3.707  -6.037  1.00  0.00     0.053 C 
BRANCH   9  10
ATOM     10  C   UNL     1      -3.451  -2.351  -5.705  1.00  0.00     0.041 C 
ATOM     11  O   UNL     1      -2.973  -2.120  -4.563  1.00  0.00    -0.550 OA
ATOM     12  O   UNL     1      -3.437  -1.353  -6.671  1.00  0.00    -0.550 OA
ENDBRANCH   9  10
ENDBRANCH   8   9
ENDBRANCH   7   8
ENDBRANCH   6   7
ENDBRANCH   5   6
ENDBRANCH   4   5
ENDBRANCH   3   4
ENDBRANCH   1   3
BRANCH   2  13
ATOM     13  C   UNL     1      -9.570  -5.682  -8.113  1.00  0.00     0.027 C 
BRANCH  13  14
ATOM     14  C   UNL     1     -10.540  -5.847  -6.932  1.00  0.00     0.004 C 
BRANCH  14  15
ATOM     15  C   UNL     1      -9.803  -5.912  -5.583  1.00  0.00     0.000 C 
BRANCH  15  16
ATOM     16  C   UNL     1     -10.597  -5.257  -4.443  1.00  0.00     0.000 C 
BRANCH  16  17
ATOM     17  C   UNL     1     -10.268  -3.765  -4.267  1.00  0.00    -0.000 C 
BRANCH  17  18
ATOM     18  C   UNL     1      -8.906  -3.546  -3.577  1.00  0.00    -0.000 C 
BRANCH  18  19
ATOM     19  C   UNL     1      -8.990  -3.529  -2.041  1.00  0.00    -0.003 C 
ATOM     20  C   UNL     1     -10.366  -3.115  -1.522  1.00  0.00     0.004 C 
ENDBRANCH  18  19
ENDBRANCH  17  18
ENDBRANCH  16  17
ENDBRANCH  15  16
ENDBRANCH  14  15
ENDBRANCH  13  14
ENDBRANCH   2  13
TORSDOF 15
ENDMDL
MODEL 7
REMARK VINA RESULT:    -4.468      2.643      5.948
REMARK INTER + INTRA:         -10.126
REMARK INTER:                  -8.203
REMARK INTRA:                  -1.924
REMARK UNBOUND:                -1.741
REMARK SMILES CCCCCCCCC=CCCCCCCCC(=O)[O-]
REMARK SMILES IDX 10 1 9 2 11 3 12 4 13 5 14 6 15 7 16 8 17 9 18 10 19 11
REMARK SMILES IDX 20 12 8 13 7 14 6 15 5 16 4 17 3 18 2 19 1 20
REMARK H PARENT
REMARK Flexibility Score: inf
ROOT
ATOM      1  C   UNL     1      -8.766  -5.642  -5.698  1.00  0.00    -0.031 C 
ATOM      2  C   UNL     1      -9.211  -4.687  -4.861  1.00  0.00    -0.031 C 
ENDROOT
BRANCH   1   3
ATOM      3  C   UNL     1      -9.046  -5.647  -7.182  1.00  0.00     0.027 C 
BRANCH   3   4
ATOM      4  C   UNL     1      -7.900  -4.987  -7.962  1.00  0.00     0.004 C 
BRANCH   4   5
ATOM      5  C   UNL     1      -7.070  -6.003  -8.765  1.00  0.00     0.000 C 
BRANCH   5   6
ATOM      6  C   UNL     1      -5.608  -6.078  -8.291  1.00  0.00     0.000 C 
BRANCH   6   7
ATOM      7  C   UNL     1      -5.462  -6.761  -6.922  1.00  0.00     0.000 C 
BRANCH   7   8
ATOM      8  C   UNL     1      -5.136  -5.767  -5.796  1.00  0.00     0.006 C 
BRANCH   8   9
ATOM      9  C   UNL     1      -4.625  -4.441  -6.367  1.00  0.00     0.053 C 
BRANCH   9  10
ATOM     10  C   UNL     1      -3.369  -4.020  -5.673  1.00  0.00     0.041 C 
ATOM     11  O   UNL     1      -3.262  -2.854  -5.207  1.00  0.00    -0.550 OA
ATOM     12  O   UNL     1      -2.331  -4.927  -5.501  1.00  0.00    -0.550 OA
ENDBRANCH   9  10
ENDBRANCH   8   9
ENDBRANCH   7   8
ENDBRANCH   6   7
ENDBRANCH   5   6
ENDBRANCH   4   5
ENDBRANCH   3   4
ENDBRANCH   1   3
BRANCH   2  13
ATOM     13  C   UNL     1     -10.004  -3.477  -5.292  1.00  0.00     0.027 C 
BRANCH  13  14
ATOM     14  C   UNL     1     -11.125  -3.138  -4.297  1.00  0.00     0.004 C 
BRANCH  14  15
ATOM     15  C   UNL     1     -10.970  -3.900  -2.969  1.00  0.00     0.000 C 
BRANCH  15  16
ATOM     16  C   UNL     1     -11.124  -2.988  -1.742  1.00  0.00     0.000 C 
BRANCH  16  17
ATOM     17  C   UNL     1      -9.892  -3.017  -0.820  1.00  0.00    -0.000 C 
BRANCH  17  18
ATOM     18  C   UNL     1      -8.602  -3.381  -1.583  1.00  0.00    -0.000 C 
BRANCH  18  19
ATOM     19  C   UNL     1      -7.757  -2.158  -1.980  1.00  0.00    -0.003 C 
ATOM     20  C   UNL     1      -8.076  -0.916  -1.151  1.00  0.00     0.004 C 
ENDBRANCH  18  19
ENDBRANCH  17  18
ENDBRANCH  16  17
ENDBRANCH  15  16
ENDBRANCH  14  15
ENDBRANCH  13  14
ENDBRANCH   2  13
TORSDOF 15
ENDMDL
MODEL 8
REMARK VINA RESULT:    -4.303      2.487      5.587
REMARK INTER + INTRA:          -9.816
REMARK INTER:                  -8.209
REMARK INTRA:                  -1.607
REMARK UNBOUND:                -1.741
REMARK SMILES CCCCCCCCC=CCCCCCCCC(=O)[O-]
REMARK SMILES IDX 10 1 9 2 11 3 12 4 13 5 14 6 15 7 16 8 17 9 18 10 19 11
REMARK SMILES IDX 20 12 8 13 7 14 6 15 5 16 4 17 3 18 2 19 1 20
REMARK H PARENT
REMARK Flexibility Score: inf
ROOT
ATOM      1  C   UNL     1      -8.536  -4.360  -9.612  1.00  0.00    -0.031 C 
ATOM      2  C   UNL     1      -9.468  -4.283  -8.645  1.00  0.00    -0.031 C 
ENDROOT
BRANCH   1   3
ATOM      3  C   UNL     1      -7.889  -5.654 -10.045  1.00  0.00     0.027 C 
BRANCH   3   4
ATOM      4  C   UNL     1      -6.390  -5.660  -9.710  1.00  0.00     0.004 C 
BRANCH   4   5
ATOM      5  C   UNL     1      -6.014  -6.761  -8.705  1.00  0.00     0.000 C 
BRANCH   5   6
ATOM      6  C   UNL     1      -6.358  -6.379  -7.254  1.00  0.00     0.000 C 
BRANCH   6   7
ATOM      7  C   UNL     1      -5.385  -6.991  -6.233  1.00  0.00     0.000 C 
BRANCH   7   8
ATOM      8  C   UNL     1      -4.116  -6.147  -6.044  1.00  0.00     0.006 C 
BRANCH   8   9
ATOM      9  C   UNL     1      -4.444  -4.651  -6.064  1.00  0.00     0.053 C 
BRANCH   9  10
ATOM     10  C   UNL     1      -3.244  -3.845  -5.683  1.00  0.00     0.041 C 
ATOM     11  O   UNL     1      -3.315  -2.588  -5.629  1.00  0.00    -0.550 OA
ATOM     12  O   UNL     1      -2.056  -4.481  -5.345  1.00  0.00    -0.550 OA
ENDBRANCH   9  10
ENDBRANCH   8   9
ENDBRANCH   7   8
ENDBRANCH   6   7
ENDBRANCH   5   6
ENDBRANCH   4   5
ENDBRANCH   3   4
ENDBRANCH   1   3
BRANCH   2  13
ATOM     13  C   UNL     1     -10.024  -5.472  -7.899  1.00  0.00     0.027 C 
BRANCH  13  14
ATOM     14  C   UNL     1     -11.022  -5.054  -6.808  1.00  0.00     0.004 C 
BRANCH  14  15
ATOM     15  C   UNL     1     -10.656  -5.644  -5.434  1.00  0.00     0.000 C 
BRANCH  15  16
ATOM     16  C   UNL     1      -9.173  -5.448  -5.082  1.00  0.00     0.000 C 
BRANCH  16  17
ATOM     17  C   UNL     1      -8.900  -4.110  -4.374  1.00  0.00    -0.000 C 
BRANCH  17  18
ATOM     18  C   UNL     1      -9.914  -3.832  -3.245  1.00  0.00    -0.000 C 
BRANCH  18  19
ATOM     19  C   UNL     1      -9.255  -3.479  -1.900  1.00  0.00    -0.003 C 
ATOM     20  C   UNL     1     -10.239  -3.479  -0.733  1.00  0.00     0.004 C 
ENDBRANCH  18  19
ENDBRANCH  17  18
ENDBRANCH  16  17
ENDBRANCH  15  16
ENDBRANCH  14  15
ENDBRANCH  13  14
ENDBRANCH   2  13
TORSDOF 15
ENDMDL
MODEL 9
REMARK VINA RESULT:    -4.286      1.474      2.848
REMARK INTER + INTRA:          -9.785
REMARK INTER:                  -7.880
REMARK INTRA:                  -1.905
REMARK UNBOUND:                -1.741
REMARK SMILES CCCCCCCCC=CCCCCCCCC(=O)[O-]
REMARK SMILES IDX 10 1 9 2 11 3 12 4 13 5 14 6 15 7 16 8 17 9 18 10 19 11
REMARK SMILES IDX 20 12 8 13 7 14 6 15 5 16 4 17 3 18 2 19 1 20
REMARK H PARENT
REMARK Flexibility Score: inf
ROOT
ATOM      1  C   UNL     1     -10.370  -6.194  -8.423  1.00  0.00    -0.031 C 
ATOM      2  C   UNL     1      -9.454  -5.681  -9.264  1.00  0.00    -0.031 C 
ENDROOT
BRANCH   1   3
ATOM      3  C   UNL     1     -10.819  -5.504  -7.157  1.00  0.00     0.027 C 
BRANCH   3   4
ATOM      4  C   UNL     1      -9.798  -5.707  -6.027  1.00  0.00     0.004 C 
BRANCH   4   5
ATOM      5  C   UNL     1      -9.435  -4.393  -5.316  1.00  0.00     0.000 C 
BRANCH   5   6
ATOM      6  C   UNL     1     -10.652  -3.724  -4.653  1.00  0.00     0.000 C 
BRANCH   6   7
ATOM      7  C   UNL     1     -10.437  -3.455  -3.155  1.00  0.00     0.000 C 
BRANCH   7   8
ATOM      8  C   UNL     1      -9.049  -3.896  -2.667  1.00  0.00     0.006 C 
BRANCH   8   9
ATOM      9  C   UNL     1      -8.626  -3.102  -1.428  1.00  0.00     0.053 C 
BRANCH   9  10
ATOM     10  C   UNL     1      -8.022  -1.792  -1.823  1.00  0.00     0.041 C 
ATOM     11  O   UNL     1      -8.102  -0.799  -1.053  1.00  0.00    -0.550 OA
ATOM     12  O   UNL     1      -7.333  -1.678  -3.024  1.00  0.00    -0.550 OA
ENDBRANCH   9  10
ENDBRANCH   8   9
ENDBRANCH   7   8
ENDBRANCH   6   7
ENDBRANCH   5   6
ENDBRANCH   4   5
ENDBRANCH   3   4
ENDBRANCH   1   3
BRANCH   2  13
ATOM     13  C   UNL     1      -8.790  -4.337  -9.086  1.00  0.00     0.027 C 
BRANCH  13  14
ATOM     14  C   UNL     1      -7.322  -4.472  -8.651  1.00  0.00     0.004 C 
BRANCH  14  15
ATOM     15  C   UNL     1      -6.626  -5.666  -9.327  1.00  0.00     0.000 C 
BRANCH  15  16
ATOM     16  C   UNL     1      -6.065  -6.676  -8.314  1.00  0.00     0.000 C 
BRANCH  16  17
ATOM     17  C   UNL     1      -6.315  -6.258  -6.854  1.00  0.00    -0.000 C 
BRANCH  17  18
ATOM     18  C   UNL     1      -5.326  -6.929  -5.879  1.00  0.00    -0.000 C 
BRANCH  18  19
ATOM     19  C   UNL     1      -3.908  -6.337  -5.938  1.00  0.00    -0.003 C 
ATOM     20  C   UNL     1      -3.894  -4.810  -5.906  1.00  0.00     0.004 C 
ENDBRANCH  18  19
ENDBRANCH  17  18
ENDBRANCH  16  17
ENDBRANCH  15  16
ENDBRANCH  14  15
ENDBRANCH  13  14
ENDBRANCH   2  13
TORSDOF 15
ENDMDL
